# generated using pymatgen
data_Nd8Zn3Si12B
_symmetry_space_group_name_H-M   'P 1'
_cell_length_a   8.11545800
_cell_length_b   8.11545818
_cell_length_c   8.53101700
_cell_angle_alpha   90.00000000
_cell_angle_beta   90.00000000
_cell_angle_gamma   119.99999926
_symmetry_Int_Tables_number   1
_chemical_formula_structural   Nd8Zn3Si12B
_chemical_formula_sum   'Nd8 Zn3 Si12 B1'
_cell_volume   486.58366020
_cell_formula_units_Z   1
loop_
 _symmetry_equiv_pos_site_id
 _symmetry_equiv_pos_as_xyz
  1  'x, y, z'
loop_
 _atom_site_type_symbol
 _atom_site_label
 _atom_site_symmetry_multiplicity
 _atom_site_fract_x
 _atom_site_fract_y
 _atom_site_fract_z
 _atom_site_occupancy
  Nd  Nd0  1  0.000000  0.000000  0.752414  1
  Nd  Nd1  1  0.000000  0.000000  0.247368  1
  Nd  Nd2  1  0.496422  0.503578  0.754520  1
  Nd  Nd3  1  0.496422  0.992845  0.754520  1
  Nd  Nd4  1  0.007155  0.503578  0.754520  1
  Nd  Nd5  1  0.497579  0.502421  0.245346  1
  Nd  Nd6  1  0.004844  0.502421  0.245346  1
  Nd  Nd7  1  0.497579  0.995156  0.245346  1
  Zn  Zn8  1  0.666667  0.333333  0.997018  1
  Zn  Zn9  1  0.666667  0.333333  0.503347  1
  Zn  Zn10  1  0.333333  0.666667  0.497145  1
  Si  Si11  1  0.836753  0.163247  0.999696  1
  Si  Si12  1  0.836753  0.673506  0.999696  1
  Si  Si13  1  0.326494  0.163247  0.999696  1
  Si  Si14  1  0.834430  0.165570  0.500306  1
  Si  Si15  1  0.834430  0.668859  0.500306  1
  Si  Si16  1  0.331141  0.165570  0.500306  1
  Si  Si17  1  0.166779  0.833221  0.499678  1
  Si  Si18  1  0.666440  0.833221  0.499678  1
  Si  Si19  1  0.166779  0.333560  0.499678  1
  Si  Si20  1  0.181411  0.818589  0.000633  1
  Si  Si21  1  0.637179  0.818589  0.000633  1
  Si  Si22  1  0.181411  0.362821  0.000633  1
  B  B23  1  0.333333  0.666667  0.002166  1
