# generated using pymatgen
data_DyTm11GaCo5
_symmetry_space_group_name_H-M   'P 1'
_cell_length_a   8.13212442
_cell_length_b   8.13212427
_cell_length_c   8.12717179
_cell_angle_alpha   110.83828904
_cell_angle_beta   110.81076997
_cell_angle_gamma   106.82315794
_symmetry_Int_Tables_number   1
_chemical_formula_structural   DyTm11GaCo5
_chemical_formula_sum   'Dy1 Tm11 Ga1 Co5'
_cell_volume   412.94038761
_cell_formula_units_Z   1
loop_
 _symmetry_equiv_pos_site_id
 _symmetry_equiv_pos_as_xyz
  1  'x, y, z'
loop_
 _atom_site_type_symbol
 _atom_site_label
 _atom_site_symmetry_multiplicity
 _atom_site_fract_x
 _atom_site_fract_y
 _atom_site_fract_z
 _atom_site_occupancy
  Dy  Dy0  1  0.289326  0.186449  0.475775  1
  Tm  Tm1  1  0.711694  0.814255  0.525949  1
  Tm  Tm2  1  0.289162  0.812929  0.102090  1
  Tm  Tm3  1  0.712162  0.185596  0.897759  1
  Tm  Tm4  1  0.619350  0.316208  0.302776  1
  Tm  Tm5  1  0.380953  0.684883  0.697135  1
  Tm  Tm6  1  0.012252  0.316182  0.697135  1
  Tm  Tm7  1  0.986569  0.683427  0.302776  1
  Tm  Tm8  1  0.216602  0.408980  0.191273  1
  Tm  Tm9  1  0.785091  0.593739  0.809675  1
  Tm  Tm10  1  0.215936  0.024584  0.809675  1
  Tm  Tm11  1  0.782292  0.974671  0.191273  1
  Ga  Ga12  1  0.500092  0.500008  0.000100  1
  Co  Co13  1  0.998734  0.375553  0.374287  1
  Co  Co14  1  0.000247  0.624939  0.625186  1
  Co  Co15  1  0.386652  0.884445  0.499084  1
  Co  Co16  1  0.614638  0.112432  0.499084  1
  Co  Co17  1  0.998250  0.000722  0.998972  1
