# generated using pymatgen
data_La4InGe4Rh9
_symmetry_space_group_name_H-M   'P 1'
_cell_length_a   12.42652428
_cell_length_b   12.42652460
_cell_length_c   12.42652538
_cell_angle_alpha   26.54001301
_cell_angle_beta   26.54001207
_cell_angle_gamma   26.54001272
_symmetry_Int_Tables_number   1
_chemical_formula_structural   La4InGe4Rh9
_chemical_formula_sum   'La4 In1 Ge4 Rh9'
_cell_volume   337.70705221
_cell_formula_units_Z   1
loop_
 _symmetry_equiv_pos_site_id
 _symmetry_equiv_pos_as_xyz
  1  'x, y, z'
loop_
 _atom_site_type_symbol
 _atom_site_label
 _atom_site_symmetry_multiplicity
 _atom_site_fract_x
 _atom_site_fract_y
 _atom_site_fract_z
 _atom_site_occupancy
  La  La0  1  0.949579  0.949579  0.949579  1
  La  La1  1  0.854487  0.854487  0.854487  1
  La  La2  1  0.145513  0.145513  0.145513  1
  La  La3  1  0.050421  0.050421  0.050421  1
  In  In4  1  0.500000  0.500000  0.500000  1
  Ge  Ge5  1  0.279795  0.279795  0.279795  1
  Ge  Ge6  1  0.387509  0.387509  0.387509  1
  Ge  Ge7  1  0.720205  0.720205  0.720205  1
  Ge  Ge8  1  0.612491  0.612491  0.612491  1
  Rh  Rh9  1  0.608718  0.608718  0.100887  1
  Rh  Rh10  1  0.899113  0.391282  0.391282  1
  Rh  Rh11  1  0.500000  0.000000  0.500000  1
  Rh  Rh12  1  0.391282  0.899113  0.391282  1
  Rh  Rh13  1  0.500000  0.500000  0.000000  1
  Rh  Rh14  1  0.100887  0.608718  0.608718  1
  Rh  Rh15  1  0.000000  0.500000  0.500000  1
  Rh  Rh16  1  0.391282  0.391282  0.899113  1
  Rh  Rh17  1  0.608718  0.100887  0.608718  1
