# generated using pymatgen
data_ZrSn2Pd(SeO3)8
_symmetry_space_group_name_H-M   'P 1'
_cell_length_a   8.30714190
_cell_length_b   8.38655058
_cell_length_c   8.36157262
_cell_angle_alpha   90.45626978
_cell_angle_beta   90.16147536
_cell_angle_gamma   89.45630392
_symmetry_Int_Tables_number   1
_chemical_formula_structural   ZrSn2Pd(SeO3)8
_chemical_formula_sum   'Zr1 Sn2 Pd1 Se8 O24'
_cell_volume   582.48937398
_cell_formula_units_Z   1
loop_
 _symmetry_equiv_pos_site_id
 _symmetry_equiv_pos_as_xyz
  1  'x, y, z'
loop_
 _atom_site_type_symbol
 _atom_site_label
 _atom_site_symmetry_multiplicity
 _atom_site_fract_x
 _atom_site_fract_y
 _atom_site_fract_z
 _atom_site_occupancy
  Zr  Zr0  1  0.500000  0.000000  0.500000  1
  Sn  Sn1  1  0.000000  0.000000  0.000000  1
  Sn  Sn2  1  0.000000  0.500000  0.500000  1
  Pd  Pd3  1  0.500000  0.500000  0.000000  1
  Se  Se4  1  0.848357  0.178134  0.673759  1
  Se  Se5  1  0.151643  0.821866  0.326241  1
  Se  Se6  1  0.669718  0.648001  0.692745  1
  Se  Se7  1  0.183208  0.662954  0.837739  1
  Se  Se8  1  0.326215  0.188560  0.852431  1
  Se  Se9  1  0.816792  0.337046  0.162261  1
  Se  Se10  1  0.673785  0.811440  0.147569  1
  Se  Se11  1  0.330282  0.351999  0.307255  1
  O  O12  1  0.245337  0.480070  0.450336  1
  O  O13  1  0.950873  0.243147  0.032416  1
  O  O14  1  0.013224  0.743002  0.459838  1
  O  O15  1  0.472754  0.260026  0.987664  1
  O  O16  1  0.258532  0.939010  0.456804  1
  O  O17  1  0.522817  0.513935  0.759274  1
  O  O18  1  0.976123  0.033644  0.755462  1
  O  O19  1  0.527246  0.739974  0.012336  1
  O  O20  1  0.555238  0.936224  0.261925  1
  O  O21  1  0.444762  0.063776  0.738075  1
  O  O22  1  0.754750  0.950854  0.018241  1
  O  O23  1  0.258285  0.523708  0.975847  1
  O  O24  1  0.047523  0.537070  0.744015  1
  O  O25  1  0.023877  0.966356  0.244538  1
  O  O26  1  0.245250  0.049146  0.981759  1
  O  O27  1  0.477183  0.486065  0.240726  1
  O  O28  1  0.754663  0.519930  0.549664  1
  O  O29  1  0.952477  0.462930  0.255985  1
  O  O30  1  0.049127  0.756853  0.967584  1
  O  O31  1  0.449131  0.236253  0.428761  1
  O  O32  1  0.550869  0.763747  0.571239  1
  O  O33  1  0.986776  0.256998  0.540162  1
  O  O34  1  0.741468  0.060990  0.543196  1
  O  O35  1  0.741715  0.476292  0.024153  1
