# generated using pymatgen
data_Lu19Mg(Cd3Ni)2
_symmetry_space_group_name_H-M   'P 1'
_cell_length_a   9.41010200
_cell_length_b   9.41010253
_cell_length_c   9.37557300
_cell_angle_alpha   90.00000000
_cell_angle_beta   90.00000000
_cell_angle_gamma   119.99999813
_symmetry_Int_Tables_number   1
_chemical_formula_structural   Lu19Mg(Cd3Ni)2
_chemical_formula_sum   'Lu19 Mg1 Cd6 Ni2'
_cell_volume   718.98055688
_cell_formula_units_Z   1
loop_
 _symmetry_equiv_pos_site_id
 _symmetry_equiv_pos_as_xyz
  1  'x, y, z'
loop_
 _atom_site_type_symbol
 _atom_site_label
 _atom_site_symmetry_multiplicity
 _atom_site_fract_x
 _atom_site_fract_y
 _atom_site_fract_z
 _atom_site_occupancy
  Lu  Lu0  1  0.000000  0.000000  0.000000  1
  Lu  Lu1  1  0.542876  0.457124  0.253215  1
  Lu  Lu2  1  0.542876  0.085751  0.253215  1
  Lu  Lu3  1  0.914249  0.457124  0.253215  1
  Lu  Lu4  1  0.457124  0.542876  0.746785  1
  Lu  Lu5  1  0.457124  0.914249  0.746785  1
  Lu  Lu6  1  0.085751  0.542876  0.746785  1
  Lu  Lu7  1  0.208586  0.791414  0.434369  1
  Lu  Lu8  1  0.208586  0.417173  0.434369  1
  Lu  Lu9  1  0.582827  0.791414  0.434369  1
  Lu  Lu10  1  0.791414  0.208586  0.565631  1
  Lu  Lu11  1  0.791414  0.582827  0.565631  1
  Lu  Lu12  1  0.417173  0.208586  0.565631  1
  Lu  Lu13  1  0.788662  0.211338  0.941118  1
  Lu  Lu14  1  0.788662  0.577324  0.941118  1
  Lu  Lu15  1  0.422676  0.211338  0.941118  1
  Lu  Lu16  1  0.211338  0.788662  0.058882  1
  Lu  Lu17  1  0.211338  0.422676  0.058882  1
  Lu  Lu18  1  0.577324  0.788662  0.058882  1
  Mg  Mg19  1  0.000000  0.000000  0.500000  1
  Cd  Cd20  1  0.885449  0.114551  0.255821  1
  Cd  Cd21  1  0.885449  0.770898  0.255821  1
  Cd  Cd22  1  0.229102  0.114551  0.255821  1
  Cd  Cd23  1  0.114551  0.885449  0.744179  1
  Cd  Cd24  1  0.114551  0.229102  0.744179  1
  Cd  Cd25  1  0.770898  0.885449  0.744179  1
  Ni  Ni26  1  0.333333  0.666667  0.249868  1
  Ni  Ni27  1  0.666667  0.333333  0.750132  1
