# generated using pymatgen
data_Si(S4I)4
_symmetry_space_group_name_H-M   'P 1'
_cell_length_a   12.06983684
_cell_length_b   12.71123956
_cell_length_c   13.04144517
_cell_angle_alpha   102.69139147
_cell_angle_beta   62.43534388
_cell_angle_gamma   118.34439344
_symmetry_Int_Tables_number   1
_chemical_formula_structural   Si(S4I)4
_chemical_formula_sum   'Si2 S32 I8'
_cell_volume   1561.08054115
_cell_formula_units_Z   2
loop_
 _symmetry_equiv_pos_site_id
 _symmetry_equiv_pos_as_xyz
  1  'x, y, z'
loop_
 _atom_site_type_symbol
 _atom_site_label
 _atom_site_symmetry_multiplicity
 _atom_site_fract_x
 _atom_site_fract_y
 _atom_site_fract_z
 _atom_site_occupancy
  Si  Si0  1  0.001905  0.000000  0.000000  1
  Si  Si1  1  0.251904  0.500000  0.500001  1
  S  S2  1  0.470452  0.217155  0.006626  1
  S  S3  1  0.390531  0.329637  0.008562  1
  S  S4  1  0.656077  0.316522  0.020911  1
  S  S5  1  0.328153  0.653070  0.141990  1
  S  S6  1  0.918892  0.637854  0.159212  1
  S  S7  1  0.544046  0.007553  0.193077  1
  S  S8  1  0.165873  0.487298  0.199872  1
  S  S9  1  0.874998  0.476397  0.214055  1
  S  S10  1  0.339054  0.976397  0.285945  1
  S  S11  1  0.615745  0.987298  0.300128  1
  S  S12  1  0.987125  0.507554  0.306923  1
  S  S13  1  0.328103  0.137853  0.340788  1
  S  S14  1  0.720145  0.153071  0.358010  1
  S  S15  1  0.926989  0.816523  0.479089  1
  S  S16  1  0.649092  0.829636  0.491439  1
  S  S17  1  0.727078  0.717155  0.493374  1
  S  S18  1  0.503299  0.282845  0.506626  1
  S  S19  1  0.310894  0.170363  0.508561  1
  S  S20  1  0.589556  0.183477  0.520911  1
  S  S21  1  0.925084  0.846930  0.641990  1
  S  S22  1  0.531038  0.862146  0.659211  1
  S  S23  1  0.786494  0.492447  0.693077  1
  S  S24  1  0.928576  0.012702  0.699871  1
  S  S25  1  0.648600  0.023602  0.714056  1
  S  S26  1  0.612657  0.523603  0.785945  1
  S  S27  1  0.878447  0.512702  0.800128  1
  S  S28  1  0.729570  0.992447  0.806923  1
  S  S29  1  0.440250  0.362147  0.840788  1
  S  S30  1  0.817074  0.346929  0.858010  1
  S  S31  1  0.360466  0.683477  0.979089  1
  S  S32  1  0.069456  0.670363  0.991439  1
  S  S33  1  0.259922  0.782845  0.993374  1
  I  I34  1  0.795103  0.819117  0.002023  1
  I  I35  1  0.032812  0.003395  0.174488  1
  I  I36  1  0.457298  0.503395  0.325513  1
  I  I37  1  0.047125  0.319117  0.497978  1
  I  I38  1  0.225985  0.680883  0.502023  1
  I  I39  1  0.279417  0.496605  0.674487  1
  I  I40  1  0.203905  0.996605  0.825513  1
  I  I41  1  0.978009  0.180883  0.997977  1
