# generated using pymatgen
data_Er4Al4PtRh3
_symmetry_space_group_name_H-M   'P 1'
_cell_length_a   4.25474400
_cell_length_b   6.82964802
_cell_length_c   7.89173502
_cell_angle_alpha   89.99130775
_cell_angle_beta   90.00000000
_cell_angle_gamma   90.00000000
_symmetry_Int_Tables_number   1
_chemical_formula_structural   Er4Al4PtRh3
_chemical_formula_sum   'Er4 Al4 Pt1 Rh3'
_cell_volume   229.32122140
_cell_formula_units_Z   1
loop_
 _symmetry_equiv_pos_site_id
 _symmetry_equiv_pos_as_xyz
  1  'x, y, z'
loop_
 _atom_site_type_symbol
 _atom_site_label
 _atom_site_symmetry_multiplicity
 _atom_site_fract_x
 _atom_site_fract_y
 _atom_site_fract_z
 _atom_site_occupancy
  Er  Er0  1  0.250000  0.467123  0.181179  1
  Er  Er1  1  0.750000  0.536909  0.820398  1
  Er  Er2  1  0.750000  0.032587  0.676860  1
  Er  Er3  1  0.250000  0.965793  0.321549  1
  Al  Al4  1  0.250000  0.859925  0.939402  1
  Al  Al5  1  0.750000  0.135729  0.062971  1
  Al  Al6  1  0.750000  0.637129  0.439433  1
  Al  Al7  1  0.250000  0.364463  0.560587  1
  Pt  Pt8  1  0.250000  0.233780  0.877695  1
  Rh  Rh9  1  0.250000  0.737682  0.619994  1
  Rh  Rh10  1  0.750000  0.265209  0.380165  1
  Rh  Rh11  1  0.750000  0.763670  0.119769  1
