# generated using pymatgen
data_CaTm6NiBr12
_symmetry_space_group_name_H-M   'P 1'
_cell_length_a   9.08083126
_cell_length_b   9.08083204
_cell_length_c   9.08083104
_cell_angle_alpha   106.45203677
_cell_angle_beta   106.45203558
_cell_angle_gamma   106.45203948
_symmetry_Int_Tables_number   1
_chemical_formula_structural   CaTm6NiBr12
_chemical_formula_sum   'Ca1 Tm6 Ni1 Br12'
_cell_volume   632.71403581
_cell_formula_units_Z   1
loop_
 _symmetry_equiv_pos_site_id
 _symmetry_equiv_pos_as_xyz
  1  'x, y, z'
loop_
 _atom_site_type_symbol
 _atom_site_label
 _atom_site_symmetry_multiplicity
 _atom_site_fract_x
 _atom_site_fract_y
 _atom_site_fract_z
 _atom_site_occupancy
  Ca  Ca0  1  0.500000  0.500000  0.500000  1
  Tm  Tm1  1  0.098033  0.022926  0.303631  1
  Tm  Tm2  1  0.022926  0.303631  0.098033  1
  Tm  Tm3  1  0.303631  0.098033  0.022926  1
  Tm  Tm4  1  0.901966  0.977074  0.696369  1
  Tm  Tm5  1  0.977074  0.696369  0.901966  1
  Tm  Tm6  1  0.696369  0.901966  0.977074  1
  Ni  Ni7  1  0.000000  0.000000  0.000000  1
  Br  Br8  1  0.074206  0.675749  0.220433  1
  Br  Br9  1  0.675749  0.220433  0.074206  1
  Br  Br10  1  0.220433  0.074206  0.675749  1
  Br  Br11  1  0.925794  0.324251  0.779567  1
  Br  Br12  1  0.324251  0.779567  0.925794  1
  Br  Br13  1  0.779567  0.925794  0.324251  1
  Br  Br14  1  0.451397  0.149416  0.374868  1
  Br  Br15  1  0.149416  0.374868  0.451397  1
  Br  Br16  1  0.374868  0.451397  0.149416  1
  Br  Br17  1  0.548603  0.850584  0.625132  1
  Br  Br18  1  0.850584  0.625132  0.548603  1
  Br  Br19  1  0.625132  0.548603  0.850584  1
