# generated using pymatgen
data_Yb8Re5Si16Tc7
_symmetry_space_group_name_H-M   'P 1'
_cell_length_a   6.75635017
_cell_length_b   6.75194479
_cell_length_c   12.62449744
_cell_angle_alpha   89.94613969
_cell_angle_beta   90.09113895
_cell_angle_gamma   89.98583759
_symmetry_Int_Tables_number   1
_chemical_formula_structural   Yb8Re5Si16Tc7
_chemical_formula_sum   'Yb8 Re5 Si16 Tc7'
_cell_volume   575.90967754
_cell_formula_units_Z   1
loop_
 _symmetry_equiv_pos_site_id
 _symmetry_equiv_pos_as_xyz
  1  'x, y, z'
loop_
 _atom_site_type_symbol
 _atom_site_label
 _atom_site_symmetry_multiplicity
 _atom_site_fract_x
 _atom_site_fract_y
 _atom_site_fract_z
 _atom_site_occupancy
  Yb  Yb0  1  0.997275  0.668533  0.028313  1
  Yb  Yb1  1  0.002857  0.332028  0.527987  1
  Yb  Yb2  1  0.332423  0.002608  0.471731  1
  Yb  Yb3  1  0.168399  0.503720  0.778038  1
  Yb  Yb4  1  0.831846  0.496989  0.278172  1
  Yb  Yb5  1  0.502905  0.167889  0.221981  1
  Yb  Yb6  1  0.497669  0.831611  0.721551  1
  Yb  Yb7  1  0.668166  0.997031  0.972001  1
  Re  Re8  1  0.665940  0.665272  0.499982  1
  Re  Re9  1  0.165610  0.834096  0.250286  1
  Re  Re10  1  0.334281  0.333146  0.998733  1
  Re  Re11  1  0.173321  0.994222  0.872315  1
  Re  Re12  1  0.835793  0.165542  0.750917  1
  Si  Si13  1  0.023683  0.715423  0.434114  1
  Si  Si14  1  0.622084  0.303668  0.438431  1
  Si  Si15  1  0.378275  0.697582  0.937841  1
  Si  Si16  1  0.197369  0.121669  0.687524  1
  Si  Si17  1  0.303627  0.621519  0.561572  1
  Si  Si18  1  0.695748  0.378317  0.061741  1
  Si  Si19  1  0.803383  0.877850  0.188519  1
  Si  Si20  1  0.122248  0.196419  0.311598  1
  Si  Si21  1  0.974538  0.286714  0.934904  1
  Si  Si22  1  0.716308  0.024119  0.566002  1
  Si  Si23  1  0.215319  0.475908  0.184074  1
  Si  Si24  1  0.784927  0.523672  0.683570  1
  Si  Si25  1  0.476493  0.214828  0.815283  1
  Si  Si26  1  0.523912  0.784018  0.316036  1
  Si  Si27  1  0.284028  0.975744  0.066845  1
  Si  Si28  1  0.877595  0.802230  0.812055  1
  Tc  Tc29  1  0.009070  0.825537  0.628100  1
  Tc  Tc30  1  0.990279  0.174510  0.128149  1
  Tc  Tc31  1  0.825958  0.008950  0.372209  1
  Tc  Tc32  1  0.325231  0.491188  0.377960  1
  Tc  Tc33  1  0.674191  0.507850  0.877433  1
  Tc  Tc34  1  0.491331  0.325445  0.622214  1
  Tc  Tc35  1  0.507919  0.674152  0.121819  1
