# generated using pymatgen
data_HoEr(Fe5P3)2
_symmetry_space_group_name_H-M   'P 1'
_cell_length_a   3.64476900
_cell_length_b   10.27430900
_cell_length_c   11.79778900
_cell_angle_alpha   90.00000000
_cell_angle_beta   90.00000000
_cell_angle_gamma   90.00000000
_symmetry_Int_Tables_number   1
_chemical_formula_structural   HoEr(Fe5P3)2
_chemical_formula_sum   'Ho2 Er2 Fe20 P12'
_cell_volume   441.79750230
_cell_formula_units_Z   2
loop_
 _symmetry_equiv_pos_site_id
 _symmetry_equiv_pos_as_xyz
  1  'x, y, z'
loop_
 _atom_site_type_symbol
 _atom_site_label
 _atom_site_symmetry_multiplicity
 _atom_site_fract_x
 _atom_site_fract_y
 _atom_site_fract_z
 _atom_site_occupancy
  Ho  Ho0  1  0.750000  0.419140  0.295309  1
  Ho  Ho1  1  0.750000  0.080860  0.795309  1
  Er  Er2  1  0.250000  0.580998  0.704697  1
  Er  Er3  1  0.250000  0.919002  0.204697  1
  Fe  Fe4  1  0.250000  0.708118  0.988295  1
  Fe  Fe5  1  0.250000  0.791882  0.488295  1
  Fe  Fe6  1  0.750000  0.291942  0.011729  1
  Fe  Fe7  1  0.750000  0.208058  0.511729  1
  Fe  Fe8  1  0.250000  0.405477  0.490425  1
  Fe  Fe9  1  0.250000  0.094523  0.990425  1
  Fe  Fe10  1  0.750000  0.594696  0.509935  1
  Fe  Fe11  1  0.750000  0.905304  0.009935  1
  Fe  Fe12  1  0.250000  0.218956  0.176778  1
  Fe  Fe13  1  0.250000  0.281044  0.676778  1
  Fe  Fe14  1  0.750000  0.780659  0.823201  1
  Fe  Fe15  1  0.750000  0.719341  0.323201  1
  Fe  Fe16  1  0.250000  0.875914  0.701089  1
  Fe  Fe17  1  0.250000  0.624086  0.201089  1
  Fe  Fe18  1  0.750000  0.123621  0.298766  1
  Fe  Fe19  1  0.750000  0.376379  0.798766  1
  Fe  Fe20  1  0.250000  0.463382  0.932313  1
  Fe  Fe21  1  0.250000  0.036618  0.432313  1
  Fe  Fe22  1  0.750000  0.536946  0.067499  1
  Fe  Fe23  1  0.750000  0.963054  0.567499  1
  P  P24  1  0.250000  0.421631  0.112661  1
  P  P25  1  0.250000  0.078369  0.612661  1
  P  P26  1  0.750000  0.578506  0.886983  1
  P  P27  1  0.750000  0.921494  0.386983  1
  P  P28  1  0.250000  0.265989  0.871828  1
  P  P29  1  0.250000  0.234011  0.371828  1
  P  P30  1  0.750000  0.734306  0.128367  1
  P  P31  1  0.750000  0.765694  0.628367  1
  P  P32  1  0.250000  0.600684  0.396045  1
  P  P33  1  0.250000  0.899316  0.896045  1
  P  P34  1  0.750000  0.399717  0.604081  1
  P  P35  1  0.750000  0.100283  0.104081  1
