# generated using pymatgen
data_EuAl4Cu9
_symmetry_space_group_name_H-M   'P 1'
_cell_length_a   8.29849832
_cell_length_b   8.29849945
_cell_length_c   8.29849855
_cell_angle_alpha   119.46427582
_cell_angle_beta   119.46428139
_cell_angle_gamma   90.93043082
_symmetry_Int_Tables_number   1
_chemical_formula_structural   EuAl4Cu9
_chemical_formula_sum   'Eu2 Al8 Cu18'
_cell_volume   407.30910181
_cell_formula_units_Z   2
loop_
 _symmetry_equiv_pos_site_id
 _symmetry_equiv_pos_as_xyz
  1  'x, y, z'
loop_
 _atom_site_type_symbol
 _atom_site_label
 _atom_site_symmetry_multiplicity
 _atom_site_fract_x
 _atom_site_fract_y
 _atom_site_fract_z
 _atom_site_occupancy
  Eu  Eu0  1  0.750000  0.750000  0.000000  1
  Eu  Eu1  1  0.250000  0.250000  0.000000  1
  Al  Al2  1  0.697244  0.561723  0.500000  1
  Al  Al3  1  0.938277  0.802756  0.500000  1
  Al  Al4  1  0.197244  0.697244  0.135521  1
  Al  Al5  1  0.561723  0.061723  0.864479  1
  Al  Al6  1  0.438277  0.938277  0.135521  1
  Al  Al7  1  0.802756  0.302756  0.864479  1
  Al  Al8  1  0.302756  0.438277  0.500000  1
  Al  Al9  1  0.061723  0.197244  0.500000  1
  Cu  Cu10  1  0.436608  0.706352  0.500000  1
  Cu  Cu11  1  0.058486  0.797070  0.855555  1
  Cu  Cu12  1  0.941514  0.202930  0.144445  1
  Cu  Cu13  1  0.293648  0.793648  0.730254  1
  Cu  Cu14  1  0.563392  0.293648  0.500000  1
  Cu  Cu15  1  0.797070  0.941514  0.738583  1
  Cu  Cu16  1  0.441514  0.297070  0.738583  1
  Cu  Cu17  1  0.206352  0.936608  0.500000  1
  Cu  Cu18  1  0.297070  0.558486  0.855555  1
  Cu  Cu19  1  0.706352  0.206352  0.269746  1
  Cu  Cu20  1  0.000000  0.500000  0.500000  1
  Cu  Cu21  1  0.202930  0.058486  0.261417  1
  Cu  Cu22  1  0.936608  0.436608  0.730254  1
  Cu  Cu23  1  0.702930  0.441514  0.144445  1
  Cu  Cu24  1  0.063392  0.563392  0.269746  1
  Cu  Cu25  1  0.558486  0.702930  0.261417  1
  Cu  Cu26  1  0.500000  0.000000  0.500000  1
  Cu  Cu27  1  0.793648  0.063392  0.500000  1
