# generated using pymatgen
data_Ho15Er5(CoBi2)4
_symmetry_space_group_name_H-M   'P 1'
_cell_length_a   7.93844007
_cell_length_b   8.85738131
_cell_length_c   12.33408145
_cell_angle_alpha   89.97107462
_cell_angle_beta   90.01102013
_cell_angle_gamma   90.00983995
_symmetry_Int_Tables_number   1
_chemical_formula_structural   Ho15Er5(CoBi2)4
_chemical_formula_sum   'Ho15 Er5 Co4 Bi8'
_cell_volume   867.25588233
_cell_formula_units_Z   1
loop_
 _symmetry_equiv_pos_site_id
 _symmetry_equiv_pos_as_xyz
  1  'x, y, z'
loop_
 _atom_site_type_symbol
 _atom_site_label
 _atom_site_symmetry_multiplicity
 _atom_site_fract_x
 _atom_site_fract_y
 _atom_site_fract_z
 _atom_site_occupancy
  Ho  Ho0  1  0.345939  0.749923  0.699779  1
  Ho  Ho1  1  0.653957  0.250079  0.300181  1
  Ho  Ho2  1  0.845903  0.250128  0.800161  1
  Ho  Ho3  1  0.154105  0.749916  0.199870  1
  Ho  Ho4  1  0.885417  0.749798  0.810981  1
  Ho  Ho5  1  0.114595  0.250225  0.189038  1
  Ho  Ho6  1  0.385334  0.250077  0.688944  1
  Ho  Ho7  1  0.614403  0.749892  0.311053  1
  Ho  Ho8  1  0.675408  0.961657  0.562904  1
  Ho  Ho9  1  0.824395  0.961603  0.062973  1
  Ho  Ho10  1  0.175579  0.038407  0.937018  1
  Ho  Ho11  1  0.053308  0.749920  0.498062  1
  Ho  Ho12  1  0.947009  0.250101  0.501918  1
  Ho  Ho13  1  0.553066  0.250195  0.001904  1
  Ho  Ho14  1  0.446903  0.749813  0.998104  1
  Er  Er15  1  0.674701  0.538392  0.562878  1
  Er  Er16  1  0.325420  0.461499  0.437114  1
  Er  Er17  1  0.174639  0.461339  0.937018  1
  Er  Er18  1  0.325182  0.038517  0.437105  1
  Er  Er19  1  0.825214  0.538305  0.062956  1
  Co  Co20  1  0.066950  0.749604  0.991657  1
  Co  Co21  1  0.933039  0.250412  0.008362  1
  Co  Co22  1  0.566624  0.250194  0.508249  1
  Co  Co23  1  0.432872  0.749801  0.491637  1
  Bi  Bi24  1  0.571451  0.510056  0.826488  1
  Bi  Bi25  1  0.428525  0.489980  0.173493  1
  Bi  Bi26  1  0.071427  0.489962  0.673498  1
  Bi  Bi27  1  0.428270  0.010100  0.173586  1
  Bi  Bi28  1  0.928544  0.510054  0.326506  1
  Bi  Bi29  1  0.571666  0.989957  0.826503  1
  Bi  Bi30  1  0.928557  0.989983  0.326570  1
  Bi  Bi31  1  0.071597  0.010110  0.673494  1
