# generated using pymatgen
data_Er2Hf2NbSi4
_symmetry_space_group_name_H-M   'P 1'
_cell_length_a   7.19767100
_cell_length_b   7.19767100
_cell_length_c   13.16125500
_cell_angle_alpha   90.00000000
_cell_angle_beta   90.00000000
_cell_angle_gamma   90.00000000
_symmetry_Int_Tables_number   1
_chemical_formula_structural   Er2Hf2NbSi4
_chemical_formula_sum   'Er8 Hf8 Nb4 Si16'
_cell_volume   681.83813368
_cell_formula_units_Z   4
loop_
 _symmetry_equiv_pos_site_id
 _symmetry_equiv_pos_as_xyz
  1  'x, y, z'
loop_
 _atom_site_type_symbol
 _atom_site_label
 _atom_site_symmetry_multiplicity
 _atom_site_fract_x
 _atom_site_fract_y
 _atom_site_fract_z
 _atom_site_occupancy
  Er  Er0  1  0.498051  0.154408  0.534319  1
  Er  Er1  1  0.501949  0.845592  0.034319  1
  Er  Er2  1  0.654408  0.001949  0.284319  1
  Er  Er3  1  0.345592  0.998051  0.784319  1
  Er  Er4  1  0.845592  0.501949  0.965681  1
  Er  Er5  1  0.154408  0.498051  0.465681  1
  Er  Er6  1  0.001949  0.654408  0.715681  1
  Er  Er7  1  0.998051  0.345592  0.215681  1
  Hf  Hf8  1  0.493723  0.354056  0.125763  1
  Hf  Hf9  1  0.506277  0.645944  0.625763  1
  Hf  Hf10  1  0.854056  0.006277  0.875763  1
  Hf  Hf11  1  0.145944  0.993723  0.375763  1
  Hf  Hf12  1  0.645944  0.506277  0.374237  1
  Hf  Hf13  1  0.354056  0.493723  0.874237  1
  Hf  Hf14  1  0.006277  0.854056  0.124237  1
  Hf  Hf15  1  0.993723  0.145944  0.624237  1
  Nb  Nb16  1  0.676446  0.323554  0.750000  1
  Nb  Nb17  1  0.323554  0.676446  0.250000  1
  Nb  Nb18  1  0.823554  0.823554  0.500000  1
  Nb  Nb19  1  0.176446  0.176446  0.000000  1
  Si  Si20  1  0.795105  0.140368  0.068082  1
  Si  Si21  1  0.204895  0.859632  0.568082  1
  Si  Si22  1  0.640368  0.704895  0.818082  1
  Si  Si23  1  0.359632  0.295105  0.318082  1
  Si  Si24  1  0.859632  0.204895  0.431918  1
  Si  Si25  1  0.140368  0.795105  0.931918  1
  Si  Si26  1  0.704895  0.640368  0.181918  1
  Si  Si27  1  0.295105  0.359632  0.681918  1
  Si  Si28  1  0.549998  0.203527  0.935154  1
  Si  Si29  1  0.450002  0.796473  0.435154  1
  Si  Si30  1  0.703527  0.950002  0.685154  1
  Si  Si31  1  0.296473  0.049998  0.185154  1
  Si  Si32  1  0.796473  0.450002  0.564846  1
  Si  Si33  1  0.203527  0.549998  0.064846  1
  Si  Si34  1  0.950002  0.703527  0.314846  1
  Si  Si35  1  0.049998  0.296473  0.814846  1
