# generated using pymatgen
data_Ho12ZnNi4Sb
_symmetry_space_group_name_H-M   'P 1'
_cell_length_a   8.31549894
_cell_length_b   8.31543808
_cell_length_c   8.31549845
_cell_angle_alpha   112.70447419
_cell_angle_beta   109.60810498
_cell_angle_gamma   106.16724284
_symmetry_Int_Tables_number   1
_chemical_formula_structural   Ho12ZnNi4Sb
_chemical_formula_sum   'Ho12 Zn1 Ni4 Sb1'
_cell_volume   441.18836347
_cell_formula_units_Z   1
loop_
 _symmetry_equiv_pos_site_id
 _symmetry_equiv_pos_as_xyz
  1  'x, y, z'
loop_
 _atom_site_type_symbol
 _atom_site_label
 _atom_site_symmetry_multiplicity
 _atom_site_fract_x
 _atom_site_fract_y
 _atom_site_fract_z
 _atom_site_occupancy
  Ho  Ho0  1  0.424992  0.226877  0.198116  1
  Ho  Ho1  1  0.575008  0.773123  0.801884  1
  Ho  Ho2  1  0.028761  0.226877  0.801885  1
  Ho  Ho3  1  0.971239  0.773123  0.198115  1
  Ho  Ho4  1  0.179521  0.288144  0.467666  1
  Ho  Ho5  1  0.820479  0.711856  0.532334  1
  Ho  Ho6  1  0.179522  0.711856  0.891378  1
  Ho  Ho7  1  0.820478  0.288144  0.108622  1
  Ho  Ho8  1  0.322792  0.632167  0.309375  1
  Ho  Ho9  1  0.677208  0.367833  0.690625  1
  Ho  Ho10  1  0.322792  0.013417  0.690625  1
  Ho  Ho11  1  0.677208  0.986583  0.309375  1
  Zn  Zn12  1  0.000000  0.000000  0.000000  1
  Ni  Ni13  1  0.350059  0.000000  0.350059  1
  Ni  Ni14  1  0.649941  0.000000  0.649941  1
  Ni  Ni15  1  0.123634  0.623650  0.500016  1
  Ni  Ni16  1  0.876366  0.376350  0.499984  1
  Sb  Sb17  1  0.500000  0.500000  0.000000  1
