# generated using pymatgen
data_Ta6Ti3Nb(Ge3B)2
_symmetry_space_group_name_H-M   'P 1'
_cell_length_a   7.74027500
_cell_length_b   7.74027407
_cell_length_c   5.27226200
_cell_angle_alpha   90.00000000
_cell_angle_beta   90.00000000
_cell_angle_gamma   119.99999969
_symmetry_Int_Tables_number   1
_chemical_formula_structural   Ta6Ti3Nb(Ge3B)2
_chemical_formula_sum   'Ta6 Ti3 Nb1 Ge6 B2'
_cell_volume   273.55228481
_cell_formula_units_Z   1
loop_
 _symmetry_equiv_pos_site_id
 _symmetry_equiv_pos_as_xyz
  1  'x, y, z'
loop_
 _atom_site_type_symbol
 _atom_site_label
 _atom_site_symmetry_multiplicity
 _atom_site_fract_x
 _atom_site_fract_y
 _atom_site_fract_z
 _atom_site_occupancy
  Ta  Ta0  1  0.756846  0.757519  0.249549  1
  Ta  Ta1  1  0.242481  0.999327  0.249549  1
  Ta  Ta2  1  0.000673  0.243154  0.249549  1
  Ta  Ta3  1  0.242481  0.243154  0.750451  1
  Ta  Ta4  1  0.756846  0.999327  0.750451  1
  Ta  Ta5  1  0.000673  0.757519  0.750451  1
  Ti  Ti6  1  0.333333  0.666667  0.500000  1
  Ti  Ti7  1  0.333333  0.666667  0.000000  1
  Ti  Ti8  1  0.666667  0.333333  0.000000  1
  Nb  Nb9  1  0.666667  0.333333  0.500000  1
  Ge  Ge10  1  0.402496  0.405448  0.247921  1
  Ge  Ge11  1  0.594552  0.997049  0.247921  1
  Ge  Ge12  1  0.002951  0.597504  0.247921  1
  Ge  Ge13  1  0.594552  0.597504  0.752079  1
  Ge  Ge14  1  0.402496  0.997049  0.752079  1
  Ge  Ge15  1  0.002951  0.405448  0.752079  1
  B  B16  1  0.000000  0.000000  0.500000  1
  B  B17  1  0.000000  0.000000  0.000000  1
