# generated using pymatgen
data_Li3DyEr2Si2Au
_symmetry_space_group_name_H-M   'P 1'
_cell_length_a   7.10789201
_cell_length_b   7.08340188
_cell_length_c   4.15211800
_cell_angle_alpha   90.00000000
_cell_angle_beta   90.00000000
_cell_angle_gamma   119.88607436
_symmetry_Int_Tables_number   1
_chemical_formula_structural   Li3DyEr2Si2Au
_chemical_formula_sum   'Li3 Dy1 Er2 Si2 Au1'
_cell_volume   181.25101392
_cell_formula_units_Z   1
loop_
 _symmetry_equiv_pos_site_id
 _symmetry_equiv_pos_as_xyz
  1  'x, y, z'
loop_
 _atom_site_type_symbol
 _atom_site_label
 _atom_site_symmetry_multiplicity
 _atom_site_fract_x
 _atom_site_fract_y
 _atom_site_fract_z
 _atom_site_occupancy
  Li  Li0  1  0.243315  0.000480  0.500000  1
  Li  Li1  1  0.756685  0.757164  0.500000  1
  Li  Li2  1  0.000000  0.242724  0.500000  1
  Dy  Dy3  1  0.000000  0.574863  0.000000  1
  Er  Er4  1  0.575665  0.999740  0.000000  1
  Er  Er5  1  0.424335  0.424076  0.000000  1
  Si  Si6  1  0.335209  0.667203  0.500000  1
  Si  Si7  1  0.664791  0.331992  0.500000  1
  Au  Au8  1  0.000000  0.001758  0.000000  1
