# generated using pymatgen
data_FeCoSb5Te
_symmetry_space_group_name_H-M   'P 1'
_cell_length_a   7.91973965
_cell_length_b   7.90517806
_cell_length_c   7.91171744
_cell_angle_alpha   109.12817583
_cell_angle_beta   109.59388313
_cell_angle_gamma   109.58440500
_symmetry_Int_Tables_number   1
_chemical_formula_structural   FeCoSb5Te
_chemical_formula_sum   'Fe2 Co2 Sb10 Te2'
_cell_volume   381.80151253
_cell_formula_units_Z   2
loop_
 _symmetry_equiv_pos_site_id
 _symmetry_equiv_pos_as_xyz
  1  'x, y, z'
loop_
 _atom_site_type_symbol
 _atom_site_label
 _atom_site_symmetry_multiplicity
 _atom_site_fract_x
 _atom_site_fract_y
 _atom_site_fract_z
 _atom_site_occupancy
  Fe  Fe0  1  0.995709  0.998228  0.501115  1
  Fe  Fe1  1  0.000658  0.500855  0.998154  1
  Co  Co2  1  0.504553  0.503311  0.503324  1
  Co  Co3  1  0.500075  0.997898  0.001649  1
  Sb  Sb4  1  0.503913  0.661373  0.842495  1
  Sb  Sb5  1  0.668766  0.167588  0.835505  1
  Sb  Sb6  1  0.843452  0.163498  0.323062  1
  Sb  Sb7  1  0.165898  0.831547  0.665507  1
  Sb  Sb8  1  0.172339  0.330107  0.841556  1
  Sb  Sb9  1  0.159421  0.492492  0.331474  1
  Sb  Sb10  1  0.329834  0.159046  0.493789  1
  Sb  Sb11  1  0.492852  0.332960  0.158366  1
  Sb  Sb12  1  0.322433  0.841363  0.166900  1
  Sb  Sb13  1  0.828837  0.667371  0.160625  1
  Te  Te14  1  0.666554  0.845514  0.510247  1
  Te  Te15  1  0.844703  0.506848  0.666231  1
