# generated using pymatgen
data_Eu2MnCr2O8
_symmetry_space_group_name_H-M   'P 1'
_cell_length_a   6.42620335
_cell_length_b   6.42620328
_cell_length_c   5.08426836
_cell_angle_alpha   107.66471118
_cell_angle_beta   107.66470801
_cell_angle_gamma   57.15755876
_symmetry_Int_Tables_number   1
_chemical_formula_structural   Eu2MnCr2O8
_chemical_formula_sum   'Eu2 Mn1 Cr2 O8'
_cell_volume   165.53528521
_cell_formula_units_Z   1
loop_
 _symmetry_equiv_pos_site_id
 _symmetry_equiv_pos_as_xyz
  1  'x, y, z'
loop_
 _atom_site_type_symbol
 _atom_site_label
 _atom_site_symmetry_multiplicity
 _atom_site_fract_x
 _atom_site_fract_y
 _atom_site_fract_z
 _atom_site_occupancy
  Eu  Eu0  1  0.721596  0.721596  0.171416  1
  Eu  Eu1  1  0.278404  0.278404  0.828583  1
  Mn  Mn2  1  0.000000  0.000000  0.000000  1
  Cr  Cr3  1  0.742328  0.257672  0.500001  1
  Cr  Cr4  1  0.257672  0.742328  0.500001  1
  O  O5  1  0.678724  0.110193  0.095620  1
  O  O6  1  0.110193  0.678724  0.095620  1
  O  O7  1  0.096403  0.096403  0.400220  1
  O  O8  1  0.605451  0.605451  0.457950  1
  O  O9  1  0.394549  0.394549  0.542052  1
  O  O10  1  0.903596  0.903596  0.599780  1
  O  O11  1  0.889807  0.321276  0.904380  1
  O  O12  1  0.321276  0.889807  0.904380  1
