# generated using pymatgen
data_Sr2Si4Os3Ru
_symmetry_space_group_name_H-M   'P 1'
_cell_length_a   8.08702117
_cell_length_b   6.97413545
_cell_length_c   6.00278116
_cell_angle_alpha   76.69325014
_cell_angle_beta   57.05804134
_cell_angle_gamma   45.93893198
_symmetry_Int_Tables_number   1
_chemical_formula_structural   Sr2Si4Os3Ru
_chemical_formula_sum   'Sr2 Si4 Os3 Ru1'
_cell_volume   197.92751390
_cell_formula_units_Z   1
loop_
 _symmetry_equiv_pos_site_id
 _symmetry_equiv_pos_as_xyz
  1  'x, y, z'
loop_
 _atom_site_type_symbol
 _atom_site_label
 _atom_site_symmetry_multiplicity
 _atom_site_fract_x
 _atom_site_fract_y
 _atom_site_fract_z
 _atom_site_occupancy
  Sr  Sr0  1  0.000175  0.000187  0.999818  1
  Sr  Sr1  1  0.249685  0.249693  0.250311  1
  Si  Si2  1  0.322231  0.678304  0.318066  1
  Si  Si3  1  0.572317  0.927692  0.568390  1
  Si  Si4  1  0.678311  0.322239  0.681380  1
  Si  Si5  1  0.927696  0.572334  0.931599  1
  Os  Os6  1  0.621541  0.621558  0.378452  1
  Os  Os7  1  0.377748  0.377751  0.622252  1
  Os  Os8  1  0.872193  0.872204  0.627808  1
  Ru  Ru9  1  0.628109  0.628033  0.871923  1
