# generated using pymatgen
data_NdCo2Si2Rh
_symmetry_space_group_name_H-M   'P 1'
_cell_length_a   6.50591091
_cell_length_b   6.50591049
_cell_length_c   6.50591093
_cell_angle_alpha   131.42458339
_cell_angle_beta   115.49342375
_cell_angle_gamma   84.71896009
_symmetry_Int_Tables_number   1
_chemical_formula_structural   NdCo2Si2Rh
_chemical_formula_sum   'Nd2 Co4 Si4 Rh2'
_cell_volume   178.66295429
_cell_formula_units_Z   2
loop_
 _symmetry_equiv_pos_site_id
 _symmetry_equiv_pos_as_xyz
  1  'x, y, z'
loop_
 _atom_site_type_symbol
 _atom_site_label
 _atom_site_symmetry_multiplicity
 _atom_site_fract_x
 _atom_site_fract_y
 _atom_site_fract_z
 _atom_site_occupancy
  Nd  Nd0  1  0.750000  0.032724  0.282724  1
  Nd  Nd1  1  0.250000  0.967276  0.717276  1
  Co  Co2  1  0.219130  0.500000  0.719130  1
  Co  Co3  1  0.719130  0.000000  0.719130  1
  Co  Co4  1  0.780870  0.500000  0.280870  1
  Co  Co5  1  0.280870  0.000000  0.280870  1
  Si  Si6  1  0.569396  0.367321  0.797926  1
  Si  Si7  1  0.430604  0.632679  0.202074  1
  Si  Si8  1  0.069396  0.271470  0.202074  1
  Si  Si9  1  0.930604  0.728530  0.797926  1
  Rh  Rh10  1  0.500000  0.500000  0.500000  1
  Rh  Rh11  1  0.000000  0.500000  0.000000  1
