# generated using pymatgen
data_TmLu(Al3Rh)3
_symmetry_space_group_name_H-M   'P 1'
_cell_length_a   7.52897964
_cell_length_b   7.53088798
_cell_length_c   9.42774600
_cell_angle_alpha   90.00000000
_cell_angle_beta   90.00000000
_cell_angle_gamma   119.50912113
_symmetry_Int_Tables_number   1
_chemical_formula_structural   TmLu(Al3Rh)3
_chemical_formula_sum   'Tm2 Lu2 Al18 Rh6'
_cell_volume   465.20870935
_cell_formula_units_Z   2
loop_
 _symmetry_equiv_pos_site_id
 _symmetry_equiv_pos_as_xyz
  1  'x, y, z'
loop_
 _atom_site_type_symbol
 _atom_site_label
 _atom_site_symmetry_multiplicity
 _atom_site_fract_x
 _atom_site_fract_y
 _atom_site_fract_z
 _atom_site_occupancy
  Tm  Tm0  1  0.994666  0.670806  0.250000  1
  Tm  Tm1  1  0.005334  0.329194  0.750000  1
  Lu  Lu2  1  0.670819  0.994605  0.250000  1
  Lu  Lu3  1  0.329181  0.005395  0.750000  1
  Al  Al4  1  0.127013  0.127098  0.250000  1
  Al  Al5  1  0.872987  0.872902  0.750000  1
  Al  Al6  1  0.000115  0.334594  0.074748  1
  Al  Al7  1  0.999885  0.665406  0.925252  1
  Al  Al8  1  0.999885  0.665406  0.574748  1
  Al  Al9  1  0.335182  0.000397  0.425580  1
  Al  Al10  1  0.000115  0.334594  0.425252  1
  Al  Al11  1  0.664818  0.999603  0.574420  1
  Al  Al12  1  0.664818  0.999603  0.925580  1
  Al  Al13  1  0.335182  0.000397  0.074420  1
  Al  Al14  1  0.333079  0.332838  0.552786  1
  Al  Al15  1  0.666921  0.667162  0.447214  1
  Al  Al16  1  0.666921  0.667162  0.052786  1
  Al  Al17  1  0.333079  0.332838  0.947214  1
  Al  Al18  1  0.339181  0.549666  0.250000  1
  Al  Al19  1  0.660819  0.450334  0.750000  1
  Al  Al20  1  0.549212  0.338445  0.250000  1
  Al  Al21  1  0.450788  0.661555  0.750000  1
  Rh  Rh22  1  0.672356  0.327719  0.999972  1
  Rh  Rh23  1  0.327644  0.672281  0.000028  1
  Rh  Rh24  1  0.327644  0.672281  0.499972  1
  Rh  Rh25  1  0.672356  0.327719  0.500028  1
  Rh  Rh26  1  0.000000  0.000000  0.000000  1
  Rh  Rh27  1  0.000000  0.000000  0.500000  1
