# generated using pymatgen
data_Dy4MgCo2Hg
_symmetry_space_group_name_H-M   'P 1'
_cell_length_a   8.72530900
_cell_length_b   8.72530988
_cell_length_c   8.72530833
_cell_angle_alpha   130.79248865
_cell_angle_beta   130.79248540
_cell_angle_gamma   72.14298116
_symmetry_Int_Tables_number   1
_chemical_formula_structural   Dy4MgCo2Hg
_chemical_formula_sum   'Dy8 Mg2 Co4 Hg2'
_cell_volume   372.27424395
_cell_formula_units_Z   2
loop_
 _symmetry_equiv_pos_site_id
 _symmetry_equiv_pos_as_xyz
  1  'x, y, z'
loop_
 _atom_site_type_symbol
 _atom_site_label
 _atom_site_symmetry_multiplicity
 _atom_site_fract_x
 _atom_site_fract_y
 _atom_site_fract_z
 _atom_site_occupancy
  Dy  Dy0  1  0.806463  0.306463  0.858015  1
  Dy  Dy1  1  0.193537  0.693537  0.141986  1
  Dy  Dy2  1  0.448450  0.948450  0.141986  1
  Dy  Dy3  1  0.306463  0.448450  0.500000  1
  Dy  Dy4  1  0.051550  0.193537  0.500000  1
  Dy  Dy5  1  0.551550  0.051550  0.858014  1
  Dy  Dy6  1  0.693537  0.551550  0.500000  1
  Dy  Dy7  1  0.948450  0.806463  0.500000  1
  Mg  Mg8  1  0.000000  0.000000  0.000000  1
  Mg  Mg9  1  0.500000  0.500000  0.000000  1
  Co  Co10  1  0.113404  0.613404  0.726808  1
  Co  Co11  1  0.886596  0.386596  0.273192  1
  Co  Co12  1  0.613404  0.886596  0.500000  1
  Co  Co13  1  0.386596  0.113404  0.500000  1
  Hg  Hg14  1  0.250000  0.250000  0.000000  1
  Hg  Hg15  1  0.750000  0.750000  0.000000  1
