# generated using pymatgen
data_Zr5Sc(SnRh)6
_symmetry_space_group_name_H-M   'P 1'
_cell_length_a   7.47249516
_cell_length_b   7.47404559
_cell_length_c   7.18382600
_cell_angle_alpha   90.00000000
_cell_angle_beta   90.00000000
_cell_angle_gamma   120.01681128
_symmetry_Int_Tables_number   1
_chemical_formula_structural   Zr5Sc(SnRh)6
_chemical_formula_sum   'Zr5 Sc1 Sn6 Rh6'
_cell_volume   347.40352953
_cell_formula_units_Z   1
loop_
 _symmetry_equiv_pos_site_id
 _symmetry_equiv_pos_as_xyz
  1  'x, y, z'
loop_
 _atom_site_type_symbol
 _atom_site_label
 _atom_site_symmetry_multiplicity
 _atom_site_fract_x
 _atom_site_fract_y
 _atom_site_fract_z
 _atom_site_occupancy
  Zr  Zr0  1  0.599678  0.987841  0.750000  1
  Zr  Zr1  1  0.387333  0.401322  0.750000  1
  Zr  Zr2  1  0.011630  0.610901  0.750000  1
  Zr  Zr3  1  0.401578  0.389791  0.250000  1
  Zr  Zr4  1  0.987170  0.598076  0.250000  1
  Sc  Sc5  1  0.609898  0.010894  0.250000  1
  Sn  Sn6  1  0.274181  0.001009  0.998638  1
  Sn  Sn7  1  0.728920  0.730247  0.498537  1
  Sn  Sn8  1  0.996716  0.268822  0.497871  1
  Sn  Sn9  1  0.996716  0.268822  0.002129  1
  Sn  Sn10  1  0.728920  0.730247  0.001463  1
  Sn  Sn11  1  0.274181  0.001009  0.501362  1
  Rh  Rh12  1  0.667459  0.336503  0.971311  1
  Rh  Rh13  1  0.667459  0.336503  0.528689  1
  Rh  Rh14  1  0.331467  0.663879  0.021025  1
  Rh  Rh15  1  0.331467  0.663879  0.478975  1
  Rh  Rh16  1  0.999790  0.000498  0.750000  1
  Rh  Rh17  1  0.005439  0.999755  0.250000  1
