# generated using pymatgen
data_Y4Ho4B24IrOs3
_symmetry_space_group_name_H-M   'P 1'
_cell_length_a   3.65562800
_cell_length_b   9.15465761
_cell_length_c   11.52106929
_cell_angle_alpha   90.07033866
_cell_angle_beta   90.00000000
_cell_angle_gamma   90.00000000
_symmetry_Int_Tables_number   1
_chemical_formula_structural   Y4Ho4B24IrOs3
_chemical_formula_sum   'Y4 Ho4 B24 Ir1 Os3'
_cell_volume   385.56407556
_cell_formula_units_Z   1
loop_
 _symmetry_equiv_pos_site_id
 _symmetry_equiv_pos_as_xyz
  1  'x, y, z'
loop_
 _atom_site_type_symbol
 _atom_site_label
 _atom_site_symmetry_multiplicity
 _atom_site_fract_x
 _atom_site_fract_y
 _atom_site_fract_z
 _atom_site_occupancy
  Y  Y0  1  0.000000  0.318579  0.414314  1
  Y  Y1  1  0.000000  0.679209  0.589253  1
  Y  Y2  1  0.000000  0.823296  0.084033  1
  Y  Y3  1  0.000000  0.179067  0.912961  1
  Ho  Ho4  1  0.000000  0.945279  0.373291  1
  Ho  Ho5  1  0.000000  0.055668  0.626292  1
  Ho  Ho6  1  0.000000  0.442379  0.125703  1
  Ho  Ho7  1  0.000000  0.555677  0.873924  1
  B  B8  1  0.500000  0.554037  0.433493  1
  B  B9  1  0.500000  0.446042  0.567003  1
  B  B10  1  0.500000  0.054405  0.067202  1
  B  B11  1  0.500000  0.946196  0.932516  1
  B  B12  1  0.500000  0.749470  0.421067  1
  B  B13  1  0.500000  0.251535  0.580178  1
  B  B14  1  0.500000  0.248134  0.080251  1
  B  B15  1  0.500000  0.752121  0.919821  1
  B  B16  1  0.500000  0.791773  0.266025  1
  B  B17  1  0.500000  0.209019  0.733179  1
  B  B18  1  0.500000  0.291296  0.233887  1
  B  B19  1  0.500000  0.708751  0.766719  1
  B  B20  1  0.500000  0.631956  0.183912  1
  B  B21  1  0.500000  0.368539  0.814609  1
  B  B22  1  0.500000  0.131456  0.314735  1
  B  B23  1  0.500000  0.868088  0.685432  1
  B  B24  1  0.500000  0.983205  0.213194  1
  B  B25  1  0.500000  0.016742  0.786407  1
  B  B26  1  0.500000  0.482381  0.286360  1
  B  B27  1  0.500000  0.516568  0.713649  1
  B  B28  1  0.500000  0.609613  0.030604  1
  B  B29  1  0.500000  0.390957  0.970183  1
  B  B30  1  0.500000  0.108321  0.469912  1
  B  B31  1  0.500000  0.890428  0.529595  1
  Ir  Ir32  1  0.000000  0.637205  0.321700  1
  Os  Os33  1  0.000000  0.362488  0.678481  1
  Os  Os34  1  0.000000  0.137799  0.179117  1
  Os  Os35  1  0.000000  0.862316  0.820998  1
