# generated using pymatgen
data_Nd2(SnRh3)3
_symmetry_space_group_name_H-M   'P 1'
_cell_length_a   7.95587200
_cell_length_b   7.95587196
_cell_length_c   9.21279200
_cell_angle_alpha   90.00000000
_cell_angle_beta   90.00000000
_cell_angle_gamma   120.05759551
_symmetry_Int_Tables_number   1
_chemical_formula_structural   Nd2(SnRh3)3
_chemical_formula_sum   'Nd4 Sn6 Rh18'
_cell_volume   504.71373746
_cell_formula_units_Z   2
loop_
 _symmetry_equiv_pos_site_id
 _symmetry_equiv_pos_as_xyz
  1  'x, y, z'
loop_
 _atom_site_type_symbol
 _atom_site_label
 _atom_site_symmetry_multiplicity
 _atom_site_fract_x
 _atom_site_fract_y
 _atom_site_fract_z
 _atom_site_occupancy
  Nd  Nd0  1  0.328691  0.016757  0.750000  1
  Nd  Nd1  1  0.671309  0.983243  0.250000  1
  Nd  Nd2  1  0.016757  0.328691  0.750000  1
  Nd  Nd3  1  0.983243  0.671309  0.250000  1
  Sn  Sn4  1  0.000000  0.000000  0.500000  1
  Sn  Sn5  1  0.681601  0.318399  0.000000  1
  Sn  Sn6  1  0.318399  0.681601  0.500000  1
  Sn  Sn7  1  0.318399  0.681601  0.000000  1
  Sn  Sn8  1  0.000000  0.000000  0.000000  1
  Sn  Sn9  1  0.681601  0.318399  0.500000  1
  Rh  Rh10  1  0.336224  0.336224  0.962706  1
  Rh  Rh11  1  0.460379  0.645999  0.750000  1
  Rh  Rh12  1  0.539621  0.354001  0.250000  1
  Rh  Rh13  1  0.645999  0.460379  0.750000  1
  Rh  Rh14  1  0.009665  0.337824  0.090056  1
  Rh  Rh15  1  0.990335  0.662176  0.590056  1
  Rh  Rh16  1  0.337824  0.009665  0.409944  1
  Rh  Rh17  1  0.662176  0.990335  0.909944  1
  Rh  Rh18  1  0.990335  0.662176  0.909944  1
  Rh  Rh19  1  0.009665  0.337824  0.409944  1
  Rh  Rh20  1  0.662176  0.990335  0.590056  1
  Rh  Rh21  1  0.843383  0.843383  0.750000  1
  Rh  Rh22  1  0.336224  0.336224  0.537294  1
  Rh  Rh23  1  0.663776  0.663776  0.037294  1
  Rh  Rh24  1  0.337824  0.009665  0.090056  1
  Rh  Rh25  1  0.663776  0.663776  0.462706  1
  Rh  Rh26  1  0.156617  0.156617  0.250000  1
  Rh  Rh27  1  0.354001  0.539621  0.250000  1
