# generated using pymatgen
data_DyZr(Ni3P2)2
_symmetry_space_group_name_H-M   'P 1'
_cell_length_a   3.70749500
_cell_length_b   10.41935753
_cell_length_c   12.18369688
_cell_angle_alpha   90.14625693
_cell_angle_beta   89.99675020
_cell_angle_gamma   90.00101698
_symmetry_Int_Tables_number   1
_chemical_formula_structural   DyZr(Ni3P2)2
_chemical_formula_sum   'Dy3 Zr3 Ni18 P12'
_cell_volume   470.65121556
_cell_formula_units_Z   3
loop_
 _symmetry_equiv_pos_site_id
 _symmetry_equiv_pos_as_xyz
  1  'x, y, z'
loop_
 _atom_site_type_symbol
 _atom_site_label
 _atom_site_symmetry_multiplicity
 _atom_site_fract_x
 _atom_site_fract_y
 _atom_site_fract_z
 _atom_site_occupancy
  Dy  Dy0  1  0.751872  0.999374  0.477083  1
  Dy  Dy1  1  0.251978  0.500206  0.525071  1
  Dy  Dy2  1  0.751855  0.180958  0.205082  1
  Zr  Zr3  1  0.251773  0.680284  0.794536  1
  Zr  Zr4  1  0.251781  0.319638  0.795744  1
  Zr  Zr5  1  0.751848  0.817356  0.203982  1
  Ni  Ni6  1  0.751776  0.998836  0.012537  1
  Ni  Ni7  1  0.251754  0.502014  0.982983  1
  Ni  Ni8  1  0.251853  0.199109  0.574826  1
  Ni  Ni9  1  0.251992  0.800823  0.572883  1
  Ni  Ni10  1  0.751994  0.301881  0.430659  1
  Ni  Ni11  1  0.751893  0.697979  0.427670  1
  Ni  Ni12  1  0.251946  0.622854  0.288210  1
  Ni  Ni13  1  0.251947  0.378578  0.290034  1
  Ni  Ni14  1  0.751776  0.876243  0.711281  1
  Ni  Ni15  1  0.751773  0.123236  0.712053  1
  Ni  Ni16  1  0.251799  0.169002  0.002780  1
  Ni  Ni17  1  0.251782  0.830065  0.001646  1
  Ni  Ni18  1  0.751806  0.333880  0.993702  1
  Ni  Ni19  1  0.751794  0.668459  0.995519  1
  Ni  Ni20  1  0.251309  0.999566  0.840119  1
  Ni  Ni21  1  0.751484  0.500806  0.159530  1
  Ni  Ni22  1  0.251848  0.997644  0.298646  1
  Ni  Ni23  1  0.751845  0.500936  0.702333  1
  P  P24  1  0.251991  0.185527  0.386589  1
  P  P25  1  0.251856  0.812747  0.383288  1
  P  P26  1  0.751852  0.314593  0.618425  1
  P  P27  1  0.751940  0.685921  0.616604  1
  P  P28  1  0.251779  0.996041  0.121352  1
  P  P29  1  0.751792  0.500911  0.876557  1
  P  P30  1  0.251766  0.656163  0.109743  1
  P  P31  1  0.251804  0.349675  0.107983  1
  P  P32  1  0.751781  0.843482  0.889068  1
  P  P33  1  0.751754  0.155873  0.890306  1
  P  P34  1  0.251809  0.999988  0.655630  1
  P  P35  1  0.752005  0.499349  0.345548  1
