# generated using pymatgen
data_Cs4Li2YInAs4
_symmetry_space_group_name_H-M   'P 1'
_cell_length_a   9.95320964
_cell_length_b   9.95320919
_cell_length_c   9.95320859
_cell_angle_alpha   139.86894109
_cell_angle_beta   57.87594744
_cell_angle_gamma   140.10150814
_symmetry_Int_Tables_number   1
_chemical_formula_structural   Cs4Li2YInAs4
_chemical_formula_sum   'Cs4 Li2 Y1 In1 As4'
_cell_volume   404.05092719
_cell_formula_units_Z   1
loop_
 _symmetry_equiv_pos_site_id
 _symmetry_equiv_pos_as_xyz
  1  'x, y, z'
loop_
 _atom_site_type_symbol
 _atom_site_label
 _atom_site_symmetry_multiplicity
 _atom_site_fract_x
 _atom_site_fract_y
 _atom_site_fract_z
 _atom_site_occupancy
  Cs  Cs0  1  0.332109  0.775996  0.098170  1
  Cs  Cs1  1  0.167891  0.266060  0.443886  1
  Cs  Cs2  1  0.822175  0.724006  0.556114  1
  Cs  Cs3  1  0.677825  0.233941  0.901830  1
  Li  Li4  1  0.750000  0.250000  0.500000  1
  Li  Li5  1  0.250000  0.750001  0.500001  1
  Y  Y6  1  0.250000  0.250000  0.000000  1
  In  In7  1  0.749999  0.749999  0.000000  1
  As  As8  1  0.909645  0.237051  0.157585  1
  As  As9  1  0.590355  0.747941  0.327407  1
  As  As10  1  0.420534  0.262950  0.672594  1
  As  As11  1  0.079466  0.752060  0.842415  1
