# generated using pymatgen
data_Dy3P7N13
_symmetry_space_group_name_H-M   'P 1'
_cell_length_a   7.22457408
_cell_length_b   7.22457442
_cell_length_c   7.35314000
_cell_angle_alpha   109.83211507
_cell_angle_beta   109.83211603
_cell_angle_gamma   109.10792571
_symmetry_Int_Tables_number   1
_chemical_formula_structural   Dy3P7N13
_chemical_formula_sum   'Dy3 P7 N13'
_cell_volume   294.11809211
_cell_formula_units_Z   1
loop_
 _symmetry_equiv_pos_site_id
 _symmetry_equiv_pos_as_xyz
  1  'x, y, z'
loop_
 _atom_site_type_symbol
 _atom_site_label
 _atom_site_symmetry_multiplicity
 _atom_site_fract_x
 _atom_site_fract_y
 _atom_site_fract_z
 _atom_site_occupancy
  Dy  Dy0  1  0.330682  0.330682  0.307128  1
  Dy  Dy1  1  0.000000  0.669318  0.976447  1
  Dy  Dy2  1  0.669318  0.000000  0.976447  1
  P  P3  1  0.000000  0.000000  0.863945  1
  P  P4  1  0.501908  0.254606  0.740819  1
  P  P5  1  0.498092  0.752698  0.238912  1
  P  P6  1  0.745394  0.247302  0.486212  1
  P  P7  1  0.254606  0.501908  0.740819  1
  P  P8  1  0.752698  0.498092  0.238912  1
  P  P9  1  0.247302  0.745394  0.486212  1
  N  N10  1  0.000000  0.000000  0.109220  1
  N  N11  1  0.000000  0.705041  0.416901  1
  N  N12  1  0.269609  0.669584  0.261383  1
  N  N13  1  0.330416  0.600023  0.591799  1
  N  N14  1  0.564160  0.564160  0.242559  1
  N  N15  1  0.600023  0.330416  0.591799  1
  N  N16  1  0.705041  0.000000  0.416901  1
  N  N17  1  0.435840  0.000000  0.678398  1
  N  N18  1  0.730391  0.399977  0.991775  1
  N  N19  1  0.294959  0.294959  0.711859  1
  N  N20  1  0.669584  0.269609  0.261383  1
  N  N21  1  0.000000  0.435840  0.678398  1
  N  N22  1  0.399977  0.730391  0.991775  1
