# generated using pymatgen
data_Ta5Al3S20
_symmetry_space_group_name_H-M   'P 1'
_cell_length_a   9.92084536
_cell_length_b   9.92084529
_cell_length_c   10.55328231
_cell_angle_alpha   63.34586454
_cell_angle_beta   63.34586274
_cell_angle_gamma   40.37107502
_symmetry_Int_Tables_number   1
_chemical_formula_structural   Ta5Al3S20
_chemical_formula_sum   'Ta5 Al3 S20'
_cell_volume   590.97044796
_cell_formula_units_Z   1
loop_
 _symmetry_equiv_pos_site_id
 _symmetry_equiv_pos_as_xyz
  1  'x, y, z'
loop_
 _atom_site_type_symbol
 _atom_site_label
 _atom_site_symmetry_multiplicity
 _atom_site_fract_x
 _atom_site_fract_y
 _atom_site_fract_z
 _atom_site_occupancy
  Ta  Ta0  1  0.338923  0.834558  0.865794  1
  Ta  Ta1  1  0.834558  0.338923  0.865794  1
  Ta  Ta2  1  0.160873  0.160873  0.134286  1
  Ta  Ta3  1  0.662161  0.662161  0.135500  1
  Ta  Ta4  1  0.797322  0.797322  0.585849  1
  Al  Al5  1  0.289785  0.289785  0.604467  1
  Al  Al6  1  0.701713  0.228062  0.398557  1
  Al  Al7  1  0.228062  0.701713  0.398557  1
  S  S8  1  0.972745  0.972745  0.981525  1
  S  S9  1  0.471562  0.471562  0.984026  1
  S  S10  1  0.525394  0.027567  0.018868  1
  S  S11  1  0.027567  0.525394  0.018868  1
  S  S12  1  0.116517  0.616801  0.651554  1
  S  S13  1  0.616801  0.116517  0.651554  1
  S  S14  1  0.385856  0.385856  0.357187  1
  S  S15  1  0.881506  0.881506  0.343309  1
  S  S16  1  0.029235  0.029235  0.760114  1
  S  S17  1  0.527578  0.527578  0.761814  1
  S  S18  1  0.466850  0.969811  0.241061  1
  S  S19  1  0.969811  0.466850  0.241061  1
  S  S20  1  0.315245  0.813544  0.129222  1
  S  S21  1  0.813544  0.315245  0.129222  1
  S  S22  1  0.184637  0.184637  0.867920  1
  S  S23  1  0.684783  0.684783  0.870446  1
  S  S24  1  0.447953  0.949041  0.599386  1
  S  S25  1  0.949041  0.447953  0.599386  1
  S  S26  1  0.046130  0.046130  0.399471  1
  S  S27  1  0.553846  0.553846  0.405203  1
