# generated using pymatgen
data_Nd2Ga3SiIr3Pt
_symmetry_space_group_name_H-M   'P 1'
_cell_length_a   4.23250900
_cell_length_b   4.23250900
_cell_length_c   10.37979500
_cell_angle_alpha   90.00000000
_cell_angle_beta   90.00000000
_cell_angle_gamma   90.00000000
_symmetry_Int_Tables_number   1
_chemical_formula_structural   Nd2Ga3SiIr3Pt
_chemical_formula_sum   'Nd2 Ga3 Si1 Ir3 Pt1'
_cell_volume   185.94502228
_cell_formula_units_Z   1
loop_
 _symmetry_equiv_pos_site_id
 _symmetry_equiv_pos_as_xyz
  1  'x, y, z'
loop_
 _atom_site_type_symbol
 _atom_site_label
 _atom_site_symmetry_multiplicity
 _atom_site_fract_x
 _atom_site_fract_y
 _atom_site_fract_z
 _atom_site_occupancy
  Nd  Nd0  1  0.000000  0.500000  0.245100  1
  Nd  Nd1  1  0.500000  0.000000  0.757256  1
  Ga  Ga2  1  0.000000  0.000000  0.493412  1
  Ga  Ga3  1  0.500000  0.500000  0.493412  1
  Ga  Ga4  1  0.000000  0.500000  0.876456  1
  Si  Si5  1  0.500000  0.000000  0.123616  1
  Ir  Ir6  1  0.000000  0.000000  0.010138  1
  Ir  Ir7  1  0.500000  0.500000  0.010138  1
  Ir  Ir8  1  0.500000  0.000000  0.355364  1
  Pt  Pt9  1  0.000000  0.500000  0.635107  1
