# generated using pymatgen
data_Sr3Cu6Ni7B2
_symmetry_space_group_name_H-M   'P 1'
_cell_length_a   5.21988365
_cell_length_b   5.23174045
_cell_length_c   10.88188500
_cell_angle_alpha   90.00000000
_cell_angle_beta   90.00000000
_cell_angle_gamma   120.07517258
_symmetry_Int_Tables_number   1
_chemical_formula_structural   Sr3Cu6Ni7B2
_chemical_formula_sum   'Sr3 Cu6 Ni7 B2'
_cell_volume   257.16526258
_cell_formula_units_Z   1
loop_
 _symmetry_equiv_pos_site_id
 _symmetry_equiv_pos_as_xyz
  1  'x, y, z'
loop_
 _atom_site_type_symbol
 _atom_site_label
 _atom_site_symmetry_multiplicity
 _atom_site_fract_x
 _atom_site_fract_y
 _atom_site_fract_z
 _atom_site_occupancy
  Sr  Sr0  1  0.000000  0.000000  0.000000  1
  Sr  Sr1  1  0.000000  0.000000  0.678379  1
  Sr  Sr2  1  0.000000  0.000000  0.321621  1
  Cu  Cu3  1  0.500000  0.500000  0.500000  1
  Cu  Cu4  1  0.500000  0.000000  0.500000  1
  Cu  Cu5  1  0.671793  0.335896  0.685447  1
  Cu  Cu6  1  0.328207  0.664104  0.685447  1
  Cu  Cu7  1  0.328207  0.664104  0.314553  1
  Cu  Cu8  1  0.671793  0.335896  0.314553  1
  Ni  Ni9  1  0.000000  0.500000  0.500000  1
  Ni  Ni10  1  0.500000  0.500000  0.874383  1
  Ni  Ni11  1  0.500000  0.000000  0.874383  1
  Ni  Ni12  1  0.000000  0.500000  0.874671  1
  Ni  Ni13  1  0.500000  0.500000  0.125617  1
  Ni  Ni14  1  0.500000  0.000000  0.125617  1
  Ni  Ni15  1  0.000000  0.500000  0.125329  1
  B  B16  1  0.665883  0.332942  0.000000  1
  B  B17  1  0.334117  0.667058  0.000000  1
