# generated using pymatgen
data_YEr3Tm12(InIr)4
_symmetry_space_group_name_H-M   'P 1'
_cell_length_a   9.56274099
_cell_length_b   9.56164255
_cell_length_c   9.56541300
_cell_angle_alpha   59.98696517
_cell_angle_beta   59.99076684
_cell_angle_gamma   59.96160670
_symmetry_Int_Tables_number   1
_chemical_formula_structural   YEr3Tm12(InIr)4
_chemical_formula_sum   'Y1 Er3 Tm12 In4 Ir4'
_cell_volume   618.16496345
_cell_formula_units_Z   1
loop_
 _symmetry_equiv_pos_site_id
 _symmetry_equiv_pos_as_xyz
  1  'x, y, z'
loop_
 _atom_site_type_symbol
 _atom_site_label
 _atom_site_symmetry_multiplicity
 _atom_site_fract_x
 _atom_site_fract_y
 _atom_site_fract_z
 _atom_site_occupancy
  Y  Y0  1  0.060730  0.060411  0.439429  1
  Er  Er1  1  0.060075  0.439949  0.440190  1
  Er  Er2  1  0.439227  0.438993  0.060890  1
  Er  Er3  1  0.060075  0.439949  0.059786  1
  Tm  Tm4  1  0.649747  0.047281  0.651487  1
  Tm  Tm5  1  0.191038  0.809795  0.189714  1
  Tm  Tm6  1  0.440119  0.059863  0.440162  1
  Tm  Tm7  1  0.190647  0.190503  0.809425  1
  Tm  Tm8  1  0.650830  0.650966  0.652386  1
  Tm  Tm9  1  0.047318  0.649839  0.651422  1
  Tm  Tm10  1  0.440119  0.059863  0.059855  1
  Tm  Tm11  1  0.650830  0.650966  0.045818  1
  Tm  Tm12  1  0.191038  0.809795  0.809453  1
  Tm  Tm13  1  0.809606  0.190979  0.809640  1
  Tm  Tm14  1  0.809606  0.190979  0.189774  1
  Tm  Tm15  1  0.809436  0.809804  0.190380  1
  In  In16  1  0.749294  0.417288  0.416709  1
  In  In17  1  0.416548  0.416448  0.750478  1
  In  In18  1  0.417228  0.749735  0.416518  1
  In  In19  1  0.416548  0.416448  0.416527  1
  Ir  Ir20  1  0.858539  0.858678  0.859173  1
  Ir  Ir21  1  0.423829  0.859093  0.858540  1
  Ir  Ir22  1  0.858539  0.858678  0.423612  1
  Ir  Ir23  1  0.859037  0.423697  0.858633  1
