# generated using pymatgen
data_K4Zr(TeSe)2
_symmetry_space_group_name_H-M   'P 1'
_cell_length_a   8.78361800
_cell_length_b   10.57443000
_cell_length_c   15.48455400
_cell_angle_alpha   90.00000000
_cell_angle_beta   90.00000000
_cell_angle_gamma   90.00000000
_symmetry_Int_Tables_number   1
_chemical_formula_structural   K4Zr(TeSe)2
_chemical_formula_sum   'K16 Zr4 Te8 Se8'
_cell_volume   1438.23253059
_cell_formula_units_Z   4
loop_
 _symmetry_equiv_pos_site_id
 _symmetry_equiv_pos_as_xyz
  1  'x, y, z'
loop_
 _atom_site_type_symbol
 _atom_site_label
 _atom_site_symmetry_multiplicity
 _atom_site_fract_x
 _atom_site_fract_y
 _atom_site_fract_z
 _atom_site_occupancy
  K  K0  1  0.500000  0.500000  0.500000  1
  K  K1  1  0.142636  0.456082  0.274590  1
  K  K2  1  0.142636  0.043918  0.274590  1
  K  K3  1  0.991012  0.750000  0.437445  1
  K  K4  1  0.008988  0.250000  0.562555  1
  K  K5  1  0.642636  0.956082  0.225410  1
  K  K6  1  0.357364  0.043918  0.774590  1
  K  K7  1  0.857364  0.956082  0.725410  1
  K  K8  1  0.357364  0.456082  0.774590  1
  K  K9  1  0.000000  0.500000  0.000000  1
  K  K10  1  0.491012  0.250000  0.062555  1
  K  K11  1  0.642636  0.543918  0.225410  1
  K  K12  1  0.508988  0.750000  0.937445  1
  K  K13  1  0.000000  0.000000  0.000000  1
  K  K14  1  0.857364  0.543918  0.725410  1
  K  K15  1  0.500000  0.000000  0.500000  1
  Zr  Zr16  1  0.742519  0.250000  0.837217  1
  Zr  Zr17  1  0.757481  0.250000  0.337217  1
  Zr  Zr18  1  0.242519  0.750000  0.662783  1
  Zr  Zr19  1  0.257481  0.750000  0.162783  1
  Te  Te20  1  0.558435  0.750000  0.669923  1
  Te  Te21  1  0.441565  0.250000  0.330077  1
  Te  Te22  1  0.371994  0.750000  0.331248  1
  Te  Te23  1  0.128006  0.750000  0.831248  1
  Te  Te24  1  0.058435  0.250000  0.830077  1
  Te  Te25  1  0.941565  0.750000  0.169923  1
  Te  Te26  1  0.628006  0.250000  0.668752  1
  Te  Te27  1  0.871994  0.250000  0.168752  1
  Se  Se28  1  0.845153  0.450473  0.410220  1
  Se  Se29  1  0.654847  0.049527  0.910220  1
  Se  Se30  1  0.345153  0.950473  0.089780  1
  Se  Se31  1  0.345153  0.549527  0.089780  1
  Se  Se32  1  0.154847  0.549527  0.589780  1
  Se  Se33  1  0.845153  0.049527  0.410220  1
  Se  Se34  1  0.154847  0.950473  0.589780  1
  Se  Se35  1  0.654847  0.450473  0.910220  1
