# generated using pymatgen
data_Li2Hf2NpN5
_symmetry_space_group_name_H-M   'P 1'
_cell_length_a   5.84486704
_cell_length_b   5.84486721
_cell_length_c   10.22597700
_cell_angle_alpha   85.88669032
_cell_angle_beta   85.88668836
_cell_angle_gamma   43.50167098
_symmetry_Int_Tables_number   1
_chemical_formula_structural   Li2Hf2NpN5
_chemical_formula_sum   'Li4 Hf4 Np2 N10'
_cell_volume   239.76218477
_cell_formula_units_Z   2
loop_
 _symmetry_equiv_pos_site_id
 _symmetry_equiv_pos_as_xyz
  1  'x, y, z'
loop_
 _atom_site_type_symbol
 _atom_site_label
 _atom_site_symmetry_multiplicity
 _atom_site_fract_x
 _atom_site_fract_y
 _atom_site_fract_z
 _atom_site_occupancy
  Li  Li0  1  0.632578  0.632578  0.454809  1
  Li  Li1  1  0.442992  0.442992  0.817030  1
  Li  Li2  1  0.557008  0.557008  0.182970  1
  Li  Li3  1  0.367422  0.367422  0.545191  1
  Hf  Hf4  1  0.053385  0.053385  0.638915  1
  Hf  Hf5  1  0.946615  0.946615  0.361085  1
  Hf  Hf6  1  0.754821  0.754821  0.729890  1
  Hf  Hf7  1  0.245179  0.245179  0.270110  1
  Np  Np8  1  0.137834  0.137834  0.956631  1
  Np  Np9  1  0.862166  0.862166  0.043369  1
  N  N10  1  0.581194  0.581194  0.652101  1
  N  N11  1  0.418806  0.418806  0.347899  1
  N  N12  1  0.876565  0.876565  0.563688  1
  N  N13  1  0.054609  0.054609  0.157281  1
  N  N14  1  0.945391  0.945391  0.842719  1
  N  N15  1  0.123435  0.123435  0.436312  1
  N  N16  1  0.318375  0.318375  0.050991  1
  N  N17  1  0.681625  0.681625  0.949009  1
  N  N18  1  0.770311  0.770311  0.239360  1
  N  N19  1  0.229689  0.229689  0.760640  1
