# generated using pymatgen
data_YbPr6PtBr12
_symmetry_space_group_name_H-M   'P 1'
_cell_length_a   9.66812179
_cell_length_b   9.66824932
_cell_length_c   9.66785583
_cell_angle_alpha   107.18091757
_cell_angle_beta   107.18496625
_cell_angle_gamma   107.18332510
_symmetry_Int_Tables_number   1
_chemical_formula_structural   YbPr6PtBr12
_chemical_formula_sum   'Yb1 Pr6 Pt1 Br12'
_cell_volume   748.81255495
_cell_formula_units_Z   1
loop_
 _symmetry_equiv_pos_site_id
 _symmetry_equiv_pos_as_xyz
  1  'x, y, z'
loop_
 _atom_site_type_symbol
 _atom_site_label
 _atom_site_symmetry_multiplicity
 _atom_site_fract_x
 _atom_site_fract_y
 _atom_site_fract_z
 _atom_site_occupancy
  Yb  Yb0  1  0.500000  0.500000  0.500000  1
  Pr  Pr1  1  0.111505  0.319045  0.026593  1
  Pr  Pr2  1  0.319065  0.026588  0.111534  1
  Pr  Pr3  1  0.026605  0.111514  0.319068  1
  Pr  Pr4  1  0.973396  0.888486  0.680933  1
  Pr  Pr5  1  0.680935  0.973413  0.888466  1
  Pr  Pr6  1  0.888495  0.680955  0.973407  1
  Pt  Pt7  1  0.000000  0.000000  0.000000  1
  Br  Br8  1  0.216524  0.683959  0.073161  1
  Br  Br9  1  0.461571  0.380840  0.173309  1
  Br  Br10  1  0.683974  0.073156  0.216521  1
  Br  Br11  1  0.926836  0.783468  0.316015  1
  Br  Br12  1  0.173319  0.461570  0.380856  1
  Br  Br13  1  0.380850  0.173319  0.461593  1
  Br  Br14  1  0.619150  0.826681  0.538408  1
  Br  Br15  1  0.826682  0.538430  0.619144  1
  Br  Br16  1  0.073165  0.216532  0.683986  1
  Br  Br17  1  0.316027  0.926845  0.783479  1
  Br  Br18  1  0.538429  0.619160  0.826692  1
  Br  Br19  1  0.783476  0.316041  0.926839  1
