# generated using pymatgen
data_CaPrNd5CoI12
_symmetry_space_group_name_H-M   'P 1'
_cell_length_a   9.92292225
_cell_length_b   10.03043321
_cell_length_c   10.02507104
_cell_angle_alpha   106.95968619
_cell_angle_beta   107.15766836
_cell_angle_gamma   106.81765890
_symmetry_Int_Tables_number   1
_chemical_formula_structural   CaPrNd5CoI12
_chemical_formula_sum   'Ca1 Pr1 Nd5 Co1 I12'
_cell_volume   831.46842391
_cell_formula_units_Z   1
loop_
 _symmetry_equiv_pos_site_id
 _symmetry_equiv_pos_as_xyz
  1  'x, y, z'
loop_
 _atom_site_type_symbol
 _atom_site_label
 _atom_site_symmetry_multiplicity
 _atom_site_fract_x
 _atom_site_fract_y
 _atom_site_fract_z
 _atom_site_occupancy
  Ca  Ca0  1  0.500050  0.499917  0.499969  1
  Pr  Pr1  1  0.710604  0.975303  0.905386  1
  Nd  Nd2  1  0.974450  0.900168  0.695981  1
  Nd  Nd3  1  0.025638  0.099822  0.304146  1
  Nd  Nd4  1  0.099998  0.303429  0.026107  1
  Nd  Nd5  1  0.287760  0.024697  0.094248  1
  Nd  Nd6  1  0.900737  0.696770  0.974113  1
  Co  Co7  1  0.000201  0.000152  0.000102  1
  I  I8  1  0.537428  0.616465  0.841439  1
  I  I9  1  0.462338  0.381582  0.158214  1
  I  I10  1  0.319345  0.927199  0.775430  1
  I  I11  1  0.383717  0.157549  0.460334  1
  I  I12  1  0.926822  0.774372  0.318447  1
  I  I13  1  0.680166  0.073345  0.226507  1
  I  I14  1  0.073237  0.225618  0.681566  1
  I  I15  1  0.772916  0.319594  0.926344  1
  I  I16  1  0.228316  0.682537  0.074046  1
  I  I17  1  0.844385  0.539467  0.618441  1
  I  I18  1  0.155718  0.460538  0.381533  1
  I  I19  1  0.616173  0.841475  0.537647  1
