# generated using pymatgen
data_Ca7TaSi2N9
_symmetry_space_group_name_H-M   'P 1'
_cell_length_a   9.95444300
_cell_length_b   6.06568621
_cell_length_c   9.01654951
_cell_angle_alpha   88.14582414
_cell_angle_beta   90.00000000
_cell_angle_gamma   90.00000000
_symmetry_Int_Tables_number   1
_chemical_formula_structural   Ca7TaSi2N9
_chemical_formula_sum   'Ca14 Ta2 Si4 N18'
_cell_volume   544.13896398
_cell_formula_units_Z   2
loop_
 _symmetry_equiv_pos_site_id
 _symmetry_equiv_pos_as_xyz
  1  'x, y, z'
loop_
 _atom_site_type_symbol
 _atom_site_label
 _atom_site_symmetry_multiplicity
 _atom_site_fract_x
 _atom_site_fract_y
 _atom_site_fract_z
 _atom_site_occupancy
  Ca  Ca0  1  0.942360  0.431267  0.166087  1
  Ca  Ca1  1  0.077667  0.248565  0.495148  1
  Ca  Ca2  1  0.250000  0.090957  0.800227  1
  Ca  Ca3  1  0.442360  0.568733  0.833913  1
  Ca  Ca4  1  0.577667  0.751435  0.504852  1
  Ca  Ca5  1  0.577482  0.068744  0.830860  1
  Ca  Ca6  1  0.922518  0.068744  0.830860  1
  Ca  Ca7  1  0.422518  0.931256  0.169140  1
  Ca  Ca8  1  0.422333  0.248565  0.495148  1
  Ca  Ca9  1  0.077482  0.931256  0.169140  1
  Ca  Ca10  1  0.922333  0.751435  0.504852  1
  Ca  Ca11  1  0.057640  0.568733  0.833913  1
  Ca  Ca12  1  0.750000  0.909043  0.199773  1
  Ca  Ca13  1  0.557640  0.431267  0.166087  1
  Ta  Ta14  1  0.750000  0.279807  0.439470  1
  Ta  Ta15  1  0.250000  0.720193  0.560530  1
  Si  Si16  1  0.250000  0.323321  0.061959  1
  Si  Si17  1  0.750000  0.458972  0.722433  1
  Si  Si18  1  0.750000  0.676679  0.938041  1
  Si  Si19  1  0.250000  0.541028  0.277567  1
  N  N20  1  0.399737  0.232233  0.981813  1
  N  N21  1  0.250000  0.246844  0.259076  1
  N  N22  1  0.901367  0.115848  0.342702  1
  N  N23  1  0.610780  0.364480  0.628951  1
  N  N24  1  0.750000  0.557453  0.332637  1
  N  N25  1  0.250000  0.619965  0.084166  1
  N  N26  1  0.889220  0.364480  0.628951  1
  N  N27  1  0.389220  0.635520  0.371049  1
  N  N28  1  0.750000  0.380035  0.915834  1
  N  N29  1  0.098633  0.884152  0.657298  1
  N  N30  1  0.750000  0.753156  0.740924  1
  N  N31  1  0.110780  0.635520  0.371049  1
  N  N32  1  0.600263  0.767767  0.018187  1
  N  N33  1  0.250000  0.442547  0.667363  1
  N  N34  1  0.401367  0.884152  0.657298  1
  N  N35  1  0.598633  0.115848  0.342702  1
  N  N36  1  0.100263  0.232233  0.981813  1
  N  N37  1  0.899737  0.767767  0.018187  1
