# generated using pymatgen
data_Pu5BiO20
_symmetry_space_group_name_H-M   'P 1'
_cell_length_a   8.14782134
_cell_length_b   8.16223453
_cell_length_c   8.01597600
_cell_angle_alpha   88.92271978
_cell_angle_beta   90.96321642
_cell_angle_gamma   119.41530160
_symmetry_Int_Tables_number   1
_chemical_formula_structural   Pu5BiO20
_chemical_formula_sum   'Pu5 Bi1 O20'
_cell_volume   464.27270074
_cell_formula_units_Z   1
loop_
 _symmetry_equiv_pos_site_id
 _symmetry_equiv_pos_as_xyz
  1  'x, y, z'
loop_
 _atom_site_type_symbol
 _atom_site_label
 _atom_site_symmetry_multiplicity
 _atom_site_fract_x
 _atom_site_fract_y
 _atom_site_fract_z
 _atom_site_occupancy
  Pu  Pu0  1  0.023550  0.984905  0.496151  1
  Pu  Pu1  1  0.510197  0.479789  0.002339  1
  Pu  Pu2  1  0.264970  0.735890  0.751127  1
  Pu  Pu3  1  0.267263  0.733416  0.249706  1
  Pu  Pu4  1  0.768572  0.232359  0.751683  1
  Bi  Bi5  1  0.763239  0.236562  0.251374  1
  O  O6  1  0.156499  0.881801  0.296628  1
  O  O7  1  0.112182  0.903704  0.682939  1
  O  O8  1  0.596354  0.395214  0.188453  1
  O  O9  1  0.648937  0.366270  0.820030  1
  O  O10  1  0.888015  0.098184  0.682298  1
  O  O11  1  0.920582  0.076866  0.328849  1
  O  O12  1  0.414826  0.571035  0.828396  1
  O  O13  1  0.377771  0.584868  0.200666  1
  O  O14  1  0.041844  0.511232  0.703791  1
  O  O15  1  0.500956  0.952346  0.207404  1
  O  O16  1  0.489195  0.959437  0.798490  1
  O  O17  1  0.034037  0.514206  0.292157  1
  O  O18  1  0.345233  0.744303  0.529803  1
  O  O19  1  0.844972  0.224921  0.975441  1
  O  O20  1  0.691432  0.239500  0.527593  1
  O  O21  1  0.184378  0.726820  0.972099  1
  O  O22  1  0.241399  0.202597  0.490893  1
  O  O23  1  0.817945  0.757161  0.485372  1
  O  O24  1  0.728682  0.696927  0.998048  1
  O  O25  1  0.302970  0.253685  0.988266  1
