# generated using pymatgen
data_Er8Sc12Si11Ni5
_symmetry_space_group_name_H-M   'P 1'
_cell_length_a   6.85905084
_cell_length_b   7.53632357
_cell_length_c   13.84358458
_cell_angle_alpha   89.45818950
_cell_angle_beta   90.46986634
_cell_angle_gamma   90.33848337
_symmetry_Int_Tables_number   1
_chemical_formula_structural   Er8Sc12Si11Ni5
_chemical_formula_sum   'Er8 Sc12 Si11 Ni5'
_cell_volume   715.53472143
_cell_formula_units_Z   1
loop_
 _symmetry_equiv_pos_site_id
 _symmetry_equiv_pos_as_xyz
  1  'x, y, z'
loop_
 _atom_site_type_symbol
 _atom_site_label
 _atom_site_symmetry_multiplicity
 _atom_site_fract_x
 _atom_site_fract_y
 _atom_site_fract_z
 _atom_site_occupancy
  Er  Er0  1  0.004715  0.183188  0.091079  1
  Er  Er1  1  0.993209  0.820347  0.907421  1
  Er  Er2  1  0.491769  0.685736  0.909377  1
  Er  Er3  1  0.995288  0.813108  0.591936  1
  Er  Er4  1  0.505358  0.316806  0.091658  1
  Er  Er5  1  0.009482  0.185150  0.410666  1
  Er  Er6  1  0.507073  0.315073  0.407653  1
  Er  Er7  1  0.487382  0.674343  0.591327  1
  Sc  Sc8  1  0.172730  0.507899  0.750334  1
  Sc  Sc9  1  0.823920  0.494195  0.249781  1
  Sc  Sc10  1  0.321231  0.000597  0.251487  1
  Sc  Sc11  1  0.675119  0.995562  0.748264  1
  Sc  Sc12  1  0.324995  0.177694  0.625825  1
  Sc  Sc13  1  0.682496  0.829336  0.371804  1
  Sc  Sc14  1  0.181523  0.659116  0.375485  1
  Sc  Sc15  1  0.681130  0.832037  0.129877  1
  Sc  Sc16  1  0.827184  0.333509  0.628467  1
  Sc  Sc17  1  0.317634  0.172783  0.868878  1
  Sc  Sc18  1  0.815346  0.332612  0.869659  1
  Sc  Sc19  1  0.182293  0.667342  0.129892  1
  Si  Si20  1  0.278156  0.876449  0.749618  1
  Si  Si21  1  0.725734  0.127090  0.250202  1
  Si  Si22  1  0.223539  0.367102  0.249087  1
  Si  Si23  1  0.773648  0.632256  0.751520  1
  Si  Si24  1  0.840275  0.531518  0.461269  1
  Si  Si25  1  0.341497  0.962935  0.460330  1
  Si  Si26  1  0.836234  0.536603  0.039106  1
  Si  Si27  1  0.663697  0.032019  0.540483  1
  Si  Si28  1  0.159380  0.467619  0.960319  1
  Si  Si29  1  0.660117  0.035846  0.959991  1
  Si  Si30  1  0.336140  0.966395  0.039267  1
  Ni  Ni31  1  0.035520  0.113325  0.745676  1
  Ni  Ni32  1  0.969240  0.892592  0.251693  1
  Ni  Ni33  1  0.469777  0.599994  0.249549  1
  Ni  Ni34  1  0.531059  0.396645  0.749572  1
  Ni  Ni35  1  0.156109  0.465180  0.541448  1
