# generated using pymatgen
data_Hf2AlVRe2
_symmetry_space_group_name_H-M   'P 1'
_cell_length_a   5.18114100
_cell_length_b   5.19500477
_cell_length_c   8.53570300
_cell_angle_alpha   90.00000000
_cell_angle_beta   90.00000000
_cell_angle_gamma   120.08855707
_symmetry_Int_Tables_number   1
_chemical_formula_structural   Hf2AlVRe2
_chemical_formula_sum   'Hf4 Al2 V2 Re4'
_cell_volume   198.78932095
_cell_formula_units_Z   2
loop_
 _symmetry_equiv_pos_site_id
 _symmetry_equiv_pos_as_xyz
  1  'x, y, z'
loop_
 _atom_site_type_symbol
 _atom_site_label
 _atom_site_symmetry_multiplicity
 _atom_site_fract_x
 _atom_site_fract_y
 _atom_site_fract_z
 _atom_site_occupancy
  Hf  Hf0  1  0.332642  0.668741  0.435243  1
  Hf  Hf1  1  0.667358  0.336099  0.935243  1
  Hf  Hf2  1  0.667358  0.336099  0.564757  1
  Hf  Hf3  1  0.332642  0.668741  0.064757  1
  Al  Al4  1  0.000000  0.005118  0.000000  1
  Al  Al5  1  0.000000  0.005118  0.500000  1
  V  V6  1  0.170731  0.338663  0.750000  1
  V  V7  1  0.829269  0.167930  0.250000  1
  Re  Re8  1  0.342861  0.166916  0.250000  1
  Re  Re9  1  0.657139  0.824057  0.750000  1
  Re  Re10  1  0.829419  0.655968  0.250000  1
  Re  Re11  1  0.170581  0.826551  0.750000  1
