# generated using pymatgen
data_Na4Ti(WO4)3
_symmetry_space_group_name_H-M   'P 1'
_cell_length_a   5.51080492
_cell_length_b   5.53580145
_cell_length_c   7.81758300
_cell_angle_alpha   90.43490261
_cell_angle_beta   90.31431296
_cell_angle_gamma   90.04607242
_symmetry_Int_Tables_number   1
_chemical_formula_structural   Na4Ti(WO4)3
_chemical_formula_sum   'Na4 Ti1 W3 O12'
_cell_volume   238.47828641
_cell_formula_units_Z   1
loop_
 _symmetry_equiv_pos_site_id
 _symmetry_equiv_pos_as_xyz
  1  'x, y, z'
loop_
 _atom_site_type_symbol
 _atom_site_label
 _atom_site_symmetry_multiplicity
 _atom_site_fract_x
 _atom_site_fract_y
 _atom_site_fract_z
 _atom_site_occupancy
  Na  Na0  1  0.999914  0.491263  0.268379  1
  Na  Na1  1  0.501261  0.987327  0.740315  1
  Na  Na2  1  0.999979  0.494029  0.739339  1
  Na  Na3  1  0.499365  0.988223  0.271029  1
  Ti  Ti4  1  0.501146  0.491260  0.504109  1
  W  W5  1  0.999849  0.993577  0.003322  1
  W  W6  1  0.000400  0.992486  0.503304  1
  W  W7  1  0.499860  0.493161  0.003517  1
  O  O8  1  0.272694  0.235488  0.475364  1
  O  O9  1  0.064007  0.997989  0.759834  1
  O  O10  1  0.284610  0.792238  0.036195  1
  O  O11  1  0.230547  0.733112  0.475404  1
  O  O12  1  0.799455  0.706891  0.970617  1
  O  O13  1  0.442191  0.498007  0.760159  1
  O  O14  1  0.557364  0.490460  0.246285  1
  O  O15  1  0.199680  0.280839  0.035563  1
  O  O16  1  0.769865  0.254608  0.530811  1
  O  O17  1  0.715162  0.195302  0.969864  1
  O  O18  1  0.935524  0.989390  0.246632  1
  O  O19  1  0.727126  0.751942  0.531157  1
