# generated using pymatgen
data_Zr6Mn3Nb4(Al3Ir)4
_symmetry_space_group_name_H-M   'P 1'
_cell_length_a   8.79339349
_cell_length_b   8.77288077
_cell_length_c   8.78609015
_cell_angle_alpha   60.06948838
_cell_angle_beta   59.97249247
_cell_angle_gamma   59.92262123
_symmetry_Int_Tables_number   1
_chemical_formula_structural   Zr6Mn3Nb4(Al3Ir)4
_chemical_formula_sum   'Zr6 Mn3 Nb4 Al12 Ir4'
_cell_volume   479.13920516
_cell_formula_units_Z   1
loop_
 _symmetry_equiv_pos_site_id
 _symmetry_equiv_pos_as_xyz
  1  'x, y, z'
loop_
 _atom_site_type_symbol
 _atom_site_label
 _atom_site_symmetry_multiplicity
 _atom_site_fract_x
 _atom_site_fract_y
 _atom_site_fract_z
 _atom_site_occupancy
  Zr  Zr0  1  0.698633  0.701723  0.302135  1
  Zr  Zr1  1  0.297509  0.701723  0.302135  1
  Zr  Zr2  1  0.694275  0.301693  0.309757  1
  Zr  Zr3  1  0.307010  0.301780  0.693812  1
  Zr  Zr4  1  0.697398  0.301780  0.693812  1
  Zr  Zr5  1  0.305501  0.697545  0.691453  1
  Mn  Mn6  1  0.999887  0.002782  0.997444  1
  Mn  Mn7  1  0.996405  0.996057  0.505689  1
  Mn  Mn8  1  0.501850  0.996057  0.505689  1
  Nb  Nb9  1  0.877896  0.888008  0.356199  1
  Nb  Nb10  1  0.883415  0.351056  0.882114  1
  Nb  Nb11  1  0.354206  0.886601  0.874001  1
  Nb  Nb12  1  0.885192  0.886601  0.874001  1
  Al  Al13  1  0.121479  0.116268  0.640774  1
  Al  Al14  1  0.118229  0.643792  0.119749  1
  Al  Al15  1  0.642121  0.115992  0.123751  1
  Al  Al16  1  0.118136  0.115992  0.123751  1
  Al  Al17  1  0.661607  0.662515  0.014271  1
  Al  Al18  1  0.666208  0.006467  0.661115  1
  Al  Al19  1  0.009785  0.667407  0.661074  1
  Al  Al20  1  0.661733  0.667407  0.661074  1
  Al  Al21  1  0.335790  0.335916  0.992507  1
  Al  Al22  1  0.331271  0.999034  0.338426  1
  Al  Al23  1  0.996504  0.329262  0.337024  1
  Al  Al24  1  0.337213  0.329262  0.337024  1
  Ir  Ir25  1  0.999729  0.498532  0.502009  1
  Ir  Ir26  1  0.501382  0.499390  0.999736  1
  Ir  Ir27  1  0.999492  0.499390  0.999736  1
  Ir  Ir28  1  0.500146  0.999969  0.999739  1
