# generated using pymatgen
data_Cs2Sn11RhO24
_symmetry_space_group_name_H-M   'P 1'
_cell_length_a   7.82155053
_cell_length_b   7.89496058
_cell_length_c   9.64902800
_cell_angle_alpha   101.90097221
_cell_angle_beta   101.99703590
_cell_angle_gamma   87.57434722
_symmetry_Int_Tables_number   1
_chemical_formula_structural   Cs2Sn11RhO24
_chemical_formula_sum   'Cs2 Sn11 Rh1 O24'
_cell_volume   570.29393368
_cell_formula_units_Z   1
loop_
 _symmetry_equiv_pos_site_id
 _symmetry_equiv_pos_as_xyz
  1  'x, y, z'
loop_
 _atom_site_type_symbol
 _atom_site_label
 _atom_site_symmetry_multiplicity
 _atom_site_fract_x
 _atom_site_fract_y
 _atom_site_fract_z
 _atom_site_occupancy
  Cs  Cs0  1  0.999594  0.998401  0.209085  1
  Cs  Cs1  1  0.011212  0.005929  0.798948  1
  Sn  Sn2  1  0.485307  0.185505  0.614237  1
  Sn  Sn3  1  0.487354  0.185220  0.276057  1
  Sn  Sn4  1  0.187445  0.508452  0.113957  1
  Sn  Sn5  1  0.184166  0.517737  0.449968  1
  Sn  Sn6  1  0.187274  0.508998  0.784556  1
  Sn  Sn7  1  0.810891  0.482372  0.213707  1
  Sn  Sn8  1  0.814681  0.484521  0.549819  1
  Sn  Sn9  1  0.809645  0.484130  0.883034  1
  Sn  Sn10  1  0.514708  0.820298  0.723498  1
  Sn  Sn11  1  0.510120  0.818772  0.053517  1
  Sn  Sn12  1  0.518242  0.817445  0.389360  1
  Rh  Rh13  1  0.488428  0.177262  0.944536  1
  O  O14  1  0.362634  0.053350  0.064944  1
  O  O15  1  0.366804  0.052269  0.402639  1
  O  O16  1  0.366436  0.053739  0.740351  1
  O  O17  1  0.291884  0.373851  0.278546  1
  O  O18  1  0.299654  0.376451  0.945679  1
  O  O19  1  0.294974  0.378212  0.610756  1
  O  O20  1  0.050979  0.632195  0.278038  1
  O  O21  1  0.052054  0.633926  0.616058  1
  O  O22  1  0.050439  0.634611  0.948180  1
  O  O23  1  0.620219  0.297115  0.486290  1
  O  O24  1  0.619996  0.293540  0.819546  1
  O  O25  1  0.621466  0.291640  0.152310  1
  O  O26  1  0.374979  0.707698  0.181419  1
  O  O27  1  0.379735  0.705617  0.513715  1
  O  O28  1  0.372846  0.707900  0.845359  1
  O  O29  1  0.946188  0.361572  0.049826  1
  O  O30  1  0.947471  0.364773  0.384480  1
  O  O31  1  0.945573  0.364408  0.719140  1
  O  O32  1  0.704169  0.625129  0.721804  1
  O  O33  1  0.702698  0.625587  0.054558  1
  O  O34  1  0.704425  0.621396  0.386873  1
  O  O35  1  0.638610  0.953726  0.933567  1
  O  O36  1  0.637416  0.947326  0.263595  1
  O  O37  1  0.639284  0.948924  0.598047  1
