# generated using pymatgen
data_Mg3Pt8RhO24
_symmetry_space_group_name_H-M   'P 1'
_cell_length_a   4.60049283
_cell_length_b   9.20494971
_cell_length_c   9.45208100
_cell_angle_alpha   90.00000000
_cell_angle_beta   90.00000000
_cell_angle_gamma   89.81738497
_symmetry_Int_Tables_number   1
_chemical_formula_structural   Mg3Pt8RhO24
_chemical_formula_sum   'Mg3 Pt8 Rh1 O24'
_cell_volume   400.26812535
_cell_formula_units_Z   1
loop_
 _symmetry_equiv_pos_site_id
 _symmetry_equiv_pos_as_xyz
  1  'x, y, z'
loop_
 _atom_site_type_symbol
 _atom_site_label
 _atom_site_symmetry_multiplicity
 _atom_site_fract_x
 _atom_site_fract_y
 _atom_site_fract_z
 _atom_site_occupancy
  Mg  Mg0  1  0.000138  0.500292  0.000000  1
  Mg  Mg1  1  0.500000  0.750000  0.500000  1
  Mg  Mg2  1  0.999862  0.999708  0.000000  1
  Pt  Pt3  1  0.994937  0.999530  0.331233  1
  Pt  Pt4  1  0.005063  0.500470  0.331233  1
  Pt  Pt5  1  0.500000  0.250000  0.833138  1
  Pt  Pt6  1  0.500000  0.750000  0.831559  1
  Pt  Pt7  1  0.500000  0.250000  0.166862  1
  Pt  Pt8  1  0.500000  0.750000  0.168441  1
  Pt  Pt9  1  0.994937  0.999530  0.668767  1
  Pt  Pt10  1  0.005063  0.500470  0.668767  1
  Rh  Rh11  1  0.500000  0.250000  0.500000  1
  O  O12  1  0.312284  0.155872  0.000000  1
  O  O13  1  0.310640  0.655870  0.000000  1
  O  O14  1  0.199260  0.403094  0.500000  1
  O  O15  1  0.183589  0.905656  0.500000  1
  O  O16  1  0.800740  0.096906  0.500000  1
  O  O17  1  0.816411  0.594344  0.500000  1
  O  O18  1  0.687716  0.344128  0.000000  1
  O  O19  1  0.689360  0.844130  0.000000  1
  O  O20  1  0.305803  0.154485  0.335843  1
  O  O21  1  0.306875  0.652000  0.333616  1
  O  O22  1  0.193095  0.401760  0.835151  1
  O  O23  1  0.195772  0.903945  0.832914  1
  O  O24  1  0.806905  0.098240  0.835151  1
  O  O25  1  0.804228  0.596055  0.832914  1
  O  O26  1  0.806905  0.098240  0.164849  1
  O  O27  1  0.804228  0.596055  0.167086  1
  O  O28  1  0.193095  0.401760  0.164849  1
  O  O29  1  0.195772  0.903945  0.167086  1
  O  O30  1  0.694197  0.345515  0.335843  1
  O  O31  1  0.693125  0.848000  0.333616  1
  O  O32  1  0.305803  0.154485  0.664157  1
  O  O33  1  0.306875  0.652000  0.666384  1
  O  O34  1  0.694197  0.345515  0.664157  1
  O  O35  1  0.693125  0.848000  0.666384  1
