# generated using pymatgen
data_Tb2Th2Al24Pd5Pt4
_symmetry_space_group_name_H-M   'P 1'
_cell_length_a   7.59719293
_cell_length_b   7.61271049
_cell_length_c   13.21101949
_cell_angle_alpha   84.51049492
_cell_angle_beta   78.92794494
_cell_angle_gamma   59.95440047
_symmetry_Int_Tables_number   1
_chemical_formula_structural   Tb2Th2Al24Pd5Pt4
_chemical_formula_sum   'Tb2 Th2 Al24 Pd5 Pt4'
_cell_volume   649.08217089
_cell_formula_units_Z   1
loop_
 _symmetry_equiv_pos_site_id
 _symmetry_equiv_pos_as_xyz
  1  'x, y, z'
loop_
 _atom_site_type_symbol
 _atom_site_label
 _atom_site_symmetry_multiplicity
 _atom_site_fract_x
 _atom_site_fract_y
 _atom_site_fract_z
 _atom_site_occupancy
  Tb  Tb0  1  0.733658  0.498387  0.807220  1
  Tb  Tb1  1  0.266342  0.501613  0.192780  1
  Th  Th2  1  0.394818  0.168129  0.806570  1
  Th  Th3  1  0.605182  0.831871  0.193430  1
  Al  Al4  1  0.687907  0.830749  0.944192  1
  Al  Al5  1  0.312093  0.169251  0.055808  1
  Al  Al6  1  0.145645  0.833249  0.561569  1
  Al  Al7  1  0.854355  0.166751  0.438431  1
  Al  Al8  1  0.481040  0.166962  0.557780  1
  Al  Al9  1  0.518960  0.833038  0.442220  1
  Al  Al10  1  0.212266  0.168993  0.333566  1
  Al  Al11  1  0.787734  0.831007  0.666434  1
  Al  Al12  1  0.438080  0.510175  0.666973  1
  Al  Al13  1  0.561920  0.489825  0.333027  1
  Al  Al14  1  0.107871  0.160056  0.665411  1
  Al  Al15  1  0.892129  0.839944  0.334589  1
  Al  Al16  1  0.351767  0.502414  0.946037  1
  Al  Al17  1  0.648233  0.497586  0.053963  1
  Al  Al18  1  0.012635  0.167426  0.954728  1
  Al  Al19  1  0.987365  0.832574  0.045272  1
  Al  Al20  1  0.186331  0.500043  0.440905  1
  Al  Al21  1  0.813669  0.499957  0.559095  1
  Al  Al22  1  0.735103  0.167016  0.183537  1
  Al  Al23  1  0.264897  0.832984  0.816463  1
  Al  Al24  1  0.059872  0.633651  0.814548  1
  Al  Al25  1  0.940128  0.366349  0.185452  1
  Al  Al26  1  0.859650  0.040511  0.815883  1
  Al  Al27  1  0.140350  0.959489  0.184118  1
  Pd  Pd28  1  0.120948  0.492092  0.638131  1
  Pd  Pd29  1  0.879052  0.507908  0.361869  1
  Pd  Pd30  1  0.656744  0.171112  0.999880  1
  Pd  Pd31  1  0.343256  0.828888  0.000120  1
  Pd  Pd32  1  0.000000  0.500000  0.000000  1
  Pt  Pt33  1  0.537702  0.166050  0.361740  1
  Pt  Pt34  1  0.462298  0.833950  0.638260  1
  Pt  Pt35  1  0.778625  0.174739  0.637230  1
  Pt  Pt36  1  0.221375  0.825261  0.362770  1
