# generated using pymatgen
data_Eu2Si2PdRh3
_symmetry_space_group_name_H-M   'P 1'
_cell_length_a   4.12107144
_cell_length_b   4.16378600
_cell_length_c   9.06899820
_cell_angle_alpha   90.00000000
_cell_angle_beta   103.13266989
_cell_angle_gamma   90.00000000
_symmetry_Int_Tables_number   1
_chemical_formula_structural   Eu2Si2PdRh3
_chemical_formula_sum   'Eu2 Si2 Pd1 Rh3'
_cell_volume   151.54736866
_cell_formula_units_Z   1
loop_
 _symmetry_equiv_pos_site_id
 _symmetry_equiv_pos_as_xyz
  1  'x, y, z'
loop_
 _atom_site_type_symbol
 _atom_site_label
 _atom_site_symmetry_multiplicity
 _atom_site_fract_x
 _atom_site_fract_y
 _atom_site_fract_z
 _atom_site_occupancy
  Eu  Eu0  1  0.598067  0.250000  0.196134  1
  Eu  Eu1  1  0.399416  0.750000  0.798833  1
  Si  Si2  1  0.819154  0.250000  0.638309  1
  Si  Si3  1  0.179688  0.750000  0.359376  1
  Pd  Pd4  1  0.954813  0.250000  0.909627  1
  Rh  Rh5  1  0.048600  0.750000  0.097200  1
  Rh  Rh6  1  0.250061  0.250000  0.500121  1
  Rh  Rh7  1  0.750200  0.750000  0.500400  1
