# generated using pymatgen
data_Br3N2
_symmetry_space_group_name_H-M   'P 1'
_cell_length_a   5.78467238
_cell_length_b   5.71355282
_cell_length_c   6.52120738
_cell_angle_alpha   74.05410140
_cell_angle_beta   81.20246245
_cell_angle_gamma   88.27931318
_symmetry_Int_Tables_number   1
_chemical_formula_structural   Br3N2
_chemical_formula_sum   'Br3 N2'
_cell_volume   204.78477781
_cell_formula_units_Z   1
loop_
 _symmetry_equiv_pos_site_id
 _symmetry_equiv_pos_as_xyz
  1  'x, y, z'
loop_
 _atom_site_type_symbol
 _atom_site_label
 _atom_site_symmetry_multiplicity
 _atom_site_fract_x
 _atom_site_fract_y
 _atom_site_fract_z
 _atom_site_occupancy
  Br  Br0  1  0.393502  0.713902  0.013370  1
  Br  Br1  1  0.320252  0.313950  0.314628  1
  Br  Br2  1  0.438832  0.966652  0.620600  1
  N  N3  1  0.881296  0.181271  0.964205  1
  N  N4  1  0.906269  0.361873  0.842241  1
