# generated using pymatgen
data_NaCa21(Ga6Bi)2
_symmetry_space_group_name_H-M   'P 1'
_cell_length_a   11.42813795
_cell_length_b   11.42813879
_cell_length_c   11.48157400
_cell_angle_alpha   59.84521206
_cell_angle_beta   59.84520962
_cell_angle_gamma   59.80703363
_symmetry_Int_Tables_number   1
_chemical_formula_structural   NaCa21(Ga6Bi)2
_chemical_formula_sum   'Na1 Ca21 Ga12 Bi2'
_cell_volume   1056.28950191
_cell_formula_units_Z   1
loop_
 _symmetry_equiv_pos_site_id
 _symmetry_equiv_pos_as_xyz
  1  'x, y, z'
loop_
 _atom_site_type_symbol
 _atom_site_label
 _atom_site_symmetry_multiplicity
 _atom_site_fract_x
 _atom_site_fract_y
 _atom_site_fract_z
 _atom_site_occupancy
  Na  Na0  1  0.501799  0.498201  0.500000  1
  Ca  Ca1  1  0.992527  0.007473  0.000000  1
  Ca  Ca2  1  0.125744  0.137859  0.125244  1
  Ca  Ca3  1  0.392851  0.878613  0.864267  1
  Ca  Ca4  1  0.871082  0.386338  0.871290  1
  Ca  Ca5  1  0.862141  0.874256  0.388846  1
  Ca  Ca6  1  0.121387  0.607149  0.135733  1
  Ca  Ca7  1  0.125744  0.137859  0.611154  1
  Ca  Ca8  1  0.613662  0.128918  0.128710  1
  Ca  Ca9  1  0.862141  0.874256  0.874756  1
  Ca  Ca10  1  0.509058  0.833097  0.490397  1
  Ca  Ca11  1  0.831222  0.499877  0.500778  1
  Ca  Ca12  1  0.509058  0.833097  0.167448  1
  Ca  Ca13  1  0.166903  0.490942  0.832552  1
  Ca  Ca14  1  0.831222  0.499877  0.168124  1
  Ca  Ca15  1  0.510227  0.489773  0.832455  1
  Ca  Ca16  1  0.165167  0.834833  0.500000  1
  Ca  Ca17  1  0.500123  0.168778  0.831876  1
  Ca  Ca18  1  0.510227  0.489773  0.167545  1
  Ca  Ca19  1  0.831403  0.168597  0.500000  1
  Ca  Ca20  1  0.166903  0.490942  0.509603  1
  Ca  Ca21  1  0.500123  0.168778  0.499222  1
  Ga  Ga22  1  0.782757  0.217243  0.218389  1
  Ga  Ga23  1  0.784508  0.782072  0.216710  1
  Ga  Ga24  1  0.217928  0.215492  0.783290  1
  Ga  Ga25  1  0.782757  0.217243  0.781611  1
  Ga  Ga26  1  0.309540  0.309987  0.309056  1
  Ga  Ga27  1  0.926130  0.691867  0.691002  1
  Ga  Ga28  1  0.690686  0.929653  0.689831  1
  Ga  Ga29  1  0.690013  0.690461  0.928583  1
  Ga  Ga30  1  0.308133  0.073870  0.308998  1
  Ga  Ga31  1  0.309539  0.309987  0.071417  1
  Ga  Ga32  1  0.070347  0.309314  0.310169  1
  Ga  Ga33  1  0.690013  0.690461  0.690943  1
  Bi  Bi34  1  0.218469  0.781531  0.214786  1
  Bi  Bi35  1  0.218469  0.781531  0.785214  1
