# generated using pymatgen
data_Tb7DyGePd24
_symmetry_space_group_name_H-M   'P 1'
_cell_length_a   8.36886816
_cell_length_b   8.36886833
_cell_length_c   8.36886800
_cell_angle_alpha   90.01133747
_cell_angle_beta   89.98866253
_cell_angle_gamma   89.98866477
_symmetry_Int_Tables_number   1
_chemical_formula_structural   Tb7DyGePd24
_chemical_formula_sum   'Tb7 Dy1 Ge1 Pd24'
_cell_volume   586.13837194
_cell_formula_units_Z   1
loop_
 _symmetry_equiv_pos_site_id
 _symmetry_equiv_pos_as_xyz
  1  'x, y, z'
loop_
 _atom_site_type_symbol
 _atom_site_label
 _atom_site_symmetry_multiplicity
 _atom_site_fract_x
 _atom_site_fract_y
 _atom_site_fract_z
 _atom_site_occupancy
  Tb  Tb0  1  0.253353  0.253327  0.253323  1
  Tb  Tb1  1  0.746790  0.746693  0.746695  1
  Tb  Tb2  1  0.746673  0.746646  0.253324  1
  Tb  Tb3  1  0.746673  0.253327  0.746649  1
  Tb  Tb4  1  0.253307  0.253211  0.746694  1
  Tb  Tb5  1  0.253307  0.746692  0.253207  1
  Tb  Tb6  1  0.253183  0.746816  0.746818  1
  Dy  Dy7  1  0.747046  0.252962  0.252974  1
  Ge  Ge8  1  0.999769  0.000230  0.000229  1
  Pd  Pd9  1  0.259760  0.499975  0.999940  1
  Pd  Pd10  1  0.740124  0.499863  0.000198  1
  Pd  Pd11  1  0.999804  0.259893  0.499859  1
  Pd  Pd12  1  0.500138  0.259874  0.000190  1
  Pd  Pd13  1  0.000061  0.740216  0.499976  1
  Pd  Pd14  1  0.500024  0.740242  0.999946  1
  Pd  Pd15  1  0.500142  0.000192  0.259879  1
  Pd  Pd16  1  0.259774  0.999938  0.499981  1
  Pd  Pd17  1  0.500021  0.999946  0.740233  1
  Pd  Pd18  1  0.740118  0.000197  0.499855  1
  Pd  Pd19  1  0.999805  0.499862  0.259894  1
  Pd  Pd20  1  0.000059  0.499972  0.740218  1
  Pd  Pd21  1  0.253232  0.499999  0.499995  1
  Pd  Pd22  1  0.746940  0.499601  0.499598  1
  Pd  Pd23  1  0.500398  0.253074  0.499603  1
  Pd  Pd24  1  0.500003  0.746751  0.499989  1
  Pd  Pd25  1  0.500406  0.499598  0.253076  1
  Pd  Pd26  1  0.500000  0.499998  0.746749  1
  Pd  Pd27  1  0.289310  0.000062  0.000082  1
  Pd  Pd28  1  0.710473  0.000284  0.000263  1
  Pd  Pd29  1  0.999722  0.289535  0.000268  1
  Pd  Pd30  1  0.999931  0.710681  0.000077  1
  Pd  Pd31  1  0.999743  0.000267  0.289537  1
  Pd  Pd32  1  0.999910  0.000080  0.710679  1
