# generated using pymatgen
data_Hf18Ta3As2W5
_symmetry_space_group_name_H-M   'P 1'
_cell_length_a   8.72053891
_cell_length_b   8.74209488
_cell_length_c   8.77304200
_cell_angle_alpha   90.00000000
_cell_angle_beta   90.00000000
_cell_angle_gamma   119.68032793
_symmetry_Int_Tables_number   1
_chemical_formula_structural   Hf18Ta3As2W5
_chemical_formula_sum   'Hf18 Ta3 As2 W5'
_cell_volume   581.07159813
_cell_formula_units_Z   1
loop_
 _symmetry_equiv_pos_site_id
 _symmetry_equiv_pos_as_xyz
  1  'x, y, z'
loop_
 _atom_site_type_symbol
 _atom_site_label
 _atom_site_symmetry_multiplicity
 _atom_site_fract_x
 _atom_site_fract_y
 _atom_site_fract_z
 _atom_site_occupancy
  Hf  Hf0  1  0.195954  0.392311  0.047415  1
  Hf  Hf1  1  0.804311  0.608325  0.548924  1
  Hf  Hf2  1  0.608641  0.804575  0.045640  1
  Hf  Hf3  1  0.196024  0.804253  0.044406  1
  Hf  Hf4  1  0.804237  0.195387  0.546158  1
  Hf  Hf5  1  0.392356  0.195872  0.547815  1
  Hf  Hf6  1  0.804311  0.608325  0.951076  1
  Hf  Hf7  1  0.804237  0.195387  0.953842  1
  Hf  Hf8  1  0.392356  0.195872  0.952185  1
  Hf  Hf9  1  0.608641  0.804575  0.454360  1
  Hf  Hf10  1  0.196024  0.804253  0.455594  1
  Hf  Hf11  1  0.195954  0.392311  0.452585  1
  Hf  Hf12  1  0.542006  0.080414  0.250000  1
  Hf  Hf13  1  0.459562  0.919030  0.750000  1
  Hf  Hf14  1  0.919409  0.457963  0.250000  1
  Hf  Hf15  1  0.540191  0.459867  0.250000  1
  Hf  Hf16  1  0.461570  0.542013  0.750000  1
  Hf  Hf17  1  0.080124  0.541798  0.750000  1
  Ta  Ta18  1  0.887482  0.778568  0.250000  1
  Ta  Ta19  1  0.110023  0.220704  0.750000  1
  Ta  Ta20  1  0.220815  0.111781  0.250000  1
  As  As21  1  0.333838  0.667176  0.250000  1
  As  As22  1  0.667086  0.333371  0.750000  1
  W  W23  1  0.999093  0.999496  0.999110  1
  W  W24  1  0.999093  0.999496  0.500890  1
  W  W25  1  0.888872  0.110300  0.250000  1
  W  W26  1  0.108956  0.888270  0.750000  1
  W  W27  1  0.778836  0.888306  0.750000  1
