# generated using pymatgen
data_Pa3ZnGa2Pd3
_symmetry_space_group_name_H-M   'P 1'
_cell_length_a   6.95316300
_cell_length_b   6.95348906
_cell_length_c   4.25137700
_cell_angle_alpha   90.00000000
_cell_angle_beta   90.00000000
_cell_angle_gamma   119.99845363
_symmetry_Int_Tables_number   1
_chemical_formula_structural   Pa3ZnGa2Pd3
_chemical_formula_sum   'Pa3 Zn1 Ga2 Pd3'
_cell_volume   178.01319843
_cell_formula_units_Z   1
loop_
 _symmetry_equiv_pos_site_id
 _symmetry_equiv_pos_as_xyz
  1  'x, y, z'
loop_
 _atom_site_type_symbol
 _atom_site_label
 _atom_site_symmetry_multiplicity
 _atom_site_fract_x
 _atom_site_fract_y
 _atom_site_fract_z
 _atom_site_occupancy
  Pa  Pa0  1  0.999690  0.424733  0.000000  1
  Pa  Pa1  1  0.574957  0.575267  0.000000  1
  Pa  Pa2  1  0.426532  0.000000  0.000000  1
  Zn  Zn3  1  0.761020  0.000000  0.500000  1
  Ga  Ga4  1  0.999075  0.762235  0.500000  1
  Ga  Ga5  1  0.236840  0.237765  0.500000  1
  Pd  Pd6  1  0.003508  0.000000  0.000000  1
  Pd  Pd7  1  0.666421  0.334465  0.500000  1
  Pd  Pd8  1  0.331957  0.665535  0.500000  1
