# generated using pymatgen
data_Ho2TmSi5
_symmetry_space_group_name_H-M   'P 1'
_cell_length_a   6.59869464
_cell_length_b   6.60213197
_cell_length_c   8.25351660
_cell_angle_alpha   89.99999889
_cell_angle_beta   89.96271160
_cell_angle_gamma   120.01723397
_symmetry_Int_Tables_number   1
_chemical_formula_structural   Ho2TmSi5
_chemical_formula_sum   'Ho4 Tm2 Si10'
_cell_volume   311.34100619
_cell_formula_units_Z   2
loop_
 _symmetry_equiv_pos_site_id
 _symmetry_equiv_pos_as_xyz
  1  'x, y, z'
loop_
 _atom_site_type_symbol
 _atom_site_label
 _atom_site_symmetry_multiplicity
 _atom_site_fract_x
 _atom_site_fract_y
 _atom_site_fract_z
 _atom_site_occupancy
  Ho  Ho0  1  0.330532  0.000321  0.500043  1
  Ho  Ho1  1  0.669468  0.669789  0.499957  1
  Ho  Ho2  1  0.000000  0.330742  0.500000  1
  Ho  Ho3  1  0.000000  0.330526  0.000000  1
  Tm  Tm4  1  0.669584  0.669471  0.000104  1
  Tm  Tm5  1  0.330416  0.999887  0.999896  1
  Si  Si6  1  0.999913  0.999983  0.752018  1
  Si  Si7  1  0.667854  0.058579  0.751337  1
  Si  Si8  1  0.391671  0.331418  0.752529  1
  Si  Si9  1  0.940314  0.609732  0.751599  1
  Si  Si10  1  0.333202  0.666397  0.751888  1
  Si  Si11  1  0.000087  0.000070  0.247982  1
  Si  Si12  1  0.666798  0.333195  0.248112  1
  Si  Si13  1  0.332146  0.390725  0.248663  1
  Si  Si14  1  0.059686  0.669418  0.248401  1
  Si  Si15  1  0.608329  0.939747  0.247471  1
