# generated using pymatgen
data_Yb8As5Cl
_symmetry_space_group_name_H-M   'P 1'
_cell_length_a   7.69900741
_cell_length_b   7.69900688
_cell_length_c   7.69900699
_cell_angle_alpha   109.57658361
_cell_angle_beta   109.26070695
_cell_angle_gamma   109.57658055
_symmetry_Int_Tables_number   1
_chemical_formula_structural   Yb8As5Cl
_chemical_formula_sum   'Yb8 As5 Cl1'
_cell_volume   351.29975793
_cell_formula_units_Z   1
loop_
 _symmetry_equiv_pos_site_id
 _symmetry_equiv_pos_as_xyz
  1  'x, y, z'
loop_
 _atom_site_type_symbol
 _atom_site_label
 _atom_site_symmetry_multiplicity
 _atom_site_fract_x
 _atom_site_fract_y
 _atom_site_fract_z
 _atom_site_occupancy
  Yb  Yb0  1  0.148501  0.504494  0.999386  1
  Yb  Yb1  1  0.482847  0.990296  0.617925  1
  Yb  Yb2  1  0.382075  0.364922  0.372371  1
  Yb  Yb3  1  0.007448  0.135078  0.517153  1
  Yb  Yb4  1  0.855993  0.850885  0.851499  1
  Yb  Yb5  1  0.000614  0.649115  0.505108  1
  Yb  Yb6  1  0.627629  0.509704  0.992552  1
  Yb  Yb7  1  0.494892  0.995506  0.144007  1
  As  As8  1  0.111675  0.866221  0.242133  1
  As  As9  1  0.375912  0.633779  0.745455  1
  As  As10  1  0.254545  0.130458  0.888325  1
  As  As11  1  0.757867  0.369542  0.624088  1
  As  As12  1  0.625000  0.750000  0.375000  1
  Cl  Cl13  1  0.875000  0.250000  0.125000  1
