# generated using pymatgen
data_Hf18Re7Ni2W
_symmetry_space_group_name_H-M   'P 1'
_cell_length_a   8.60453800
_cell_length_b   8.60453757
_cell_length_c   8.46675300
_cell_angle_alpha   90.00000000
_cell_angle_beta   90.00000000
_cell_angle_gamma   120.00000165
_symmetry_Int_Tables_number   1
_chemical_formula_structural   Hf18Re7Ni2W
_chemical_formula_sum   'Hf18 Re7 Ni2 W1'
_cell_volume   542.87845571
_cell_formula_units_Z   1
loop_
 _symmetry_equiv_pos_site_id
 _symmetry_equiv_pos_as_xyz
  1  'x, y, z'
loop_
 _atom_site_type_symbol
 _atom_site_label
 _atom_site_symmetry_multiplicity
 _atom_site_fract_x
 _atom_site_fract_y
 _atom_site_fract_z
 _atom_site_occupancy
  Hf  Hf0  1  0.199071  0.800929  0.443377  1
  Hf  Hf1  1  0.199071  0.398140  0.443377  1
  Hf  Hf2  1  0.601860  0.800929  0.443377  1
  Hf  Hf3  1  0.800929  0.199071  0.556623  1
  Hf  Hf4  1  0.800929  0.601860  0.556623  1
  Hf  Hf5  1  0.398140  0.199071  0.556623  1
  Hf  Hf6  1  0.802859  0.197141  0.943063  1
  Hf  Hf7  1  0.802859  0.605719  0.943063  1
  Hf  Hf8  1  0.394281  0.197141  0.943063  1
  Hf  Hf9  1  0.197141  0.802859  0.056937  1
  Hf  Hf10  1  0.197141  0.394281  0.056937  1
  Hf  Hf11  1  0.605719  0.802859  0.056937  1
  Hf  Hf12  1  0.541607  0.458393  0.248973  1
  Hf  Hf13  1  0.541607  0.083214  0.248973  1
  Hf  Hf14  1  0.916786  0.458393  0.248973  1
  Hf  Hf15  1  0.458393  0.541607  0.751027  1
  Hf  Hf16  1  0.458393  0.916786  0.751027  1
  Hf  Hf17  1  0.083214  0.541607  0.751027  1
  Re  Re18  1  0.889115  0.110885  0.250788  1
  Re  Re19  1  0.889115  0.778228  0.250788  1
  Re  Re20  1  0.221772  0.110885  0.250788  1
  Re  Re21  1  0.110885  0.889115  0.749212  1
  Re  Re22  1  0.110885  0.221772  0.749212  1
  Re  Re23  1  0.778228  0.889115  0.749212  1
  Re  Re24  1  0.000000  0.000000  0.000000  1
  Ni  Ni25  1  0.333333  0.666667  0.247445  1
  Ni  Ni26  1  0.666667  0.333333  0.752555  1
  W  W27  1  0.000000  0.000000  0.500000  1
