# generated using pymatgen
data_Ca12AgSn3N4
_symmetry_space_group_name_H-M   'P 1'
_cell_length_a   6.93475424
_cell_length_b   6.93632406
_cell_length_c   9.82041300
_cell_angle_alpha   90.00000000
_cell_angle_beta   90.00000000
_cell_angle_gamma   90.07049659
_symmetry_Int_Tables_number   1
_chemical_formula_structural   Ca12AgSn3N4
_chemical_formula_sum   'Ca12 Ag1 Sn3 N4'
_cell_volume   472.37822888
_cell_formula_units_Z   1
loop_
 _symmetry_equiv_pos_site_id
 _symmetry_equiv_pos_as_xyz
  1  'x, y, z'
loop_
 _atom_site_type_symbol
 _atom_site_label
 _atom_site_symmetry_multiplicity
 _atom_site_fract_x
 _atom_site_fract_y
 _atom_site_fract_z
 _atom_site_occupancy
  Ca  Ca0  1  0.003988  0.499035  0.250000  1
  Ca  Ca1  1  0.494810  0.000713  0.250000  1
  Ca  Ca2  1  0.503616  0.999318  0.750000  1
  Ca  Ca3  1  0.996508  0.500617  0.750000  1
  Ca  Ca4  1  0.742891  0.257025  0.994300  1
  Ca  Ca5  1  0.747372  0.747406  0.504944  1
  Ca  Ca6  1  0.252656  0.252708  0.990360  1
  Ca  Ca7  1  0.257051  0.742856  0.508943  1
  Ca  Ca8  1  0.257051  0.742856  0.991057  1
  Ca  Ca9  1  0.252656  0.252708  0.509640  1
  Ca  Ca10  1  0.747372  0.747406  0.995056  1
  Ca  Ca11  1  0.742891  0.257025  0.505700  1
  Ag  Ag12  1  0.000496  0.000344  0.250000  1
  Sn  Sn13  1  0.000041  0.999926  0.750000  1
  Sn  Sn14  1  0.500651  0.500001  0.750000  1
  Sn  Sn15  1  0.499998  0.500112  0.250000  1
  N  N16  1  0.499859  0.000003  0.494861  1
  N  N17  1  0.000118  0.499969  0.005132  1
  N  N18  1  0.000118  0.499969  0.494868  1
  N  N19  1  0.499859  0.000003  0.005139  1
