# generated using pymatgen
data_Ca2TlRu4PbO14
_symmetry_space_group_name_H-M   'P 1'
_cell_length_a   7.26146546
_cell_length_b   7.28851397
_cell_length_c   7.28851450
_cell_angle_alpha   60.77638840
_cell_angle_beta   60.57895009
_cell_angle_gamma   60.57894495
_symmetry_Int_Tables_number   1
_chemical_formula_structural   Ca2TlRu4PbO14
_chemical_formula_sum   'Ca2 Tl1 Ru4 Pb1 O14'
_cell_volume   276.73281501
_cell_formula_units_Z   1
loop_
 _symmetry_equiv_pos_site_id
 _symmetry_equiv_pos_as_xyz
  1  'x, y, z'
loop_
 _atom_site_type_symbol
 _atom_site_label
 _atom_site_symmetry_multiplicity
 _atom_site_fract_x
 _atom_site_fract_y
 _atom_site_fract_z
 _atom_site_occupancy
  Ca  Ca0  1  0.625000  0.125000  0.625000  1
  Ca  Ca1  1  0.625000  0.625000  0.125000  1
  Tl  Tl2  1  0.625000  0.625000  0.625000  1
  Ru  Ru3  1  0.625000  0.125000  0.125000  1
  Ru  Ru4  1  0.125000  0.625000  0.125000  1
  Ru  Ru5  1  0.125000  0.125000  0.625000  1
  Ru  Ru6  1  0.125000  0.125000  0.125000  1
  Pb  Pb7  1  0.125000  0.625000  0.625000  1
  O  O8  1  0.203145  0.202534  0.797533  1
  O  O9  1  0.203145  0.797533  0.202534  1
  O  O10  1  0.444293  0.053251  0.053251  1
  O  O11  1  0.200141  0.800772  0.800772  1
  O  O12  1  0.049859  0.449228  0.449228  1
  O  O13  1  0.810553  0.808019  0.189564  1
  O  O14  1  0.439447  0.441981  0.060436  1
  O  O15  1  0.521802  0.502711  0.502711  1
  O  O16  1  0.046855  0.047466  0.452467  1
  O  O17  1  0.439447  0.060436  0.441981  1
  O  O18  1  0.046855  0.452467  0.047466  1
  O  O19  1  0.728198  0.747289  0.747289  1
  O  O20  1  0.810553  0.189564  0.808019  1
  O  O21  1  0.805707  0.196749  0.196749  1
