# generated using pymatgen
data_Tb6Ho4In8Pd3Ru
_symmetry_space_group_name_H-M   'P 1'
_cell_length_a   3.61172800
_cell_length_b   8.16288039
_cell_length_c   18.32638900
_cell_angle_alpha   90.04318223
_cell_angle_beta   90.00000000
_cell_angle_gamma   90.00000000
_symmetry_Int_Tables_number   1
_chemical_formula_structural   Tb6Ho4In8Pd3Ru
_chemical_formula_sum   'Tb6 Ho4 In8 Pd3 Ru1'
_cell_volume   540.30034671
_cell_formula_units_Z   1
loop_
 _symmetry_equiv_pos_site_id
 _symmetry_equiv_pos_as_xyz
  1  'x, y, z'
loop_
 _atom_site_type_symbol
 _atom_site_label
 _atom_site_symmetry_multiplicity
 _atom_site_fract_x
 _atom_site_fract_y
 _atom_site_fract_z
 _atom_site_occupancy
  Tb  Tb0  1  0.000000  0.500095  0.499374  1
  Tb  Tb1  1  0.000000  0.000407  0.001150  1
  Tb  Tb2  1  0.000000  0.729033  0.277790  1
  Tb  Tb3  1  0.000000  0.260288  0.719486  1
  Tb  Tb4  1  0.000000  0.760262  0.780151  1
  Tb  Tb5  1  0.000000  0.250601  0.220273  1
  Ho  Ho6  1  0.000000  0.615359  0.087017  1
  Ho  Ho7  1  0.000000  0.383181  0.916127  1
  Ho  Ho8  1  0.000000  0.883721  0.583273  1
  Ho  Ho9  1  0.000000  0.118285  0.414974  1
  In  In10  1  0.500000  0.708071  0.932234  1
  In  In11  1  0.500000  0.294702  0.069111  1
  In  In12  1  0.500000  0.793140  0.432454  1
  In  In13  1  0.500000  0.207149  0.567152  1
  In  In14  1  0.500000  0.580536  0.649746  1
  In  In15  1  0.500000  0.424413  0.349791  1
  In  In16  1  0.500000  0.920183  0.150511  1
  In  In17  1  0.500000  0.079738  0.850402  1
  Pd  Pd18  1  0.500000  0.477153  0.804540  1
  Pd  Pd19  1  0.500000  0.976909  0.695195  1
  Pd  Pd20  1  0.500000  0.019478  0.304211  1
  Ru  Ru21  1  0.500000  0.517298  0.195036  1
