# generated using pymatgen
data_Yb2HoEr5(B6Os)4
_symmetry_space_group_name_H-M   'P 1'
_cell_length_a   3.63027900
_cell_length_b   9.12135325
_cell_length_c   11.51002200
_cell_angle_alpha   89.83237885
_cell_angle_beta   90.00000000
_cell_angle_gamma   90.00000000
_symmetry_Int_Tables_number   1
_chemical_formula_structural   Yb2HoEr5(B6Os)4
_chemical_formula_sum   'Yb2 Ho1 Er5 B24 Os4'
_cell_volume   381.13038567
_cell_formula_units_Z   1
loop_
 _symmetry_equiv_pos_site_id
 _symmetry_equiv_pos_as_xyz
  1  'x, y, z'
loop_
 _atom_site_type_symbol
 _atom_site_label
 _atom_site_symmetry_multiplicity
 _atom_site_fract_x
 _atom_site_fract_y
 _atom_site_fract_z
 _atom_site_occupancy
  Yb  Yb0  1  0.000000  0.324384  0.414525  1
  Yb  Yb1  1  0.000000  0.675607  0.585487  1
  Ho  Ho2  1  0.000000  0.822039  0.086372  1
  Er  Er3  1  0.000000  0.178026  0.913627  1
  Er  Er4  1  0.000000  0.942280  0.370436  1
  Er  Er5  1  0.000000  0.057751  0.629581  1
  Er  Er6  1  0.000000  0.442951  0.130022  1
  Er  Er7  1  0.000000  0.556953  0.869949  1
  B  B8  1  0.500000  0.554094  0.432494  1
  B  B9  1  0.500000  0.445890  0.567526  1
  B  B10  1  0.500000  0.053639  0.066457  1
  B  B11  1  0.500000  0.946565  0.933429  1
  B  B12  1  0.500000  0.748291  0.418068  1
  B  B13  1  0.500000  0.251703  0.581960  1
  B  B14  1  0.500000  0.248392  0.080908  1
  B  B15  1  0.500000  0.751601  0.918903  1
  B  B16  1  0.500000  0.791331  0.264865  1
  B  B17  1  0.500000  0.208586  0.735280  1
  B  B18  1  0.500000  0.290201  0.234234  1
  B  B19  1  0.500000  0.709812  0.765738  1
  B  B20  1  0.500000  0.631306  0.185204  1
  B  B21  1  0.500000  0.368553  0.814897  1
  B  B22  1  0.500000  0.130703  0.313887  1
  B  B23  1  0.500000  0.869311  0.686114  1
  B  B24  1  0.500000  0.982882  0.211735  1
  B  B25  1  0.500000  0.017331  0.788334  1
  B  B26  1  0.500000  0.483599  0.287921  1
  B  B27  1  0.500000  0.516370  0.712083  1
  B  B28  1  0.500000  0.603407  0.028478  1
  B  B29  1  0.500000  0.396353  0.971461  1
  B  B30  1  0.500000  0.099458  0.472416  1
  B  B31  1  0.500000  0.900550  0.527593  1
  Os  Os32  1  0.000000  0.639837  0.318981  1
  Os  Os33  1  0.000000  0.360072  0.681112  1
  Os  Os34  1  0.000000  0.136771  0.177665  1
  Os  Os35  1  0.000000  0.863404  0.822259  1
