# generated using pymatgen
data_Cs12ZnCo3Br20
_symmetry_space_group_name_H-M   'P 1'
_cell_length_a   9.59588103
_cell_length_b   11.07729700
_cell_length_c   14.23585503
_cell_angle_alpha   90.00000000
_cell_angle_beta   89.99178188
_cell_angle_gamma   90.00000000
_symmetry_Int_Tables_number   1
_chemical_formula_structural   Cs12ZnCo3Br20
_chemical_formula_sum   'Cs12 Zn1 Co3 Br20'
_cell_volume   1513.22046865
_cell_formula_units_Z   1
loop_
 _symmetry_equiv_pos_site_id
 _symmetry_equiv_pos_as_xyz
  1  'x, y, z'
loop_
 _atom_site_type_symbol
 _atom_site_label
 _atom_site_symmetry_multiplicity
 _atom_site_fract_x
 _atom_site_fract_y
 _atom_site_fract_z
 _atom_site_occupancy
  Cs  Cs0  1  0.090002  0.750000  0.046277  1
  Cs  Cs1  1  0.586942  0.518689  0.172977  1
  Cs  Cs2  1  0.586942  0.981310  0.172977  1
  Cs  Cs3  1  0.087057  0.518742  0.327115  1
  Cs  Cs4  1  0.087057  0.981257  0.327115  1
  Cs  Cs5  1  0.589770  0.750000  0.453801  1
  Cs  Cs6  1  0.410245  0.250000  0.546106  1
  Cs  Cs7  1  0.913016  0.018799  0.672797  1
  Cs  Cs8  1  0.913016  0.481202  0.672797  1
  Cs  Cs9  1  0.412929  0.018741  0.827103  1
  Cs  Cs10  1  0.412929  0.481260  0.827103  1
  Cs  Cs11  1  0.910386  0.250000  0.953908  1
  Zn  Zn12  1  0.688815  0.750000  0.894417  1
  Co  Co13  1  0.311662  0.250000  0.105271  1
  Co  Co14  1  0.811665  0.250000  0.394729  1
  Co  Co15  1  0.188320  0.750000  0.605235  1
  Br  Br16  1  0.525875  0.250000  0.015749  1
  Br  Br17  1  0.191881  0.066526  0.063911  1
  Br  Br18  1  0.191881  0.433474  0.063911  1
  Br  Br19  1  0.860432  0.250000  0.228940  1
  Br  Br20  1  0.838291  0.750000  0.238974  1
  Br  Br21  1  0.338189  0.750000  0.261122  1
  Br  Br22  1  0.360420  0.250000  0.271078  1
  Br  Br23  1  0.691893  0.066482  0.436094  1
  Br  Br24  1  0.691893  0.433518  0.436094  1
  Br  Br25  1  0.025889  0.250000  0.484240  1
  Br  Br26  1  0.974147  0.750000  0.515742  1
  Br  Br27  1  0.308066  0.566466  0.563903  1
  Br  Br28  1  0.308066  0.933534  0.563903  1
  Br  Br29  1  0.638675  0.750000  0.726684  1
  Br  Br30  1  0.661685  0.250000  0.738992  1
  Br  Br31  1  0.161755  0.250000  0.761023  1
  Br  Br32  1  0.139525  0.750000  0.771067  1
  Br  Br33  1  0.809868  0.564458  0.936736  1
  Br  Br34  1  0.809868  0.935542  0.936736  1
  Br  Br35  1  0.470937  0.750000  0.985369  1
