# generated using pymatgen
data_Dy2Y4InSi2
_symmetry_space_group_name_H-M   'P 1'
_cell_length_a   8.54698974
_cell_length_b   8.54699071
_cell_length_c   8.54698954
_cell_angle_alpha   112.42518211
_cell_angle_beta   110.93197696
_cell_angle_gamma   105.14507551
_symmetry_Int_Tables_number   1
_chemical_formula_structural   Dy2Y4InSi2
_chemical_formula_sum   'Dy4 Y8 In2 Si4'
_cell_volume   478.51455330
_cell_formula_units_Z   2
loop_
 _symmetry_equiv_pos_site_id
 _symmetry_equiv_pos_as_xyz
  1  'x, y, z'
loop_
 _atom_site_type_symbol
 _atom_site_label
 _atom_site_symmetry_multiplicity
 _atom_site_fract_x
 _atom_site_fract_y
 _atom_site_fract_z
 _atom_site_occupancy
  Dy  Dy0  1  0.319941  0.617362  0.297421  1
  Dy  Dy1  1  0.680059  0.382638  0.702579  1
  Dy  Dy2  1  0.319941  0.022521  0.702579  1
  Dy  Dy3  1  0.680059  0.977479  0.297421  1
  Y  Y4  1  0.442871  0.238506  0.204366  1
  Y  Y5  1  0.557129  0.761494  0.795634  1
  Y  Y6  1  0.034139  0.238506  0.795634  1
  Y  Y7  1  0.965861  0.761494  0.204366  1
  Y  Y8  1  0.185748  0.277916  0.463663  1
  Y  Y9  1  0.814252  0.722084  0.536337  1
  Y  Y10  1  0.185748  0.722084  0.907832  1
  Y  Y11  1  0.814252  0.277916  0.092168  1
  In  In12  1  0.500000  0.500000  0.000000  1
  In  In13  1  0.000000  0.000000  0.000000  1
  Si  Si14  1  0.369361  0.000000  0.369361  1
  Si  Si15  1  0.630639  0.000000  0.630639  1
  Si  Si16  1  0.115636  0.615636  0.500000  1
  Si  Si17  1  0.884364  0.384364  0.500000  1
