# generated using pymatgen
data_Er10Ir5Pd
_symmetry_space_group_name_H-M   'P 1'
_cell_length_a   10.86700520
_cell_length_b   10.85964200
_cell_length_c   6.29653500
_cell_angle_alpha   90.00000000
_cell_angle_beta   89.94892248
_cell_angle_gamma   90.00000000
_symmetry_Int_Tables_number   1
_chemical_formula_structural   Er10Ir5Pd
_chemical_formula_sum   'Er20 Ir10 Pd2'
_cell_volume   743.06504621
_cell_formula_units_Z   2
loop_
 _symmetry_equiv_pos_site_id
 _symmetry_equiv_pos_as_xyz
  1  'x, y, z'
loop_
 _atom_site_type_symbol
 _atom_site_label
 _atom_site_symmetry_multiplicity
 _atom_site_fract_x
 _atom_site_fract_y
 _atom_site_fract_z
 _atom_site_occupancy
  Er  Er0  1  0.291330  0.088050  0.375237  1
  Er  Er1  1  0.291330  0.911950  0.875237  1
  Er  Er2  1  0.703490  0.091106  0.872033  1
  Er  Er3  1  0.703490  0.908894  0.372033  1
  Er  Er4  1  0.582248  0.790148  0.877692  1
  Er  Er5  1  0.582248  0.209852  0.377692  1
  Er  Er6  1  0.410708  0.791248  0.377040  1
  Er  Er7  1  0.410708  0.208752  0.877040  1
  Er  Er8  1  0.209226  0.411686  0.622423  1
  Er  Er9  1  0.209226  0.588314  0.122423  1
  Er  Er10  1  0.790356  0.416806  0.122889  1
  Er  Er11  1  0.790356  0.583194  0.622889  1
  Er  Er12  1  0.914347  0.706278  0.129781  1
  Er  Er13  1  0.914347  0.293722  0.629781  1
  Er  Er14  1  0.093113  0.706067  0.622825  1
  Er  Er15  1  0.093113  0.293933  0.122825  1
  Er  Er16  1  0.004395  0.999248  0.499976  1
  Er  Er17  1  0.004395  0.000752  0.999976  1
  Er  Er18  1  0.499821  0.499395  0.999919  1
  Er  Er19  1  0.499821  0.500605  0.499919  1
  Ir  Ir20  1  0.152673  0.153867  0.750144  1
  Ir  Ir21  1  0.152673  0.846133  0.250144  1
  Ir  Ir22  1  0.655306  0.345510  0.749474  1
  Ir  Ir23  1  0.655306  0.654490  0.249474  1
  Ir  Ir24  1  0.346660  0.346067  0.250618  1
  Ir  Ir25  1  0.346660  0.653933  0.750618  1
  Ir  Ir26  1  0.501211  0.999898  0.123155  1
  Ir  Ir27  1  0.501211  0.000102  0.623155  1
  Ir  Ir28  1  0.999332  0.500261  0.877113  1
  Ir  Ir29  1  0.999332  0.499739  0.377113  1
  Pd  Pd30  1  0.845785  0.153615  0.249680  1
  Pd  Pd31  1  0.845785  0.846385  0.749680  1
