# generated using pymatgen
data_HoPa7Al8(ReRh)4
_symmetry_space_group_name_H-M   'P 1'
_cell_length_a   4.19078600
_cell_length_b   6.91307905
_cell_length_c   15.89380109
_cell_angle_alpha   91.09874373
_cell_angle_beta   90.00000000
_cell_angle_gamma   90.00000000
_symmetry_Int_Tables_number   1
_chemical_formula_structural   HoPa7Al8(ReRh)4
_chemical_formula_sum   'Ho1 Pa7 Al8 Re4 Rh4'
_cell_volume   460.37838041
_cell_formula_units_Z   1
loop_
 _symmetry_equiv_pos_site_id
 _symmetry_equiv_pos_as_xyz
  1  'x, y, z'
loop_
 _atom_site_type_symbol
 _atom_site_label
 _atom_site_symmetry_multiplicity
 _atom_site_fract_x
 _atom_site_fract_y
 _atom_site_fract_z
 _atom_site_occupancy
  Ho  Ho0  1  0.250000  0.150107  0.937536  1
  Pa  Pa1  1  0.250000  0.513143  0.778526  1
  Pa  Pa2  1  0.750000  0.485495  0.222800  1
  Pa  Pa3  1  0.750000  0.988002  0.279081  1
  Pa  Pa4  1  0.250000  0.017623  0.721655  1
  Pa  Pa5  1  0.250000  0.644671  0.562609  1
  Pa  Pa6  1  0.750000  0.360014  0.437983  1
  Pa  Pa7  1  0.750000  0.845033  0.064049  1
  Al  Al8  1  0.250000  0.651246  0.352331  1
  Al  Al9  1  0.750000  0.351339  0.645176  1
  Al  Al10  1  0.750000  0.853902  0.852910  1
  Al  Al11  1  0.250000  0.151436  0.148869  1
  Al  Al12  1  0.250000  0.500006  0.062819  1
  Al  Al13  1  0.750000  0.481630  0.937871  1
  Al  Al14  1  0.750000  0.992972  0.561415  1
  Al  Al15  1  0.250000  0.004991  0.437770  1
  Re  Re16  1  0.250000  0.773348  0.185868  1
  Re  Re17  1  0.750000  0.235910  0.806200  1
  Re  Re18  1  0.750000  0.734161  0.685318  1
  Re  Re19  1  0.250000  0.268440  0.316888  1
  Rh  Rh20  1  0.250000  0.723699  0.932344  1
  Rh  Rh21  1  0.750000  0.271963  0.073939  1
  Rh  Rh22  1  0.750000  0.775282  0.427182  1
  Rh  Rh23  1  0.250000  0.225587  0.568858  1
