# generated using pymatgen
data_Ho2Lu3(TcO6)2
_symmetry_space_group_name_H-M   'P 1'
_cell_length_a   6.72069651
_cell_length_b   6.72069687
_cell_length_c   7.41133517
_cell_angle_alpha   74.00053434
_cell_angle_beta   74.00053479
_cell_angle_gamma   49.47025557
_symmetry_Int_Tables_number   1
_chemical_formula_structural   Ho2Lu3(TcO6)2
_chemical_formula_sum   'Ho2 Lu3 Tc2 O12'
_cell_volume   242.43657503
_cell_formula_units_Z   1
loop_
 _symmetry_equiv_pos_site_id
 _symmetry_equiv_pos_as_xyz
  1  'x, y, z'
loop_
 _atom_site_type_symbol
 _atom_site_label
 _atom_site_symmetry_multiplicity
 _atom_site_fract_x
 _atom_site_fract_y
 _atom_site_fract_z
 _atom_site_occupancy
  Ho  Ho0  1  0.696126  0.696126  0.642375  1
  Ho  Ho1  1  0.303874  0.303874  0.357625  1
  Lu  Lu2  1  0.315579  0.315579  0.823261  1
  Lu  Lu3  1  0.684421  0.684421  0.176739  1
  Lu  Lu4  1  0.000000  0.000000  0.500000  1
  Tc  Tc5  1  0.214176  0.785824  0.000000  1
  Tc  Tc6  1  0.785824  0.214176  0.000000  1
  O  O7  1  0.500658  0.500658  0.180247  1
  O  O8  1  0.499342  0.499342  0.819753  1
  O  O9  1  0.000640  0.000640  0.208428  1
  O  O10  1  0.999360  0.999360  0.791572  1
  O  O11  1  0.915456  0.418716  0.915740  1
  O  O12  1  0.581284  0.084544  0.084260  1
  O  O13  1  0.084544  0.581284  0.084260  1
  O  O14  1  0.595842  0.100312  0.575848  1
  O  O15  1  0.899688  0.404158  0.424152  1
  O  O16  1  0.404158  0.899688  0.424152  1
  O  O17  1  0.100312  0.595842  0.575848  1
  O  O18  1  0.418716  0.915456  0.915740  1
