# generated using pymatgen
data_NdDy3Y(FeB3)2
_symmetry_space_group_name_H-M   'P 1'
_cell_length_a   8.33104591
_cell_length_b   8.33104618
_cell_length_c   8.33104540
_cell_angle_alpha   38.11644706
_cell_angle_beta   38.11644726
_cell_angle_gamma   38.11644430
_symmetry_Int_Tables_number   1
_chemical_formula_structural   NdDy3Y(FeB3)2
_chemical_formula_sum   'Nd1 Dy3 Y1 Fe2 B6'
_cell_volume   197.80396212
_cell_formula_units_Z   1
loop_
 _symmetry_equiv_pos_site_id
 _symmetry_equiv_pos_as_xyz
  1  'x, y, z'
loop_
 _atom_site_type_symbol
 _atom_site_label
 _atom_site_symmetry_multiplicity
 _atom_site_fract_x
 _atom_site_fract_y
 _atom_site_fract_z
 _atom_site_occupancy
  Nd  Nd0  1  0.000114  0.000114  0.000114  1
  Dy  Dy1  1  0.417490  0.417490  0.417490  1
  Dy  Dy2  1  0.749919  0.749919  0.749919  1
  Dy  Dy3  1  0.250067  0.250067  0.250067  1
  Y  Y4  1  0.582637  0.582637  0.582637  1
  Fe  Fe5  1  0.882815  0.882815  0.882815  1
  Fe  Fe6  1  0.117158  0.117158  0.117158  1
  B  B7  1  0.499920  0.832475  0.167506  1
  B  B8  1  0.167506  0.499920  0.832475  1
  B  B9  1  0.832475  0.167506  0.499920  1
  B  B10  1  0.499920  0.167506  0.832475  1
  B  B11  1  0.832475  0.499920  0.167506  1
  B  B12  1  0.167506  0.832475  0.499920  1
