# generated using pymatgen
data_AcFe2(TcO4)6
_symmetry_space_group_name_H-M   'P 1'
_cell_length_a   10.04212523
_cell_length_b   10.04212677
_cell_length_c   10.04212700
_cell_angle_alpha   56.50894338
_cell_angle_beta   56.50894439
_cell_angle_gamma   56.50895387
_symmetry_Int_Tables_number   1
_chemical_formula_structural   AcFe2(TcO4)6
_chemical_formula_sum   'Ac1 Fe2 Tc6 O24'
_cell_volume   658.30222053
_cell_formula_units_Z   1
loop_
 _symmetry_equiv_pos_site_id
 _symmetry_equiv_pos_as_xyz
  1  'x, y, z'
loop_
 _atom_site_type_symbol
 _atom_site_label
 _atom_site_symmetry_multiplicity
 _atom_site_fract_x
 _atom_site_fract_y
 _atom_site_fract_z
 _atom_site_occupancy
  Ac  Ac0  1  0.863911  0.864267  0.863402  1
  Fe  Fe1  1  0.358019  0.358339  0.359247  1
  Fe  Fe2  1  0.643449  0.644448  0.642886  1
  Tc  Tc3  1  0.040544  0.458536  0.740626  1
  Tc  Tc4  1  0.458078  0.739490  0.040743  1
  Tc  Tc5  1  0.740659  0.042680  0.457740  1
  Tc  Tc6  1  0.288057  0.964566  0.503099  1
  Tc  Tc7  1  0.502970  0.287233  0.965264  1
  Tc  Tc8  1  0.966523  0.502508  0.286896  1
  O  O9  1  0.122941  0.455453  0.351313  1
  O  O10  1  0.354923  0.119123  0.456147  1
  O  O11  1  0.008235  0.315756  0.945497  1
  O  O12  1  0.458818  0.352812  0.119117  1
  O  O13  1  0.032217  0.647270  0.725244  1
  O  O14  1  0.238226  0.367990  0.600172  1
  O  O15  1  0.367852  0.600089  0.240171  1
  O  O16  1  0.317803  0.945430  0.008763  1
  O  O17  1  0.599918  0.240404  0.367067  1
  O  O18  1  0.071517  0.006356  0.644988  1
  O  O19  1  0.313275  0.970387  0.317208  1
  O  O20  1  0.317474  0.311684  0.970601  1
  O  O21  1  0.647494  0.724198  0.030642  1
  O  O22  1  0.725280  0.034431  0.646738  1
  O  O23  1  0.946002  0.011497  0.316126  1
  O  O24  1  0.411588  0.763315  0.609322  1
  O  O25  1  0.640879  0.069800  0.008629  1
  O  O26  1  0.607917  0.409690  0.763342  1
  O  O27  1  0.766356  0.607047  0.414059  1
  O  O28  1  0.968087  0.317512  0.314470  1
  O  O29  1  0.508103  0.683469  0.876696  1
  O  O30  1  0.005753  0.645810  0.070623  1
  O  O31  1  0.683408  0.877958  0.512689  1
  O  O32  1  0.876078  0.512809  0.682829  1
