# generated using pymatgen
data_Pa2Co8CuP6Ru
_symmetry_space_group_name_H-M   'P 1'
_cell_length_a   3.70448300
_cell_length_b   10.35538900
_cell_length_c   11.83097300
_cell_angle_alpha   90.00000000
_cell_angle_beta   90.00000000
_cell_angle_gamma   90.00000000
_symmetry_Int_Tables_number   1
_chemical_formula_structural   Pa2Co8CuP6Ru
_chemical_formula_sum   'Pa4 Co16 Cu2 P12 Ru2'
_cell_volume   453.85224409
_cell_formula_units_Z   2
loop_
 _symmetry_equiv_pos_site_id
 _symmetry_equiv_pos_as_xyz
  1  'x, y, z'
loop_
 _atom_site_type_symbol
 _atom_site_label
 _atom_site_symmetry_multiplicity
 _atom_site_fract_x
 _atom_site_fract_y
 _atom_site_fract_z
 _atom_site_occupancy
  Pa  Pa0  1  0.250000  0.580456  0.703764  1
  Pa  Pa1  1  0.250000  0.919544  0.203764  1
  Pa  Pa2  1  0.750000  0.416892  0.298187  1
  Pa  Pa3  1  0.750000  0.083108  0.798187  1
  Co  Co4  1  0.250000  0.408673  0.476530  1
  Co  Co5  1  0.250000  0.091327  0.976530  1
  Co  Co6  1  0.750000  0.591142  0.519413  1
  Co  Co7  1  0.750000  0.908858  0.019413  1
  Co  Co8  1  0.250000  0.218902  0.174719  1
  Co  Co9  1  0.250000  0.281098  0.674719  1
  Co  Co10  1  0.750000  0.777547  0.823083  1
  Co  Co11  1  0.750000  0.722453  0.323083  1
  Co  Co12  1  0.250000  0.886121  0.703248  1
  Co  Co13  1  0.250000  0.613879  0.203248  1
  Co  Co14  1  0.750000  0.118432  0.298852  1
  Co  Co15  1  0.750000  0.381568  0.798852  1
  Co  Co16  1  0.250000  0.465711  0.932159  1
  Co  Co17  1  0.250000  0.034289  0.432159  1
  Co  Co18  1  0.750000  0.530334  0.070942  1
  Co  Co19  1  0.750000  0.969666  0.570942  1
  Cu  Cu20  1  0.750000  0.289897  0.009860  1
  Cu  Cu21  1  0.750000  0.210103  0.509860  1
  P  P22  1  0.250000  0.419454  0.114546  1
  P  P23  1  0.250000  0.080546  0.614546  1
  P  P24  1  0.750000  0.579508  0.888797  1
  P  P25  1  0.750000  0.920492  0.388797  1
  P  P26  1  0.250000  0.275763  0.861627  1
  P  P27  1  0.250000  0.224237  0.361627  1
  P  P28  1  0.750000  0.726074  0.133174  1
  P  P29  1  0.750000  0.773926  0.633174  1
  P  P30  1  0.250000  0.602983  0.391456  1
  P  P31  1  0.250000  0.897017  0.891456  1
  P  P32  1  0.750000  0.395683  0.608352  1
  P  P33  1  0.750000  0.104317  0.108352  1
  Ru  Ru34  1  0.250000  0.709720  0.991288  1
  Ru  Ru35  1  0.250000  0.790280  0.491288  1
