# generated using pymatgen
data_Sr3In3IrAu2
_symmetry_space_group_name_H-M   'P 1'
_cell_length_a   8.08645500
_cell_length_b   8.08645435
_cell_length_c   4.19700000
_cell_angle_alpha   90.00000000
_cell_angle_beta   90.00000000
_cell_angle_gamma   119.99999855
_symmetry_Int_Tables_number   1
_chemical_formula_structural   Sr3In3IrAu2
_chemical_formula_sum   'Sr3 In3 Ir1 Au2'
_cell_volume   237.67632341
_cell_formula_units_Z   1
loop_
 _symmetry_equiv_pos_site_id
 _symmetry_equiv_pos_as_xyz
  1  'x, y, z'
loop_
 _atom_site_type_symbol
 _atom_site_label
 _atom_site_symmetry_multiplicity
 _atom_site_fract_x
 _atom_site_fract_y
 _atom_site_fract_z
 _atom_site_occupancy
  Sr  Sr0  1  0.000000  0.593027  0.500000  1
  Sr  Sr1  1  0.593027  0.000000  0.500000  1
  Sr  Sr2  1  0.406973  0.406973  0.500000  1
  In  In3  1  0.000000  0.235864  0.000000  1
  In  In4  1  0.235864  0.000000  0.000000  1
  In  In5  1  0.764136  0.764136  0.000000  1
  Ir  Ir6  1  0.000000  0.000000  0.500000  1
  Au  Au7  1  0.666667  0.333333  0.000000  1
  Au  Au8  1  0.333333  0.666667  0.000000  1
