# generated using pymatgen
data_Na4Mn3Co17As12
_symmetry_space_group_name_H-M   'P 1'
_cell_length_a   3.72413400
_cell_length_b   10.69508396
_cell_length_c   12.33970010
_cell_angle_alpha   90.04851997
_cell_angle_beta   90.00000000
_cell_angle_gamma   90.00000000
_symmetry_Int_Tables_number   1
_chemical_formula_structural   Na4Mn3Co17As12
_chemical_formula_sum   'Na4 Mn3 Co17 As12'
_cell_volume   491.48916344
_cell_formula_units_Z   1
loop_
 _symmetry_equiv_pos_site_id
 _symmetry_equiv_pos_as_xyz
  1  'x, y, z'
loop_
 _atom_site_type_symbol
 _atom_site_label
 _atom_site_symmetry_multiplicity
 _atom_site_fract_x
 _atom_site_fract_y
 _atom_site_fract_z
 _atom_site_occupancy
  Na  Na0  1  0.250000  0.577395  0.704317  1
  Na  Na1  1  0.250000  0.920177  0.206432  1
  Na  Na2  1  0.750000  0.418085  0.294364  1
  Na  Na3  1  0.750000  0.080186  0.791211  1
  Mn  Mn4  1  0.250000  0.705396  0.987171  1
  Mn  Mn5  1  0.250000  0.793630  0.488491  1
  Mn  Mn6  1  0.750000  0.295184  0.011886  1
  Co  Co7  1  0.750000  0.207401  0.512143  1
  Co  Co8  1  0.250000  0.405984  0.489256  1
  Co  Co9  1  0.250000  0.095307  0.990035  1
  Co  Co10  1  0.750000  0.593626  0.511457  1
  Co  Co11  1  0.750000  0.906283  0.012454  1
  Co  Co12  1  0.250000  0.216282  0.175827  1
  Co  Co13  1  0.250000  0.284282  0.672774  1
  Co  Co14  1  0.750000  0.785918  0.828391  1
  Co  Co15  1  0.750000  0.715174  0.327593  1
  Co  Co16  1  0.250000  0.880768  0.696045  1
  Co  Co17  1  0.250000  0.622556  0.196796  1
  Co  Co18  1  0.750000  0.121778  0.304733  1
  Co  Co19  1  0.750000  0.376336  0.802358  1
  Co  Co20  1  0.250000  0.461526  0.933547  1
  Co  Co21  1  0.250000  0.036615  0.433564  1
  Co  Co22  1  0.750000  0.538446  0.065801  1
  Co  Co23  1  0.750000  0.962958  0.564257  1
  As  As24  1  0.250000  0.421484  0.118571  1
  As  As25  1  0.250000  0.082566  0.614441  1
  As  As26  1  0.750000  0.578632  0.880858  1
  As  As27  1  0.750000  0.920496  0.380875  1
  As  As28  1  0.250000  0.260861  0.862336  1
  As  As29  1  0.250000  0.237403  0.368106  1
  As  As30  1  0.750000  0.738386  0.137784  1
  As  As31  1  0.750000  0.762919  0.637994  1
  As  As32  1  0.250000  0.591873  0.387051  1
  As  As33  1  0.250000  0.909135  0.887045  1
  As  As34  1  0.750000  0.400854  0.609103  1
  As  As35  1  0.750000  0.094097  0.114935  1
