# generated using pymatgen
data_ThTcN3
_symmetry_space_group_name_H-M   'P 1'
_cell_length_a   5.55164600
_cell_length_b   5.73035100
_cell_length_c   7.79843200
_cell_angle_alpha   90.00000000
_cell_angle_beta   90.00000000
_cell_angle_gamma   90.00000000
_symmetry_Int_Tables_number   1
_chemical_formula_structural   ThTcN3
_chemical_formula_sum   'Th4 Tc4 N12'
_cell_volume   248.09058302
_cell_formula_units_Z   4
loop_
 _symmetry_equiv_pos_site_id
 _symmetry_equiv_pos_as_xyz
  1  'x, y, z'
loop_
 _atom_site_type_symbol
 _atom_site_label
 _atom_site_symmetry_multiplicity
 _atom_site_fract_x
 _atom_site_fract_y
 _atom_site_fract_z
 _atom_site_occupancy
  Th  Th0  1  0.510364  0.551121  0.250000  1
  Th  Th1  1  0.989636  0.051121  0.250000  1
  Th  Th2  1  0.489636  0.448879  0.750000  1
  Th  Th3  1  0.010364  0.948879  0.750000  1
  Tc  Tc4  1  0.000000  0.500000  0.000000  1
  Tc  Tc5  1  0.500000  0.000000  0.500000  1
  Tc  Tc6  1  0.000000  0.500000  0.500000  1
  Tc  Tc7  1  0.500000  0.000000  0.000000  1
  N  N8  1  0.424969  0.983797  0.250000  1
  N  N9  1  0.075031  0.483797  0.250000  1
  N  N10  1  0.575031  0.016203  0.750000  1
  N  N11  1  0.924969  0.516203  0.750000  1
  N  N12  1  0.800278  0.795907  0.043225  1
  N  N13  1  0.699722  0.295907  0.456775  1
  N  N14  1  0.199722  0.204093  0.543225  1
  N  N15  1  0.300278  0.704093  0.956775  1
  N  N16  1  0.199722  0.204093  0.956775  1
  N  N17  1  0.300278  0.704093  0.543225  1
  N  N18  1  0.800278  0.795907  0.456775  1
  N  N19  1  0.699722  0.295907  0.043225  1
