# generated using pymatgen
data_Ho8In2CoPd
_symmetry_space_group_name_H-M   'P 1'
_cell_length_a   9.60829154
_cell_length_b   9.59974034
_cell_length_c   9.59974052
_cell_angle_alpha   60.00135217
_cell_angle_beta   59.97053755
_cell_angle_gamma   59.97053996
_symmetry_Int_Tables_number   1
_chemical_formula_structural   Ho8In2CoPd
_chemical_formula_sum   'Ho16 In4 Co2 Pd2'
_cell_volume   625.83673478
_cell_formula_units_Z   2
loop_
 _symmetry_equiv_pos_site_id
 _symmetry_equiv_pos_as_xyz
  1  'x, y, z'
loop_
 _atom_site_type_symbol
 _atom_site_label
 _atom_site_symmetry_multiplicity
 _atom_site_fract_x
 _atom_site_fract_y
 _atom_site_fract_z
 _atom_site_occupancy
  Ho  Ho0  1  0.935717  0.938158  0.564782  1
  Ho  Ho1  1  0.809821  0.190179  0.190179  1
  Ho  Ho2  1  0.935806  0.564194  0.564194  1
  Ho  Ho3  1  0.935717  0.564782  0.938158  1
  Ho  Ho4  1  0.820694  0.801210  0.188689  1
  Ho  Ho5  1  0.337750  0.351574  0.351574  1
  Ho  Ho6  1  0.561065  0.938935  0.938935  1
  Ho  Ho7  1  0.561344  0.938158  0.564782  1
  Ho  Ho8  1  0.188094  0.811906  0.811906  1
  Ho  Ho9  1  0.189407  0.188689  0.801210  1
  Ho  Ho10  1  0.344921  0.361935  0.948226  1
  Ho  Ho11  1  0.344921  0.948226  0.361935  1
  Ho  Ho12  1  0.820694  0.188689  0.801210  1
  Ho  Ho13  1  0.561344  0.564782  0.938158  1
  Ho  Ho14  1  0.189407  0.801210  0.188689  1
  Ho  Ho15  1  0.959104  0.351574  0.351574  1
  In  In16  1  0.582885  0.581102  0.253130  1
  In  In17  1  0.251245  0.582242  0.582242  1
  In  In18  1  0.584273  0.582242  0.582242  1
  In  In19  1  0.582885  0.253130  0.581102  1
  Co  Co20  1  0.142419  0.574644  0.140520  1
  Co  Co21  1  0.142419  0.140520  0.574644  1
  Pd  Pd22  1  0.572418  0.140962  0.140962  1
  Pd  Pd23  1  0.145658  0.140962  0.140962  1
