# generated using pymatgen
data_Zr6Be14GaNi8
_symmetry_space_group_name_H-M   'P 1'
_cell_length_a   7.88652885
_cell_length_b   7.88652933
_cell_length_c   7.88653000
_cell_angle_alpha   59.99999720
_cell_angle_beta   59.99999518
_cell_angle_gamma   59.99999638
_symmetry_Int_Tables_number   1
_chemical_formula_structural   Zr6Be14GaNi8
_chemical_formula_sum   'Zr6 Be14 Ga1 Ni8'
_cell_volume   346.85083488
_cell_formula_units_Z   1
loop_
 _symmetry_equiv_pos_site_id
 _symmetry_equiv_pos_as_xyz
  1  'x, y, z'
loop_
 _atom_site_type_symbol
 _atom_site_label
 _atom_site_symmetry_multiplicity
 _atom_site_fract_x
 _atom_site_fract_y
 _atom_site_fract_z
 _atom_site_occupancy
  Zr  Zr0  1  0.710996  0.289004  0.289004  1
  Zr  Zr1  1  0.289004  0.710996  0.710996  1
  Zr  Zr2  1  0.289004  0.710996  0.289004  1
  Zr  Zr3  1  0.710996  0.289004  0.710996  1
  Zr  Zr4  1  0.289004  0.289004  0.710996  1
  Zr  Zr5  1  0.710996  0.710996  0.289004  1
  Be  Be6  1  0.323062  0.323062  0.323062  1
  Be  Be7  1  0.676938  0.676938  0.676938  1
  Be  Be8  1  0.323062  0.323062  0.030814  1
  Be  Be9  1  0.323062  0.030814  0.323062  1
  Be  Be10  1  0.676938  0.676938  0.969186  1
  Be  Be11  1  0.676938  0.969186  0.676938  1
  Be  Be12  1  0.030814  0.323062  0.323062  1
  Be  Be13  1  0.969186  0.676938  0.676938  1
  Be  Be14  1  0.500000  0.000000  0.000000  1
  Be  Be15  1  0.000000  0.500000  0.500000  1
  Be  Be16  1  0.000000  0.500000  0.000000  1
  Be  Be17  1  0.500000  0.000000  0.500000  1
  Be  Be18  1  0.000000  0.000000  0.500000  1
  Be  Be19  1  0.500000  0.500000  0.000000  1
  Ga  Ga20  1  0.000000  0.000000  0.000000  1
  Ni  Ni21  1  0.128640  0.128640  0.128640  1
  Ni  Ni22  1  0.871360  0.871360  0.871360  1
  Ni  Ni23  1  0.128640  0.128640  0.614081  1
  Ni  Ni24  1  0.128640  0.614081  0.128640  1
  Ni  Ni25  1  0.871360  0.871360  0.385919  1
  Ni  Ni26  1  0.871360  0.385919  0.871360  1
  Ni  Ni27  1  0.614081  0.128640  0.128640  1
  Ni  Ni28  1  0.385919  0.871360  0.871360  1
