# generated using pymatgen
data_CeLu(FeB)8
_symmetry_space_group_name_H-M   'P 1'
_cell_length_a   6.94672500
_cell_length_b   6.94672500
_cell_length_c   3.81854900
_cell_angle_alpha   90.00000000
_cell_angle_beta   90.00000000
_cell_angle_gamma   90.00000000
_symmetry_Int_Tables_number   1
_chemical_formula_structural   CeLu(FeB)8
_chemical_formula_sum   'Ce1 Lu1 Fe8 B8'
_cell_volume   184.27167413
_cell_formula_units_Z   1
loop_
 _symmetry_equiv_pos_site_id
 _symmetry_equiv_pos_as_xyz
  1  'x, y, z'
loop_
 _atom_site_type_symbol
 _atom_site_label
 _atom_site_symmetry_multiplicity
 _atom_site_fract_x
 _atom_site_fract_y
 _atom_site_fract_z
 _atom_site_occupancy
  Ce  Ce0  1  0.500000  0.500000  0.500000  1
  Lu  Lu1  1  0.000000  0.000000  0.000000  1
  Fe  Fe2  1  0.869716  0.384351  0.108180  1
  Fe  Fe3  1  0.130284  0.615649  0.108180  1
  Fe  Fe4  1  0.884449  0.632037  0.605686  1
  Fe  Fe5  1  0.115551  0.367963  0.605686  1
  Fe  Fe6  1  0.632037  0.115551  0.394314  1
  Fe  Fe7  1  0.367963  0.884449  0.394314  1
  Fe  Fe8  1  0.615649  0.869716  0.891820  1
  Fe  Fe9  1  0.384351  0.130284  0.891820  1
  B  B10  1  0.331919  0.802459  0.896745  1
  B  B11  1  0.668081  0.197541  0.896745  1
  B  B12  1  0.295023  0.163164  0.391665  1
  B  B13  1  0.704977  0.836836  0.391665  1
  B  B14  1  0.163164  0.704977  0.608335  1
  B  B15  1  0.836836  0.295023  0.608335  1
  B  B16  1  0.197541  0.331919  0.103255  1
  B  B17  1  0.802459  0.668081  0.103255  1
