# generated using pymatgen
data_Hf9Th8Zr3Si16
_symmetry_space_group_name_H-M   'P 1'
_cell_length_a   7.40629532
_cell_length_b   7.40629532
_cell_length_c   13.61614504
_cell_angle_alpha   89.99348944
_cell_angle_beta   90.00651056
_cell_angle_gamma   90.03307971
_symmetry_Int_Tables_number   1
_chemical_formula_structural   Hf9Th8Zr3Si16
_chemical_formula_sum   'Hf9 Th8 Zr3 Si16'
_cell_volume   746.88913447
_cell_formula_units_Z   1
loop_
 _symmetry_equiv_pos_site_id
 _symmetry_equiv_pos_as_xyz
  1  'x, y, z'
loop_
 _atom_site_type_symbol
 _atom_site_label
 _atom_site_symmetry_multiplicity
 _atom_site_fract_x
 _atom_site_fract_y
 _atom_site_fract_z
 _atom_site_occupancy
  Hf  Hf0  1  0.174841  0.174841  0.000000  1
  Hf  Hf1  1  0.496783  0.346141  0.125618  1
  Hf  Hf2  1  0.503173  0.653800  0.625645  1
  Hf  Hf3  1  0.846172  0.003180  0.875823  1
  Hf  Hf4  1  0.153707  0.996895  0.375655  1
  Hf  Hf5  1  0.653800  0.503173  0.374355  1
  Hf  Hf6  1  0.346141  0.496783  0.874382  1
  Hf  Hf7  1  0.003180  0.846172  0.124177  1
  Hf  Hf8  1  0.996895  0.153707  0.624345  1
  Th  Th9  1  0.496323  0.157353  0.533902  1
  Th  Th10  1  0.503705  0.842697  0.033941  1
  Th  Th11  1  0.657392  0.003802  0.283878  1
  Th  Th12  1  0.342648  0.996340  0.784064  1
  Th  Th13  1  0.842697  0.503705  0.966059  1
  Th  Th14  1  0.157353  0.496323  0.466098  1
  Th  Th15  1  0.003802  0.657392  0.716122  1
  Th  Th16  1  0.996340  0.342648  0.215936  1
  Zr  Zr17  1  0.674542  0.325223  0.750118  1
  Zr  Zr18  1  0.325223  0.674542  0.249882  1
  Zr  Zr19  1  0.825456  0.825456  0.500000  1
  Si  Si20  1  0.797922  0.132816  0.066059  1
  Si  Si21  1  0.202966  0.867089  0.566102  1
  Si  Si22  1  0.632790  0.703055  0.816088  1
  Si  Si23  1  0.367227  0.297086  0.316069  1
  Si  Si24  1  0.867089  0.202966  0.433898  1
  Si  Si25  1  0.132816  0.797922  0.933941  1
  Si  Si26  1  0.703055  0.632790  0.183912  1
  Si  Si27  1  0.297086  0.367227  0.683931  1
  Si  Si28  1  0.545962  0.209683  0.935892  1
  Si  Si29  1  0.452937  0.790307  0.435828  1
  Si  Si30  1  0.709651  0.952981  0.685855  1
  Si  Si31  1  0.289988  0.047367  0.185085  1
  Si  Si32  1  0.790307  0.452937  0.564172  1
  Si  Si33  1  0.209683  0.545962  0.064108  1
  Si  Si34  1  0.952981  0.709651  0.314145  1
  Si  Si35  1  0.047367  0.289988  0.814915  1
