# generated using pymatgen
data_Yb4Y4HoEr(CuPb3)2
_symmetry_space_group_name_H-M   'P 1'
_cell_length_a   9.20704794
_cell_length_b   9.22296704
_cell_length_c   6.75704300
_cell_angle_alpha   90.00000000
_cell_angle_beta   90.00000000
_cell_angle_gamma   119.85340252
_symmetry_Int_Tables_number   1
_chemical_formula_structural   Yb4Y4HoEr(CuPb3)2
_chemical_formula_sum   'Yb4 Y4 Ho1 Er1 Cu2 Pb6'
_cell_volume   497.64314650
_cell_formula_units_Z   1
loop_
 _symmetry_equiv_pos_site_id
 _symmetry_equiv_pos_as_xyz
  1  'x, y, z'
loop_
 _atom_site_type_symbol
 _atom_site_label
 _atom_site_symmetry_multiplicity
 _atom_site_fract_x
 _atom_site_fract_y
 _atom_site_fract_z
 _atom_site_occupancy
  Yb  Yb0  1  0.331874  0.666488  0.001827  1
  Yb  Yb1  1  0.665192  0.332679  0.001831  1
  Yb  Yb2  1  0.665192  0.332679  0.498169  1
  Yb  Yb3  1  0.331874  0.666488  0.498173  1
  Y  Y4  1  0.248294  0.999485  0.250000  1
  Y  Y5  1  0.730640  0.999070  0.750000  1
  Y  Y6  1  0.998617  0.246401  0.250000  1
  Y  Y7  1  0.752948  0.753840  0.250000  1
  Ho  Ho8  1  0.996879  0.727211  0.750000  1
  Er  Er9  1  0.271525  0.273694  0.750000  1
  Cu  Cu10  1  0.008546  0.002575  0.948687  1
  Cu  Cu11  1  0.008546  0.002575  0.551313  1
  Pb  Pb12  1  0.608299  0.999829  0.250000  1
  Pb  Pb13  1  0.375712  0.999804  0.750000  1
  Pb  Pb14  1  0.998802  0.608869  0.250000  1
  Pb  Pb15  1  0.999324  0.379111  0.750000  1
  Pb  Pb16  1  0.389308  0.390197  0.250000  1
  Pb  Pb17  1  0.618430  0.619006  0.750000  1
