# generated using pymatgen
data_SrHgGeS4
_symmetry_space_group_name_H-M   'P 1'
_cell_length_a   6.17075902
_cell_length_b   6.17075901
_cell_length_c   10.53336300
_cell_angle_alpha   90.00000000
_cell_angle_beta   90.00000000
_cell_angle_gamma   116.20954476
_symmetry_Int_Tables_number   1
_chemical_formula_structural   SrHgGeS4
_chemical_formula_sum   'Sr2 Hg2 Ge2 S8'
_cell_volume   359.85383490
_cell_formula_units_Z   2
loop_
 _symmetry_equiv_pos_site_id
 _symmetry_equiv_pos_as_xyz
  1  'x, y, z'
loop_
 _atom_site_type_symbol
 _atom_site_label
 _atom_site_symmetry_multiplicity
 _atom_site_fract_x
 _atom_site_fract_y
 _atom_site_fract_z
 _atom_site_occupancy
  Sr  Sr0  1  0.949931  0.949931  0.500000  1
  Sr  Sr1  1  0.949931  0.949931  0.000000  1
  Hg  Hg2  1  0.667523  0.327333  0.750000  1
  Hg  Hg3  1  0.327333  0.667523  0.250000  1
  Ge  Ge4  1  0.246409  0.674258  0.750000  1
  Ge  Ge5  1  0.674258  0.246409  0.250000  1
  S  S6  1  0.020843  0.479257  0.580935  1
  S  S7  1  0.479257  0.020843  0.419065  1
  S  S8  1  0.633292  0.758048  0.750000  1
  S  S9  1  0.758048  0.633292  0.250000  1
  S  S10  1  0.020843  0.479257  0.919065  1
  S  S11  1  0.479257  0.020843  0.080935  1
  S  S12  1  0.235692  0.038182  0.750000  1
  S  S13  1  0.038182  0.235692  0.250000  1
