# generated using pymatgen
data_CeNdTm2CdRu
_symmetry_space_group_name_H-M   'P 1'
_cell_length_a   9.64992293
_cell_length_b   9.64992334
_cell_length_c   9.66523354
_cell_angle_alpha   59.86743912
_cell_angle_beta   59.86743652
_cell_angle_gamma   60.08123133
_symmetry_Int_Tables_number   1
_chemical_formula_structural   CeNdTm2CdRu
_chemical_formula_sum   'Ce4 Nd4 Tm8 Cd4 Ru4'
_cell_volume   635.53108151
_cell_formula_units_Z   4
loop_
 _symmetry_equiv_pos_site_id
 _symmetry_equiv_pos_as_xyz
  1  'x, y, z'
loop_
 _atom_site_type_symbol
 _atom_site_label
 _atom_site_symmetry_multiplicity
 _atom_site_fract_x
 _atom_site_fract_y
 _atom_site_fract_z
 _atom_site_occupancy
  Ce  Ce0  1  0.346559  0.346559  0.961396  1
  Ce  Ce1  1  0.346080  0.961300  0.346920  1
  Ce  Ce2  1  0.961300  0.346080  0.346920  1
  Ce  Ce3  1  0.346012  0.346012  0.347011  1
  Nd  Nd4  1  0.561004  0.561004  0.936207  1
  Nd  Nd5  1  0.941643  0.558324  0.939172  1
  Nd  Nd6  1  0.558324  0.941643  0.939172  1
  Nd  Nd7  1  0.938710  0.938710  0.558686  1
  Tm  Tm8  1  0.560259  0.940174  0.556808  1
  Tm  Tm9  1  0.940174  0.560259  0.556808  1
  Tm  Tm10  1  0.186532  0.186532  0.812246  1
  Tm  Tm11  1  0.814944  0.187407  0.813901  1
  Tm  Tm12  1  0.187406  0.814945  0.813901  1
  Tm  Tm13  1  0.813497  0.813498  0.190352  1
  Tm  Tm14  1  0.184218  0.813392  0.188017  1
  Tm  Tm15  1  0.813392  0.184219  0.188018  1
  Cd  Cd16  1  0.579388  0.579388  0.261974  1
  Cd  Cd17  1  0.578555  0.259502  0.579091  1
  Cd  Cd18  1  0.259502  0.578555  0.579091  1
  Cd  Cd19  1  0.582509  0.582509  0.578235  1
  Ru  Ru20  1  0.145849  0.145849  0.567867  1
  Ru  Ru21  1  0.141452  0.568886  0.147486  1
  Ru  Ru22  1  0.568886  0.141452  0.147486  1
  Ru  Ru23  1  0.143801  0.143801  0.143237  1
