# generated using pymatgen
data_La8Y12Si15Ni
_symmetry_space_group_name_H-M   'P 1'
_cell_length_a   7.89599014
_cell_length_b   7.92365702
_cell_length_c   14.52306600
_cell_angle_alpha   89.77562945
_cell_angle_beta   89.76906720
_cell_angle_gamma   90.03146126
_symmetry_Int_Tables_number   1
_chemical_formula_structural   La8Y12Si15Ni
_chemical_formula_sum   'La8 Y12 Si15 Ni1'
_cell_volume   908.62284071
_cell_formula_units_Z   1
loop_
 _symmetry_equiv_pos_site_id
 _symmetry_equiv_pos_as_xyz
  1  'x, y, z'
loop_
 _atom_site_type_symbol
 _atom_site_label
 _atom_site_symmetry_multiplicity
 _atom_site_fract_x
 _atom_site_fract_y
 _atom_site_fract_z
 _atom_site_occupancy
  La  La0  1  0.635068  0.988902  0.462923  1
  La  La1  1  0.360770  0.007334  0.956217  1
  La  La2  1  0.990278  0.639269  0.539746  1
  La  La3  1  0.490881  0.858360  0.208607  1
  La  La4  1  0.509493  0.142881  0.706329  1
  La  La5  1  0.859116  0.494633  0.792221  1
  La  La6  1  0.139403  0.506608  0.292960  1
  La  La7  1  0.009854  0.358964  0.042699  1
  Y  Y8  1  0.490106  0.359794  0.124984  1
  Y  Y9  1  0.992214  0.140708  0.626603  1
  Y  Y10  1  0.861586  0.008137  0.874058  1
  Y  Y11  1  0.138905  0.985089  0.378817  1
  Y  Y12  1  0.508766  0.638098  0.622837  1
  Y  Y13  1  0.363618  0.494077  0.875110  1
  Y  Y14  1  0.638130  0.506994  0.375953  1
  Y  Y15  1  0.008737  0.862499  0.125461  1
  Y  Y16  1  0.312186  0.311285  0.501038  1
  Y  Y17  1  0.189259  0.824238  0.741689  1
  Y  Y18  1  0.817003  0.179835  0.252429  1
  Y  Y19  1  0.682470  0.684209  0.000242  1
  Si  Si20  1  0.711503  0.066053  0.061717  1
  Si  Si21  1  0.933292  0.289187  0.438716  1
  Si  Si22  1  0.433005  0.210584  0.311850  1
  Si  Si23  1  0.567652  0.789626  0.810744  1
  Si  Si24  1  0.211104  0.436432  0.689402  1
  Si  Si25  1  0.788700  0.566330  0.188347  1
  Si  Si26  1  0.065518  0.711533  0.936798  1
  Si  Si27  1  0.795450  0.849329  0.689228  1
  Si  Si28  1  0.202328  0.152224  0.192692  1
  Si  Si29  1  0.844557  0.794989  0.309137  1
  Si  Si30  1  0.348163  0.702987  0.442323  1
  Si  Si31  1  0.654870  0.297411  0.942753  1
  Si  Si32  1  0.706706  0.348199  0.558897  1
  Si  Si33  1  0.296963  0.654227  0.057424  1
  Si  Si34  1  0.151744  0.210292  0.810310  1
  Ni  Ni35  1  0.290606  0.928684  0.558738  1
