# generated using pymatgen
data_Sc2Be2Ru5W
_symmetry_space_group_name_H-M   'P 1'
_cell_length_a   9.46763400
_cell_length_b   9.46763400
_cell_length_c   3.20971700
_cell_angle_alpha   90.00000000
_cell_angle_beta   90.00000000
_cell_angle_gamma   90.00000000
_symmetry_Int_Tables_number   1
_chemical_formula_structural   Sc2Be2Ru5W
_chemical_formula_sum   'Sc4 Be4 Ru10 W2'
_cell_volume   287.70649331
_cell_formula_units_Z   2
loop_
 _symmetry_equiv_pos_site_id
 _symmetry_equiv_pos_as_xyz
  1  'x, y, z'
loop_
 _atom_site_type_symbol
 _atom_site_label
 _atom_site_symmetry_multiplicity
 _atom_site_fract_x
 _atom_site_fract_y
 _atom_site_fract_z
 _atom_site_occupancy
  Sc  Sc0  1  0.672736  0.172736  0.000000  1
  Sc  Sc1  1  0.327264  0.827264  0.000000  1
  Sc  Sc2  1  0.172736  0.327264  0.000000  1
  Sc  Sc3  1  0.827264  0.672736  0.000000  1
  Be  Be4  1  0.121204  0.621204  0.000000  1
  Be  Be5  1  0.878796  0.378796  0.000000  1
  Be  Be6  1  0.621204  0.878796  0.000000  1
  Be  Be7  1  0.378796  0.121204  0.000000  1
  Ru  Ru8  1  0.207552  0.071467  0.500000  1
  Ru  Ru9  1  0.792448  0.928533  0.500000  1
  Ru  Ru10  1  0.071467  0.792448  0.500000  1
  Ru  Ru11  1  0.707552  0.428533  0.500000  1
  Ru  Ru12  1  0.928533  0.207552  0.500000  1
  Ru  Ru13  1  0.292448  0.571467  0.500000  1
  Ru  Ru14  1  0.571467  0.707552  0.500000  1
  Ru  Ru15  1  0.428533  0.292448  0.500000  1
  Ru  Ru16  1  0.500000  0.000000  0.500000  1
  Ru  Ru17  1  0.000000  0.500000  0.500000  1
  W  W18  1  0.000000  0.000000  0.000000  1
  W  W19  1  0.500000  0.500000  0.000000  1
