# generated using pymatgen
data_LiY5Se6
_symmetry_space_group_name_H-M   'P 1'
_cell_length_a   7.01957804
_cell_length_b   7.00833634
_cell_length_c   7.02039900
_cell_angle_alpha   70.50937282
_cell_angle_beta   99.43662538
_cell_angle_gamma   119.87915782
_symmetry_Int_Tables_number   1
_chemical_formula_structural   LiY5Se6
_chemical_formula_sum   'Li1 Y5 Se6'
_cell_volume   282.30330387
_cell_formula_units_Z   1
loop_
 _symmetry_equiv_pos_site_id
 _symmetry_equiv_pos_as_xyz
  1  'x, y, z'
loop_
 _atom_site_type_symbol
 _atom_site_label
 _atom_site_symmetry_multiplicity
 _atom_site_fract_x
 _atom_site_fract_y
 _atom_site_fract_z
 _atom_site_occupancy
  Li  Li0  1  0.230054  0.821808  0.390394  1
  Y  Y1  1  0.563671  0.490717  0.382644  1
  Y  Y2  1  0.228666  0.323060  0.883751  1
  Y  Y3  1  0.892728  0.654284  0.883904  1
  Y  Y4  1  0.564828  0.990235  0.883159  1
  Y  Y5  1  0.893791  0.155149  0.381841  1
  Se  Se6  1  0.905781  0.904207  0.137537  1
  Se  Se7  1  0.228599  0.583142  0.142802  1
  Se  Se8  1  0.228600  0.063687  0.623881  1
  Se  Se9  1  0.551082  0.226841  0.137669  1
  Se  Se10  1  0.552517  0.740798  0.628405  1
  Se  Se11  1  0.905472  0.417710  0.627958  1
