# generated using pymatgen
data_CaHoTi3O8
_symmetry_space_group_name_H-M   'P 1'
_cell_length_a   6.34207672
_cell_length_b   6.34207692
_cell_length_c   5.09382805
_cell_angle_alpha   72.01317089
_cell_angle_beta   72.01317303
_cell_angle_gamma   57.57953486
_symmetry_Int_Tables_number   1
_chemical_formula_structural   CaHoTi3O8
_chemical_formula_sum   'Ca1 Ho1 Ti3 O8'
_cell_volume   161.85809019
_cell_formula_units_Z   1
loop_
 _symmetry_equiv_pos_site_id
 _symmetry_equiv_pos_as_xyz
  1  'x, y, z'
loop_
 _atom_site_type_symbol
 _atom_site_label
 _atom_site_symmetry_multiplicity
 _atom_site_fract_x
 _atom_site_fract_y
 _atom_site_fract_z
 _atom_site_occupancy
  Ca  Ca0  1  0.274954  0.274954  0.666507  1
  Ho  Ho1  1  0.727505  0.727505  0.336568  1
  Ti  Ti2  1  0.000771  0.000771  0.496079  1
  Ti  Ti3  1  0.734718  0.266143  0.000790  1
  Ti  Ti4  1  0.266143  0.734718  0.000790  1
  O  O5  1  0.395990  0.395990  0.950264  1
  O  O6  1  0.608809  0.608809  0.059451  1
  O  O7  1  0.897433  0.897433  0.912909  1
  O  O8  1  0.100246  0.100246  0.092285  1
  O  O9  1  0.335458  0.882754  0.595308  1
  O  O10  1  0.882754  0.335458  0.595308  1
  O  O11  1  0.102539  0.672679  0.396870  1
  O  O12  1  0.672679  0.102539  0.396870  1
