# generated using pymatgen
data_Y18Ho2(Ir3Rh)3
_symmetry_space_group_name_H-M   'P 1'
_cell_length_a   10.92595000
_cell_length_b   10.92483100
_cell_length_c   6.40522300
_cell_angle_alpha   90.00000000
_cell_angle_beta   90.00000000
_cell_angle_gamma   89.99962241
_symmetry_Int_Tables_number   1
_chemical_formula_structural   Y18Ho2(Ir3Rh)3
_chemical_formula_sum   'Y18 Ho2 Ir9 Rh3'
_cell_volume   764.55404548
_cell_formula_units_Z   1
loop_
 _symmetry_equiv_pos_site_id
 _symmetry_equiv_pos_as_xyz
  1  'x, y, z'
loop_
 _atom_site_type_symbol
 _atom_site_label
 _atom_site_symmetry_multiplicity
 _atom_site_fract_x
 _atom_site_fract_y
 _atom_site_fract_z
 _atom_site_occupancy
  Y  Y0  1  0.290194  0.088588  0.379348  1
  Y  Y1  1  0.290135  0.911123  0.879187  1
  Y  Y2  1  0.709865  0.088877  0.879187  1
  Y  Y3  1  0.709806  0.911412  0.379348  1
  Y  Y4  1  0.589015  0.790392  0.879129  1
  Y  Y5  1  0.588709  0.209537  0.379272  1
  Y  Y6  1  0.411291  0.790463  0.379272  1
  Y  Y7  1  0.410985  0.209608  0.879129  1
  Y  Y8  1  0.208811  0.411357  0.619726  1
  Y  Y9  1  0.209098  0.588869  0.122089  1
  Y  Y10  1  0.790902  0.411131  0.122089  1
  Y  Y11  1  0.791189  0.588643  0.619726  1
  Y  Y12  1  0.911267  0.709339  0.121990  1
  Y  Y13  1  0.911497  0.290962  0.619628  1
  Y  Y14  1  0.088503  0.709038  0.619628  1
  Y  Y15  1  0.088733  0.290661  0.121990  1
  Y  Y16  1  0.500000  0.500000  0.000068  1
  Y  Y17  1  0.500000  0.500000  0.500269  1
  Ho  Ho18  1  0.000000  0.000000  0.500265  1
  Ho  Ho19  1  0.000000  0.000000  0.000072  1
  Ir  Ir20  1  0.846805  0.152201  0.249750  1
  Ir  Ir21  1  0.846965  0.847525  0.749949  1
  Ir  Ir22  1  0.153035  0.152475  0.749949  1
  Ir  Ir23  1  0.153195  0.847799  0.249750  1
  Ir  Ir24  1  0.653722  0.345716  0.749927  1
  Ir  Ir25  1  0.653441  0.654446  0.249753  1
  Ir  Ir26  1  0.346559  0.345554  0.249753  1
  Ir  Ir27  1  0.346278  0.654284  0.749927  1
  Ir  Ir28  1  0.000000  0.500000  0.375127  1
  Rh  Rh29  1  0.500000  0.000000  0.124434  1
  Rh  Rh30  1  0.500000  0.000000  0.624532  1
  Rh  Rh31  1  0.000000  0.500000  0.875734  1
