# generated using pymatgen
data_Cs3TiVBr9
_symmetry_space_group_name_H-M   'P 1'
_cell_length_a   7.88634800
_cell_length_b   7.88634912
_cell_length_c   19.53243800
_cell_angle_alpha   90.00000000
_cell_angle_beta   90.00000000
_cell_angle_gamma   119.99999532
_symmetry_Int_Tables_number   1
_chemical_formula_structural   Cs3TiVBr9
_chemical_formula_sum   'Cs6 Ti2 V2 Br18'
_cell_volume   1052.05644817
_cell_formula_units_Z   2
loop_
 _symmetry_equiv_pos_site_id
 _symmetry_equiv_pos_as_xyz
  1  'x, y, z'
loop_
 _atom_site_type_symbol
 _atom_site_label
 _atom_site_symmetry_multiplicity
 _atom_site_fract_x
 _atom_site_fract_y
 _atom_site_fract_z
 _atom_site_occupancy
  Cs  Cs0  1  0.666667  0.333333  0.571688  1
  Cs  Cs1  1  0.333333  0.666667  0.065095  1
  Cs  Cs2  1  0.333333  0.666667  0.428312  1
  Cs  Cs3  1  0.666667  0.333333  0.934905  1
  Cs  Cs4  1  0.000000  0.000000  0.243252  1
  Cs  Cs5  1  0.000000  0.000000  0.756748  1
  Ti  Ti6  1  0.333333  0.666667  0.665403  1
  Ti  Ti7  1  0.666667  0.333333  0.334597  1
  V  V8  1  0.333333  0.666667  0.833746  1
  V  V9  1  0.666667  0.333333  0.166254  1
  Br  Br10  1  0.821222  0.642445  0.405980  1
  Br  Br11  1  0.178778  0.821222  0.594020  1
  Br  Br12  1  0.642445  0.821222  0.594020  1
  Br  Br13  1  0.821222  0.178778  0.405980  1
  Br  Br14  1  0.357555  0.178778  0.405980  1
  Br  Br15  1  0.178450  0.356900  0.903310  1
  Br  Br16  1  0.030486  0.515243  0.747511  1
  Br  Br17  1  0.643100  0.821550  0.903310  1
  Br  Br18  1  0.821550  0.643100  0.096690  1
  Br  Br19  1  0.178778  0.357555  0.594020  1
  Br  Br20  1  0.484757  0.969514  0.747511  1
  Br  Br21  1  0.515243  0.484757  0.252489  1
  Br  Br22  1  0.484757  0.515243  0.747511  1
  Br  Br23  1  0.178450  0.821550  0.903310  1
  Br  Br24  1  0.356900  0.178450  0.096690  1
  Br  Br25  1  0.969514  0.484757  0.252489  1
  Br  Br26  1  0.515243  0.030486  0.252489  1
  Br  Br27  1  0.821550  0.178450  0.096690  1
