# generated using pymatgen
data_Er3Hf4NpF28
_symmetry_space_group_name_H-M   'P 1'
_cell_length_a   5.71392339
_cell_length_b   9.04232273
_cell_length_c   12.14451500
_cell_angle_alpha   62.36940257
_cell_angle_beta   89.97882214
_cell_angle_gamma   90.02063744
_symmetry_Int_Tables_number   1
_chemical_formula_structural   Er3Hf4NpF28
_chemical_formula_sum   'Er3 Hf4 Np1 F28'
_cell_volume   555.91277961
_cell_formula_units_Z   1
loop_
 _symmetry_equiv_pos_site_id
 _symmetry_equiv_pos_as_xyz
  1  'x, y, z'
loop_
 _atom_site_type_symbol
 _atom_site_label
 _atom_site_symmetry_multiplicity
 _atom_site_fract_x
 _atom_site_fract_y
 _atom_site_fract_z
 _atom_site_occupancy
  Er  Er0  1  0.743918  0.816995  0.266674  1
  Er  Er1  1  0.243525  0.185684  0.233631  1
  Er  Er2  1  0.257101  0.193467  0.732619  1
  Hf  Hf3  1  0.743180  0.278557  0.451784  1
  Hf  Hf4  1  0.244692  0.725305  0.051347  1
  Hf  Hf5  1  0.254941  0.726233  0.539129  1
  Hf  Hf6  1  0.755389  0.268619  0.957757  1
  Np  Np7  1  0.758326  0.817928  0.767413  1
  F  F8  1  0.454529  0.705975  0.927408  1
  F  F9  1  0.964205  0.289234  0.576305  1
  F  F10  1  0.533182  0.286982  0.078423  1
  F  F11  1  0.032808  0.709486  0.417875  1
  F  F12  1  0.456562  0.282164  0.548281  1
  F  F13  1  0.955256  0.712280  0.962467  1
  F  F14  1  0.546958  0.718598  0.448017  1
  F  F15  1  0.043535  0.278166  0.051284  1
  F  F16  1  0.770657  0.515421  0.860914  1
  F  F17  1  0.267404  0.476010  0.638574  1
  F  F18  1  0.235532  0.474859  0.144546  1
  F  F19  1  0.732676  0.526942  0.356204  1
  F  F20  1  0.759257  0.019762  0.058913  1
  F  F21  1  0.258690  0.975494  0.440557  1
  F  F22  1  0.240545  0.973385  0.944161  1
  F  F23  1  0.738359  0.029568  0.550117  1
  F  F24  1  0.983931  0.729754  0.641128  1
  F  F25  1  0.485786  0.266703  0.852105  1
  F  F26  1  0.010431  0.266370  0.348667  1
  F  F27  1  0.514447  0.734484  0.153310  1
  F  F28  1  0.033155  0.746777  0.176142  1
  F  F29  1  0.530688  0.255522  0.327156  1
  F  F30  1  0.965953  0.250705  0.829678  1
  F  F31  1  0.455904  0.739872  0.669149  1
  F  F32  1  0.432036  0.975951  0.235527  1
  F  F33  1  0.932960  0.025791  0.264576  1
  F  F34  1  0.570841  0.041511  0.766306  1
  F  F35  1  0.092641  0.979446  0.731849  1
