# generated using pymatgen
data_Pr10Ag2BiPb5
_symmetry_space_group_name_H-M   'P 1'
_cell_length_a   9.77944073
_cell_length_b   9.77944063
_cell_length_c   6.78457500
_cell_angle_alpha   90.00000000
_cell_angle_beta   90.00000000
_cell_angle_gamma   120.08565162
_symmetry_Int_Tables_number   1
_chemical_formula_structural   Pr10Ag2BiPb5
_chemical_formula_sum   'Pr10 Ag2 Bi1 Pb5'
_cell_volume   561.44320958
_cell_formula_units_Z   1
loop_
 _symmetry_equiv_pos_site_id
 _symmetry_equiv_pos_as_xyz
  1  'x, y, z'
loop_
 _atom_site_type_symbol
 _atom_site_label
 _atom_site_symmetry_multiplicity
 _atom_site_fract_x
 _atom_site_fract_y
 _atom_site_fract_z
 _atom_site_occupancy
  Pr  Pr0  1  0.272172  0.999695  0.750000  1
  Pr  Pr1  1  0.728259  0.000897  0.250000  1
  Pr  Pr2  1  0.999695  0.272172  0.750000  1
  Pr  Pr3  1  0.000897  0.728259  0.250000  1
  Pr  Pr4  1  0.728246  0.728246  0.750000  1
  Pr  Pr5  1  0.271620  0.271620  0.250000  1
  Pr  Pr6  1  0.332852  0.666642  0.499859  1
  Pr  Pr7  1  0.666642  0.332852  0.499859  1
  Pr  Pr8  1  0.666642  0.332852  0.000141  1
  Pr  Pr9  1  0.332852  0.666642  0.000141  1
  Ag  Ag10  1  0.000358  0.000358  0.500257  1
  Ag  Ag11  1  0.000358  0.000358  0.999743  1
  Bi  Bi12  1  0.621242  0.621242  0.250000  1
  Pb  Pb13  1  0.621273  0.999731  0.750000  1
  Pb  Pb14  1  0.378665  0.999702  0.250000  1
  Pb  Pb15  1  0.999731  0.621273  0.750000  1
  Pb  Pb16  1  0.999702  0.378665  0.250000  1
  Pb  Pb17  1  0.378794  0.378794  0.750000  1
