# generated using pymatgen
data_Tb3YPt4F28
_symmetry_space_group_name_H-M   'P 1'
_cell_length_a   5.56176605
_cell_length_b   8.92529256
_cell_length_c   12.04224017
_cell_angle_alpha   62.32146887
_cell_angle_beta   90.01064815
_cell_angle_gamma   89.99446511
_symmetry_Int_Tables_number   1
_chemical_formula_structural   Tb3YPt4F28
_chemical_formula_sum   'Tb3 Y1 Pt4 F28'
_cell_volume   529.37598204
_cell_formula_units_Z   1
loop_
 _symmetry_equiv_pos_site_id
 _symmetry_equiv_pos_as_xyz
  1  'x, y, z'
loop_
 _atom_site_type_symbol
 _atom_site_label
 _atom_site_symmetry_multiplicity
 _atom_site_fract_x
 _atom_site_fract_y
 _atom_site_fract_z
 _atom_site_occupancy
  Tb  Tb0  1  0.739659  0.185983  0.736170  1
  Tb  Tb1  1  0.760288  0.185807  0.236161  1
  Tb  Tb2  1  0.239704  0.813946  0.763875  1
  Y  Y3  1  0.260453  0.814185  0.263770  1
  Pt  Pt4  1  0.759117  0.727001  0.042856  1
  Pt  Pt5  1  0.241217  0.272967  0.957396  1
  Pt  Pt6  1  0.258888  0.273291  0.457260  1
  Pt  Pt7  1  0.741001  0.726963  0.542475  1
  F  F8  1  0.935290  0.704701  0.414644  1
  F  F9  1  0.064178  0.294981  0.585290  1
  F  F10  1  0.435908  0.294561  0.085457  1
  F  F11  1  0.564093  0.705330  0.914907  1
  F  F12  1  0.466802  0.726689  0.135058  1
  F  F13  1  0.533387  0.273114  0.865245  1
  F  F14  1  0.966678  0.273207  0.365104  1
  F  F15  1  0.033262  0.727046  0.634589  1
  F  F16  1  0.949886  0.742752  0.175036  1
  F  F17  1  0.050295  0.257338  0.825328  1
  F  F18  1  0.449815  0.257485  0.325220  1
  F  F19  1  0.550026  0.742947  0.674414  1
  F  F20  1  0.769650  0.478602  0.141553  1
  F  F21  1  0.230737  0.521371  0.858847  1
  F  F22  1  0.269521  0.521756  0.358397  1
  F  F23  1  0.730433  0.478639  0.641255  1
  F  F24  1  0.942629  0.280336  0.043118  1
  F  F25  1  0.057735  0.719558  0.957104  1
  F  F26  1  0.442101  0.719355  0.456978  1
  F  F27  1  0.557589  0.280806  0.542917  1
  F  F28  1  0.741335  0.975328  0.449004  1
  F  F29  1  0.258655  0.024951  0.550757  1
  F  F30  1  0.241348  0.024646  0.050458  1
  F  F31  1  0.758879  0.975371  0.949380  1
  F  F32  1  0.586971  0.968687  0.231838  1
  F  F33  1  0.412554  0.031044  0.768161  1
  F  F34  1  0.087476  0.030334  0.268177  1
  F  F35  1  0.912441  0.968921  0.731804  1
