# generated using pymatgen
data_Tb5CdIn(HgPd)2
_symmetry_space_group_name_H-M   'P 1'
_cell_length_a   8.00302302
_cell_length_b   18.52283029
_cell_length_c   3.64283000
_cell_angle_alpha   90.00000000
_cell_angle_beta   90.00000000
_cell_angle_gamma   89.61606650
_symmetry_Int_Tables_number   1
_chemical_formula_structural   Tb5CdIn(HgPd)2
_chemical_formula_sum   'Tb10 Cd2 In2 Hg4 Pd4'
_cell_volume   539.99603130
_cell_formula_units_Z   2
loop_
 _symmetry_equiv_pos_site_id
 _symmetry_equiv_pos_as_xyz
  1  'x, y, z'
loop_
 _atom_site_type_symbol
 _atom_site_label
 _atom_site_symmetry_multiplicity
 _atom_site_fract_x
 _atom_site_fract_y
 _atom_site_fract_z
 _atom_site_occupancy
  Tb  Tb0  1  0.500000  0.500000  0.000000  1
  Tb  Tb1  1  0.000000  0.000000  0.000000  1
  Tb  Tb2  1  0.742696  0.282337  0.000000  1
  Tb  Tb3  1  0.257304  0.717663  0.000000  1
  Tb  Tb4  1  0.753710  0.781388  0.000000  1
  Tb  Tb5  1  0.246290  0.218612  0.000000  1
  Tb  Tb6  1  0.612449  0.083114  0.000000  1
  Tb  Tb7  1  0.387551  0.916886  0.000000  1
  Tb  Tb8  1  0.887617  0.582917  0.000000  1
  Tb  Tb9  1  0.112383  0.417083  0.000000  1
  Cd  Cd10  1  0.575395  0.648841  0.500000  1
  Cd  Cd11  1  0.424605  0.351159  0.500000  1
  In  In12  1  0.925655  0.149197  0.500000  1
  In  In13  1  0.074345  0.850803  0.500000  1
  Hg  Hg14  1  0.714050  0.931620  0.500000  1
  Hg  Hg15  1  0.285950  0.068380  0.500000  1
  Hg  Hg16  1  0.784594  0.431471  0.500000  1
  Hg  Hg17  1  0.215406  0.568529  0.500000  1
  Pd  Pd18  1  0.532054  0.196369  0.500000  1
  Pd  Pd19  1  0.467946  0.803631  0.500000  1
  Pd  Pd20  1  0.969457  0.696815  0.500000  1
  Pd  Pd21  1  0.030543  0.303185  0.500000  1
