# generated using pymatgen
data_Nd4Sn3Sb3Rh7
_symmetry_space_group_name_H-M   'P 1'
_cell_length_a   7.73567721
_cell_length_b   7.74291804
_cell_length_c   7.74291803
_cell_angle_alpha   109.49015164
_cell_angle_beta   109.45227985
_cell_angle_gamma   109.45227869
_symmetry_Int_Tables_number   1
_chemical_formula_structural   Nd4Sn3Sb3Rh7
_chemical_formula_sum   'Nd4 Sn3 Sb3 Rh7'
_cell_volume   357.09787048
_cell_formula_units_Z   1
loop_
 _symmetry_equiv_pos_site_id
 _symmetry_equiv_pos_as_xyz
  1  'x, y, z'
loop_
 _atom_site_type_symbol
 _atom_site_label
 _atom_site_symmetry_multiplicity
 _atom_site_fract_x
 _atom_site_fract_y
 _atom_site_fract_z
 _atom_site_occupancy
  Nd  Nd0  1  0.487165  0.000000  0.000000  1
  Nd  Nd1  1  0.998681  0.503161  0.000000  1
  Nd  Nd2  1  0.998681  0.000000  0.503161  1
  Nd  Nd3  1  0.495520  0.496839  0.496839  1
  Sn  Sn4  1  0.992881  0.310942  0.310942  1
  Sn  Sn5  1  0.681939  0.000000  0.689058  1
  Sn  Sn6  1  0.681939  0.689058  0.000000  1
  Sb  Sb7  1  0.994539  0.669856  0.669856  1
  Sb  Sb8  1  0.324682  0.000000  0.330144  1
  Sb  Sb9  1  0.324682  0.330144  0.000000  1
  Rh  Rh10  1  0.014568  0.000000  0.000000  1
  Rh  Rh11  1  0.503590  0.754170  0.254242  1
  Rh  Rh12  1  0.749421  0.500072  0.245830  1
  Rh  Rh13  1  0.249348  0.745758  0.499928  1
  Rh  Rh14  1  0.249348  0.499928  0.745758  1
  Rh  Rh15  1  0.503590  0.254242  0.754170  1
  Rh  Rh16  1  0.749421  0.245830  0.500072  1
