# generated using pymatgen
data_DyY(ScIr)2
_symmetry_space_group_name_H-M   'P 1'
_cell_length_a   4.27826600
_cell_length_b   7.14563900
_cell_length_c   8.68047300
_cell_angle_alpha   90.00000000
_cell_angle_beta   90.00000000
_cell_angle_gamma   90.00000000
_symmetry_Int_Tables_number   1
_chemical_formula_structural   DyY(ScIr)2
_chemical_formula_sum   'Dy2 Y2 Sc4 Ir4'
_cell_volume   265.37025729
_cell_formula_units_Z   2
loop_
 _symmetry_equiv_pos_site_id
 _symmetry_equiv_pos_as_xyz
  1  'x, y, z'
loop_
 _atom_site_type_symbol
 _atom_site_label
 _atom_site_symmetry_multiplicity
 _atom_site_fract_x
 _atom_site_fract_y
 _atom_site_fract_z
 _atom_site_occupancy
  Dy  Dy0  1  0.250000  0.983546  0.327088  1
  Dy  Dy1  1  0.250000  0.483546  0.172912  1
  Y  Y2  1  0.750000  0.016401  0.673391  1
  Y  Y3  1  0.750000  0.516401  0.826609  1
  Sc  Sc4  1  0.250000  0.359309  0.565821  1
  Sc  Sc5  1  0.250000  0.859309  0.934179  1
  Sc  Sc6  1  0.750000  0.640835  0.432956  1
  Sc  Sc7  1  0.750000  0.140835  0.067044  1
  Ir  Ir8  1  0.250000  0.238362  0.897289  1
  Ir  Ir9  1  0.250000  0.738362  0.602711  1
  Ir  Ir10  1  0.750000  0.761546  0.104670  1
  Ir  Ir11  1  0.750000  0.261546  0.395330  1
