# generated using pymatgen
data_Lu2P4S13
_symmetry_space_group_name_H-M   'P 1'
_cell_length_a   9.90093832
_cell_length_b   10.22204194
_cell_length_c   12.59855494
_cell_angle_alpha   70.83038467
_cell_angle_beta   70.82049107
_cell_angle_gamma   68.90373532
_symmetry_Int_Tables_number   1
_chemical_formula_structural   Lu2P4S13
_chemical_formula_sum   'Lu4 P8 S26'
_cell_volume   1091.17335791
_cell_formula_units_Z   2
loop_
 _symmetry_equiv_pos_site_id
 _symmetry_equiv_pos_as_xyz
  1  'x, y, z'
loop_
 _atom_site_type_symbol
 _atom_site_label
 _atom_site_symmetry_multiplicity
 _atom_site_fract_x
 _atom_site_fract_y
 _atom_site_fract_z
 _atom_site_occupancy
  Lu  Lu0  1  0.601483  0.012100  0.610763  1
  Lu  Lu1  1  0.103709  0.509500  0.110460  1
  Lu  Lu2  1  0.398517  0.987900  0.389237  1
  Lu  Lu3  1  0.896291  0.490500  0.889540  1
  P  P4  1  0.245426  0.570992  0.274308  1
  P  P5  1  0.497791  0.261229  0.387687  1
  P  P6  1  0.754574  0.429008  0.725692  1
  P  P7  1  0.225247  0.933713  0.245354  1
  P  P8  1  0.135281  0.228705  0.024193  1
  P  P9  1  0.864719  0.771295  0.975807  1
  P  P10  1  0.502209  0.738771  0.612313  1
  P  P11  1  0.774753  0.066287  0.754646  1
  S  S12  1  0.147904  0.004567  0.090589  1
  S  S13  1  0.852096  0.995433  0.909411  1
  S  S14  1  0.877593  0.237398  0.663278  1
  S  S15  1  0.933253  0.348382  0.110025  1
  S  S16  1  0.520785  0.195868  0.246464  1
  S  S17  1  0.311982  0.779787  0.565221  1
  S  S18  1  0.448645  0.868197  0.214566  1
  S  S19  1  0.874790  0.928350  0.650213  1
  S  S20  1  0.479215  0.804132  0.753536  1
  S  S21  1  0.350138  0.167910  0.527597  1
  S  S22  1  0.096302  0.455975  0.335930  1
  S  S23  1  0.417732  0.490239  0.365688  1
  S  S24  1  0.122407  0.762602  0.336722  1
  S  S25  1  0.066747  0.651618  0.889975  1
  S  S26  1  0.551355  0.131803  0.785434  1
  S  S27  1  0.649862  0.832090  0.472403  1
  S  S28  1  0.674896  0.390699  0.898215  1
  S  S29  1  0.688018  0.220213  0.434779  1
  S  S30  1  0.695769  0.720599  0.958505  1
  S  S31  1  0.125575  0.255924  0.860006  1
  S  S32  1  0.903698  0.544025  0.664070  1
  S  S33  1  0.325104  0.609301  0.101785  1
  S  S34  1  0.874425  0.744076  0.139994  1
  S  S35  1  0.304231  0.279401  0.041495  1
  S  S36  1  0.582268  0.509761  0.634312  1
  S  S37  1  0.125210  0.071650  0.349787  1
