# generated using pymatgen
data_Er3Sn3Ir2Rh
_symmetry_space_group_name_H-M   'P 1'
_cell_length_a   7.66417900
_cell_length_b   7.66417850
_cell_length_c   3.70229100
_cell_angle_alpha   90.00000000
_cell_angle_beta   90.00000000
_cell_angle_gamma   119.99998922
_symmetry_Int_Tables_number   1
_chemical_formula_structural   Er3Sn3Ir2Rh
_chemical_formula_sum   'Er3 Sn3 Ir2 Rh1'
_cell_volume   188.33562620
_cell_formula_units_Z   1
loop_
 _symmetry_equiv_pos_site_id
 _symmetry_equiv_pos_as_xyz
  1  'x, y, z'
loop_
 _atom_site_type_symbol
 _atom_site_label
 _atom_site_symmetry_multiplicity
 _atom_site_fract_x
 _atom_site_fract_y
 _atom_site_fract_z
 _atom_site_occupancy
  Er  Er0  1  0.403862  0.403862  0.000000  1
  Er  Er1  1  0.000000  0.596138  0.000000  1
  Er  Er2  1  0.596138  0.000000  0.000000  1
  Sn  Sn3  1  0.734123  0.734123  0.500000  1
  Sn  Sn4  1  0.000000  0.265877  0.500000  1
  Sn  Sn5  1  0.265877  0.000000  0.500000  1
  Ir  Ir6  1  0.666667  0.333333  0.500000  1
  Ir  Ir7  1  0.333333  0.666667  0.500000  1
  Rh  Rh8  1  0.000000  0.000000  0.000000  1
