# generated using pymatgen
data_Er4B4Ir9W
_symmetry_space_group_name_H-M   'P 1'
_cell_length_a   10.78390584
_cell_length_b   10.78390496
_cell_length_c   10.78390580
_cell_angle_alpha   29.69274286
_cell_angle_beta   29.69275307
_cell_angle_gamma   29.69274172
_symmetry_Int_Tables_number   1
_chemical_formula_structural   Er4B4Ir9W
_chemical_formula_sum   'Er4 B4 Ir9 W1'
_cell_volume   272.44587089
_cell_formula_units_Z   1
loop_
 _symmetry_equiv_pos_site_id
 _symmetry_equiv_pos_as_xyz
  1  'x, y, z'
loop_
 _atom_site_type_symbol
 _atom_site_label
 _atom_site_symmetry_multiplicity
 _atom_site_fract_x
 _atom_site_fract_y
 _atom_site_fract_z
 _atom_site_occupancy
  Er  Er0  1  0.150823  0.150823  0.150823  1
  Er  Er1  1  0.949699  0.949699  0.949699  1
  Er  Er2  1  0.849177  0.849177  0.849177  1
  Er  Er3  1  0.050301  0.050301  0.050301  1
  B  B4  1  0.615775  0.615775  0.615775  1
  B  B5  1  0.716381  0.716381  0.716381  1
  B  B6  1  0.384225  0.384225  0.384225  1
  B  B7  1  0.283619  0.283619  0.283619  1
  Ir  Ir8  1  0.400527  0.902936  0.400527  1
  Ir  Ir9  1  0.902936  0.400527  0.400527  1
  Ir  Ir10  1  0.500000  0.500000  0.000000  1
  Ir  Ir11  1  0.500000  0.000000  0.500000  1
  Ir  Ir12  1  0.000000  0.500000  0.500000  1
  Ir  Ir13  1  0.599473  0.097064  0.599473  1
  Ir  Ir14  1  0.599473  0.599473  0.097064  1
  Ir  Ir15  1  0.097064  0.599473  0.599473  1
  Ir  Ir16  1  0.400527  0.400527  0.902936  1
  W  W17  1  0.500000  0.500000  0.500000  1
