# generated using pymatgen
data_YbPr3TmRu2
_symmetry_space_group_name_H-M   'P 1'
_cell_length_a   6.60449188
_cell_length_b   7.31724653
_cell_length_c   8.77252677
_cell_angle_alpha   95.87345340
_cell_angle_beta   112.11275606
_cell_angle_gamma   89.99999793
_symmetry_Int_Tables_number   1
_chemical_formula_structural   YbPr3TmRu2
_chemical_formula_sum   'Yb2 Pr6 Tm2 Ru4'
_cell_volume   390.36039816
_cell_formula_units_Z   2
loop_
 _symmetry_equiv_pos_site_id
 _symmetry_equiv_pos_as_xyz
  1  'x, y, z'
loop_
 _atom_site_type_symbol
 _atom_site_label
 _atom_site_symmetry_multiplicity
 _atom_site_fract_x
 _atom_site_fract_y
 _atom_site_fract_z
 _atom_site_occupancy
  Yb  Yb0  1  0.798578  0.083278  0.820416  1
  Yb  Yb1  1  0.978162  0.416722  0.179584  1
  Pr  Pr2  1  0.203018  0.917186  0.180616  1
  Pr  Pr3  1  0.022402  0.582814  0.819384  1
  Pr  Pr4  1  0.207549  0.188644  0.570326  1
  Pr  Pr5  1  0.637223  0.311356  0.429674  1
  Pr  Pr6  1  0.794539  0.812935  0.429422  1
  Pr  Pr7  1  0.365117  0.687065  0.570578  1
  Tm  Tm8  1  0.437263  0.250000  0.000000  1
  Tm  Tm9  1  0.569233  0.750000  0.000000  1
  Ru  Ru10  1  0.592141  0.433270  0.782510  1
  Ru  Ru11  1  0.809630  0.066730  0.217490  1
  Ru  Ru12  1  0.397785  0.571139  0.210428  1
  Ru  Ru13  1  0.187358  0.928861  0.789572  1
