# generated using pymatgen
data_Cs4MnZn5Te8
_symmetry_space_group_name_H-M   'P 1'
_cell_length_a   10.62306697
_cell_length_b   10.64560994
_cell_length_c   10.62306628
_cell_angle_alpha   144.50205941
_cell_angle_beta   105.04566002
_cell_angle_gamma   85.68194550
_symmetry_Int_Tables_number   1
_chemical_formula_structural   Cs4MnZn5Te8
_chemical_formula_sum   'Cs4 Mn1 Zn5 Te8'
_cell_volume   653.55275256
_cell_formula_units_Z   1
loop_
 _symmetry_equiv_pos_site_id
 _symmetry_equiv_pos_as_xyz
  1  'x, y, z'
loop_
 _atom_site_type_symbol
 _atom_site_label
 _atom_site_symmetry_multiplicity
 _atom_site_fract_x
 _atom_site_fract_y
 _atom_site_fract_z
 _atom_site_occupancy
  Cs  Cs0  1  0.123386  0.234659  0.357869  1
  Cs  Cs1  1  0.377149  0.734456  0.111240  1
  Cs  Cs2  1  0.623209  0.265341  0.888727  1
  Cs  Cs3  1  0.876784  0.765544  0.642693  1
  Mn  Mn4  1  0.013040  0.250000  0.763040  1
  Zn  Zn5  1  0.518397  0.750000  0.768397  1
  Zn  Zn6  1  0.984454  0.750000  0.234454  1
  Zn  Zn7  1  0.482273  0.250000  0.232273  1
  Zn  Zn8  1  0.751426  0.250000  0.501426  1
  Zn  Zn9  1  0.250735  0.750000  0.500735  1
  Te  Te10  1  0.218238  0.071792  0.592318  1
  Te  Te11  1  0.283581  0.878540  0.857832  1
  Te  Te12  1  0.020526  0.428208  0.146447  1
  Te  Te13  1  0.479291  0.621460  0.405040  1
  Te  Te14  1  0.780149  0.920644  0.398657  1
  Te  Te15  1  0.717303  0.122048  0.144093  1
  Te  Te16  1  0.978013  0.579356  0.859504  1
  Te  Te17  1  0.522045  0.377952  0.595255  1
