# generated using pymatgen
data_Tb2Ga5Ir2Rh
_symmetry_space_group_name_H-M   'P 1'
_cell_length_a   8.60517787
_cell_length_b   8.60140342
_cell_length_c   5.70985610
_cell_angle_alpha   70.59341736
_cell_angle_beta   70.59387829
_cell_angle_gamma   96.48278203
_symmetry_Int_Tables_number   1
_chemical_formula_structural   Tb2Ga5Ir2Rh
_chemical_formula_sum   'Tb4 Ga10 Ir4 Rh2'
_cell_volume   363.92876255
_cell_formula_units_Z   2
loop_
 _symmetry_equiv_pos_site_id
 _symmetry_equiv_pos_as_xyz
  1  'x, y, z'
loop_
 _atom_site_type_symbol
 _atom_site_label
 _atom_site_symmetry_multiplicity
 _atom_site_fract_x
 _atom_site_fract_y
 _atom_site_fract_z
 _atom_site_occupancy
  Tb  Tb0  1  0.867259  0.585145  0.774072  1
  Tb  Tb1  1  0.414495  0.131865  0.726622  1
  Tb  Tb2  1  0.131145  0.413918  0.226919  1
  Tb  Tb3  1  0.585731  0.868924  0.273222  1
  Ga  Ga4  1  0.092433  0.263977  0.821098  1
  Ga  Ga5  1  0.736521  0.908210  0.678322  1
  Ga  Ga6  1  0.908635  0.736835  0.177094  1
  Ga  Ga7  1  0.263257  0.091493  0.322762  1
  Ga  Ga8  1  0.500227  0.499570  0.750306  1
  Ga  Ga9  1  0.499131  0.500620  0.249968  1
  Ga  Ga10  1  0.797356  0.203037  0.750114  1
  Ga  Ga11  1  0.798368  0.202058  0.249368  1
  Ga  Ga12  1  0.202229  0.797684  0.749054  1
  Ga  Ga13  1  0.202982  0.796908  0.251091  1
  Ir  Ir14  1  0.000188  0.999600  0.250063  1
  Ir  Ir15  1  0.438305  0.740592  0.909223  1
  Ir  Ir16  1  0.741304  0.439428  0.407801  1
  Ir  Ir17  1  0.560741  0.258408  0.092270  1
  Rh  Rh18  1  0.999520  0.000209  0.750118  1
  Rh  Rh19  1  0.260171  0.561517  0.590513  1
