# generated using pymatgen
data_Ce6Ti4Al12Ir7
_symmetry_space_group_name_H-M   'P 1'
_cell_length_a   8.99437144
_cell_length_b   8.99437267
_cell_length_c   8.99437300
_cell_angle_alpha   60.00000246
_cell_angle_beta   59.99999795
_cell_angle_gamma   60.00000527
_symmetry_Int_Tables_number   1
_chemical_formula_structural   Ce6Ti4Al12Ir7
_chemical_formula_sum   'Ce6 Ti4 Al12 Ir7'
_cell_volume   514.51449182
_cell_formula_units_Z   1
loop_
 _symmetry_equiv_pos_site_id
 _symmetry_equiv_pos_as_xyz
  1  'x, y, z'
loop_
 _atom_site_type_symbol
 _atom_site_label
 _atom_site_symmetry_multiplicity
 _atom_site_fract_x
 _atom_site_fract_y
 _atom_site_fract_z
 _atom_site_occupancy
  Ce  Ce0  1  0.690118  0.690118  0.309882  1
  Ce  Ce1  1  0.309882  0.690118  0.309882  1
  Ce  Ce2  1  0.690118  0.309882  0.309882  1
  Ce  Ce3  1  0.309882  0.309882  0.690118  1
  Ce  Ce4  1  0.690118  0.309882  0.690118  1
  Ce  Ce5  1  0.309882  0.690118  0.690118  1
  Ti  Ti6  1  0.880959  0.880959  0.357125  1
  Ti  Ti7  1  0.880959  0.357125  0.880959  1
  Ti  Ti8  1  0.357125  0.880959  0.880959  1
  Ti  Ti9  1  0.880959  0.880959  0.880959  1
  Al  Al10  1  0.118916  0.118916  0.643252  1
  Al  Al11  1  0.118916  0.643252  0.118916  1
  Al  Al12  1  0.643252  0.118916  0.118916  1
  Al  Al13  1  0.118916  0.118916  0.118916  1
  Al  Al14  1  0.670527  0.670527  0.988418  1
  Al  Al15  1  0.670527  0.988418  0.670527  1
  Al  Al16  1  0.988418  0.670527  0.670527  1
  Al  Al17  1  0.670527  0.670527  0.670527  1
  Al  Al18  1  0.328493  0.328493  0.014524  1
  Al  Al19  1  0.328493  0.014524  0.328493  1
  Al  Al20  1  0.014524  0.328493  0.328493  1
  Al  Al21  1  0.328493  0.328493  0.328493  1
  Ir  Ir22  1  0.000000  0.000000  0.000000  1
  Ir  Ir23  1  0.998602  0.998602  0.501398  1
  Ir  Ir24  1  0.501398  0.998602  0.501398  1
  Ir  Ir25  1  0.998602  0.501398  0.501398  1
  Ir  Ir26  1  0.501398  0.501398  0.998602  1
  Ir  Ir27  1  0.998602  0.501398  0.998602  1
  Ir  Ir28  1  0.501398  0.998602  0.998602  1
