# generated using pymatgen
data_LiTh2(P3Pd10)2
_symmetry_space_group_name_H-M   'P 1'
_cell_length_a   8.69246653
_cell_length_b   8.69152292
_cell_length_c   8.69178604
_cell_angle_alpha   60.00572312
_cell_angle_beta   59.99712813
_cell_angle_gamma   60.00245417
_symmetry_Int_Tables_number   1
_chemical_formula_structural   LiTh2(P3Pd10)2
_chemical_formula_sum   'Li1 Th2 P6 Pd20'
_cell_volume   464.35523241
_cell_formula_units_Z   1
loop_
 _symmetry_equiv_pos_site_id
 _symmetry_equiv_pos_as_xyz
  1  'x, y, z'
loop_
 _atom_site_type_symbol
 _atom_site_label
 _atom_site_symmetry_multiplicity
 _atom_site_fract_x
 _atom_site_fract_y
 _atom_site_fract_z
 _atom_site_occupancy
  Li  Li0  1  0.000000  0.000000  0.000000  1
  Th  Th1  1  0.250008  0.249999  0.249997  1
  Th  Th2  1  0.749992  0.750001  0.750003  1
  P  P3  1  0.739903  0.260108  0.260080  1
  P  P4  1  0.260097  0.739892  0.739920  1
  P  P5  1  0.260093  0.739902  0.260108  1
  P  P6  1  0.739907  0.260098  0.739892  1
  P  P7  1  0.260108  0.260078  0.739913  1
  P  P8  1  0.739892  0.739922  0.260087  1
  Pd  Pd9  1  0.384678  0.384695  0.384689  1
  Pd  Pd10  1  0.615322  0.615305  0.615311  1
  Pd  Pd11  1  0.384699  0.384672  0.845942  1
  Pd  Pd12  1  0.384685  0.845940  0.384681  1
  Pd  Pd13  1  0.615301  0.615328  0.154058  1
  Pd  Pd14  1  0.615315  0.154060  0.615319  1
  Pd  Pd15  1  0.845939  0.384692  0.384690  1
  Pd  Pd16  1  0.154061  0.615308  0.615310  1
  Pd  Pd17  1  0.344625  0.000023  0.999954  1
  Pd  Pd18  1  0.655375  0.999977  0.000046  1
  Pd  Pd19  1  0.000020  0.344623  0.655399  1
  Pd  Pd20  1  0.999980  0.655377  0.344601  1
  Pd  Pd21  1  0.999973  0.344746  0.000016  1
  Pd  Pd22  1  0.655277  0.000018  0.344725  1
  Pd  Pd23  1  0.000027  0.655254  0.999984  1
  Pd  Pd24  1  0.344723  0.999982  0.655275  1
  Pd  Pd25  1  0.999937  0.000062  0.344675  1
  Pd  Pd26  1  0.000063  0.999938  0.655325  1
  Pd  Pd27  1  0.655345  0.344632  0.000078  1
  Pd  Pd28  1  0.344655  0.655368  0.999922  1
