# generated using pymatgen
data_U3TiAs5
_symmetry_space_group_name_H-M   'P 1'
_cell_length_a   8.54706301
_cell_length_b   8.54661861
_cell_length_c   5.71057100
_cell_angle_alpha   90.00428951
_cell_angle_beta   89.99785392
_cell_angle_gamma   119.99828157
_symmetry_Int_Tables_number   1
_chemical_formula_structural   U3TiAs5
_chemical_formula_sum   'U6 Ti2 As10'
_cell_volume   361.26751831
_cell_formula_units_Z   2
loop_
 _symmetry_equiv_pos_site_id
 _symmetry_equiv_pos_as_xyz
  1  'x, y, z'
loop_
 _atom_site_type_symbol
 _atom_site_label
 _atom_site_symmetry_multiplicity
 _atom_site_fract_x
 _atom_site_fract_y
 _atom_site_fract_z
 _atom_site_occupancy
  U  U0  1  0.385748  0.999977  0.750001  1
  U  U1  1  0.385748  0.385771  0.249999  1
  U  U2  1  0.000000  0.614286  0.250007  1
  U  U3  1  0.000000  0.385714  0.749993  1
  U  U4  1  0.614252  0.614229  0.750001  1
  U  U5  1  0.614252  0.000023  0.249999  1
  Ti  Ti6  1  0.000000  0.000000  0.000000  1
  Ti  Ti7  1  0.000000  0.000000  0.500000  1
  As  As8  1  0.666678  0.333338  0.500000  1
  As  As9  1  0.333322  0.666661  0.000000  1
  As  As10  1  0.739614  0.000009  0.749988  1
  As  As11  1  0.739614  0.739605  0.250012  1
  As  As12  1  0.333322  0.666662  0.500000  1
  As  As13  1  0.666678  0.333339  0.000000  1
  As  As14  1  0.260386  0.999991  0.250012  1
  As  As15  1  0.260386  0.260395  0.749988  1
  As  As16  1  0.000000  0.739598  0.749988  1
  As  As17  1  0.000000  0.260402  0.250012  1
