# generated using pymatgen
data_Ti5GaAsP
_symmetry_space_group_name_H-M   'P 1'
_cell_length_a   6.63578900
_cell_length_b   7.74665900
_cell_length_c   9.82325200
_cell_angle_alpha   90.00000000
_cell_angle_beta   90.00000000
_cell_angle_gamma   90.00000000
_symmetry_Int_Tables_number   1
_chemical_formula_structural   Ti5GaAsP
_chemical_formula_sum   'Ti20 Ga4 As4 P4'
_cell_volume   504.96618046
_cell_formula_units_Z   4
loop_
 _symmetry_equiv_pos_site_id
 _symmetry_equiv_pos_as_xyz
  1  'x, y, z'
loop_
 _atom_site_type_symbol
 _atom_site_label
 _atom_site_symmetry_multiplicity
 _atom_site_fract_x
 _atom_site_fract_y
 _atom_site_fract_z
 _atom_site_occupancy
  Ti  Ti0  1  0.815076  0.554658  0.056598  1
  Ti  Ti1  1  0.684924  0.945342  0.556598  1
  Ti  Ti2  1  0.184924  0.054658  0.943402  1
  Ti  Ti3  1  0.315076  0.445342  0.443402  1
  Ti  Ti4  1  0.181985  0.447019  0.937303  1
  Ti  Ti5  1  0.318015  0.052981  0.437303  1
  Ti  Ti6  1  0.818015  0.947019  0.062697  1
  Ti  Ti7  1  0.681985  0.552981  0.562697  1
  Ti  Ti8  1  0.168296  0.756890  0.221774  1
  Ti  Ti9  1  0.331704  0.743110  0.721774  1
  Ti  Ti10  1  0.831704  0.256890  0.778226  1
  Ti  Ti11  1  0.668296  0.243110  0.278226  1
  Ti  Ti12  1  0.474822  0.750594  0.002209  1
  Ti  Ti13  1  0.025178  0.749406  0.502209  1
  Ti  Ti14  1  0.525178  0.250594  0.997791  1
  Ti  Ti15  1  0.974822  0.249406  0.497791  1
  Ti  Ti16  1  0.652804  0.752071  0.292131  1
  Ti  Ti17  1  0.847196  0.747929  0.792131  1
  Ti  Ti18  1  0.347196  0.252071  0.707869  1
  Ti  Ti19  1  0.152804  0.247929  0.207869  1
  Ga  Ga20  1  0.933251  0.506732  0.321594  1
  Ga  Ga21  1  0.566749  0.993268  0.821594  1
  Ga  Ga22  1  0.066749  0.006732  0.678406  1
  Ga  Ga23  1  0.433251  0.493268  0.178406  1
  As  As24  1  0.066864  0.490744  0.672862  1
  As  As25  1  0.433136  0.009256  0.172862  1
  As  As26  1  0.933136  0.990744  0.327138  1
  As  As27  1  0.566864  0.509256  0.827138  1
  P  P28  1  0.403616  0.748946  0.474711  1
  P  P29  1  0.096384  0.751054  0.974711  1
  P  P30  1  0.596384  0.248946  0.525289  1
  P  P31  1  0.903616  0.251054  0.025289  1
