# generated using pymatgen
data_Gd3(SiNi)2
_symmetry_space_group_name_H-M   'P 1'
_cell_length_a   5.51339500
_cell_length_b   7.74175000
_cell_length_c   12.90887100
_cell_angle_alpha   90.00000000
_cell_angle_beta   90.00000000
_cell_angle_gamma   90.00000000
_symmetry_Int_Tables_number   1
_chemical_formula_structural   Gd3(SiNi)2
_chemical_formula_sum   'Gd12 Si8 Ni8'
_cell_volume   550.99354584
_cell_formula_units_Z   4
loop_
 _symmetry_equiv_pos_site_id
 _symmetry_equiv_pos_as_xyz
  1  'x, y, z'
loop_
 _atom_site_type_symbol
 _atom_site_label
 _atom_site_symmetry_multiplicity
 _atom_site_fract_x
 _atom_site_fract_y
 _atom_site_fract_z
 _atom_site_occupancy
  Gd  Gd0  1  0.640392  0.245751  0.250000  1
  Gd  Gd1  1  0.359608  0.754249  0.750000  1
  Gd  Gd2  1  0.359608  0.745751  0.250000  1
  Gd  Gd3  1  0.640392  0.254249  0.750000  1
  Gd  Gd4  1  0.136957  0.392188  0.102188  1
  Gd  Gd5  1  0.863043  0.607812  0.897812  1
  Gd  Gd6  1  0.863043  0.607812  0.602188  1
  Gd  Gd7  1  0.863043  0.892188  0.397812  1
  Gd  Gd8  1  0.136957  0.392188  0.397812  1
  Gd  Gd9  1  0.136957  0.107812  0.602188  1
  Gd  Gd10  1  0.136957  0.107812  0.897812  1
  Gd  Gd11  1  0.863043  0.892188  0.102188  1
  Si  Si12  1  0.161058  0.096211  0.250000  1
  Si  Si13  1  0.838942  0.903789  0.750000  1
  Si  Si14  1  0.838942  0.596211  0.250000  1
  Si  Si15  1  0.161058  0.403789  0.750000  1
  Si  Si16  1  0.637333  0.250000  0.000000  1
  Si  Si17  1  0.362667  0.750000  0.000000  1
  Si  Si18  1  0.362667  0.750000  0.500000  1
  Si  Si19  1  0.637333  0.250000  0.500000  1
  Ni  Ni20  1  0.381886  0.034014  0.088588  1
  Ni  Ni21  1  0.618114  0.965986  0.911412  1
  Ni  Ni22  1  0.618114  0.965986  0.588588  1
  Ni  Ni23  1  0.618114  0.534014  0.411412  1
  Ni  Ni24  1  0.381886  0.034014  0.411412  1
  Ni  Ni25  1  0.381886  0.465986  0.588588  1
  Ni  Ni26  1  0.381886  0.465986  0.911412  1
  Ni  Ni27  1  0.618114  0.534014  0.088588  1
