# generated using pymatgen
data_Ca3TbY2(Si3Ru)8
_symmetry_space_group_name_H-M   'P 1'
_cell_length_a   10.15941803
_cell_length_b   10.15935924
_cell_length_c   8.14609411
_cell_angle_alpha   89.97252182
_cell_angle_beta   90.00578919
_cell_angle_gamma   132.71548987
_symmetry_Int_Tables_number   1
_chemical_formula_structural   Ca3TbY2(Si3Ru)8
_chemical_formula_sum   'Ca3 Tb1 Y2 Si24 Ru8'
_cell_volume   617.75035062
_cell_formula_units_Z   1
loop_
 _symmetry_equiv_pos_site_id
 _symmetry_equiv_pos_as_xyz
  1  'x, y, z'
loop_
 _atom_site_type_symbol
 _atom_site_label
 _atom_site_symmetry_multiplicity
 _atom_site_fract_x
 _atom_site_fract_y
 _atom_site_fract_z
 _atom_site_occupancy
  Ca  Ca0  1  0.500078  0.499923  0.499966  1
  Ca  Ca1  1  0.500951  0.000816  0.749823  1
  Ca  Ca2  1  0.999196  0.499064  0.250173  1
  Tb  Tb3  1  0.001587  0.501623  0.749867  1
  Y  Y4  1  0.999959  0.000055  0.000054  1
  Y  Y5  1  0.498418  0.998440  0.250141  1
  Si  Si6  1  0.794911  0.204857  0.499854  1
  Si  Si7  1  0.294400  0.705896  0.000187  1
  Si  Si8  1  0.205641  0.794648  0.499803  1
  Si  Si9  1  0.705165  0.294622  0.000135  1
  Si  Si10  1  0.332113  0.337055  0.831923  1
  Si  Si11  1  0.662877  0.667950  0.168034  1
  Si  Si12  1  0.170030  0.165265  0.334337  1
  Si  Si13  1  0.834668  0.830004  0.665704  1
  Si  Si14  1  0.122935  0.889363  0.728069  1
  Si  Si15  1  0.110571  0.877102  0.271953  1
  Si  Si16  1  0.608730  0.375916  0.229263  1
  Si  Si17  1  0.624102  0.391213  0.770688  1
  Si  Si18  1  0.875340  0.108754  0.271936  1
  Si  Si19  1  0.891206  0.124698  0.728109  1
  Si  Si20  1  0.389578  0.622700  0.770584  1
  Si  Si21  1  0.377354  0.610367  0.229384  1
  Si  Si22  1  0.346080  0.112859  0.505354  1
  Si  Si23  1  0.887218  0.653848  0.494652  1
  Si  Si24  1  0.388801  0.155582  0.006626  1
  Si  Si25  1  0.844498  0.611207  0.993372  1
  Si  Si26  1  0.653975  0.886522  0.492466  1
  Si  Si27  1  0.113473  0.346097  0.507528  1
  Si  Si28  1  0.610647  0.844381  0.996190  1
  Si  Si29  1  0.155535  0.389422  0.003814  1
  Ru  Ru30  1  0.670441  0.329387  0.499962  1
  Ru  Ru31  1  0.168848  0.831338  0.000106  1
  Ru  Ru32  1  0.330314  0.669818  0.499878  1
  Ru  Ru33  1  0.830365  0.169452  0.000042  1
  Ru  Ru34  1  0.124483  0.125097  0.627325  1
  Ru  Ru35  1  0.874865  0.875424  0.372748  1
  Ru  Ru36  1  0.372648  0.371971  0.124618  1
  Ru  Ru37  1  0.628002  0.627263  0.875332  1
