# generated using pymatgen
data_La(Al5Re)2
_symmetry_space_group_name_H-M   'P 1'
_cell_length_a   6.96487673
_cell_length_b   6.96487572
_cell_length_c   9.31535900
_cell_angle_alpha   90.00000000
_cell_angle_beta   90.00000000
_cell_angle_gamma   96.76169387
_symmetry_Int_Tables_number   1
_chemical_formula_structural   La(Al5Re)2
_chemical_formula_sum   'La2 Al20 Re4'
_cell_volume   448.74031577
_cell_formula_units_Z   2
loop_
 _symmetry_equiv_pos_site_id
 _symmetry_equiv_pos_as_xyz
  1  'x, y, z'
loop_
 _atom_site_type_symbol
 _atom_site_label
 _atom_site_symmetry_multiplicity
 _atom_site_fract_x
 _atom_site_fract_y
 _atom_site_fract_z
 _atom_site_occupancy
  La  La0  1  0.876485  0.123515  0.750000  1
  La  La1  1  0.123515  0.876485  0.250000  1
  Al  Al2  1  0.622638  0.377362  0.537192  1
  Al  Al3  1  0.377362  0.622638  0.462808  1
  Al  Al4  1  0.377362  0.622638  0.037192  1
  Al  Al5  1  0.622638  0.377362  0.962808  1
  Al  Al6  1  0.228369  0.228369  0.500000  1
  Al  Al7  1  0.771631  0.771631  0.500000  1
  Al  Al8  1  0.771631  0.771631  0.000000  1
  Al  Al9  1  0.228369  0.228369  0.000000  1
  Al  Al10  1  0.841974  0.158026  0.098773  1
  Al  Al11  1  0.158026  0.841974  0.901227  1
  Al  Al12  1  0.158026  0.841974  0.598773  1
  Al  Al13  1  0.841974  0.158026  0.401227  1
  Al  Al14  1  0.865222  0.595934  0.750000  1
  Al  Al15  1  0.134778  0.404066  0.250000  1
  Al  Al16  1  0.404066  0.134778  0.750000  1
  Al  Al17  1  0.595934  0.865222  0.250000  1
  Al  Al18  1  0.217640  0.473972  0.750000  1
  Al  Al19  1  0.782360  0.526028  0.250000  1
  Al  Al20  1  0.526028  0.782360  0.750000  1
  Al  Al21  1  0.473972  0.217640  0.250000  1
  Re  Re22  1  0.000000  0.500000  0.500000  1
  Re  Re23  1  0.000000  0.500000  0.000000  1
  Re  Re24  1  0.500000  0.000000  0.000000  1
  Re  Re25  1  0.500000  0.000000  0.500000  1
