# generated using pymatgen
data_TiNb4Ga(B2Ru5)2
_symmetry_space_group_name_H-M   'P 1'
_cell_length_a   9.37255600
_cell_length_b   9.37255600
_cell_length_c   2.99689900
_cell_angle_alpha   90.00000000
_cell_angle_beta   90.00000000
_cell_angle_gamma   90.00000000
_symmetry_Int_Tables_number   1
_chemical_formula_structural   TiNb4Ga(B2Ru5)2
_chemical_formula_sum   'Ti1 Nb4 Ga1 B4 Ru10'
_cell_volume   263.26201118
_cell_formula_units_Z   1
loop_
 _symmetry_equiv_pos_site_id
 _symmetry_equiv_pos_as_xyz
  1  'x, y, z'
loop_
 _atom_site_type_symbol
 _atom_site_label
 _atom_site_symmetry_multiplicity
 _atom_site_fract_x
 _atom_site_fract_y
 _atom_site_fract_z
 _atom_site_occupancy
  Ti  Ti0  1  0.500000  0.500000  0.000000  1
  Nb  Nb1  1  0.822166  0.677003  0.000000  1
  Nb  Nb2  1  0.177834  0.322997  0.000000  1
  Nb  Nb3  1  0.322997  0.822166  0.000000  1
  Nb  Nb4  1  0.677003  0.177834  0.000000  1
  Ga  Ga5  1  0.000000  0.000000  0.000000  1
  B  B6  1  0.625766  0.878360  0.000000  1
  B  B7  1  0.374234  0.121640  0.000000  1
  B  B8  1  0.121640  0.625766  0.000000  1
  B  B9  1  0.878360  0.374234  0.000000  1
  Ru  Ru10  1  0.569468  0.716579  0.500000  1
  Ru  Ru11  1  0.430532  0.283421  0.500000  1
  Ru  Ru12  1  0.069135  0.785072  0.500000  1
  Ru  Ru13  1  0.930865  0.214928  0.500000  1
  Ru  Ru14  1  0.283421  0.569468  0.500000  1
  Ru  Ru15  1  0.716579  0.430532  0.500000  1
  Ru  Ru16  1  0.214928  0.069135  0.500000  1
  Ru  Ru17  1  0.785072  0.930865  0.500000  1
  Ru  Ru18  1  0.500000  0.000000  0.500000  1
  Ru  Ru19  1  0.000000  0.500000  0.500000  1
