# generated using pymatgen
data_Ce7MgZr2Si8O3
_symmetry_space_group_name_H-M   'P 1'
_cell_length_a   10.27228600
_cell_length_b   10.33520231
_cell_length_c   4.34856600
_cell_angle_alpha   90.00000000
_cell_angle_beta   90.00000000
_cell_angle_gamma   119.79883453
_symmetry_Int_Tables_number   1
_chemical_formula_structural   Ce7MgZr2Si8O3
_chemical_formula_sum   'Ce7 Mg1 Zr2 Si8 O3'
_cell_volume   400.62640188
_cell_formula_units_Z   1
loop_
 _symmetry_equiv_pos_site_id
 _symmetry_equiv_pos_as_xyz
  1  'x, y, z'
loop_
 _atom_site_type_symbol
 _atom_site_label
 _atom_site_symmetry_multiplicity
 _atom_site_fract_x
 _atom_site_fract_y
 _atom_site_fract_z
 _atom_site_occupancy
  Ce  Ce0  1  0.221517  0.790354  0.000000  1
  Ce  Ce1  1  0.214129  0.428260  0.000000  1
  Ce  Ce2  1  0.785871  0.571740  0.000000  1
  Ce  Ce3  1  0.431164  0.209646  0.000000  1
  Ce  Ce4  1  0.000000  0.000000  0.000000  1
  Ce  Ce5  1  0.568836  0.790354  0.000000  1
  Ce  Ce6  1  0.778483  0.209646  0.000000  1
  Mg  Mg7  1  0.500000  0.000000  0.500000  1
  Zr  Zr8  1  0.000000  0.500000  0.500000  1
  Zr  Zr9  1  0.500000  0.500000  0.500000  1
  Si  Si10  1  0.669910  0.339818  0.500000  1
  Si  Si11  1  0.001137  0.769410  0.500000  1
  Si  Si12  1  0.330090  0.660182  0.500000  1
  Si  Si13  1  0.231727  0.230590  0.500000  1
  Si  Si14  1  0.768273  0.769410  0.500000  1
  Si  Si15  1  0.773964  0.000000  0.500000  1
  Si  Si16  1  0.226036  0.000000  0.500000  1
  Si  Si17  1  0.998863  0.230590  0.500000  1
  O  O18  1  0.500000  0.500000  0.000000  1
  O  O19  1  0.500000  0.000000  0.000000  1
  O  O20  1  0.000000  0.500000  0.000000  1
