# generated using pymatgen
data_Tb5Er2Cd(Co3Sn11)2
_symmetry_space_group_name_H-M   'P 1'
_cell_length_a   9.67669502
_cell_length_b   9.67652707
_cell_length_c   10.01729502
_cell_angle_alpha   90.00000147
_cell_angle_beta   89.99310539
_cell_angle_gamma   119.99942877
_symmetry_Int_Tables_number   1
_chemical_formula_structural   Tb5Er2Cd(Co3Sn11)2
_chemical_formula_sum   'Tb5 Er2 Cd1 Co6 Sn22'
_cell_volume   812.32564029
_cell_formula_units_Z   1
loop_
 _symmetry_equiv_pos_site_id
 _symmetry_equiv_pos_as_xyz
  1  'x, y, z'
loop_
 _atom_site_type_symbol
 _atom_site_label
 _atom_site_symmetry_multiplicity
 _atom_site_fract_x
 _atom_site_fract_y
 _atom_site_fract_z
 _atom_site_occupancy
  Tb  Tb0  1  0.479190  0.520839  0.305932  1
  Tb  Tb1  1  0.520810  0.479161  0.694068  1
  Tb  Tb2  1  0.479190  0.958353  0.305932  1
  Tb  Tb3  1  0.520810  0.041647  0.694068  1
  Tb  Tb4  1  0.000000  0.000000  0.000000  1
  Er  Er5  1  0.040711  0.520357  0.305901  1
  Er  Er6  1  0.959289  0.479643  0.694099  1
  Cd  Cd7  1  0.000000  0.000000  0.500000  1
  Co  Co8  1  0.832283  0.168852  0.197037  1
  Co  Co9  1  0.167717  0.831148  0.802963  1
  Co  Co10  1  0.832283  0.663434  0.197037  1
  Co  Co11  1  0.167717  0.336566  0.802963  1
  Co  Co12  1  0.336094  0.168048  0.196870  1
  Co  Co13  1  0.663906  0.831952  0.803130  1
  Sn  Sn14  1  0.115831  0.882927  0.271012  1
  Sn  Sn15  1  0.884169  0.117073  0.728988  1
  Sn  Sn16  1  0.115831  0.232905  0.271012  1
  Sn  Sn17  1  0.884169  0.767095  0.728988  1
  Sn  Sn18  1  0.768034  0.884017  0.270985  1
  Sn  Sn19  1  0.231966  0.115983  0.729015  1
  Sn  Sn20  1  0.783868  0.219157  0.453871  1
  Sn  Sn21  1  0.216132  0.780843  0.546129  1
  Sn  Sn22  1  0.783868  0.564711  0.453871  1
  Sn  Sn23  1  0.216132  0.435289  0.546129  1
  Sn  Sn24  1  0.435124  0.217561  0.453762  1
  Sn  Sn25  1  0.564876  0.782439  0.546238  1
  Sn  Sn26  1  0.346153  0.999736  0.000017  1
  Sn  Sn27  1  0.653847  0.000264  0.999983  1
  Sn  Sn28  1  0.000000  0.346663  0.000000  1
  Sn  Sn29  1  0.000000  0.653337  0.000000  1
  Sn  Sn30  1  0.653847  0.653584  0.999983  1
  Sn  Sn31  1  0.346153  0.346416  0.000017  1
  Sn  Sn32  1  0.331512  0.665757  0.119381  1
  Sn  Sn33  1  0.668488  0.334243  0.880619  1
  Sn  Sn34  1  0.332768  0.666384  0.818973  1
  Sn  Sn35  1  0.667232  0.333616  0.181027  1
