# generated using pymatgen
data_NaEu9(Sb3H)2
_symmetry_space_group_name_H-M   'P 1'
_cell_length_a   9.34080200
_cell_length_b   9.34080079
_cell_length_c   6.88903200
_cell_angle_alpha   90.00000000
_cell_angle_beta   90.00000000
_cell_angle_gamma   119.99999721
_symmetry_Int_Tables_number   1
_chemical_formula_structural   NaEu9(Sb3H)2
_chemical_formula_sum   'Na1 Eu9 Sb6 H2'
_cell_volume   520.54361305
_cell_formula_units_Z   1
loop_
 _symmetry_equiv_pos_site_id
 _symmetry_equiv_pos_as_xyz
  1  'x, y, z'
loop_
 _atom_site_type_symbol
 _atom_site_label
 _atom_site_symmetry_multiplicity
 _atom_site_fract_x
 _atom_site_fract_y
 _atom_site_fract_z
 _atom_site_occupancy
  Na  Na0  1  0.333333  0.666667  0.500000  1
  Eu  Eu1  1  0.752483  0.754510  0.252318  1
  Eu  Eu2  1  0.752483  0.997974  0.747682  1
  Eu  Eu3  1  0.002026  0.247517  0.252318  1
  Eu  Eu4  1  0.002026  0.754510  0.747682  1
  Eu  Eu5  1  0.245490  0.247517  0.747682  1
  Eu  Eu6  1  0.245490  0.997974  0.252318  1
  Eu  Eu7  1  0.666667  0.333333  0.000000  1
  Eu  Eu8  1  0.666667  0.333333  0.500000  1
  Eu  Eu9  1  0.333333  0.666667  0.000000  1
  Sb  Sb10  1  0.393474  0.003186  0.750465  1
  Sb  Sb11  1  0.393474  0.390287  0.249535  1
  Sb  Sb12  1  0.996814  0.606526  0.249535  1
  Sb  Sb13  1  0.996814  0.390287  0.750465  1
  Sb  Sb14  1  0.609713  0.606526  0.750465  1
  Sb  Sb15  1  0.609713  0.003186  0.249535  1
  H  H16  1  0.000000  0.000000  0.500000  1
  H  H17  1  0.000000  0.000000  0.000000  1
