# generated using pymatgen
data_Lu12In2Ru3
_symmetry_space_group_name_H-M   'P 1'
_cell_length_a   8.33578501
_cell_length_b   8.33578505
_cell_length_c   8.33578500
_cell_angle_alpha   109.51861516
_cell_angle_beta   109.51862255
_cell_angle_gamma   109.37646273
_symmetry_Int_Tables_number   1
_chemical_formula_structural   Lu12In2Ru3
_chemical_formula_sum   'Lu12 In2 Ru3'
_cell_volume   445.87872583
_cell_formula_units_Z   1
loop_
 _symmetry_equiv_pos_site_id
 _symmetry_equiv_pos_as_xyz
  1  'x, y, z'
loop_
 _atom_site_type_symbol
 _atom_site_label
 _atom_site_symmetry_multiplicity
 _atom_site_fract_x
 _atom_site_fract_y
 _atom_site_fract_z
 _atom_site_occupancy
  Lu  Lu0  1  0.185255  0.426469  0.241214  1
  Lu  Lu1  1  0.814745  0.573531  0.758786  1
  Lu  Lu2  1  0.185255  0.944042  0.758786  1
  Lu  Lu3  1  0.944042  0.185255  0.758786  1
  Lu  Lu4  1  0.814745  0.055958  0.241214  1
  Lu  Lu5  1  0.055958  0.814745  0.241214  1
  Lu  Lu6  1  0.426469  0.185255  0.241214  1
  Lu  Lu7  1  0.573531  0.814745  0.758786  1
  Lu  Lu8  1  0.317836  0.317836  0.635672  1
  Lu  Lu9  1  0.682164  0.682164  0.364328  1
  Lu  Lu10  1  0.682164  0.317836  0.000000  1
  Lu  Lu11  1  0.317836  0.682164  0.000000  1
  In  In12  1  0.000000  0.500000  0.500000  1
  In  In13  1  0.500000  0.000000  0.500000  1
  Ru  Ru14  1  0.345050  0.345050  0.000000  1
  Ru  Ru15  1  0.654950  0.654950  0.000000  1
  Ru  Ru16  1  0.000000  0.000000  0.000000  1
