# generated using pymatgen
data_Ho2Pa2Ge6Ir2Rh5
_symmetry_space_group_name_H-M   'P 1'
_cell_length_a   7.28321545
_cell_length_b   7.28360148
_cell_length_c   7.32296203
_cell_angle_alpha   109.48422223
_cell_angle_beta   109.38644426
_cell_angle_gamma   109.31518897
_symmetry_Int_Tables_number   1
_chemical_formula_structural   Ho2Pa2Ge6Ir2Rh5
_chemical_formula_sum   'Ho2 Pa2 Ge6 Ir2 Rh5'
_cell_volume   299.88070281
_cell_formula_units_Z   1
loop_
 _symmetry_equiv_pos_site_id
 _symmetry_equiv_pos_as_xyz
  1  'x, y, z'
loop_
 _atom_site_type_symbol
 _atom_site_label
 _atom_site_symmetry_multiplicity
 _atom_site_fract_x
 _atom_site_fract_y
 _atom_site_fract_z
 _atom_site_occupancy
  Ho  Ho0  1  0.000182  0.500177  0.000219  1
  Ho  Ho1  1  0.499834  0.999790  0.999801  1
  Pa  Pa2  1  0.999858  0.999872  0.499902  1
  Pa  Pa3  1  0.500021  0.500041  0.499926  1
  Ge  Ge4  1  0.682943  0.682742  0.999754  1
  Ge  Ge5  1  0.317458  0.995752  0.312672  1
  Ge  Ge6  1  0.994967  0.317513  0.313042  1
  Ge  Ge7  1  0.316973  0.316764  0.999746  1
  Ge  Ge8  1  0.682958  0.005321  0.687681  1
  Ge  Ge9  1  0.004382  0.681929  0.686863  1
  Ir  Ir10  1  0.249616  0.749687  0.499812  1
  Ir  Ir11  1  0.504752  0.749236  0.254002  1
  Rh  Rh12  1  0.750087  0.250138  0.499752  1
  Rh  Rh13  1  0.749907  0.504347  0.254158  1
  Rh  Rh14  1  0.495576  0.250736  0.746387  1
  Rh  Rh15  1  0.250583  0.495880  0.746348  1
  Rh  Rh16  1  0.999904  0.000075  0.999935  1
