# generated using pymatgen
data_Ho4S5
_symmetry_space_group_name_H-M   'P 1'
_cell_length_a   6.67717065
_cell_length_b   5.45929088
_cell_length_c   6.67198300
_cell_angle_alpha   114.04470137
_cell_angle_beta   80.55750352
_cell_angle_gamma   113.94643863
_symmetry_Int_Tables_number   1
_chemical_formula_structural   Ho4S5
_chemical_formula_sum   'Ho4 S5'
_cell_volume   202.98920338
_cell_formula_units_Z   1
loop_
 _symmetry_equiv_pos_site_id
 _symmetry_equiv_pos_as_xyz
  1  'x, y, z'
loop_
 _atom_site_type_symbol
 _atom_site_label
 _atom_site_symmetry_multiplicity
 _atom_site_fract_x
 _atom_site_fract_y
 _atom_site_fract_z
 _atom_site_occupancy
  Ho  Ho0  1  0.760846  0.832419  0.290299  1
  Ho  Ho1  1  0.146595  0.628011  0.495909  1
  Ho  Ho2  1  0.351272  0.025295  0.086431  1
  Ho  Ho3  1  0.556336  0.434077  0.699892  1
  S  S4  1  0.157795  0.132363  0.493368  1
  S  S5  1  0.353832  0.531778  0.097297  1
  S  S6  1  0.553556  0.927436  0.688967  1
  S  S7  1  0.749800  0.328090  0.292775  1
  S  S8  1  0.953792  0.731129  0.893114  1
