# generated using pymatgen
data_Pr3Nd(Y4Bi3)4
_symmetry_space_group_name_H-M   'P 1'
_cell_length_a   8.36591305
_cell_length_b   9.51809700
_cell_length_c   12.19781900
_cell_angle_alpha   90.00000000
_cell_angle_beta   90.00604742
_cell_angle_gamma   90.00000000
_symmetry_Int_Tables_number   1
_chemical_formula_structural   Pr3Nd(Y4Bi3)4
_chemical_formula_sum   'Pr3 Nd1 Y16 Bi12'
_cell_volume   971.28270368
_cell_formula_units_Z   1
loop_
 _symmetry_equiv_pos_site_id
 _symmetry_equiv_pos_as_xyz
  1  'x, y, z'
loop_
 _atom_site_type_symbol
 _atom_site_label
 _atom_site_symmetry_multiplicity
 _atom_site_fract_x
 _atom_site_fract_y
 _atom_site_fract_z
 _atom_site_occupancy
  Pr  Pr0  1  0.171448  0.750000  0.225786  1
  Pr  Pr1  1  0.328604  0.750000  0.725670  1
  Pr  Pr2  1  0.828630  0.250000  0.774444  1
  Nd  Nd3  1  0.671325  0.250000  0.274335  1
  Y  Y4  1  0.811202  0.561763  0.064535  1
  Y  Y5  1  0.688774  0.938169  0.564543  1
  Y  Y6  1  0.188792  0.061915  0.935558  1
  Y  Y7  1  0.311116  0.438246  0.435452  1
  Y  Y8  1  0.188792  0.438085  0.935558  1
  Y  Y9  1  0.311116  0.061754  0.435452  1
  Y  Y10  1  0.811202  0.938237  0.064535  1
  Y  Y11  1  0.688774  0.561831  0.564543  1
  Y  Y12  1  0.475865  0.750000  0.003548  1
  Y  Y13  1  0.024052  0.750000  0.503276  1
  Y  Y14  1  0.524336  0.250000  0.996628  1
  Y  Y15  1  0.975729  0.250000  0.496528  1
  Y  Y16  1  0.664500  0.750000  0.289480  1
  Y  Y17  1  0.835543  0.750000  0.789499  1
  Y  Y18  1  0.335748  0.250000  0.710399  1
  Y  Y19  1  0.164355  0.250000  0.210544  1
  Bi  Bi20  1  0.403139  0.750000  0.466618  1
  Bi  Bi21  1  0.096869  0.750000  0.966702  1
  Bi  Bi22  1  0.596961  0.250000  0.532541  1
  Bi  Bi23  1  0.902914  0.250000  0.033625  1
  Bi  Bi24  1  0.934728  0.506362  0.328094  1
  Bi  Bi25  1  0.564615  0.993192  0.828263  1
  Bi  Bi26  1  0.064648  0.006844  0.671689  1
  Bi  Bi27  1  0.436115  0.492654  0.172052  1
  Bi  Bi28  1  0.064648  0.493156  0.671689  1
  Bi  Bi29  1  0.436115  0.007346  0.172052  1
  Bi  Bi30  1  0.934728  0.993638  0.328094  1
  Bi  Bi31  1  0.564615  0.506808  0.828263  1
