# generated using pymatgen
data_Hf5ZrCoSi7Ni15
_symmetry_space_group_name_H-M   'P 1'
_cell_length_a   8.08373669
_cell_length_b   8.08654373
_cell_length_c   8.08838983
_cell_angle_alpha   59.88701691
_cell_angle_beta   59.92721317
_cell_angle_gamma   59.87231920
_symmetry_Int_Tables_number   1
_chemical_formula_structural   Hf5ZrCoSi7Ni15
_chemical_formula_sum   'Hf5 Zr1 Co1 Si7 Ni15'
_cell_volume   372.98491053
_cell_formula_units_Z   1
loop_
 _symmetry_equiv_pos_site_id
 _symmetry_equiv_pos_as_xyz
  1  'x, y, z'
loop_
 _atom_site_type_symbol
 _atom_site_label
 _atom_site_symmetry_multiplicity
 _atom_site_fract_x
 _atom_site_fract_y
 _atom_site_fract_z
 _atom_site_occupancy
  Hf  Hf0  1  0.794458  0.793980  0.206099  1
  Hf  Hf1  1  0.206092  0.794022  0.794462  1
  Hf  Hf2  1  0.205412  0.205148  0.798582  1
  Hf  Hf3  1  0.798669  0.205095  0.205385  1
  Hf  Hf4  1  0.203951  0.799743  0.203942  1
  Zr  Zr5  1  0.795636  0.204588  0.795582  1
  Co  Co6  1  0.166033  0.165689  0.166079  1
  Si  Si7  1  0.000420  0.498803  0.000444  1
  Si  Si8  1  0.499871  0.499389  0.499873  1
  Si  Si9  1  0.499677  0.499679  0.002648  1
  Si  Si10  1  0.499826  0.001607  0.499838  1
  Si  Si11  1  0.002644  0.499676  0.499660  1
  Si  Si12  1  0.000918  0.999618  0.498964  1
  Si  Si13  1  0.498972  0.999602  0.000911  1
  Ni  Ni14  1  0.617958  0.618359  0.145694  1
  Ni  Ni15  1  0.381930  0.382597  0.382005  1
  Ni  Ni16  1  0.167822  0.495765  0.167787  1
  Ni  Ni17  1  0.169464  0.167934  0.493870  1
  Ni  Ni18  1  0.145774  0.618375  0.617891  1
  Ni  Ni19  1  0.617864  0.145038  0.617798  1
  Ni  Ni20  1  0.832159  0.830612  0.832197  1
  Ni  Ni21  1  0.855336  0.382520  0.380642  1
  Ni  Ni22  1  0.380513  0.382485  0.855513  1
  Ni  Ni23  1  0.381975  0.854759  0.382049  1
  Ni  Ni24  1  0.504713  0.830820  0.830812  1
  Ni  Ni25  1  0.616543  0.618929  0.616450  1
  Ni  Ni26  1  0.830716  0.830759  0.504866  1
  Ni  Ni27  1  0.494070  0.167873  0.169328  1
  Ni  Ni28  1  0.830587  0.506537  0.830632  1
