# generated using pymatgen
data_K(MnS2)4
_symmetry_space_group_name_H-M   'P 1'
_cell_length_a   6.71473076
_cell_length_b   6.71456985
_cell_length_c   8.92157811
_cell_angle_alpha   67.86879011
_cell_angle_beta   67.87296623
_cell_angle_gamma   59.99419541
_symmetry_Int_Tables_number   1
_chemical_formula_structural   K(MnS2)4
_chemical_formula_sum   'K1 Mn4 S8'
_cell_volume   313.65615520
_cell_formula_units_Z   1
loop_
 _symmetry_equiv_pos_site_id
 _symmetry_equiv_pos_as_xyz
  1  'x, y, z'
loop_
 _atom_site_type_symbol
 _atom_site_label
 _atom_site_symmetry_multiplicity
 _atom_site_fract_x
 _atom_site_fract_y
 _atom_site_fract_z
 _atom_site_occupancy
  K  K0  1  0.000000  0.000000  0.000000  1
  Mn  Mn1  1  0.000000  0.500000  0.500000  1
  Mn  Mn2  1  0.500000  0.000000  0.500000  1
  Mn  Mn3  1  0.000000  0.000000  0.500000  1
  Mn  Mn4  1  0.500000  0.500000  0.500000  1
  S  S5  1  0.221527  0.221512  0.336224  1
  S  S6  1  0.720874  0.720878  0.336590  1
  S  S7  1  0.721538  0.221770  0.336114  1
  S  S8  1  0.221779  0.721540  0.336109  1
  S  S9  1  0.278462  0.778230  0.663886  1
  S  S10  1  0.778221  0.278460  0.663891  1
  S  S11  1  0.778473  0.778488  0.663776  1
  S  S12  1  0.279126  0.279122  0.663410  1
