# generated using pymatgen
data_CeHo15(CoHg)4
_symmetry_space_group_name_H-M   'P 1'
_cell_length_a   9.45474873
_cell_length_b   9.46497926
_cell_length_c   9.45468529
_cell_angle_alpha   59.58501869
_cell_angle_beta   59.60873552
_cell_angle_gamma   59.60008979
_symmetry_Int_Tables_number   1
_chemical_formula_structural   CeHo15(CoHg)4
_chemical_formula_sum   'Ce1 Ho15 Co4 Hg4'
_cell_volume   592.80894193
_cell_formula_units_Z   1
loop_
 _symmetry_equiv_pos_site_id
 _symmetry_equiv_pos_as_xyz
  1  'x, y, z'
loop_
 _atom_site_type_symbol
 _atom_site_label
 _atom_site_symmetry_multiplicity
 _atom_site_fract_x
 _atom_site_fract_y
 _atom_site_fract_z
 _atom_site_occupancy
  Ce  Ce0  1  0.337673  0.339506  0.337543  1
  Ho  Ho1  1  0.349535  0.349537  0.950567  1
  Ho  Ho2  1  0.349524  0.950555  0.349480  1
  Ho  Ho3  1  0.950511  0.349552  0.349513  1
  Ho  Ho4  1  0.812725  0.188926  0.189193  1
  Ho  Ho5  1  0.187097  0.813013  0.813143  1
  Ho  Ho6  1  0.189008  0.812829  0.188944  1
  Ho  Ho7  1  0.813108  0.187089  0.813172  1
  Ho  Ho8  1  0.189174  0.188931  0.812688  1
  Ho  Ho9  1  0.813184  0.813033  0.187125  1
  Ho  Ho10  1  0.939915  0.561731  0.561668  1
  Ho  Ho11  1  0.560901  0.938223  0.938455  1
  Ho  Ho12  1  0.561572  0.939666  0.561663  1
  Ho  Ho13  1  0.938260  0.561282  0.938316  1
  Ho  Ho14  1  0.561693  0.561871  0.939780  1
  Ho  Ho15  1  0.938360  0.938092  0.561207  1
  Co  Co16  1  0.142548  0.142380  0.142335  1
  Co  Co17  1  0.148969  0.148805  0.570325  1
  Co  Co18  1  0.148872  0.570468  0.148907  1
  Co  Co19  1  0.570323  0.148826  0.149027  1
  Hg  Hg20  1  0.582949  0.581980  0.582774  1
  Hg  Hg21  1  0.583875  0.583257  0.246901  1
  Hg  Hg22  1  0.583382  0.247046  0.583382  1
  Hg  Hg23  1  0.246844  0.583401  0.583892  1
