# generated using pymatgen
data_LiZr6Co17P12
_symmetry_space_group_name_H-M   'P 1'
_cell_length_a   3.62487400
_cell_length_b   10.32153100
_cell_length_c   11.90238600
_cell_angle_alpha   90.00000000
_cell_angle_beta   90.00000000
_cell_angle_gamma   90.00000000
_symmetry_Int_Tables_number   1
_chemical_formula_structural   LiZr6Co17P12
_chemical_formula_sum   'Li1 Zr6 Co17 P12'
_cell_volume   445.31883781
_cell_formula_units_Z   1
loop_
 _symmetry_equiv_pos_site_id
 _symmetry_equiv_pos_as_xyz
  1  'x, y, z'
loop_
 _atom_site_type_symbol
 _atom_site_label
 _atom_site_symmetry_multiplicity
 _atom_site_fract_x
 _atom_site_fract_y
 _atom_site_fract_z
 _atom_site_occupancy
  Li  Li0  1  0.500000  0.500000  0.155207  1
  Zr  Zr1  1  0.000000  0.500000  0.524691  1
  Zr  Zr2  1  0.500000  0.000000  0.472970  1
  Zr  Zr3  1  0.500000  0.821379  0.207426  1
  Zr  Zr4  1  0.500000  0.178621  0.207426  1
  Zr  Zr5  1  0.000000  0.679041  0.794033  1
  Zr  Zr6  1  0.000000  0.320959  0.794033  1
  Co  Co7  1  0.000000  0.000000  0.836267  1
  Co  Co8  1  0.500000  0.500000  0.704233  1
  Co  Co9  1  0.000000  0.000000  0.296752  1
  Co  Co10  1  0.000000  0.500000  0.988694  1
  Co  Co11  1  0.500000  0.000000  0.010825  1
  Co  Co12  1  0.500000  0.330257  0.995378  1
  Co  Co13  1  0.500000  0.669743  0.995378  1
  Co  Co14  1  0.000000  0.165628  0.003642  1
  Co  Co15  1  0.000000  0.834372  0.003642  1
  Co  Co16  1  0.500000  0.297316  0.434086  1
  Co  Co17  1  0.500000  0.702684  0.434086  1
  Co  Co18  1  0.000000  0.200574  0.568744  1
  Co  Co19  1  0.000000  0.799426  0.568744  1
  Co  Co20  1  0.500000  0.877033  0.706706  1
  Co  Co21  1  0.500000  0.122967  0.706706  1
  Co  Co22  1  0.000000  0.625312  0.294755  1
  Co  Co23  1  0.000000  0.374688  0.294755  1
  P  P24  1  0.500000  0.500000  0.882078  1
  P  P25  1  0.000000  0.000000  0.119471  1
  P  P26  1  0.500000  0.500000  0.350677  1
  P  P27  1  0.000000  0.000000  0.648512  1
  P  P28  1  0.500000  0.316700  0.617828  1
  P  P29  1  0.500000  0.683300  0.617828  1
  P  P30  1  0.000000  0.184036  0.383438  1
  P  P31  1  0.000000  0.815964  0.383438  1
  P  P32  1  0.500000  0.844281  0.888267  1
  P  P33  1  0.500000  0.155719  0.888267  1
  P  P34  1  0.000000  0.658951  0.110508  1
  P  P35  1  0.000000  0.341049  0.110508  1
