# generated using pymatgen
data_Nd3Pd2PtAu3
_symmetry_space_group_name_H-M   'P 1'
_cell_length_a   7.66564900
_cell_length_b   7.66564845
_cell_length_c   3.92974900
_cell_angle_alpha   90.00000000
_cell_angle_beta   90.00000000
_cell_angle_gamma   119.99998943
_symmetry_Int_Tables_number   1
_chemical_formula_structural   Nd3Pd2PtAu3
_chemical_formula_sum   'Nd3 Pd2 Pt1 Au3'
_cell_volume   199.98311003
_cell_formula_units_Z   1
loop_
 _symmetry_equiv_pos_site_id
 _symmetry_equiv_pos_as_xyz
  1  'x, y, z'
loop_
 _atom_site_type_symbol
 _atom_site_label
 _atom_site_symmetry_multiplicity
 _atom_site_fract_x
 _atom_site_fract_y
 _atom_site_fract_z
 _atom_site_occupancy
  Nd  Nd0  1  0.610447  0.604493  0.000000  1
  Nd  Nd1  1  0.395507  0.005955  0.000000  1
  Nd  Nd2  1  0.994045  0.389553  0.000000  1
  Pd  Pd3  1  0.000000  0.000000  0.000000  1
  Pd  Pd4  1  0.333333  0.666667  0.500000  1
  Pt  Pt5  1  0.666667  0.333333  0.500000  1
  Au  Au6  1  0.005742  0.740379  0.500000  1
  Au  Au7  1  0.259621  0.265363  0.500000  1
  Au  Au8  1  0.734637  0.994258  0.500000  1
