# generated using pymatgen
data_Gd8In4Ag7Rh
_symmetry_space_group_name_H-M   'P 1'
_cell_length_a   8.03949545
_cell_length_b   8.03949633
_cell_length_c   7.66265500
_cell_angle_alpha   90.06670674
_cell_angle_beta   90.06670675
_cell_angle_gamma   90.32810533
_symmetry_Int_Tables_number   1
_chemical_formula_structural   Gd8In4Ag7Rh
_chemical_formula_sum   'Gd8 In4 Ag7 Rh1'
_cell_volume   495.25537144
_cell_formula_units_Z   1
loop_
 _symmetry_equiv_pos_site_id
 _symmetry_equiv_pos_as_xyz
  1  'x, y, z'
loop_
 _atom_site_type_symbol
 _atom_site_label
 _atom_site_symmetry_multiplicity
 _atom_site_fract_x
 _atom_site_fract_y
 _atom_site_fract_z
 _atom_site_occupancy
  Gd  Gd0  1  0.181229  0.181229  0.011429  1
  Gd  Gd1  1  0.832399  0.832399  0.998081  1
  Gd  Gd2  1  0.657595  0.326930  0.491404  1
  Gd  Gd3  1  0.326930  0.657595  0.491404  1
  Gd  Gd4  1  0.664785  0.317393  0.007799  1
  Gd  Gd5  1  0.317393  0.664785  0.007799  1
  Gd  Gd6  1  0.821610  0.821610  0.501624  1
  Gd  Gd7  1  0.188448  0.188448  0.489451  1
  In  In8  1  0.499358  0.001375  0.251932  1
  In  In9  1  0.501074  0.995309  0.747237  1
  In  In10  1  0.001375  0.499358  0.251932  1
  In  In11  1  0.995309  0.501074  0.747237  1
  Ag  Ag12  1  0.624442  0.624442  0.759619  1
  Ag  Ag13  1  0.627537  0.627537  0.239729  1
  Ag  Ag14  1  0.878408  0.130256  0.740020  1
  Ag  Ag15  1  0.876441  0.124360  0.260204  1
  Ag  Ag16  1  0.376040  0.376040  0.757567  1
  Ag  Ag17  1  0.124360  0.876441  0.260204  1
  Ag  Ag18  1  0.130256  0.878408  0.740020  1
  Rh  Rh19  1  0.375010  0.375010  0.245308  1
