# generated using pymatgen
data_Y4Al2Ga2Ir3Pt
_symmetry_space_group_name_H-M   'P 1'
_cell_length_a   4.33761900
_cell_length_b   6.87194335
_cell_length_c   7.85796740
_cell_angle_alpha   89.71490963
_cell_angle_beta   90.00000000
_cell_angle_gamma   90.00000000
_symmetry_Int_Tables_number   1
_chemical_formula_structural   Y4Al2Ga2Ir3Pt
_chemical_formula_sum   'Y4 Al2 Ga2 Ir3 Pt1'
_cell_volume   234.22638695
_cell_formula_units_Z   1
loop_
 _symmetry_equiv_pos_site_id
 _symmetry_equiv_pos_as_xyz
  1  'x, y, z'
loop_
 _atom_site_type_symbol
 _atom_site_label
 _atom_site_symmetry_multiplicity
 _atom_site_fract_x
 _atom_site_fract_y
 _atom_site_fract_z
 _atom_site_occupancy
  Y  Y0  1  0.250000  0.027642  0.682479  1
  Y  Y1  1  0.250000  0.531978  0.819753  1
  Y  Y2  1  0.750000  0.970678  0.315357  1
  Y  Y3  1  0.750000  0.474597  0.182465  1
  Al  Al4  1  0.250000  0.641412  0.437065  1
  Al  Al5  1  0.750000  0.359696  0.560352  1
  Ga  Ga6  1  0.250000  0.146088  0.067265  1
  Ga  Ga7  1  0.750000  0.848913  0.935103  1
  Ir  Ir8  1  0.250000  0.270106  0.385729  1
  Ir  Ir9  1  0.250000  0.766557  0.121163  1
  Ir  Ir10  1  0.750000  0.729866  0.615707  1
  Pt  Pt11  1  0.750000  0.232469  0.877560  1
