# generated using pymatgen
data_Nb6Co4Mo2CN
_symmetry_space_group_name_H-M   'P 1'
_cell_length_a   8.18253335
_cell_length_b   8.16968406
_cell_length_c   8.18253257
_cell_angle_alpha   60.05193239
_cell_angle_beta   60.13028585
_cell_angle_gamma   60.05192948
_symmetry_Int_Tables_number   1
_chemical_formula_structural   Nb6Co4Mo2CN
_chemical_formula_sum   'Nb12 Co8 Mo4 C2 N2'
_cell_volume   387.46520473
_cell_formula_units_Z   2
loop_
 _symmetry_equiv_pos_site_id
 _symmetry_equiv_pos_as_xyz
  1  'x, y, z'
loop_
 _atom_site_type_symbol
 _atom_site_label
 _atom_site_symmetry_multiplicity
 _atom_site_fract_x
 _atom_site_fract_y
 _atom_site_fract_z
 _atom_site_occupancy
  Nb  Nb0  1  0.689504  0.310496  0.689504  1
  Nb  Nb1  1  0.940329  0.558088  0.559901  1
  Nb  Nb2  1  0.559901  0.941681  0.940329  1
  Nb  Nb3  1  0.942465  0.557535  0.942465  1
  Nb  Nb4  1  0.559901  0.558088  0.940329  1
  Nb  Nb5  1  0.940329  0.941681  0.559901  1
  Nb  Nb6  1  0.690099  0.691912  0.309671  1
  Nb  Nb7  1  0.309671  0.691912  0.690099  1
  Nb  Nb8  1  0.690099  0.308319  0.309671  1
  Nb  Nb9  1  0.309671  0.308319  0.690099  1
  Nb  Nb10  1  0.560496  0.939504  0.560496  1
  Nb  Nb11  1  0.307535  0.692465  0.307535  1
  Co  Co12  1  0.327341  0.326443  0.327341  1
  Co  Co13  1  0.230865  0.923342  0.922450  1
  Co  Co14  1  0.922659  0.231123  0.922659  1
  Co  Co15  1  0.922450  0.923342  0.230865  1
  Co  Co16  1  0.327341  0.018877  0.327341  1
  Co  Co17  1  0.327550  0.326658  0.019135  1
  Co  Co18  1  0.019135  0.326658  0.327550  1
  Co  Co19  1  0.922659  0.923557  0.922659  1
  Mo  Mo20  1  0.125000  0.125000  0.125000  1
  Mo  Mo21  1  0.625000  0.125000  0.125000  1
  Mo  Mo22  1  0.125000  0.625000  0.125000  1
  Mo  Mo23  1  0.125000  0.125000  0.625000  1
  C  C24  1  0.125000  0.625000  0.625000  1
  C  C25  1  0.625000  0.625000  0.125000  1
  N  N26  1  0.625000  0.625000  0.625000  1
  N  N27  1  0.625000  0.125000  0.625000  1
