# generated using pymatgen
data_ZrAl3Ga2Fe6Ge
_symmetry_space_group_name_H-M   'P 1'
_cell_length_a   6.48866013
_cell_length_b   6.48865954
_cell_length_c   6.48865984
_cell_angle_alpha   135.28121011
_cell_angle_beta   99.68907163
_cell_angle_gamma   96.95730901
_symmetry_Int_Tables_number   1
_chemical_formula_structural   ZrAl3Ga2Fe6Ge
_chemical_formula_sum   'Zr1 Al3 Ga2 Fe6 Ge1'
_cell_volume   177.70436408
_cell_formula_units_Z   1
loop_
 _symmetry_equiv_pos_site_id
 _symmetry_equiv_pos_as_xyz
  1  'x, y, z'
loop_
 _atom_site_type_symbol
 _atom_site_label
 _atom_site_symmetry_multiplicity
 _atom_site_fract_x
 _atom_site_fract_y
 _atom_site_fract_z
 _atom_site_occupancy
  Zr  Zr0  1  0.000748  0.000000  0.000748  1
  Al  Al1  1  0.654050  0.000000  0.654050  1
  Al  Al2  1  0.658773  0.656585  0.002188  1
  Al  Al3  1  0.345605  0.343415  0.002188  1
  Ga  Ga4  1  0.178393  0.677682  0.500712  1
  Ga  Ga5  1  0.823029  0.322318  0.500712  1
  Fe  Fe6  1  0.756641  0.500000  0.256641  1
  Fe  Fe7  1  0.244152  0.500000  0.744152  1
  Fe  Fe8  1  0.999838  0.000843  0.501816  1
  Fe  Fe9  1  0.999838  0.498022  0.998993  1
  Fe  Fe10  1  0.500972  0.999157  0.998993  1
  Fe  Fe11  1  0.500972  0.501978  0.501816  1
  Ge  Ge12  1  0.336992  0.000000  0.336992  1
