# generated using pymatgen
data_HoTm(MnOs)2
_symmetry_space_group_name_H-M   'P 1'
_cell_length_a   5.30284592
_cell_length_b   5.28902383
_cell_length_c   5.28902314
_cell_angle_alpha   58.75741258
_cell_angle_beta   59.91351137
_cell_angle_gamma   59.91351198
_symmetry_Int_Tables_number   1
_chemical_formula_structural   HoTm(MnOs)2
_chemical_formula_sum   'Ho1 Tm1 Mn2 Os2'
_cell_volume   103.73885007
_cell_formula_units_Z   1
loop_
 _symmetry_equiv_pos_site_id
 _symmetry_equiv_pos_as_xyz
  1  'x, y, z'
loop_
 _atom_site_type_symbol
 _atom_site_label
 _atom_site_symmetry_multiplicity
 _atom_site_fract_x
 _atom_site_fract_y
 _atom_site_fract_z
 _atom_site_occupancy
  Ho  Ho0  1  0.997950  0.002050  0.002050  1
  Tm  Tm1  1  0.252019  0.247981  0.247981  1
  Mn  Mn2  1  0.124998  0.624989  0.624989  1
  Mn  Mn3  1  0.625023  0.624989  0.624989  1
  Os  Os4  1  0.625005  0.624960  0.125029  1
  Os  Os5  1  0.625005  0.125029  0.624960  1
