# generated using pymatgen
data_Sr2AlSiI
_symmetry_space_group_name_H-M   'P 1'
_cell_length_a   4.32052400
_cell_length_b   4.32052403
_cell_length_c   18.82354300
_cell_angle_alpha   90.00000000
_cell_angle_beta   90.00000000
_cell_angle_gamma   120.00001508
_symmetry_Int_Tables_number   1
_chemical_formula_structural   Sr2AlSiI
_chemical_formula_sum   'Sr4 Al2 Si2 I2'
_cell_volume   304.30198347
_cell_formula_units_Z   2
loop_
 _symmetry_equiv_pos_site_id
 _symmetry_equiv_pos_as_xyz
  1  'x, y, z'
loop_
 _atom_site_type_symbol
 _atom_site_label
 _atom_site_symmetry_multiplicity
 _atom_site_fract_x
 _atom_site_fract_y
 _atom_site_fract_z
 _atom_site_occupancy
  Sr  Sr0  1  0.000000  0.000000  0.380446  1
  Sr  Sr1  1  0.000000  0.000000  0.880446  1
  Sr  Sr2  1  0.000000  0.000000  0.621417  1
  Sr  Sr3  1  0.000000  0.000000  0.121417  1
  Al  Al4  1  0.333333  0.666667  0.514213  1
  Al  Al5  1  0.666667  0.333333  0.014213  1
  Si  Si6  1  0.666667  0.333333  0.481874  1
  Si  Si7  1  0.333333  0.666667  0.981874  1
  I  I8  1  0.333333  0.666667  0.252051  1
  I  I9  1  0.666667  0.333333  0.752051  1
