# generated using pymatgen
data_LaSmCr3O12
_symmetry_space_group_name_H-M   'P 1'
_cell_length_a   10.18594085
_cell_length_b   10.18594201
_cell_length_c   10.18594300
_cell_angle_alpha   57.95430740
_cell_angle_beta   57.95430331
_cell_angle_gamma   57.95431088
_symmetry_Int_Tables_number   1
_chemical_formula_structural   LaSmCr3O12
_chemical_formula_sum   'La2 Sm2 Cr6 O24'
_cell_volume   712.21321205
_cell_formula_units_Z   2
loop_
 _symmetry_equiv_pos_site_id
 _symmetry_equiv_pos_as_xyz
  1  'x, y, z'
loop_
 _atom_site_type_symbol
 _atom_site_label
 _atom_site_symmetry_multiplicity
 _atom_site_fract_x
 _atom_site_fract_y
 _atom_site_fract_z
 _atom_site_occupancy
  La  La0  1  0.639976  0.639976  0.639976  1
  La  La1  1  0.360024  0.360024  0.360024  1
  Sm  Sm2  1  0.141612  0.141612  0.141612  1
  Sm  Sm3  1  0.858388  0.858388  0.858388  1
  Cr  Cr4  1  0.756947  0.030266  0.465043  1
  Cr  Cr5  1  0.969733  0.534958  0.243053  1
  Cr  Cr6  1  0.534958  0.243053  0.969734  1
  Cr  Cr7  1  0.465042  0.756947  0.030267  1
  Cr  Cr8  1  0.030267  0.465042  0.756947  1
  Cr  Cr9  1  0.243053  0.969733  0.534958  1
  O  O10  1  0.915713  0.063518  0.293247  1
  O  O11  1  0.789626  0.995836  0.625218  1
  O  O12  1  0.004164  0.374782  0.210374  1
  O  O13  1  0.706753  0.084287  0.936482  1
  O  O14  1  0.588816  0.195599  0.447874  1
  O  O15  1  0.869245  0.491298  0.731630  1
  O  O16  1  0.508702  0.268370  0.130755  1
  O  O17  1  0.804401  0.552126  0.411184  1
  O  O18  1  0.936482  0.706753  0.084287  1
  O  O19  1  0.552126  0.411184  0.804401  1
  O  O20  1  0.374782  0.210374  0.004164  1
  O  O21  1  0.268370  0.130755  0.508702  1
  O  O22  1  0.731630  0.869245  0.491298  1
  O  O23  1  0.625218  0.789626  0.995836  1
  O  O24  1  0.447874  0.588816  0.195599  1
  O  O25  1  0.063518  0.293247  0.915713  1
  O  O26  1  0.195599  0.447874  0.588816  1
  O  O27  1  0.491298  0.731630  0.869245  1
  O  O28  1  0.130755  0.508702  0.268370  1
  O  O29  1  0.411184  0.804401  0.552126  1
  O  O30  1  0.293247  0.915713  0.063518  1
  O  O31  1  0.995836  0.625218  0.789626  1
  O  O32  1  0.210374  0.004164  0.374782  1
  O  O33  1  0.084287  0.936482  0.706753  1
