# generated using pymatgen
data_Pr4Ti(Ga2Pt)5
_symmetry_space_group_name_H-M   'P 1'
_cell_length_a   8.77345978
_cell_length_b   8.77345999
_cell_length_c   8.77345861
_cell_angle_alpha   140.79008673
_cell_angle_beta   106.81395303
_cell_angle_gamma   86.32481892
_symmetry_Int_Tables_number   1
_chemical_formula_structural   Pr4Ti(Ga2Pt)5
_chemical_formula_sum   'Pr4 Ti1 Ga10 Pt5'
_cell_volume   394.11507345
_cell_formula_units_Z   1
loop_
 _symmetry_equiv_pos_site_id
 _symmetry_equiv_pos_as_xyz
  1  'x, y, z'
loop_
 _atom_site_type_symbol
 _atom_site_label
 _atom_site_symmetry_multiplicity
 _atom_site_fract_x
 _atom_site_fract_y
 _atom_site_fract_z
 _atom_site_occupancy
  Pr  Pr0  1  0.861978  0.639522  0.235128  1
  Pr  Pr1  1  0.138022  0.373152  0.777545  1
  Pr  Pr2  1  0.404394  0.126848  0.264872  1
  Pr  Pr3  1  0.595606  0.860478  0.722455  1
  Ti  Ti4  1  0.000000  0.750000  0.750000  1
  Ga  Ga5  1  0.500000  0.750000  0.250000  1
  Ga  Ga6  1  0.500000  0.250000  0.750000  1
  Ga  Ga7  1  0.213478  0.963478  0.750000  1
  Ga  Ga8  1  0.786522  0.536522  0.750000  1
  Ga  Ga9  1  0.788119  0.038119  0.250000  1
  Ga  Ga10  1  0.211881  0.461881  0.250000  1
  Ga  Ga11  1  0.062870  0.899094  0.168684  1
  Ga  Ga12  1  0.937130  0.105814  0.836225  1
  Ga  Ga13  1  0.730410  0.394186  0.331316  1
  Ga  Ga14  1  0.269590  0.600906  0.663775  1
  Pt  Pt15  1  0.000000  0.250000  0.250000  1
  Pt  Pt16  1  0.258252  0.860178  0.403979  1
  Pt  Pt17  1  0.741748  0.145725  0.601924  1
  Pt  Pt18  1  0.456199  0.354275  0.096021  1
  Pt  Pt19  1  0.543801  0.639822  0.898076  1
