# generated using pymatgen
data_Cs3MoO4
_symmetry_space_group_name_H-M   'P 1'
_cell_length_a   6.98988800
_cell_length_b   9.28853600
_cell_length_c   12.96404300
_cell_angle_alpha   90.00000000
_cell_angle_beta   90.00000000
_cell_angle_gamma   90.00000000
_symmetry_Int_Tables_number   1
_chemical_formula_structural   Cs3MoO4
_chemical_formula_sum   'Cs12 Mo4 O16'
_cell_volume   841.70120427
_cell_formula_units_Z   4
loop_
 _symmetry_equiv_pos_site_id
 _symmetry_equiv_pos_as_xyz
  1  'x, y, z'
loop_
 _atom_site_type_symbol
 _atom_site_label
 _atom_site_symmetry_multiplicity
 _atom_site_fract_x
 _atom_site_fract_y
 _atom_site_fract_z
 _atom_site_occupancy
  Cs  Cs0  1  0.707091  0.008309  0.146265  1
  Cs  Cs1  1  0.792909  0.491691  0.646265  1
  Cs  Cs2  1  0.292909  0.508309  0.853735  1
  Cs  Cs3  1  0.207091  0.991691  0.353735  1
  Cs  Cs4  1  0.292909  0.991691  0.853735  1
  Cs  Cs5  1  0.207091  0.508309  0.353735  1
  Cs  Cs6  1  0.707091  0.491691  0.146265  1
  Cs  Cs7  1  0.792909  0.008309  0.646265  1
  Cs  Cs8  1  0.152338  0.250000  0.077196  1
  Cs  Cs9  1  0.347662  0.250000  0.577196  1
  Cs  Cs10  1  0.847662  0.750000  0.922804  1
  Cs  Cs11  1  0.652338  0.750000  0.422804  1
  Mo  Mo12  1  0.276442  0.750000  0.112712  1
  Mo  Mo13  1  0.223558  0.750000  0.612712  1
  Mo  Mo14  1  0.723558  0.250000  0.887288  1
  Mo  Mo15  1  0.776442  0.250000  0.387288  1
  O  O16  1  0.434144  0.750000  0.230589  1
  O  O17  1  0.065856  0.750000  0.730589  1
  O  O18  1  0.565856  0.250000  0.769411  1
  O  O19  1  0.934144  0.250000  0.269411  1
  O  O20  1  0.447364  0.750000  0.000501  1
  O  O21  1  0.052636  0.750000  0.500501  1
  O  O22  1  0.552636  0.250000  0.999499  1
  O  O23  1  0.947364  0.250000  0.499499  1
  O  O24  1  0.114617  0.589137  0.112363  1
  O  O25  1  0.385383  0.910863  0.612363  1
  O  O26  1  0.885383  0.089137  0.887637  1
  O  O27  1  0.614617  0.410863  0.387637  1
  O  O28  1  0.885383  0.410863  0.887637  1
  O  O29  1  0.614617  0.089137  0.387637  1
  O  O30  1  0.114617  0.910863  0.112363  1
  O  O31  1  0.385383  0.589137  0.612363  1
