# generated using pymatgen
data_PrAlGa2Au3
_symmetry_space_group_name_H-M   'P 1'
_cell_length_a   4.54616600
_cell_length_b   7.06775300
_cell_length_c   8.76850600
_cell_angle_alpha   90.00000000
_cell_angle_beta   90.00000000
_cell_angle_gamma   90.00000000
_symmetry_Int_Tables_number   1
_chemical_formula_structural   PrAlGa2Au3
_chemical_formula_sum   'Pr2 Al2 Ga4 Au6'
_cell_volume   281.74243046
_cell_formula_units_Z   2
loop_
 _symmetry_equiv_pos_site_id
 _symmetry_equiv_pos_as_xyz
  1  'x, y, z'
loop_
 _atom_site_type_symbol
 _atom_site_label
 _atom_site_symmetry_multiplicity
 _atom_site_fract_x
 _atom_site_fract_y
 _atom_site_fract_z
 _atom_site_occupancy
  Pr  Pr0  1  0.500000  0.000000  0.750953  1
  Pr  Pr1  1  0.000000  0.500000  0.249047  1
  Al  Al2  1  0.000000  0.000000  0.383385  1
  Al  Al3  1  0.500000  0.500000  0.616615  1
  Ga  Ga4  1  0.000000  0.298371  0.889038  1
  Ga  Ga5  1  0.500000  0.201629  0.110962  1
  Ga  Ga6  1  0.000000  0.701629  0.889038  1
  Ga  Ga7  1  0.500000  0.798371  0.110962  1
  Au  Au8  1  0.000000  0.717459  0.593724  1
  Au  Au9  1  0.500000  0.782541  0.406276  1
  Au  Au10  1  0.500000  0.500000  0.924912  1
  Au  Au11  1  0.000000  0.000000  0.075088  1
  Au  Au12  1  0.500000  0.217459  0.406276  1
  Au  Au13  1  0.000000  0.282541  0.593724  1
