# generated using pymatgen
data_Sm3P6(Pd3Rh)5
_symmetry_space_group_name_H-M   'P 1'
_cell_length_a   8.65772491
_cell_length_b   8.66783158
_cell_length_c   8.68889800
_cell_angle_alpha   59.91957757
_cell_angle_beta   59.88082879
_cell_angle_gamma   59.84323541
_symmetry_Int_Tables_number   1
_chemical_formula_structural   Sm3P6(Pd3Rh)5
_chemical_formula_sum   'Sm3 P6 Pd15 Rh5'
_cell_volume   459.82383329
_cell_formula_units_Z   1
loop_
 _symmetry_equiv_pos_site_id
 _symmetry_equiv_pos_as_xyz
  1  'x, y, z'
loop_
 _atom_site_type_symbol
 _atom_site_label
 _atom_site_symmetry_multiplicity
 _atom_site_fract_x
 _atom_site_fract_y
 _atom_site_fract_z
 _atom_site_occupancy
  Sm  Sm0  1  0.258972  0.248670  0.246179  1
  Sm  Sm1  1  0.742482  0.745040  0.756239  1
  Sm  Sm2  1  0.999964  0.999516  0.000260  1
  P  P3  1  0.725233  0.274245  0.265731  1
  P  P4  1  0.278608  0.725928  0.726775  1
  P  P5  1  0.278608  0.725928  0.268689  1
  P  P6  1  0.725233  0.274245  0.734792  1
  P  P7  1  0.270817  0.269878  0.729653  1
  P  P8  1  0.722156  0.730772  0.273536  1
  Pd  Pd9  1  0.618903  0.151967  0.614566  1
  Pd  Pd10  1  0.851117  0.380849  0.384017  1
  Pd  Pd11  1  0.148038  0.618051  0.616956  1
  Pd  Pd12  1  0.342837  0.001827  0.001234  1
  Pd  Pd13  1  0.655865  0.999628  0.999023  1
  Pd  Pd14  1  0.000474  0.344902  0.654342  1
  Pd  Pd15  1  0.999043  0.657906  0.344394  1
  Pd  Pd16  1  0.000474  0.344902  0.000282  1
  Pd  Pd17  1  0.655865  0.999628  0.345484  1
  Pd  Pd18  1  0.999043  0.657906  0.998657  1
  Pd  Pd19  1  0.342837  0.001827  0.654102  1
  Pd  Pd20  1  0.999813  0.001282  0.343552  1
  Pd  Pd21  1  0.999813  0.001282  0.655353  1
  Pd  Pd22  1  0.653996  0.346860  0.999572  1
  Pd  Pd23  1  0.343673  0.655938  0.000194  1
  Rh  Rh24  1  0.384853  0.386191  0.389631  1
  Rh  Rh25  1  0.616999  0.612665  0.610852  1
  Rh  Rh26  1  0.384853  0.386191  0.839323  1
  Rh  Rh27  1  0.382430  0.843310  0.387129  1
  Rh  Rh28  1  0.616999  0.612665  0.159484  1
