# generated using pymatgen
data_SmErP7Ru12
_symmetry_space_group_name_H-M   'P 1'
_cell_length_a   9.42786800
_cell_length_b   9.42786733
_cell_length_c   3.96368300
_cell_angle_alpha   90.00000000
_cell_angle_beta   90.00000000
_cell_angle_gamma   119.99999532
_symmetry_Int_Tables_number   1
_chemical_formula_structural   SmErP7Ru12
_chemical_formula_sum   'Sm1 Er1 P7 Ru12'
_cell_volume   305.11005638
_cell_formula_units_Z   1
loop_
 _symmetry_equiv_pos_site_id
 _symmetry_equiv_pos_as_xyz
  1  'x, y, z'
loop_
 _atom_site_type_symbol
 _atom_site_label
 _atom_site_symmetry_multiplicity
 _atom_site_fract_x
 _atom_site_fract_y
 _atom_site_fract_z
 _atom_site_occupancy
  Sm  Sm0  1  0.333333  0.666667  0.000000  1
  Er  Er1  1  0.666667  0.333333  0.500000  1
  P  P2  1  0.602756  0.718788  0.500000  1
  P  P3  1  0.000000  0.000000  0.000000  1
  P  P4  1  0.281212  0.883968  0.500000  1
  P  P5  1  0.116032  0.397244  0.500000  1
  P  P6  1  0.885494  0.572275  0.000000  1
  P  P7  1  0.427725  0.313220  0.000000  1
  P  P8  1  0.686780  0.114506  0.000000  1
  Ru  Ru9  1  0.558113  0.953054  0.500000  1
  Ru  Ru10  1  0.394942  0.441887  0.500000  1
  Ru  Ru11  1  0.914735  0.120642  0.500000  1
  Ru  Ru12  1  0.205907  0.085265  0.500000  1
  Ru  Ru13  1  0.879358  0.794093  0.500000  1
  Ru  Ru14  1  0.728302  0.892720  0.000000  1
  Ru  Ru15  1  0.107280  0.835581  0.000000  1
  Ru  Ru16  1  0.164419  0.271698  0.000000  1
  Ru  Ru17  1  0.422954  0.068281  0.000000  1
  Ru  Ru18  1  0.931719  0.354674  0.000000  1
  Ru  Ru19  1  0.645326  0.577046  0.000000  1
  Ru  Ru20  1  0.046946  0.605058  0.500000  1
