# generated using pymatgen
data_CeNdZnRu2
_symmetry_space_group_name_H-M   'P 1'
_cell_length_a   5.76899026
_cell_length_b   5.76898937
_cell_length_c   7.16114260
_cell_angle_alpha   85.78378656
_cell_angle_beta   94.21621393
_cell_angle_gamma   118.01637794
_symmetry_Int_Tables_number   1
_chemical_formula_structural   CeNdZnRu2
_chemical_formula_sum   'Ce2 Nd2 Zn2 Ru4'
_cell_volume   209.62720347
_cell_formula_units_Z   2
loop_
 _symmetry_equiv_pos_site_id
 _symmetry_equiv_pos_as_xyz
  1  'x, y, z'
loop_
 _atom_site_type_symbol
 _atom_site_label
 _atom_site_symmetry_multiplicity
 _atom_site_fract_x
 _atom_site_fract_y
 _atom_site_fract_z
 _atom_site_occupancy
  Ce  Ce0  1  0.173317  0.826683  0.574762  1
  Ce  Ce1  1  0.826683  0.173317  0.425238  1
  Nd  Nd2  1  0.347685  0.652315  0.092316  1
  Nd  Nd3  1  0.652315  0.347685  0.907684  1
  Zn  Zn4  1  0.000000  0.000000  0.000000  1
  Zn  Zn5  1  0.500000  0.500000  0.500000  1
  Ru  Ru6  1  0.869986  0.637650  0.270657  1
  Ru  Ru7  1  0.637650  0.869986  0.729343  1
  Ru  Ru8  1  0.130014  0.362350  0.729343  1
  Ru  Ru9  1  0.362350  0.130014  0.270657  1
