# generated using pymatgen
data_Ca3Ce5(AlRh)8
_symmetry_space_group_name_H-M   'P 1'
_cell_length_a   7.01082605
_cell_length_b   4.25080300
_cell_length_c   15.98453612
_cell_angle_alpha   90.00000000
_cell_angle_beta   90.01371548
_cell_angle_gamma   90.00000000
_symmetry_Int_Tables_number   1
_chemical_formula_structural   Ca3Ce5(AlRh)8
_chemical_formula_sum   'Ca3 Ce5 Al8 Rh8'
_cell_volume   476.36538372
_cell_formula_units_Z   1
loop_
 _symmetry_equiv_pos_site_id
 _symmetry_equiv_pos_as_xyz
  1  'x, y, z'
loop_
 _atom_site_type_symbol
 _atom_site_label
 _atom_site_symmetry_multiplicity
 _atom_site_fract_x
 _atom_site_fract_y
 _atom_site_fract_z
 _atom_site_occupancy
  Ca  Ca0  1  0.154276  0.249998  0.439588  1
  Ca  Ca1  1  0.349008  0.749999  0.943498  1
  Ca  Ca2  1  0.652053  0.249998  0.058036  1
  Ce  Ce3  1  0.842977  0.749999  0.558311  1
  Ce  Ce4  1  0.021802  0.249998  0.221244  1
  Ce  Ce5  1  0.475478  0.749999  0.721252  1
  Ce  Ce6  1  0.525750  0.249998  0.279590  1
  Ce  Ce7  1  0.983346  0.749999  0.779916  1
  Al  Al8  1  0.145130  0.249998  0.648909  1
  Al  Al9  1  0.352816  0.749999  0.149137  1
  Al  Al10  1  0.648917  0.249998  0.850909  1
  Al  Al11  1  0.853252  0.749999  0.352463  1
  Al  Al12  1  0.012910  0.249998  0.940257  1
  Al  Al13  1  0.485692  0.749999  0.439311  1
  Al  Al14  1  0.501016  0.249998  0.561288  1
  Al  Al15  1  0.986647  0.749999  0.060587  1
  Rh  Rh16  1  0.211147  0.249998  0.078219  1
  Rh  Rh17  1  0.278062  0.749999  0.576120  1
  Rh  Rh18  1  0.717729  0.249998  0.427615  1
  Rh  Rh19  1  0.790015  0.749999  0.921524  1
  Rh  Rh20  1  0.763209  0.249998  0.681777  1
  Rh  Rh21  1  0.741189  0.749999  0.192496  1
  Rh  Rh22  1  0.263898  0.249998  0.809550  1
  Rh  Rh23  1  0.243678  0.749999  0.308401  1
