# generated using pymatgen
data_Na3LiPd2F12
_symmetry_space_group_name_H-M   'P 1'
_cell_length_a   5.27444800
_cell_length_b   5.27444800
_cell_length_c   18.35757200
_cell_angle_alpha   90.00000000
_cell_angle_beta   90.00000000
_cell_angle_gamma   90.00000000
_symmetry_Int_Tables_number   1
_chemical_formula_structural   Na3LiPd2F12
_chemical_formula_sum   'Na6 Li2 Pd4 F24'
_cell_volume   510.70401282
_cell_formula_units_Z   2
loop_
 _symmetry_equiv_pos_site_id
 _symmetry_equiv_pos_as_xyz
  1  'x, y, z'
loop_
 _atom_site_type_symbol
 _atom_site_label
 _atom_site_symmetry_multiplicity
 _atom_site_fract_x
 _atom_site_fract_y
 _atom_site_fract_z
 _atom_site_occupancy
  Na  Na0  1  0.000000  0.500000  0.307760  1
  Na  Na1  1  0.500000  0.000000  0.692240  1
  Na  Na2  1  0.500000  0.000000  0.192240  1
  Na  Na3  1  0.000000  0.500000  0.807760  1
  Na  Na4  1  0.000000  0.000000  0.500000  1
  Na  Na5  1  0.500000  0.500000  0.000000  1
  Li  Li6  1  0.000000  0.000000  0.000000  1
  Li  Li7  1  0.500000  0.500000  0.500000  1
  Pd  Pd8  1  0.000000  0.500000  0.122496  1
  Pd  Pd9  1  0.500000  0.000000  0.877504  1
  Pd  Pd10  1  0.500000  0.000000  0.377504  1
  Pd  Pd11  1  0.000000  0.500000  0.622496  1
  F  F12  1  0.199456  0.214698  0.382544  1
  F  F13  1  0.800544  0.785302  0.382544  1
  F  F14  1  0.214698  0.800544  0.617456  1
  F  F15  1  0.300544  0.714698  0.117456  1
  F  F16  1  0.785302  0.199456  0.617456  1
  F  F17  1  0.699456  0.285302  0.117456  1
  F  F18  1  0.285302  0.300544  0.882544  1
  F  F19  1  0.714698  0.699456  0.882544  1
  F  F20  1  0.148366  0.292601  0.198933  1
  F  F21  1  0.851634  0.707399  0.198933  1
  F  F22  1  0.292601  0.851634  0.801067  1
  F  F23  1  0.351634  0.792601  0.301067  1
  F  F24  1  0.707399  0.148366  0.801067  1
  F  F25  1  0.648366  0.207399  0.301067  1
  F  F26  1  0.207399  0.351634  0.698933  1
  F  F27  1  0.792601  0.648366  0.698933  1
  F  F28  1  0.154233  0.284378  0.047188  1
  F  F29  1  0.845767  0.715622  0.047188  1
  F  F30  1  0.284378  0.845767  0.952812  1
  F  F31  1  0.345767  0.784378  0.452812  1
  F  F32  1  0.715622  0.154233  0.952812  1
  F  F33  1  0.654233  0.215622  0.452812  1
  F  F34  1  0.215622  0.345767  0.547188  1
  F  F35  1  0.784378  0.654233  0.547188  1
