# generated using pymatgen
data_HfPa(GaRu2)2
_symmetry_space_group_name_H-M   'P 1'
_cell_length_a   7.70735471
_cell_length_b   7.70735497
_cell_length_c   7.70735500
_cell_angle_alpha   33.57544484
_cell_angle_beta   33.57544192
_cell_angle_gamma   33.57544207
_symmetry_Int_Tables_number   1
_chemical_formula_structural   HfPa(GaRu2)2
_chemical_formula_sum   'Hf1 Pa1 Ga2 Ru4'
_cell_volume   124.73157812
_cell_formula_units_Z   1
loop_
 _symmetry_equiv_pos_site_id
 _symmetry_equiv_pos_as_xyz
  1  'x, y, z'
loop_
 _atom_site_type_symbol
 _atom_site_label
 _atom_site_symmetry_multiplicity
 _atom_site_fract_x
 _atom_site_fract_y
 _atom_site_fract_z
 _atom_site_occupancy
  Hf  Hf0  1  0.500000  0.500000  0.500000  1
  Pa  Pa1  1  0.000000  0.000000  0.000000  1
  Ga  Ga2  1  0.245227  0.245227  0.245227  1
  Ga  Ga3  1  0.754773  0.754773  0.754773  1
  Ru  Ru4  1  0.623502  0.623502  0.623502  1
  Ru  Ru5  1  0.124869  0.124869  0.124869  1
  Ru  Ru6  1  0.875131  0.875131  0.875131  1
  Ru  Ru7  1  0.376498  0.376498  0.376498  1
