# generated using pymatgen
data_Dy4Y(RuO6)2
_symmetry_space_group_name_H-M   'P 1'
_cell_length_a   6.85065358
_cell_length_b   6.85065282
_cell_length_c   7.40044503
_cell_angle_alpha   74.15979544
_cell_angle_beta   74.15979874
_cell_angle_gamma   50.38135647
_symmetry_Int_Tables_number   1
_chemical_formula_structural   Dy4Y(RuO6)2
_chemical_formula_sum   'Dy4 Y1 Ru2 O12'
_cell_volume   255.07606060
_cell_formula_units_Z   1
loop_
 _symmetry_equiv_pos_site_id
 _symmetry_equiv_pos_as_xyz
  1  'x, y, z'
loop_
 _atom_site_type_symbol
 _atom_site_label
 _atom_site_symmetry_multiplicity
 _atom_site_fract_x
 _atom_site_fract_y
 _atom_site_fract_z
 _atom_site_occupancy
  Dy  Dy0  1  0.302819  0.302819  0.360079  1
  Dy  Dy1  1  0.697181  0.697181  0.639921  1
  Dy  Dy2  1  0.310788  0.310788  0.827193  1
  Dy  Dy3  1  0.689212  0.689212  0.172807  1
  Y  Y4  1  0.000000  0.000000  0.500000  1
  Ru  Ru5  1  0.764033  0.235967  0.000000  1
  Ru  Ru6  1  0.235967  0.764033  0.000000  1
  O  O7  1  0.906033  0.423739  0.915991  1
  O  O8  1  0.423739  0.906033  0.915991  1
  O  O9  1  0.093967  0.576261  0.084009  1
  O  O10  1  0.576261  0.093967  0.084009  1
  O  O11  1  0.097510  0.595209  0.574292  1
  O  O12  1  0.595209  0.097510  0.574292  1
  O  O13  1  0.902490  0.404791  0.425708  1
  O  O14  1  0.404791  0.902490  0.425708  1
  O  O15  1  0.999302  0.999302  0.805959  1
  O  O16  1  0.000698  0.000698  0.194041  1
  O  O17  1  0.500491  0.500491  0.815344  1
  O  O18  1  0.499509  0.499509  0.184656  1
