# generated using pymatgen
data_YErB6Os
_symmetry_space_group_name_H-M   'P 1'
_cell_length_a   3.64296800
_cell_length_b   9.13350400
_cell_length_c   11.52594500
_cell_angle_alpha   90.00000000
_cell_angle_beta   90.00000000
_cell_angle_gamma   90.00000000
_symmetry_Int_Tables_number   1
_chemical_formula_structural   YErB6Os
_chemical_formula_sum   'Y4 Er4 B24 Os4'
_cell_volume   383.50349181
_cell_formula_units_Z   4
loop_
 _symmetry_equiv_pos_site_id
 _symmetry_equiv_pos_as_xyz
  1  'x, y, z'
loop_
 _atom_site_type_symbol
 _atom_site_label
 _atom_site_symmetry_multiplicity
 _atom_site_fract_x
 _atom_site_fract_y
 _atom_site_fract_z
 _atom_site_occupancy
  Y  Y0  1  0.000000  0.322225  0.413723  1
  Y  Y1  1  0.000000  0.677775  0.586277  1
  Y  Y2  1  0.000000  0.822225  0.086277  1
  Y  Y3  1  0.000000  0.177775  0.913723  1
  Er  Er4  1  0.000000  0.944340  0.373034  1
  Er  Er5  1  0.000000  0.055660  0.626966  1
  Er  Er6  1  0.000000  0.444340  0.126966  1
  Er  Er7  1  0.000000  0.555660  0.873034  1
  B  B8  1  0.500000  0.554234  0.432825  1
  B  B9  1  0.500000  0.445766  0.567175  1
  B  B10  1  0.500000  0.054234  0.067175  1
  B  B11  1  0.500000  0.945766  0.932825  1
  B  B12  1  0.500000  0.748652  0.419749  1
  B  B13  1  0.500000  0.251348  0.580251  1
  B  B14  1  0.500000  0.248652  0.080251  1
  B  B15  1  0.500000  0.751348  0.919749  1
  B  B16  1  0.500000  0.791731  0.266816  1
  B  B17  1  0.500000  0.208269  0.733184  1
  B  B18  1  0.500000  0.291731  0.233184  1
  B  B19  1  0.500000  0.708269  0.766816  1
  B  B20  1  0.500000  0.631794  0.185405  1
  B  B21  1  0.500000  0.368206  0.814595  1
  B  B22  1  0.500000  0.131794  0.314595  1
  B  B23  1  0.500000  0.868206  0.685405  1
  B  B24  1  0.500000  0.983525  0.213461  1
  B  B25  1  0.500000  0.016475  0.786539  1
  B  B26  1  0.500000  0.483525  0.286539  1
  B  B27  1  0.500000  0.516475  0.713461  1
  B  B28  1  0.500000  0.606782  0.029601  1
  B  B29  1  0.500000  0.393218  0.970399  1
  B  B30  1  0.500000  0.106782  0.470399  1
  B  B31  1  0.500000  0.893218  0.529601  1
  Os  Os32  1  0.000000  0.638126  0.321010  1
  Os  Os33  1  0.000000  0.361874  0.678990  1
  Os  Os34  1  0.000000  0.138126  0.178990  1
  Os  Os35  1  0.000000  0.861874  0.821010  1
