# generated using pymatgen
data_Dy3Zn3C
_symmetry_space_group_name_H-M   'P 1'
_cell_length_a   9.17524726
_cell_length_b   9.17524722
_cell_length_c   9.17524700
_cell_angle_alpha   59.99999718
_cell_angle_beta   59.99999733
_cell_angle_gamma   60.00000223
_symmetry_Int_Tables_number   1
_chemical_formula_structural   Dy3Zn3C
_chemical_formula_sum   'Dy12 Zn12 C4'
_cell_volume   546.18316197
_cell_formula_units_Z   4
loop_
 _symmetry_equiv_pos_site_id
 _symmetry_equiv_pos_as_xyz
  1  'x, y, z'
loop_
 _atom_site_type_symbol
 _atom_site_label
 _atom_site_symmetry_multiplicity
 _atom_site_fract_x
 _atom_site_fract_y
 _atom_site_fract_z
 _atom_site_occupancy
  Dy  Dy0  1  0.447378  0.447378  0.052622  1
  Dy  Dy1  1  0.052622  0.447378  0.052622  1
  Dy  Dy2  1  0.447378  0.052622  0.052622  1
  Dy  Dy3  1  0.052622  0.052622  0.447378  1
  Dy  Dy4  1  0.447378  0.052622  0.447378  1
  Dy  Dy5  1  0.052622  0.447378  0.447378  1
  Dy  Dy6  1  0.802622  0.802622  0.197378  1
  Dy  Dy7  1  0.197378  0.802622  0.197378  1
  Dy  Dy8  1  0.802622  0.197378  0.197378  1
  Dy  Dy9  1  0.197378  0.197378  0.802622  1
  Dy  Dy10  1  0.802622  0.197378  0.802622  1
  Dy  Dy11  1  0.197378  0.802622  0.802622  1
  Zn  Zn12  1  0.826086  0.826086  0.521743  1
  Zn  Zn13  1  0.826086  0.521743  0.826086  1
  Zn  Zn14  1  0.521743  0.826086  0.826086  1
  Zn  Zn15  1  0.826086  0.826086  0.826086  1
  Zn  Zn16  1  0.423914  0.423914  0.728257  1
  Zn  Zn17  1  0.423914  0.728257  0.423914  1
  Zn  Zn18  1  0.728257  0.423914  0.423914  1
  Zn  Zn19  1  0.423914  0.423914  0.423914  1
  Zn  Zn20  1  0.625000  0.625000  0.125000  1
  Zn  Zn21  1  0.625000  0.125000  0.625000  1
  Zn  Zn22  1  0.125000  0.625000  0.625000  1
  Zn  Zn23  1  0.625000  0.625000  0.625000  1
  C  C24  1  0.125000  0.125000  0.625000  1
  C  C25  1  0.125000  0.625000  0.125000  1
  C  C26  1  0.625000  0.125000  0.125000  1
  C  C27  1  0.125000  0.125000  0.125000  1
