# generated using pymatgen
data_K4Sr2ZrP4
_symmetry_space_group_name_H-M   'P 1'
_cell_length_a   10.26599636
_cell_length_b   10.26599651
_cell_length_c   7.72484290
_cell_angle_alpha   88.25898993
_cell_angle_beta   88.25898568
_cell_angle_gamma   119.69327554
_symmetry_Int_Tables_number   1
_chemical_formula_structural   K4Sr2ZrP4
_chemical_formula_sum   'K8 Sr4 Zr2 P8'
_cell_volume   705.92846717
_cell_formula_units_Z   2
loop_
 _symmetry_equiv_pos_site_id
 _symmetry_equiv_pos_as_xyz
  1  'x, y, z'
loop_
 _atom_site_type_symbol
 _atom_site_label
 _atom_site_symmetry_multiplicity
 _atom_site_fract_x
 _atom_site_fract_y
 _atom_site_fract_z
 _atom_site_occupancy
  K  K0  1  0.061011  0.526896  0.614571  1
  K  K1  1  0.526896  0.061011  0.114571  1
  K  K2  1  0.276165  0.132595  0.823401  1
  K  K3  1  0.871684  0.730607  0.765455  1
  K  K4  1  0.861936  0.142773  0.798286  1
  K  K5  1  0.730607  0.871684  0.265455  1
  K  K6  1  0.132595  0.276165  0.323401  1
  K  K7  1  0.142773  0.861936  0.298286  1
  Sr  Sr8  1  0.467129  0.929177  0.606110  1
  Sr  Sr9  1  0.467001  0.526320  0.620690  1
  Sr  Sr10  1  0.929177  0.467129  0.106110  1
  Sr  Sr11  1  0.526320  0.467001  0.120690  1
  Zr  Zr12  1  0.665913  0.335863  0.510692  1
  Zr  Zr13  1  0.335863  0.665913  0.010692  1
  P  P14  1  0.671493  0.358136  0.841611  1
  P  P15  1  0.358136  0.671493  0.341611  1
  P  P16  1  0.598635  0.789909  0.866538  1
  P  P17  1  0.204578  0.394693  0.921592  1
  P  P18  1  0.194846  0.792637  0.899799  1
  P  P19  1  0.394693  0.204578  0.421592  1
  P  P20  1  0.789909  0.598635  0.366538  1
  P  P21  1  0.792637  0.194846  0.399799  1
