# generated using pymatgen
data_Ba10Gd4Y(WO6)5
_symmetry_space_group_name_H-M   'P 1'
_cell_length_a   6.04221898
_cell_length_b   6.07930407
_cell_length_c   24.91828725
_cell_angle_alpha   83.94813233
_cell_angle_beta   83.12096193
_cell_angle_gamma   60.27934661
_symmetry_Int_Tables_number   1
_chemical_formula_structural   Ba10Gd4Y(WO6)5
_chemical_formula_sum   'Ba10 Gd4 Y1 W5 O30'
_cell_volume   788.05548127
_cell_formula_units_Z   1
loop_
 _symmetry_equiv_pos_site_id
 _symmetry_equiv_pos_as_xyz
  1  'x, y, z'
loop_
 _atom_site_type_symbol
 _atom_site_label
 _atom_site_symmetry_multiplicity
 _atom_site_fract_x
 _atom_site_fract_y
 _atom_site_fract_z
 _atom_site_occupancy
  Ba  Ba0  1  0.250723  0.248029  0.751198  1
  Ba  Ba1  1  0.452062  0.450154  0.148722  1
  Ba  Ba2  1  0.652865  0.651574  0.550153  1
  Ba  Ba3  1  0.847557  0.851139  0.950699  1
  Ba  Ba4  1  0.046718  0.048085  0.349442  1
  Ba  Ba5  1  0.547938  0.549846  0.851278  1
  Ba  Ba6  1  0.749277  0.751971  0.248802  1
  Ba  Ba7  1  0.953282  0.951915  0.650558  1
  Ba  Ba8  1  0.152443  0.148861  0.049301  1
  Ba  Ba9  1  0.347135  0.348426  0.449847  1
  Gd  Gd10  1  0.903031  0.900430  0.801153  1
  Gd  Gd11  1  0.298241  0.299963  0.600075  1
  Gd  Gd12  1  0.701759  0.700037  0.399925  1
  Gd  Gd13  1  0.096969  0.099570  0.198847  1
  Y  Y14  1  0.500000  0.500000  0.000000  1
  W  W15  1  0.198481  0.200192  0.901031  1
  W  W16  1  0.398582  0.399778  0.299320  1
  W  W17  1  0.601418  0.600222  0.700680  1
  W  W18  1  0.801519  0.799808  0.098969  1
  W  W19  1  0.000000  0.000000  0.500000  1
  O  O20  1  0.740820  0.267370  0.747953  1
  O  O21  1  0.944305  0.468991  0.146497  1
  O  O22  1  0.147686  0.668270  0.547601  1
  O  O23  1  0.341544  0.866468  0.948150  1
  O  O24  1  0.536988  0.067291  0.346668  1
  O  O25  1  0.055695  0.531009  0.853503  1
  O  O26  1  0.259180  0.732630  0.252047  1
  O  O27  1  0.463012  0.932709  0.653332  1
  O  O28  1  0.658456  0.133532  0.051850  1
  O  O29  1  0.852314  0.331730  0.452399  1
  O  O30  1  0.914126  0.436840  0.646206  1
  O  O31  1  0.295890  0.842674  0.446649  1
  O  O32  1  0.710813  0.235594  0.244702  1
  O  O33  1  0.111149  0.642203  0.047181  1
  O  O34  1  0.505238  0.042981  0.849034  1
  O  O35  1  0.289187  0.764406  0.755298  1
  O  O36  1  0.704110  0.157326  0.553351  1
  O  O37  1  0.085874  0.563160  0.353794  1
  O  O38  1  0.494762  0.957019  0.150966  1
  O  O39  1  0.888851  0.357797  0.952819  1
  O  O40  1  0.418539  0.483010  0.661540  1
  O  O41  1  0.804385  0.879982  0.460046  1
  O  O42  1  0.215838  0.282660  0.259914  1
  O  O43  1  0.613071  0.678354  0.058802  1
  O  O44  1  0.007068  0.081800  0.861191  1
  O  O45  1  0.386929  0.321646  0.941198  1
  O  O46  1  0.784162  0.717340  0.740086  1
  O  O47  1  0.195615  0.120018  0.539954  1
  O  O48  1  0.581461  0.516990  0.338460  1
  O  O49  1  0.992932  0.918200  0.138809  1
