# generated using pymatgen
data_Nb8TeS20
_symmetry_space_group_name_H-M   'P 1'
_cell_length_a   10.68869623
_cell_length_b   10.68869644
_cell_length_c   19.26783512
_cell_angle_alpha   73.91009602
_cell_angle_beta   73.91009578
_cell_angle_gamma   18.09847928
_symmetry_Int_Tables_number   1
_chemical_formula_structural   Nb8TeS20
_chemical_formula_sum   'Nb8 Te1 S20'
_cell_volume   656.36034433
_cell_formula_units_Z   1
loop_
 _symmetry_equiv_pos_site_id
 _symmetry_equiv_pos_as_xyz
  1  'x, y, z'
loop_
 _atom_site_type_symbol
 _atom_site_label
 _atom_site_symmetry_multiplicity
 _atom_site_fract_x
 _atom_site_fract_y
 _atom_site_fract_z
 _atom_site_occupancy
  Nb  Nb0  1  0.088127  0.088127  0.105730  1
  Nb  Nb1  1  0.911873  0.911873  0.894270  1
  Nb  Nb2  1  0.326737  0.326737  0.804220  1
  Nb  Nb3  1  0.673263  0.673263  0.195780  1
  Nb  Nb4  1  0.268999  0.268999  0.283274  1
  Nb  Nb5  1  0.731001  0.731001  0.716726  1
  Nb  Nb6  1  0.161913  0.161913  0.556896  1
  Nb  Nb7  1  0.838087  0.838087  0.443104  1
  Te  Te8  1  0.500000  0.500000  0.000000  1
  S  S9  1  0.430856  0.430856  0.396016  1
  S  S10  1  0.569144  0.569144  0.603984  1
  S  S11  1  0.394683  0.394683  0.506198  1
  S  S12  1  0.605317  0.605317  0.493802  1
  S  S13  1  0.151719  0.151719  0.692526  1
  S  S14  1  0.848281  0.848281  0.307474  1
  S  S15  1  0.375077  0.375077  0.993889  1
  S  S16  1  0.624923  0.624923  0.006111  1
  S  S17  1  0.204841  0.204841  0.816632  1
  S  S18  1  0.795159  0.795159  0.183368  1
  S  S19  1  0.253427  0.253427  0.430656  1
  S  S20  1  0.746573  0.746573  0.569344  1
  S  S21  1  0.322510  0.322510  0.674946  1
  S  S22  1  0.677490  0.677490  0.325054  1
  S  S23  1  0.496343  0.496343  0.140781  1
  S  S24  1  0.503657  0.503657  0.859219  1
  S  S25  1  0.206739  0.206739  0.098516  1
  S  S26  1  0.793261  0.793261  0.901484  1
  S  S27  1  0.084011  0.084011  0.235849  1
  S  S28  1  0.915989  0.915989  0.764151  1
