# generated using pymatgen
data_KGaPH
_symmetry_space_group_name_H-M   'P 1'
_cell_length_a   3.95558000
_cell_length_b   3.95558107
_cell_length_c   6.08176100
_cell_angle_alpha   90.00000000
_cell_angle_beta   90.00000000
_cell_angle_gamma   119.99999107
_symmetry_Int_Tables_number   1
_chemical_formula_structural   KGaPH
_chemical_formula_sum   'K1 Ga1 P1 H1'
_cell_volume   82.41010777
_cell_formula_units_Z   1
loop_
 _symmetry_equiv_pos_site_id
 _symmetry_equiv_pos_as_xyz
  1  'x, y, z'
loop_
 _atom_site_type_symbol
 _atom_site_label
 _atom_site_symmetry_multiplicity
 _atom_site_fract_x
 _atom_site_fract_y
 _atom_site_fract_z
 _atom_site_occupancy
  K  K0  1  0.333333  0.666667  0.041821  1
  Ga  Ga1  1  0.000000  0.000000  0.565025  1
  P  P2  1  0.666667  0.333333  0.436689  1
  H  H3  1  0.000000  0.000000  0.836365  1
