# generated using pymatgen
data_SmHo4Co16(MoP4)3
_symmetry_space_group_name_H-M   'P 1'
_cell_length_a   12.08060300
_cell_length_b   12.08060454
_cell_length_c   3.70785400
_cell_angle_alpha   90.00000000
_cell_angle_beta   90.00000000
_cell_angle_gamma   120.00000401
_symmetry_Int_Tables_number   1
_chemical_formula_structural   SmHo4Co16(MoP4)3
_chemical_formula_sum   'Sm1 Ho4 Co16 Mo3 P12'
_cell_volume   468.63046662
_cell_formula_units_Z   1
loop_
 _symmetry_equiv_pos_site_id
 _symmetry_equiv_pos_as_xyz
  1  'x, y, z'
loop_
 _atom_site_type_symbol
 _atom_site_label
 _atom_site_symmetry_multiplicity
 _atom_site_fract_x
 _atom_site_fract_y
 _atom_site_fract_z
 _atom_site_occupancy
  Sm  Sm0  1  0.666667  0.333333  0.000000  1
  Ho  Ho1  1  0.333333  0.666667  0.000000  1
  Ho  Ho2  1  0.814717  0.814885  0.500000  1
  Ho  Ho3  1  0.185115  0.999832  0.500000  1
  Ho  Ho4  1  0.000168  0.185283  0.500000  1
  Co  Co5  1  0.875461  0.354933  0.500000  1
  Co  Co6  1  0.645067  0.520528  0.500000  1
  Co  Co7  1  0.479472  0.124539  0.500000  1
  Co  Co8  1  0.354864  0.872158  0.500000  1
  Co  Co9  1  0.517294  0.645136  0.500000  1
  Co  Co10  1  0.127842  0.482706  0.500000  1
  Co  Co11  1  0.802768  0.175857  0.000000  1
  Co  Co12  1  0.824143  0.626910  0.000000  1
  Co  Co13  1  0.373090  0.197232  0.000000  1
  Co  Co14  1  0.177451  0.802307  0.000000  1
  Co  Co15  1  0.624855  0.822549  0.000000  1
  Co  Co16  1  0.197693  0.375145  0.000000  1
  Co  Co17  1  0.278940  0.280325  0.500000  1
  Co  Co18  1  0.719675  0.998615  0.500000  1
  Co  Co19  1  0.001385  0.721060  0.500000  1
  Co  Co20  1  0.000000  0.000000  0.000000  1
  Mo  Mo21  1  0.445829  0.446974  0.000000  1
  Mo  Mo22  1  0.553026  0.998855  0.000000  1
  Mo  Mo23  1  0.001145  0.554171  0.000000  1
  P  P24  1  0.686478  0.163206  0.500000  1
  P  P25  1  0.836794  0.523273  0.500000  1
  P  P26  1  0.476727  0.313522  0.500000  1
  P  P27  1  0.166107  0.686436  0.500000  1
  P  P28  1  0.520329  0.833893  0.500000  1
  P  P29  1  0.313564  0.479671  0.500000  1
  P  P30  1  0.177479  0.178076  0.000000  1
  P  P31  1  0.821924  0.999403  0.000000  1
  P  P32  1  0.000597  0.822521  0.000000  1
  P  P33  1  0.639528  0.639503  0.000000  1
  P  P34  1  0.360497  0.000024  0.000000  1
  P  P35  1  0.999976  0.360472  0.000000  1
