# generated using pymatgen
data_Li2SmHoPb2
_symmetry_space_group_name_H-M   'P 1'
_cell_length_a   4.78949100
_cell_length_b   4.78948999
_cell_length_c   7.40551500
_cell_angle_alpha   90.00000000
_cell_angle_beta   90.00000000
_cell_angle_gamma   120.00000007
_symmetry_Int_Tables_number   1
_chemical_formula_structural   Li2SmHoPb2
_chemical_formula_sum   'Li2 Sm1 Ho1 Pb2'
_cell_volume   147.11756524
_cell_formula_units_Z   1
loop_
 _symmetry_equiv_pos_site_id
 _symmetry_equiv_pos_as_xyz
  1  'x, y, z'
loop_
 _atom_site_type_symbol
 _atom_site_label
 _atom_site_symmetry_multiplicity
 _atom_site_fract_x
 _atom_site_fract_y
 _atom_site_fract_z
 _atom_site_occupancy
  Li  Li0  1  0.666667  0.333333  0.304398  1
  Li  Li1  1  0.333333  0.666667  0.788512  1
  Sm  Sm2  1  0.000000  0.000000  0.024630  1
  Ho  Ho3  1  0.000000  0.000000  0.523672  1
  Pb  Pb4  1  0.333333  0.666667  0.264726  1
  Pb  Pb5  1  0.666667  0.333333  0.753861  1
