# generated using pymatgen
data_La7Pa(AlIr)8
_symmetry_space_group_name_H-M   'P 1'
_cell_length_a   4.25923800
_cell_length_b   7.24163076
_cell_length_c   16.38161080
_cell_angle_alpha   89.32742687
_cell_angle_beta   90.00000000
_cell_angle_gamma   90.00000000
_symmetry_Int_Tables_number   1
_chemical_formula_structural   La7Pa(AlIr)8
_chemical_formula_sum   'La7 Pa1 Al8 Ir8'
_cell_volume   505.23678928
_cell_formula_units_Z   1
loop_
 _symmetry_equiv_pos_site_id
 _symmetry_equiv_pos_as_xyz
  1  'x, y, z'
loop_
 _atom_site_type_symbol
 _atom_site_label
 _atom_site_symmetry_multiplicity
 _atom_site_fract_x
 _atom_site_fract_y
 _atom_site_fract_z
 _atom_site_occupancy
  La  La0  1  0.750000  0.478585  0.220144  1
  La  La1  1  0.750000  0.977568  0.279380  1
  La  La2  1  0.250000  0.024334  0.722036  1
  La  La3  1  0.250000  0.650690  0.561089  1
  La  La4  1  0.750000  0.339242  0.440150  1
  La  La5  1  0.750000  0.848302  0.058873  1
  La  La6  1  0.250000  0.163958  0.937749  1
  Pa  Pa7  1  0.250000  0.526316  0.779267  1
  Al  Al8  1  0.250000  0.649252  0.352218  1
  Al  Al9  1  0.750000  0.346547  0.648937  1
  Al  Al10  1  0.750000  0.839042  0.849502  1
  Al  Al11  1  0.250000  0.148284  0.146305  1
  Al  Al12  1  0.250000  0.507454  0.060258  1
  Al  Al13  1  0.750000  0.499100  0.939571  1
  Al  Al14  1  0.750000  0.990116  0.562559  1
  Al  Al15  1  0.250000  0.000603  0.439206  1
  Ir  Ir16  1  0.250000  0.769636  0.178941  1
  Ir  Ir17  1  0.750000  0.276268  0.813692  1
  Ir  Ir18  1  0.750000  0.706669  0.693572  1
  Ir  Ir19  1  0.250000  0.271961  0.320909  1
  Ir  Ir20  1  0.250000  0.714479  0.922244  1
  Ir  Ir21  1  0.750000  0.281331  0.071085  1
  Ir  Ir22  1  0.750000  0.780040  0.430639  1
  Ir  Ir23  1  0.250000  0.210222  0.571671  1
