# generated using pymatgen
data_SmY4(CoTe)2
_symmetry_space_group_name_H-M   'P 1'
_cell_length_a   7.82198774
_cell_length_b   7.82198724
_cell_length_c   15.09842628
_cell_angle_alpha   90.04593293
_cell_angle_beta   89.95406770
_cell_angle_gamma   150.41366392
_symmetry_Int_Tables_number   1
_chemical_formula_structural   SmY4(CoTe)2
_chemical_formula_sum   'Sm2 Y8 Co4 Te4'
_cell_volume   456.09912398
_cell_formula_units_Z   2
loop_
 _symmetry_equiv_pos_site_id
 _symmetry_equiv_pos_as_xyz
  1  'x, y, z'
loop_
 _atom_site_type_symbol
 _atom_site_label
 _atom_site_symmetry_multiplicity
 _atom_site_fract_x
 _atom_site_fract_y
 _atom_site_fract_z
 _atom_site_occupancy
  Sm  Sm0  1  0.960914  0.039086  0.124875  1
  Sm  Sm1  1  0.039086  0.960914  0.875125  1
  Y  Y2  1  0.039294  0.960706  0.624790  1
  Y  Y3  1  0.960706  0.039294  0.375210  1
  Y  Y4  1  0.742369  0.257631  0.629466  1
  Y  Y5  1  0.257631  0.742369  0.370534  1
  Y  Y6  1  0.256720  0.743280  0.130066  1
  Y  Y7  1  0.743280  0.256720  0.869934  1
  Y  Y8  1  0.605981  0.394019  0.250816  1
  Y  Y9  1  0.394019  0.605981  0.749184  1
  Co  Co10  1  0.409096  0.590904  0.251184  1
  Co  Co11  1  0.590904  0.409096  0.748816  1
  Co  Co12  1  0.820186  0.179814  0.250538  1
  Co  Co13  1  0.179814  0.820186  0.749462  1
  Te  Te14  1  0.619501  0.380499  0.039131  1
  Te  Te15  1  0.380499  0.619501  0.960869  1
  Te  Te16  1  0.382419  0.617581  0.538714  1
  Te  Te17  1  0.617581  0.382419  0.461286  1
