# generated using pymatgen
data_As2PPd5Ru
_symmetry_space_group_name_H-M   'P 1'
_cell_length_a   6.65489666
_cell_length_b   6.61144273
_cell_length_c   3.56797700
_cell_angle_alpha   90.00000000
_cell_angle_beta   90.00000000
_cell_angle_gamma   119.78425081
_symmetry_Int_Tables_number   1
_chemical_formula_structural   As2PPd5Ru
_chemical_formula_sum   'As2 P1 Pd5 Ru1'
_cell_volume   136.24805286
_cell_formula_units_Z   1
loop_
 _symmetry_equiv_pos_site_id
 _symmetry_equiv_pos_as_xyz
  1  'x, y, z'
loop_
 _atom_site_type_symbol
 _atom_site_label
 _atom_site_symmetry_multiplicity
 _atom_site_fract_x
 _atom_site_fract_y
 _atom_site_fract_z
 _atom_site_occupancy
  As  As0  1  0.321685  0.669541  0.000000  1
  As  As1  1  0.678315  0.347856  0.000000  1
  P  P2  1  0.000000  0.977015  0.500000  1
  Pd  Pd3  1  0.259417  0.259598  0.000000  1
  Pd  Pd4  1  0.740583  0.000182  0.000000  1
  Pd  Pd5  1  0.000000  0.378614  0.500000  1
  Pd  Pd6  1  0.602124  0.611799  0.500000  1
  Pd  Pd7  1  0.397876  0.009675  0.500000  1
  Ru  Ru8  1  0.000000  0.745720  0.000000  1
