# generated using pymatgen
data_La3Pr3Nd2(CdPt)2
_symmetry_space_group_name_H-M   'P 1'
_cell_length_a   10.09079912
_cell_length_b   10.11778609
_cell_length_c   10.11778604
_cell_angle_alpha   59.82360584
_cell_angle_beta   60.08818933
_cell_angle_gamma   60.08819132
_symmetry_Int_Tables_number   1
_chemical_formula_structural   La3Pr3Nd2(CdPt)2
_chemical_formula_sum   'La6 Pr6 Nd4 Cd4 Pt4'
_cell_volume   730.42451328
_cell_formula_units_Z   2
loop_
 _symmetry_equiv_pos_site_id
 _symmetry_equiv_pos_as_xyz
  1  'x, y, z'
loop_
 _atom_site_type_symbol
 _atom_site_label
 _atom_site_symmetry_multiplicity
 _atom_site_fract_x
 _atom_site_fract_y
 _atom_site_fract_z
 _atom_site_occupancy
  La  La0  1  0.348566  0.350594  0.350594  1
  La  La1  1  0.350594  0.348566  0.950248  1
  La  La2  1  0.350594  0.950248  0.348566  1
  La  La3  1  0.950248  0.350594  0.350594  1
  La  La4  1  0.809459  0.190541  0.190541  1
  La  La5  1  0.190541  0.809459  0.809459  1
  Pr  Pr6  1  0.934688  0.565312  0.565312  1
  Pr  Pr7  1  0.565312  0.934688  0.934688  1
  Pr  Pr8  1  0.565021  0.934979  0.565021  1
  Pr  Pr9  1  0.934979  0.565021  0.934979  1
  Pr  Pr10  1  0.565021  0.565021  0.934979  1
  Pr  Pr11  1  0.934979  0.934979  0.565021  1
  Nd  Nd12  1  0.192204  0.807796  0.192204  1
  Nd  Nd13  1  0.807796  0.192204  0.807796  1
  Nd  Nd14  1  0.192204  0.192204  0.807796  1
  Nd  Nd15  1  0.807796  0.807796  0.192204  1
  Cd  Cd16  1  0.581411  0.580078  0.580078  1
  Cd  Cd17  1  0.580078  0.581411  0.258432  1
  Cd  Cd18  1  0.580078  0.258432  0.581411  1
  Cd  Cd19  1  0.258432  0.580078  0.580078  1
  Pt  Pt20  1  0.141231  0.142950  0.142950  1
  Pt  Pt21  1  0.142950  0.141231  0.572869  1
  Pt  Pt22  1  0.142950  0.572869  0.141231  1
  Pt  Pt23  1  0.572869  0.142950  0.142950  1
