# generated using pymatgen
data_Tb9Y8Tm3Pb16
_symmetry_space_group_name_H-M   'P 1'
_cell_length_a   8.22932259
_cell_length_b   15.70971707
_cell_length_c   8.31419800
_cell_angle_alpha   90.00411034
_cell_angle_beta   90.02177837
_cell_angle_gamma   90.00338664
_symmetry_Int_Tables_number   1
_chemical_formula_structural   Tb9Y8Tm3Pb16
_chemical_formula_sum   'Tb9 Y8 Tm3 Pb16'
_cell_volume   1074.86217567
_cell_formula_units_Z   1
loop_
 _symmetry_equiv_pos_site_id
 _symmetry_equiv_pos_as_xyz
  1  'x, y, z'
loop_
 _atom_site_type_symbol
 _atom_site_label
 _atom_site_symmetry_multiplicity
 _atom_site_fract_x
 _atom_site_fract_y
 _atom_site_fract_z
 _atom_site_occupancy
  Tb  Tb0  1  0.123249  0.620403  0.340494  1
  Tb  Tb1  1  0.465605  0.600008  0.676906  1
  Tb  Tb2  1  0.966031  0.900005  0.823720  1
  Tb  Tb3  1  0.534217  0.100219  0.323398  1
  Tb  Tb4  1  0.034240  0.399774  0.176555  1
  Tb  Tb5  1  0.534160  0.399792  0.323553  1
  Tb  Tb6  1  0.034263  0.100152  0.176521  1
  Tb  Tb7  1  0.465543  0.900003  0.676818  1
  Tb  Tb8  1  0.966015  0.600095  0.823900  1
  Y  Y9  1  0.622868  0.620619  0.158984  1
  Y  Y10  1  0.123438  0.879490  0.340671  1
  Y  Y11  1  0.377064  0.120836  0.840853  1
  Y  Y12  1  0.877013  0.379166  0.659017  1
  Y  Y13  1  0.377073  0.379088  0.840846  1
  Y  Y14  1  0.876905  0.120880  0.659117  1
  Y  Y15  1  0.622663  0.879419  0.158929  1
  Y  Y16  1  0.791296  0.749992  0.496411  1
  Tm  Tm17  1  0.290902  0.750114  0.003907  1
  Tm  Tm18  1  0.209009  0.249971  0.503838  1
  Tm  Tm19  1  0.709038  0.250047  0.996162  1
  Pb  Pb20  1  0.718721  0.456730  0.966974  1
  Pb  Pb21  1  0.218567  0.043295  0.532950  1
  Pb  Pb22  1  0.281368  0.956823  0.032895  1
  Pb  Pb23  1  0.780901  0.542607  0.466839  1
  Pb  Pb24  1  0.281628  0.543210  0.032702  1
  Pb  Pb25  1  0.781353  0.957349  0.466713  1
  Pb  Pb26  1  0.718655  0.043307  0.966925  1
  Pb  Pb27  1  0.218608  0.456549  0.533195  1
  Pb  Pb28  1  0.427219  0.750025  0.373214  1
  Pb  Pb29  1  0.928459  0.749966  0.125365  1
  Pb  Pb30  1  0.571608  0.250007  0.626384  1
  Pb  Pb31  1  0.071661  0.249990  0.873652  1
  Pb  Pb32  1  0.653329  0.750059  0.848297  1
  Pb  Pb33  1  0.154668  0.750025  0.653415  1
  Pb  Pb34  1  0.346269  0.250008  0.153174  1
  Pb  Pb35  1  0.846394  0.249975  0.346708  1
