# generated using pymatgen
data_Tb3Dy4Sn23Os6
_symmetry_space_group_name_H-M   'P 1'
_cell_length_a   9.87107948
_cell_length_b   9.87107927
_cell_length_c   10.13965918
_cell_angle_alpha   89.98118556
_cell_angle_beta   90.01881585
_cell_angle_gamma   119.96945219
_symmetry_Int_Tables_number   1
_chemical_formula_structural   Tb3Dy4Sn23Os6
_chemical_formula_sum   'Tb3 Dy4 Sn23 Os6'
_cell_volume   855.88782536
_cell_formula_units_Z   1
loop_
 _symmetry_equiv_pos_site_id
 _symmetry_equiv_pos_as_xyz
  1  'x, y, z'
loop_
 _atom_site_type_symbol
 _atom_site_label
 _atom_site_symmetry_multiplicity
 _atom_site_fract_x
 _atom_site_fract_y
 _atom_site_fract_z
 _atom_site_occupancy
  Tb  Tb0  1  0.000000  0.000000  0.000000  1
  Tb  Tb1  1  0.485277  0.514723  0.301846  1
  Tb  Tb2  1  0.514723  0.485277  0.698154  1
  Dy  Dy3  1  0.485439  0.970864  0.301754  1
  Dy  Dy4  1  0.514561  0.029136  0.698246  1
  Dy  Dy5  1  0.029136  0.514561  0.301754  1
  Dy  Dy6  1  0.970864  0.485439  0.698246  1
  Sn  Sn7  1  0.349668  0.999949  0.999972  1
  Sn  Sn8  1  0.650332  0.000051  0.000028  1
  Sn  Sn9  1  0.999949  0.349668  0.000028  1
  Sn  Sn10  1  0.000051  0.650332  0.999972  1
  Sn  Sn11  1  0.650404  0.650404  0.000000  1
  Sn  Sn12  1  0.349596  0.349596  0.000000  1
  Sn  Sn13  1  0.333291  0.666709  0.825222  1
  Sn  Sn14  1  0.666709  0.333291  0.174778  1
  Sn  Sn15  1  0.000000  0.000000  0.500000  1
  Sn  Sn16  1  0.780176  0.219824  0.463334  1
  Sn  Sn17  1  0.219824  0.780176  0.536666  1
  Sn  Sn18  1  0.780390  0.560406  0.463340  1
  Sn  Sn19  1  0.219610  0.439594  0.536660  1
  Sn  Sn20  1  0.439594  0.219610  0.463340  1
  Sn  Sn21  1  0.560406  0.780390  0.536660  1
  Sn  Sn22  1  0.333204  0.666796  0.129742  1
  Sn  Sn23  1  0.666796  0.333204  0.870258  1
  Sn  Sn24  1  0.117535  0.882465  0.275681  1
  Sn  Sn25  1  0.882465  0.117535  0.724319  1
  Sn  Sn26  1  0.117417  0.234988  0.275638  1
  Sn  Sn27  1  0.882583  0.765012  0.724362  1
  Sn  Sn28  1  0.765012  0.882583  0.275638  1
  Sn  Sn29  1  0.234988  0.117417  0.724362  1
  Os  Os30  1  0.829693  0.170307  0.202283  1
  Os  Os31  1  0.170307  0.829693  0.797717  1
  Os  Os32  1  0.829978  0.659518  0.202214  1
  Os  Os33  1  0.170022  0.340482  0.797786  1
  Os  Os34  1  0.340482  0.170022  0.202214  1
  Os  Os35  1  0.659518  0.829978  0.797786  1
