# generated using pymatgen
data_Ca4H12PdPt
_symmetry_space_group_name_H-M   'P 1'
_cell_length_a   7.13099103
_cell_length_b   7.13099139
_cell_length_c   5.31493400
_cell_angle_alpha   90.16904349
_cell_angle_beta   90.16903546
_cell_angle_gamma   136.14665662
_symmetry_Int_Tables_number   1
_chemical_formula_structural   Ca4H12PdPt
_chemical_formula_sum   'Ca4 H12 Pd1 Pt1'
_cell_volume   187.24115367
_cell_formula_units_Z   1
loop_
 _symmetry_equiv_pos_site_id
 _symmetry_equiv_pos_as_xyz
  1  'x, y, z'
loop_
 _atom_site_type_symbol
 _atom_site_label
 _atom_site_symmetry_multiplicity
 _atom_site_fract_x
 _atom_site_fract_y
 _atom_site_fract_z
 _atom_site_occupancy
  Ca  Ca0  1  0.653926  0.346074  0.000000  1
  Ca  Ca1  1  0.346074  0.653926  0.000000  1
  Ca  Ca2  1  0.849127  0.150873  0.500000  1
  Ca  Ca3  1  0.150873  0.849127  0.500000  1
  H  H4  1  0.871402  0.128598  0.000000  1
  H  H5  1  0.128598  0.871402  0.000000  1
  H  H6  1  0.626125  0.373875  0.500000  1
  H  H7  1  0.373875  0.626125  0.500000  1
  H  H8  1  0.000759  0.500423  0.254143  1
  H  H9  1  0.999241  0.499577  0.745857  1
  H  H10  1  0.499577  0.999241  0.745857  1
  H  H11  1  0.500423  0.000759  0.254143  1
  H  H12  1  0.260668  0.260668  0.267210  1
  H  H13  1  0.739332  0.739332  0.732790  1
  H  H14  1  0.269661  0.269661  0.735850  1
  H  H15  1  0.730339  0.730339  0.264150  1
  Pd  Pd16  1  0.000000  0.000000  0.000000  1
  Pt  Pt17  1  0.500000  0.500000  0.500000  1
