# generated using pymatgen
data_Pr3Er7(SiAs)4
_symmetry_space_group_name_H-M   'P 1'
_cell_length_a   8.55150649
_cell_length_b   7.97099655
_cell_length_c   7.70698800
_cell_angle_alpha   89.67537954
_cell_angle_beta   90.01939003
_cell_angle_gamma   124.78029919
_symmetry_Int_Tables_number   1
_chemical_formula_structural   Pr3Er7(SiAs)4
_chemical_formula_sum   'Pr3 Er7 Si4 As4'
_cell_volume   431.47545555
_cell_formula_units_Z   1
loop_
 _symmetry_equiv_pos_site_id
 _symmetry_equiv_pos_as_xyz
  1  'x, y, z'
loop_
 _atom_site_type_symbol
 _atom_site_label
 _atom_site_symmetry_multiplicity
 _atom_site_fract_x
 _atom_site_fract_y
 _atom_site_fract_z
 _atom_site_occupancy
  Pr  Pr0  1  0.057969  0.350942  0.321406  1
  Pr  Pr1  1  0.943217  0.655347  0.677220  1
  Pr  Pr2  1  0.442321  0.152070  0.823885  1
  Er  Er3  1  0.779405  0.517440  0.164279  1
  Er  Er4  1  0.557086  0.836855  0.172087  1
  Er  Er5  1  0.218942  0.481473  0.834314  1
  Er  Er6  1  0.720711  0.982951  0.663064  1
  Er  Er7  1  0.281081  0.020037  0.335505  1
  Er  Er8  1  0.999385  0.999163  0.000502  1
  Er  Er9  1  0.500063  0.501746  0.499440  1
  Si  Si10  1  0.380800  0.382070  0.121724  1
  Si  Si11  1  0.619807  0.623417  0.880783  1
  Si  Si12  1  0.120906  0.123310  0.621528  1
  Si  Si13  1  0.874823  0.879095  0.373218  1
  As  As14  1  0.814949  0.219107  0.973996  1
  As  As15  1  0.183018  0.767006  0.038740  1
  As  As16  1  0.677155  0.273701  0.470646  1
  As  As17  1  0.328362  0.734268  0.527662  1
