# generated using pymatgen
data_TbAg3(Ir2O7)2
_symmetry_space_group_name_H-M   'P 1'
_cell_length_a   7.26731597
_cell_length_b   7.26731506
_cell_length_c   7.26731630
_cell_angle_alpha   59.39672400
_cell_angle_beta   59.39673014
_cell_angle_gamma   59.39672850
_symmetry_Int_Tables_number   1
_chemical_formula_structural   TbAg3(Ir2O7)2
_chemical_formula_sum   'Tb1 Ag3 Ir4 O14'
_cell_volume   267.67236508
_cell_formula_units_Z   1
loop_
 _symmetry_equiv_pos_site_id
 _symmetry_equiv_pos_as_xyz
  1  'x, y, z'
loop_
 _atom_site_type_symbol
 _atom_site_label
 _atom_site_symmetry_multiplicity
 _atom_site_fract_x
 _atom_site_fract_y
 _atom_site_fract_z
 _atom_site_occupancy
  Tb  Tb0  1  0.125000  0.125000  0.125000  1
  Ag  Ag1  1  0.625000  0.125000  0.125000  1
  Ag  Ag2  1  0.125000  0.625000  0.125000  1
  Ag  Ag3  1  0.125000  0.125000  0.625000  1
  Ir  Ir4  1  0.125000  0.625000  0.625000  1
  Ir  Ir5  1  0.625000  0.125000  0.625000  1
  Ir  Ir6  1  0.625000  0.625000  0.125000  1
  Ir  Ir7  1  0.625000  0.625000  0.625000  1
  O  O8  1  0.694669  0.694669  0.302799  1
  O  O9  1  0.294299  0.294299  0.712700  1
  O  O10  1  0.694669  0.302799  0.694669  1
  O  O11  1  0.294299  0.712700  0.294299  1
  O  O12  1  0.302799  0.694669  0.694669  1
  O  O13  1  0.712700  0.294299  0.294299  1
  O  O14  1  0.555331  0.555331  0.947201  1
  O  O15  1  0.955701  0.955701  0.537300  1
  O  O16  1  0.555331  0.947201  0.555331  1
  O  O17  1  0.955701  0.537300  0.955701  1
  O  O18  1  0.947201  0.555331  0.555331  1
  O  O19  1  0.537300  0.955701  0.955701  1
  O  O20  1  0.255515  0.255515  0.255515  1
  O  O21  1  0.994485  0.994485  0.994485  1
