# generated using pymatgen
data_Pm4Fe3CuO12
_symmetry_space_group_name_H-M   'P 1'
_cell_length_a   5.43207004
_cell_length_b   5.67303406
_cell_length_c   7.79410500
_cell_angle_alpha   89.71412762
_cell_angle_beta   90.12061290
_cell_angle_gamma   89.90174637
_symmetry_Int_Tables_number   1
_chemical_formula_structural   Pm4Fe3CuO12
_chemical_formula_sum   'Pm4 Fe3 Cu1 O12'
_cell_volume   240.18174135
_cell_formula_units_Z   1
loop_
 _symmetry_equiv_pos_site_id
 _symmetry_equiv_pos_as_xyz
  1  'x, y, z'
loop_
 _atom_site_type_symbol
 _atom_site_label
 _atom_site_symmetry_multiplicity
 _atom_site_fract_x
 _atom_site_fract_y
 _atom_site_fract_z
 _atom_site_occupancy
  Pm  Pm0  1  0.983494  0.059694  0.247086  1
  Pm  Pm1  1  0.515080  0.563351  0.246816  1
  Pm  Pm2  1  0.484921  0.436649  0.753184  1
  Pm  Pm3  1  0.016505  0.940306  0.752914  1
  Fe  Fe4  1  0.000000  0.499999  0.000000  1
  Fe  Fe5  1  0.500000  0.000000  0.500000  1
  Fe  Fe6  1  0.000000  0.499999  0.500000  1
  Cu  Cu7  1  0.500000  0.000000  0.000000  1
  O  O8  1  0.704172  0.300039  0.047924  1
  O  O9  1  0.800193  0.795531  0.049120  1
  O  O10  1  0.095829  0.471058  0.249628  1
  O  O11  1  0.405396  0.972500  0.251688  1
  O  O12  1  0.700039  0.299601  0.447896  1
  O  O13  1  0.800363  0.799387  0.448035  1
  O  O14  1  0.199638  0.200613  0.551966  1
  O  O15  1  0.299962  0.700399  0.552105  1
  O  O16  1  0.594605  0.027500  0.748312  1
  O  O17  1  0.904172  0.528942  0.750372  1
  O  O18  1  0.199808  0.204469  0.950881  1
  O  O19  1  0.295829  0.699961  0.952077  1
