# generated using pymatgen
data_Ti3Fe4ReP4
_symmetry_space_group_name_H-M   'P 1'
_cell_length_a   3.62535100
_cell_length_b   5.94751551
_cell_length_c   6.75262381
_cell_angle_alpha   89.59247986
_cell_angle_beta   90.00000000
_cell_angle_gamma   90.00000000
_symmetry_Int_Tables_number   1
_chemical_formula_structural   Ti3Fe4ReP4
_chemical_formula_sum   'Ti3 Fe4 Re1 P4'
_cell_volume   145.59525271
_cell_formula_units_Z   1
loop_
 _symmetry_equiv_pos_site_id
 _symmetry_equiv_pos_as_xyz
  1  'x, y, z'
loop_
 _atom_site_type_symbol
 _atom_site_label
 _atom_site_symmetry_multiplicity
 _atom_site_fract_x
 _atom_site_fract_y
 _atom_site_fract_z
 _atom_site_occupancy
  Ti  Ti0  1  0.250000  0.522696  0.684709  1
  Ti  Ti1  1  0.750000  0.978998  0.176913  1
  Ti  Ti2  1  0.750000  0.477745  0.318158  1
  Fe  Fe3  1  0.250000  0.145030  0.440337  1
  Fe  Fe4  1  0.250000  0.645018  0.062700  1
  Fe  Fe5  1  0.750000  0.854613  0.560321  1
  Fe  Fe6  1  0.750000  0.357544  0.935327  1
  Re  Re7  1  0.250000  0.021728  0.826752  1
  P  P8  1  0.250000  0.773656  0.377903  1
  P  P9  1  0.250000  0.271795  0.115681  1
  P  P10  1  0.750000  0.221641  0.623539  1
  P  P11  1  0.750000  0.729536  0.877659  1
