# generated using pymatgen
data_Ce2LuIn3TcRu
_symmetry_space_group_name_H-M   'P 1'
_cell_length_a   8.22641827
_cell_length_b   8.22641754
_cell_length_c   4.96081031
_cell_angle_alpha   83.21871625
_cell_angle_beta   83.21871046
_cell_angle_gamma   34.99986715
_symmetry_Int_Tables_number   1
_chemical_formula_structural   Ce2LuIn3TcRu
_chemical_formula_sum   'Ce2 Lu1 In3 Tc1 Ru1'
_cell_volume   191.07752973
_cell_formula_units_Z   1
loop_
 _symmetry_equiv_pos_site_id
 _symmetry_equiv_pos_as_xyz
  1  'x, y, z'
loop_
 _atom_site_type_symbol
 _atom_site_label
 _atom_site_symmetry_multiplicity
 _atom_site_fract_x
 _atom_site_fract_y
 _atom_site_fract_z
 _atom_site_occupancy
  Ce  Ce0  1  0.831392  0.831392  0.569660  1
  Ce  Ce1  1  0.170641  0.170641  0.427769  1
  Lu  Lu2  1  0.999023  0.999023  0.998270  1
  In  In3  1  0.372158  0.372158  0.042360  1
  In  In4  1  0.500898  0.500898  0.500819  1
  In  In5  1  0.627020  0.627020  0.955592  1
  Tc  Tc6  1  0.795900  0.795900  0.113230  1
  Ru  Ru7  1  0.202968  0.202968  0.892300  1
