# generated using pymatgen
data_Pr18Sm2Si15Hg
_symmetry_space_group_name_H-M   'P 1'
_cell_length_a   7.95936840
_cell_length_b   7.94895467
_cell_length_c   15.30495944
_cell_angle_alpha   90.02860632
_cell_angle_beta   89.65029060
_cell_angle_gamma   89.91477520
_symmetry_Int_Tables_number   1
_chemical_formula_structural   Pr18Sm2Si15Hg
_chemical_formula_sum   'Pr18 Sm2 Si15 Hg1'
_cell_volume   968.30502117
_cell_formula_units_Z   1
loop_
 _symmetry_equiv_pos_site_id
 _symmetry_equiv_pos_as_xyz
  1  'x, y, z'
loop_
 _atom_site_type_symbol
 _atom_site_label
 _atom_site_symmetry_multiplicity
 _atom_site_fract_x
 _atom_site_fract_y
 _atom_site_fract_z
 _atom_site_occupancy
  Pr  Pr0  1  0.799516  0.187070  0.752623  1
  Pr  Pr1  1  0.692849  0.689927  0.497840  1
  Pr  Pr2  1  0.374392  0.012324  0.447837  1
  Pr  Pr3  1  0.492377  0.868812  0.699190  1
  Pr  Pr4  1  0.510502  0.122605  0.197640  1
  Pr  Pr5  1  0.878460  0.488934  0.300521  1
  Pr  Pr6  1  0.119237  0.519674  0.803978  1
  Pr  Pr7  1  0.625886  0.986990  0.951281  1
  Pr  Pr8  1  0.001299  0.383449  0.547071  1
  Pr  Pr9  1  0.989982  0.625339  0.052993  1
  Pr  Pr10  1  0.129454  0.981109  0.879838  1
  Pr  Pr11  1  0.519542  0.629224  0.126767  1
  Pr  Pr12  1  0.486251  0.377063  0.626230  1
  Pr  Pr13  1  0.628622  0.520452  0.876613  1
  Pr  Pr14  1  0.373553  0.482881  0.371641  1
  Pr  Pr15  1  0.872601  0.019596  0.375334  1
  Pr  Pr16  1  0.982867  0.127195  0.124233  1
  Pr  Pr17  1  0.009958  0.860945  0.620574  1
  Sm  Sm18  1  0.308561  0.309000  0.000087  1
  Sm  Sm19  1  0.192301  0.809614  0.249600  1
  Si  Si20  1  0.331054  0.693356  0.953746  1
  Si  Si21  1  0.662977  0.302402  0.450261  1
  Si  Si22  1  0.696991  0.332735  0.049045  1
  Si  Si23  1  0.306255  0.669870  0.545972  1
  Si  Si24  1  0.807633  0.831281  0.202883  1
  Si  Si25  1  0.169520  0.194651  0.298057  1
  Si  Si26  1  0.834005  0.804305  0.798943  1
  Si  Si27  1  0.287512  0.922747  0.061644  1
  Si  Si28  1  0.578223  0.788165  0.309229  1
  Si  Si29  1  0.431881  0.210681  0.817200  1
  Si  Si30  1  0.786122  0.577869  0.691580  1
  Si  Si31  1  0.213527  0.422072  0.189366  1
  Si  Si32  1  0.709144  0.079115  0.558861  1
  Si  Si33  1  0.925216  0.289825  0.941583  1
  Si  Si34  1  0.081230  0.714073  0.437244  1
  Hg  Hg35  1  0.190496  0.164652  0.692498  1
