# generated using pymatgen
data_Tb9Ho3TlCo4Ir
_symmetry_space_group_name_H-M   'P 1'
_cell_length_a   8.34838632
_cell_length_b   8.34369044
_cell_length_c   8.34369070
_cell_angle_alpha   110.98503529
_cell_angle_beta   110.60577125
_cell_angle_gamma   106.83263939
_symmetry_Int_Tables_number   1
_chemical_formula_structural   Tb9Ho3TlCo4Ir
_chemical_formula_sum   'Tb9 Ho3 Tl1 Co4 Ir1'
_cell_volume   446.81407682
_cell_formula_units_Z   1
loop_
 _symmetry_equiv_pos_site_id
 _symmetry_equiv_pos_as_xyz
  1  'x, y, z'
loop_
 _atom_site_type_symbol
 _atom_site_label
 _atom_site_symmetry_multiplicity
 _atom_site_fract_x
 _atom_site_fract_y
 _atom_site_fract_z
 _atom_site_occupancy
  Tb  Tb0  1  0.314842  0.621821  0.306035  1
  Tb  Tb1  1  0.685483  0.378906  0.694397  1
  Tb  Tb2  1  0.314844  0.008808  0.693023  1
  Tb  Tb3  1  0.685481  0.991085  0.306576  1
  Tb  Tb4  1  0.183283  0.287641  0.471332  1
  Tb  Tb5  1  0.817159  0.713282  0.529999  1
  Tb  Tb6  1  0.183282  0.711949  0.895641  1
  Tb  Tb7  1  0.817160  0.287158  0.103873  1
  Tb  Tb8  1  0.407695  0.214211  0.193481  1
  Ho  Ho9  1  0.591854  0.785741  0.806113  1
  Ho  Ho10  1  0.019963  0.214071  0.805885  1
  Ho  Ho11  1  0.979320  0.785927  0.193398  1
  Tl  Tl12  1  0.500105  0.500403  0.999716  1
  Co  Co13  1  0.111309  0.611294  0.500012  1
  Co  Co14  1  0.889498  0.388633  0.500863  1
  Co  Co15  1  0.378625  0.999719  0.378907  1
  Co  Co16  1  0.622207  0.000210  0.622000  1
  Ir  Ir17  1  0.997890  0.999138  0.998751  1
