# generated using pymatgen
data_Y2HoCoSn3Pt2
_symmetry_space_group_name_H-M   'P 1'
_cell_length_a   7.62696229
_cell_length_b   7.64864982
_cell_length_c   3.75495100
_cell_angle_alpha   90.00000000
_cell_angle_beta   90.00000000
_cell_angle_gamma   120.09410698
_symmetry_Int_Tables_number   1
_chemical_formula_structural   Y2HoCoSn3Pt2
_chemical_formula_sum   'Y2 Ho1 Co1 Sn3 Pt2'
_cell_volume   189.52157926
_cell_formula_units_Z   1
loop_
 _symmetry_equiv_pos_site_id
 _symmetry_equiv_pos_as_xyz
  1  'x, y, z'
loop_
 _atom_site_type_symbol
 _atom_site_label
 _atom_site_symmetry_multiplicity
 _atom_site_fract_x
 _atom_site_fract_y
 _atom_site_fract_z
 _atom_site_occupancy
  Y  Y0  1  0.402270  0.402066  0.500000  1
  Y  Y1  1  0.597730  0.999797  0.500000  1
  Ho  Ho2  1  0.000000  0.597615  0.500000  1
  Co  Co3  1  0.000000  0.999548  0.500000  1
  Sn  Sn4  1  0.000000  0.250413  0.000000  1
  Sn  Sn5  1  0.750481  0.749557  0.000000  1
  Sn  Sn6  1  0.249519  0.999076  0.000000  1
  Pt  Pt7  1  0.668878  0.335402  0.000000  1
  Pt  Pt8  1  0.331122  0.666525  0.000000  1
