# generated using pymatgen
data_Tb7Sm(Sc3Pb4)4
_symmetry_space_group_name_H-M   'P 1'
_cell_length_a   7.97906498
_cell_length_b   8.05612436
_cell_length_c   15.19393700
_cell_angle_alpha   89.97881312
_cell_angle_beta   89.94279085
_cell_angle_gamma   90.02570322
_symmetry_Int_Tables_number   1
_chemical_formula_structural   Tb7Sm(Sc3Pb4)4
_chemical_formula_sum   'Tb7 Sm1 Sc12 Pb16'
_cell_volume   976.67078054
_cell_formula_units_Z   1
loop_
 _symmetry_equiv_pos_site_id
 _symmetry_equiv_pos_as_xyz
  1  'x, y, z'
loop_
 _atom_site_type_symbol
 _atom_site_label
 _atom_site_symmetry_multiplicity
 _atom_site_fract_x
 _atom_site_fract_y
 _atom_site_fract_z
 _atom_site_occupancy
  Tb  Tb0  1  0.028797  0.177182  0.595715  1
  Tb  Tb1  1  0.470785  0.677214  0.403556  1
  Tb  Tb2  1  0.971182  0.822986  0.096610  1
  Tb  Tb3  1  0.471292  0.677795  0.096546  1
  Tb  Tb4  1  0.970922  0.822752  0.403559  1
  Tb  Tb5  1  0.529691  0.322748  0.596478  1
  Tb  Tb6  1  0.028889  0.176820  0.903821  1
  Sm  Sm7  1  0.526631  0.322663  0.904419  1
  Sc  Sc8  1  0.368484  0.843478  0.875834  1
  Sc  Sc9  1  0.868875  0.656436  0.623921  1
  Sc  Sc10  1  0.631612  0.156401  0.375864  1
  Sc  Sc11  1  0.132486  0.343485  0.124584  1
  Sc  Sc12  1  0.632189  0.155915  0.124525  1
  Sc  Sc13  1  0.131500  0.343671  0.375736  1
  Sc  Sc14  1  0.368390  0.843181  0.623544  1
  Sc  Sc15  1  0.867862  0.656800  0.875638  1
  Sc  Sc16  1  0.200825  0.507351  0.749599  1
  Sc  Sc17  1  0.701141  0.992952  0.749688  1
  Sc  Sc18  1  0.799477  0.493175  0.250314  1
  Sc  Sc19  1  0.299133  0.006950  0.250100  1
  Pb  Pb20  1  0.294588  0.042427  0.044288  1
  Pb  Pb21  1  0.794495  0.457659  0.455823  1
  Pb  Pb22  1  0.705431  0.957446  0.543897  1
  Pb  Pb23  1  0.202511  0.544588  0.956489  1
  Pb  Pb24  1  0.705812  0.956279  0.956221  1
  Pb  Pb25  1  0.205751  0.541983  0.543888  1
  Pb  Pb26  1  0.294554  0.042485  0.455627  1
  Pb  Pb27  1  0.796341  0.458077  0.045109  1
  Pb  Pb28  1  0.561542  0.633589  0.749675  1
  Pb  Pb29  1  0.061458  0.866907  0.749815  1
  Pb  Pb30  1  0.438918  0.366995  0.250049  1
  Pb  Pb31  1  0.938635  0.132950  0.250160  1
  Pb  Pb32  1  0.340268  0.150452  0.748960  1
  Pb  Pb33  1  0.842301  0.348201  0.749745  1
  Pb  Pb34  1  0.658519  0.848153  0.250136  1
  Pb  Pb35  1  0.158715  0.651856  0.250060  1
