# generated using pymatgen
data_Er12Th4Mg4MnCo3
_symmetry_space_group_name_H-M   'P 1'
_cell_length_a   9.65231111
_cell_length_b   9.65231233
_cell_length_c   9.65231238
_cell_angle_alpha   59.44369793
_cell_angle_beta   59.44369381
_cell_angle_gamma   59.44369227
_symmetry_Int_Tables_number   1
_chemical_formula_structural   Er12Th4Mg4MnCo3
_chemical_formula_sum   'Er12 Th4 Mg4 Mn1 Co3'
_cell_volume   627.83779583
_cell_formula_units_Z   1
loop_
 _symmetry_equiv_pos_site_id
 _symmetry_equiv_pos_as_xyz
  1  'x, y, z'
loop_
 _atom_site_type_symbol
 _atom_site_label
 _atom_site_symmetry_multiplicity
 _atom_site_fract_x
 _atom_site_fract_y
 _atom_site_fract_z
 _atom_site_occupancy
  Er  Er0  1  0.064405  0.435989  0.435989  1
  Er  Er1  1  0.435456  0.063849  0.063849  1
  Er  Er2  1  0.435989  0.064405  0.435989  1
  Er  Er3  1  0.063849  0.435456  0.063849  1
  Er  Er4  1  0.435989  0.435989  0.064405  1
  Er  Er5  1  0.063849  0.063849  0.435456  1
  Er  Er6  1  0.185255  0.814715  0.814715  1
  Er  Er7  1  0.810360  0.185853  0.185853  1
  Er  Er8  1  0.814715  0.185255  0.814715  1
  Er  Er9  1  0.185853  0.810360  0.185853  1
  Er  Er10  1  0.814715  0.814715  0.185255  1
  Er  Er11  1  0.185853  0.185853  0.810360  1
  Th  Th12  1  0.594756  0.594756  0.594756  1
  Th  Th13  1  0.593520  0.593520  0.217641  1
  Th  Th14  1  0.593520  0.217641  0.593520  1
  Th  Th15  1  0.217641  0.593520  0.593520  1
  Mg  Mg16  1  0.829691  0.829691  0.829691  1
  Mg  Mg17  1  0.828726  0.828726  0.508920  1
  Mg  Mg18  1  0.828726  0.508920  0.828726  1
  Mg  Mg19  1  0.508920  0.828726  0.828726  1
  Mn  Mn20  1  0.397200  0.397200  0.397200  1
  Co  Co21  1  0.395794  0.395794  0.819428  1
  Co  Co22  1  0.395794  0.819428  0.395794  1
  Co  Co23  1  0.819428  0.395794  0.395794  1
