# generated using pymatgen
data_Pr8Ho12HgPb15
_symmetry_space_group_name_H-M   'P 1'
_cell_length_a   8.22671878
_cell_length_b   8.44190570
_cell_length_c   15.81219800
_cell_angle_alpha   90.00000000
_cell_angle_beta   90.00000000
_cell_angle_gamma   89.75698388
_symmetry_Int_Tables_number   1
_chemical_formula_structural   Pr8Ho12HgPb15
_chemical_formula_sum   'Pr8 Ho12 Hg1 Pb15'
_cell_volume   1098.13437295
_cell_formula_units_Z   1
loop_
 _symmetry_equiv_pos_site_id
 _symmetry_equiv_pos_as_xyz
  1  'x, y, z'
loop_
 _atom_site_type_symbol
 _atom_site_label
 _atom_site_symmetry_multiplicity
 _atom_site_fract_x
 _atom_site_fract_y
 _atom_site_fract_z
 _atom_site_occupancy
  Pr  Pr0  1  0.483918  0.683846  0.592342  1
  Pr  Pr1  1  0.982170  0.820586  0.902332  1
  Pr  Pr2  1  0.517509  0.320956  0.096907  1
  Pr  Pr3  1  0.019337  0.176294  0.402727  1
  Pr  Pr4  1  0.517509  0.320956  0.403093  1
  Pr  Pr5  1  0.019337  0.176294  0.097273  1
  Pr  Pr6  1  0.483918  0.683846  0.907658  1
  Pr  Pr7  1  0.982170  0.820586  0.597668  1
  Ho  Ho8  1  0.637351  0.160413  0.622764  1
  Ho  Ho9  1  0.146286  0.340788  0.876550  1
  Ho  Ho10  1  0.357671  0.842314  0.122703  1
  Ho  Ho11  1  0.857029  0.659474  0.375710  1
  Ho  Ho12  1  0.357671  0.842314  0.377297  1
  Ho  Ho13  1  0.857029  0.659474  0.124290  1
  Ho  Ho14  1  0.637351  0.160413  0.877236  1
  Ho  Ho15  1  0.146286  0.340788  0.623450  1
  Ho  Ho16  1  0.800224  0.491256  0.750000  1
  Ho  Ho17  1  0.303861  0.007158  0.750000  1
  Ho  Ho18  1  0.193850  0.503522  0.250000  1
  Ho  Ho19  1  0.694110  0.997964  0.250000  1
  Hg  Hg20  1  0.444208  0.369428  0.750000  1
  Pb  Pb21  1  0.702799  0.958872  0.457658  1
  Pb  Pb22  1  0.196491  0.541587  0.042658  1
  Pb  Pb23  1  0.297154  0.041277  0.956559  1
  Pb  Pb24  1  0.800890  0.459274  0.543990  1
  Pb  Pb25  1  0.297154  0.041277  0.543441  1
  Pb  Pb26  1  0.800890  0.459274  0.956010  1
  Pb  Pb27  1  0.702799  0.958872  0.042342  1
  Pb  Pb28  1  0.196491  0.541587  0.457342  1
  Pb  Pb29  1  0.942065  0.126003  0.750000  1
  Pb  Pb30  1  0.552844  0.631200  0.250000  1
  Pb  Pb31  1  0.055652  0.871380  0.250000  1
  Pb  Pb32  1  0.669242  0.850178  0.750000  1
  Pb  Pb33  1  0.184422  0.640715  0.750000  1
  Pb  Pb34  1  0.332046  0.150100  0.250000  1
  Pb  Pb35  1  0.830264  0.349735  0.250000  1
