# generated using pymatgen
data_Lu5In2BiSe
_symmetry_space_group_name_H-M   'P 1'
_cell_length_a   8.97295400
_cell_length_b   8.97295466
_cell_length_c   6.68059400
_cell_angle_alpha   90.00000000
_cell_angle_beta   90.00000000
_cell_angle_gamma   119.93235665
_symmetry_Int_Tables_number   1
_chemical_formula_structural   Lu5In2BiSe
_chemical_formula_sum   'Lu10 In4 Bi2 Se2'
_cell_volume   466.13557138
_cell_formula_units_Z   2
loop_
 _symmetry_equiv_pos_site_id
 _symmetry_equiv_pos_as_xyz
  1  'x, y, z'
loop_
 _atom_site_type_symbol
 _atom_site_label
 _atom_site_symmetry_multiplicity
 _atom_site_fract_x
 _atom_site_fract_y
 _atom_site_fract_z
 _atom_site_occupancy
  Lu  Lu0  1  0.666770  0.337037  0.492774  1
  Lu  Lu1  1  0.337037  0.666770  0.492774  1
  Lu  Lu2  1  0.337037  0.666770  0.007226  1
  Lu  Lu3  1  0.666770  0.337037  0.007226  1
  Lu  Lu4  1  0.746832  0.746832  0.250000  1
  Lu  Lu5  1  0.250536  0.997730  0.250000  1
  Lu  Lu6  1  0.997730  0.250536  0.250000  1
  Lu  Lu7  1  0.253209  0.253209  0.750000  1
  Lu  Lu8  1  0.746524  0.993191  0.750000  1
  Lu  Lu9  1  0.993191  0.746524  0.750000  1
  In  In10  1  0.397398  0.397398  0.250000  1
  In  In11  1  0.604974  0.000713  0.250000  1
  In  In12  1  0.000713  0.604974  0.250000  1
  In  In13  1  0.600436  0.600436  0.750000  1
  Bi  Bi14  1  0.396836  0.000069  0.750000  1
  Bi  Bi15  1  0.000069  0.396836  0.750000  1
  Se  Se16  1  0.001969  0.001969  0.501119  1
  Se  Se17  1  0.001969  0.001969  0.998881  1
