# generated using pymatgen
data_Er7Sn23Ru6
_symmetry_space_group_name_H-M   'P 1'
_cell_length_a   9.82880400
_cell_length_b   9.82880454
_cell_length_c   10.08246700
_cell_angle_alpha   90.00000000
_cell_angle_beta   90.00000000
_cell_angle_gamma   120.00000491
_symmetry_Int_Tables_number   1
_chemical_formula_structural   Er7Sn23Ru6
_chemical_formula_sum   'Er7 Sn23 Ru6'
_cell_volume   843.52662034
_cell_formula_units_Z   1
loop_
 _symmetry_equiv_pos_site_id
 _symmetry_equiv_pos_as_xyz
  1  'x, y, z'
loop_
 _atom_site_type_symbol
 _atom_site_label
 _atom_site_symmetry_multiplicity
 _atom_site_fract_x
 _atom_site_fract_y
 _atom_site_fract_z
 _atom_site_occupancy
  Er  Er0  1  0.484608  0.515392  0.302934  1
  Er  Er1  1  0.515392  0.484608  0.697066  1
  Er  Er2  1  0.484608  0.969217  0.302934  1
  Er  Er3  1  0.515392  0.030783  0.697066  1
  Er  Er4  1  0.030783  0.515392  0.302934  1
  Er  Er5  1  0.969217  0.484608  0.697066  1
  Er  Er6  1  0.000000  0.000000  0.000000  1
  Sn  Sn7  1  0.118749  0.881251  0.273885  1
  Sn  Sn8  1  0.881251  0.118749  0.726115  1
  Sn  Sn9  1  0.118749  0.237499  0.273885  1
  Sn  Sn10  1  0.881251  0.762501  0.726115  1
  Sn  Sn11  1  0.762501  0.881251  0.273885  1
  Sn  Sn12  1  0.237499  0.118749  0.726115  1
  Sn  Sn13  1  0.779877  0.220123  0.461959  1
  Sn  Sn14  1  0.220123  0.779877  0.538041  1
  Sn  Sn15  1  0.779877  0.559755  0.461959  1
  Sn  Sn16  1  0.220123  0.440245  0.538041  1
  Sn  Sn17  1  0.440245  0.220123  0.461959  1
  Sn  Sn18  1  0.559755  0.779877  0.538041  1
  Sn  Sn19  1  0.348591  0.000000  0.000000  1
  Sn  Sn20  1  0.651409  0.000000  0.000000  1
  Sn  Sn21  1  0.000000  0.348591  0.000000  1
  Sn  Sn22  1  0.000000  0.651409  0.000000  1
  Sn  Sn23  1  0.651409  0.651409  0.000000  1
  Sn  Sn24  1  0.348591  0.348591  0.000000  1
  Sn  Sn25  1  0.333333  0.666667  0.128427  1
  Sn  Sn26  1  0.666667  0.333333  0.871573  1
  Sn  Sn27  1  0.333333  0.666667  0.821619  1
  Sn  Sn28  1  0.666667  0.333333  0.178381  1
  Sn  Sn29  1  0.000000  0.000000  0.500000  1
  Ru  Ru30  1  0.829987  0.170013  0.202202  1
  Ru  Ru31  1  0.170013  0.829987  0.797798  1
  Ru  Ru32  1  0.829987  0.659975  0.202202  1
  Ru  Ru33  1  0.170013  0.340025  0.797798  1
  Ru  Ru34  1  0.340025  0.170013  0.202202  1
  Ru  Ru35  1  0.659975  0.829987  0.797798  1
