# generated using pymatgen
data_Tb6Al24IrPd3Ru4
_symmetry_space_group_name_H-M   'P 1'
_cell_length_a   8.84831917
_cell_length_b   8.84344562
_cell_length_c   9.53413099
_cell_angle_alpha   90.21487462
_cell_angle_beta   90.10029072
_cell_angle_gamma   119.69768401
_symmetry_Int_Tables_number   1
_chemical_formula_structural   Tb6Al24IrPd3Ru4
_chemical_formula_sum   'Tb6 Al24 Ir1 Pd3 Ru4'
_cell_volume   648.04057191
_cell_formula_units_Z   1
loop_
 _symmetry_equiv_pos_site_id
 _symmetry_equiv_pos_as_xyz
  1  'x, y, z'
loop_
 _atom_site_type_symbol
 _atom_site_label
 _atom_site_symmetry_multiplicity
 _atom_site_fract_x
 _atom_site_fract_y
 _atom_site_fract_z
 _atom_site_occupancy
  Tb  Tb0  1  0.381906  0.188521  0.249969  1
  Tb  Tb1  1  0.809939  0.191390  0.249893  1
  Tb  Tb2  1  0.812199  0.617053  0.248133  1
  Tb  Tb3  1  0.618094  0.811479  0.750031  1
  Tb  Tb4  1  0.190061  0.808610  0.750107  1
  Tb  Tb5  1  0.187801  0.382947  0.751867  1
  Al  Al6  1  0.438421  0.874758  0.246066  1
  Al  Al7  1  0.123513  0.560318  0.251747  1
  Al  Al8  1  0.436787  0.563060  0.250036  1
  Al  Al9  1  0.561579  0.125242  0.753934  1
  Al  Al10  1  0.876487  0.439682  0.748253  1
  Al  Al11  1  0.563213  0.436940  0.749964  1
  Al  Al12  1  0.157615  0.831747  0.421640  1
  Al  Al13  1  0.157424  0.324666  0.423355  1
  Al  Al14  1  0.677036  0.837465  0.421566  1
  Al  Al15  1  0.842385  0.168253  0.578360  1
  Al  Al16  1  0.842576  0.675334  0.576645  1
  Al  Al17  1  0.322964  0.162535  0.578434  1
  Al  Al18  1  0.834966  0.162297  0.924175  1
  Al  Al19  1  0.841091  0.675443  0.923808  1
  Al  Al20  1  0.324636  0.157255  0.924870  1
  Al  Al21  1  0.165034  0.837703  0.075825  1
  Al  Al22  1  0.158909  0.324557  0.076192  1
  Al  Al23  1  0.675364  0.842745  0.075130  1
  Al  Al24  1  0.327838  0.663937  0.527431  1
  Al  Al25  1  0.672162  0.336063  0.472569  1
  Al  Al26  1  0.666841  0.328845  0.026849  1
  Al  Al27  1  0.333159  0.671155  0.973151  1
  Al  Al28  1  0.002124  0.998596  0.249783  1
  Al  Al29  1  0.997876  0.001404  0.750217  1
  Ir  Ir30  1  0.000000  0.500000  0.000000  1
  Pd  Pd31  1  0.500000  0.000000  0.500000  1
  Pd  Pd32  1  0.500000  0.500000  0.500000  1
  Pd  Pd33  1  0.500000  0.500000  0.000000  1
  Ru  Ru34  1  0.000000  0.000000  0.500000  1
  Ru  Ru35  1  0.000000  0.000000  0.000000  1
  Ru  Ru36  1  0.000000  0.500000  0.500000  1
  Ru  Ru37  1  0.500000  0.000000  0.000000  1
