# generated using pymatgen
data_Ho20AgIr7Os4
_symmetry_space_group_name_H-M   'P 1'
_cell_length_a   10.85866030
_cell_length_b   10.85866030
_cell_length_c   6.41920116
_cell_angle_alpha   90.01785172
_cell_angle_beta   90.01785172
_cell_angle_gamma   89.57360327
_symmetry_Int_Tables_number   1
_chemical_formula_structural   Ho20AgIr7Os4
_chemical_formula_sum   'Ho20 Ag1 Ir7 Os4'
_cell_volume   756.87020846
_cell_formula_units_Z   1
loop_
 _symmetry_equiv_pos_site_id
 _symmetry_equiv_pos_as_xyz
  1  'x, y, z'
loop_
 _atom_site_type_symbol
 _atom_site_label
 _atom_site_symmetry_multiplicity
 _atom_site_fract_x
 _atom_site_fract_y
 _atom_site_fract_z
 _atom_site_occupancy
  Ho  Ho0  1  0.292080  0.084574  0.376376  1
  Ho  Ho1  1  0.295712  0.913393  0.876806  1
  Ho  Ho2  1  0.701321  0.082077  0.859212  1
  Ho  Ho3  1  0.702498  0.904756  0.380950  1
  Ho  Ho4  1  0.585586  0.792927  0.879026  1
  Ho  Ho5  1  0.574365  0.207624  0.377669  1
  Ho  Ho6  1  0.411797  0.792815  0.377738  1
  Ho  Ho7  1  0.412601  0.205581  0.878950  1
  Ho  Ho8  1  0.207073  0.414414  0.620974  1
  Ho  Ho9  1  0.207185  0.588203  0.122262  1
  Ho  Ho10  1  0.792376  0.425635  0.122331  1
  Ho  Ho11  1  0.794419  0.587399  0.621050  1
  Ho  Ho12  1  0.915426  0.707920  0.123624  1
  Ho  Ho13  1  0.917923  0.298679  0.640788  1
  Ho  Ho14  1  0.086607  0.704288  0.623194  1
  Ho  Ho15  1  0.095244  0.297502  0.119050  1
  Ho  Ho16  1  0.003926  0.994617  0.503631  1
  Ho  Ho17  1  0.005383  0.996074  0.996369  1
  Ho  Ho18  1  0.499014  0.499893  0.998965  1
  Ho  Ho19  1  0.500107  0.500986  0.501035  1
  Ag  Ag20  1  0.842810  0.157190  0.250000  1
  Ir  Ir21  1  0.849448  0.849761  0.750522  1
  Ir  Ir22  1  0.150239  0.150552  0.749478  1
  Ir  Ir23  1  0.153417  0.846583  0.250000  1
  Ir  Ir24  1  0.653192  0.346808  0.750000  1
  Ir  Ir25  1  0.651635  0.651267  0.249666  1
  Ir  Ir26  1  0.348733  0.348365  0.250334  1
  Ir  Ir27  1  0.347965  0.652035  0.750000  1
  Os  Os28  1  0.501032  0.999444  0.125925  1
  Os  Os29  1  0.499170  0.998838  0.621967  1
  Os  Os30  1  0.001162  0.500830  0.878033  1
  Os  Os31  1  0.000556  0.498968  0.374075  1
