# generated using pymatgen
data_La4YbCo2
_symmetry_space_group_name_H-M   'P 1'
_cell_length_a   9.04417993
_cell_length_b   9.04418080
_cell_length_c   7.16019385
_cell_angle_alpha   87.07113916
_cell_angle_beta   87.07113006
_cell_angle_gamma   43.37634453
_symmetry_Int_Tables_number   1
_chemical_formula_structural   La4YbCo2
_chemical_formula_sum   'La8 Yb2 Co4'
_cell_volume   401.63169511
_cell_formula_units_Z   2
loop_
 _symmetry_equiv_pos_site_id
 _symmetry_equiv_pos_as_xyz
  1  'x, y, z'
loop_
 _atom_site_type_symbol
 _atom_site_label
 _atom_site_symmetry_multiplicity
 _atom_site_fract_x
 _atom_site_fract_y
 _atom_site_fract_z
 _atom_site_occupancy
  La  La0  1  0.020790  0.794596  0.896785  1
  La  La1  1  0.205404  0.979210  0.603215  1
  La  La2  1  0.979210  0.205404  0.103215  1
  La  La3  1  0.794596  0.020790  0.396785  1
  La  La4  1  0.359557  0.218255  0.833965  1
  La  La5  1  0.781745  0.640443  0.666035  1
  La  La6  1  0.640443  0.781745  0.166035  1
  La  La7  1  0.218255  0.359557  0.333965  1
  Yb  Yb8  1  0.574415  0.425585  0.750000  1
  Yb  Yb9  1  0.425585  0.574415  0.250000  1
  Co  Co10  1  0.142433  0.616570  0.591102  1
  Co  Co11  1  0.383430  0.857567  0.908898  1
  Co  Co12  1  0.857567  0.383430  0.408898  1
  Co  Co13  1  0.616570  0.142433  0.091102  1
