# generated using pymatgen
data_Ce3(Co3Si)2
_symmetry_space_group_name_H-M   'P 1'
_cell_length_a   7.55736048
_cell_length_b   7.55733841
_cell_length_c   7.55738602
_cell_angle_alpha   109.46238015
_cell_angle_beta   109.47577960
_cell_angle_gamma   109.47550963
_symmetry_Int_Tables_number   1
_chemical_formula_structural   Ce3(Co3Si)2
_chemical_formula_sum   'Ce6 Co12 Si4'
_cell_volume   332.26812278
_cell_formula_units_Z   2
loop_
 _symmetry_equiv_pos_site_id
 _symmetry_equiv_pos_as_xyz
  1  'x, y, z'
loop_
 _atom_site_type_symbol
 _atom_site_label
 _atom_site_symmetry_multiplicity
 _atom_site_fract_x
 _atom_site_fract_y
 _atom_site_fract_z
 _atom_site_occupancy
  Ce  Ce0  1  0.716034  0.716030  0.000001  1
  Ce  Ce1  1  0.283966  0.999996  0.283967  1
  Ce  Ce2  1  0.000000  0.283973  0.283967  1
  Ce  Ce3  1  0.283966  0.283970  0.999999  1
  Ce  Ce4  1  0.716034  0.000004  0.716033  1
  Ce  Ce5  1  0.000000  0.716027  0.716033  1
  Co  Co6  1  0.347644  0.347653  0.695299  1
  Co  Co7  1  0.652356  0.000009  0.347654  1
  Co  Co8  1  0.000000  0.652354  0.347649  1
  Co  Co9  1  0.652354  0.347655  0.000009  1
  Co  Co10  1  0.347646  0.695302  0.347655  1
  Co  Co11  1  0.000000  0.347646  0.652351  1
  Co  Co12  1  0.347646  0.652345  0.999991  1
  Co  Co13  1  0.347644  0.999991  0.652346  1
  Co  Co14  1  0.695297  0.347648  0.347648  1
  Co  Co15  1  0.652356  0.652347  0.304701  1
  Co  Co16  1  0.652354  0.304698  0.652345  1
  Co  Co17  1  0.304703  0.652352  0.652352  1
  Si  Si18  1  0.000000  0.000000  0.500000  1
  Si  Si19  1  0.000000  0.500000  0.000000  1
  Si  Si20  1  0.500000  0.000000  0.000000  1
  Si  Si21  1  0.500000  0.500000  0.500000  1
