# generated using pymatgen
data_Y20IrOs3Pt8
_symmetry_space_group_name_H-M   'P 1'
_cell_length_a   11.06804300
_cell_length_b   11.06804300
_cell_length_c   6.41892200
_cell_angle_alpha   90.00000000
_cell_angle_beta   90.00000000
_cell_angle_gamma   90.00000000
_symmetry_Int_Tables_number   1
_chemical_formula_structural   Y20IrOs3Pt8
_chemical_formula_sum   'Y20 Ir1 Os3 Pt8'
_cell_volume   786.32806026
_cell_formula_units_Z   1
loop_
 _symmetry_equiv_pos_site_id
 _symmetry_equiv_pos_as_xyz
  1  'x, y, z'
loop_
 _atom_site_type_symbol
 _atom_site_label
 _atom_site_symmetry_multiplicity
 _atom_site_fract_x
 _atom_site_fract_y
 _atom_site_fract_z
 _atom_site_occupancy
  Y  Y0  1  0.297169  0.086081  0.372494  1
  Y  Y1  1  0.297372  0.914150  0.872542  1
  Y  Y2  1  0.702628  0.085850  0.872542  1
  Y  Y3  1  0.702831  0.913919  0.372494  1
  Y  Y4  1  0.585850  0.797372  0.872542  1
  Y  Y5  1  0.586081  0.202831  0.372494  1
  Y  Y6  1  0.413919  0.797169  0.372494  1
  Y  Y7  1  0.414150  0.202628  0.872542  1
  Y  Y8  1  0.204423  0.412825  0.629008  1
  Y  Y9  1  0.203765  0.586904  0.125260  1
  Y  Y10  1  0.796235  0.413096  0.125260  1
  Y  Y11  1  0.795577  0.587175  0.629008  1
  Y  Y12  1  0.913096  0.703765  0.125260  1
  Y  Y13  1  0.912825  0.295577  0.629008  1
  Y  Y14  1  0.087175  0.704423  0.629008  1
  Y  Y15  1  0.086904  0.296235  0.125260  1
  Y  Y16  1  0.000000  0.000000  0.499606  1
  Y  Y17  1  0.000000  0.000000  0.999564  1
  Y  Y18  1  0.500000  0.500000  0.999564  1
  Y  Y19  1  0.500000  0.500000  0.499606  1
  Ir  Ir20  1  0.000000  0.500000  0.377347  1
  Os  Os21  1  0.500000  0.000000  0.126054  1
  Os  Os22  1  0.500000  0.000000  0.625723  1
  Os  Os23  1  0.000000  0.500000  0.874609  1
  Pt  Pt24  1  0.847074  0.153910  0.250154  1
  Pt  Pt25  1  0.847035  0.846093  0.750025  1
  Pt  Pt26  1  0.152965  0.153907  0.750025  1
  Pt  Pt27  1  0.152926  0.846090  0.250154  1
  Pt  Pt28  1  0.653907  0.347035  0.750025  1
  Pt  Pt29  1  0.653910  0.652926  0.250154  1
  Pt  Pt30  1  0.346090  0.347074  0.250154  1
  Pt  Pt31  1  0.346093  0.652965  0.750025  1
