# generated using pymatgen
data_Nd5HoAl23VOs8
_symmetry_space_group_name_H-M   'P 1'
_cell_length_a   8.88097100
_cell_length_b   8.90558918
_cell_length_c   9.65518741
_cell_angle_alpha   90.02895329
_cell_angle_beta   90.00000000
_cell_angle_gamma   119.90859431
_symmetry_Int_Tables_number   1
_chemical_formula_structural   Nd5HoAl23VOs8
_chemical_formula_sum   'Nd5 Ho1 Al23 V1 Os8'
_cell_volume   661.93241885
_cell_formula_units_Z   1
loop_
 _symmetry_equiv_pos_site_id
 _symmetry_equiv_pos_as_xyz
  1  'x, y, z'
loop_
 _atom_site_type_symbol
 _atom_site_label
 _atom_site_symmetry_multiplicity
 _atom_site_fract_x
 _atom_site_fract_y
 _atom_site_fract_z
 _atom_site_occupancy
  Nd  Nd0  1  0.808279  0.616558  0.751237  1
  Nd  Nd1  1  0.615948  0.808508  0.247397  1
  Nd  Nd2  1  0.382918  0.190642  0.751326  1
  Nd  Nd3  1  0.192559  0.808508  0.247397  1
  Nd  Nd4  1  0.807725  0.190642  0.751326  1
  Ho  Ho5  1  0.195064  0.390129  0.245815  1
  Al  Al6  1  0.666663  0.333324  0.983402  1
  Al  Al7  1  0.666276  0.332551  0.517611  1
  Al  Al8  1  0.332924  0.665848  0.483648  1
  Al  Al9  1  0.162744  0.325489  0.570929  1
  Al  Al10  1  0.836095  0.672191  0.424795  1
  Al  Al11  1  0.673656  0.836857  0.573023  1
  Al  Al12  1  0.835188  0.670376  0.077984  1
  Al  Al13  1  0.326331  0.164556  0.425011  1
  Al  Al14  1  0.160404  0.320810  0.928984  1
  Al  Al15  1  0.163200  0.836857  0.573023  1
  Al  Al16  1  0.328046  0.165186  0.077543  1
  Al  Al17  1  0.838224  0.164556  0.425011  1
  Al  Al18  1  0.677524  0.838901  0.927289  1
  Al  Al19  1  0.837139  0.165186  0.077543  1
  Al  Al20  1  0.161376  0.838901  0.927289  1
  Al  Al21  1  0.563181  0.126363  0.251836  1
  Al  Al22  1  0.439427  0.878855  0.749954  1
  Al  Al23  1  0.876815  0.437226  0.252444  1
  Al  Al24  1  0.119982  0.559171  0.750231  1
  Al  Al25  1  0.560410  0.437226  0.252444  1
  Al  Al26  1  0.439189  0.559171  0.750231  1
  Al  Al27  1  0.003469  0.006939  0.251025  1
  Al  Al28  1  0.999694  0.999388  0.750447  1
  V  V29  1  0.332656  0.665312  0.981287  1
  Os  Os30  1  0.493955  0.987910  0.005362  1
  Os  Os31  1  0.013144  0.505006  0.006418  1
  Os  Os32  1  0.498532  0.997063  0.500664  1
  Os  Os33  1  0.491862  0.505006  0.006418  1
  Os  Os34  1  0.002772  0.500020  0.501025  1
  Os  Os35  1  0.497248  0.500020  0.501025  1
  Os  Os36  1  0.999570  0.999141  0.002522  1
  Os  Os37  1  0.999806  0.999612  0.499086  1
