# generated using pymatgen
data_Eu2CdAgPd2
_symmetry_space_group_name_H-M   'P 1'
_cell_length_a   4.36040300
_cell_length_b   7.41032900
_cell_length_c   8.78504300
_cell_angle_alpha   90.00000000
_cell_angle_beta   90.00000000
_cell_angle_gamma   90.00000000
_symmetry_Int_Tables_number   1
_chemical_formula_structural   Eu2CdAgPd2
_chemical_formula_sum   'Eu4 Cd2 Ag2 Pd4'
_cell_volume   283.86249217
_cell_formula_units_Z   2
loop_
 _symmetry_equiv_pos_site_id
 _symmetry_equiv_pos_as_xyz
  1  'x, y, z'
loop_
 _atom_site_type_symbol
 _atom_site_label
 _atom_site_symmetry_multiplicity
 _atom_site_fract_x
 _atom_site_fract_y
 _atom_site_fract_z
 _atom_site_occupancy
  Eu  Eu0  1  0.250000  0.535342  0.183621  1
  Eu  Eu1  1  0.750000  0.453166  0.819726  1
  Eu  Eu2  1  0.250000  0.046834  0.319726  1
  Eu  Eu3  1  0.750000  0.964658  0.683621  1
  Cd  Cd4  1  0.250000  0.635147  0.559594  1
  Cd  Cd5  1  0.750000  0.864853  0.059594  1
  Ag  Ag6  1  0.250000  0.135378  0.938820  1
  Ag  Ag7  1  0.750000  0.364622  0.438820  1
  Pd  Pd8  1  0.750000  0.243903  0.128619  1
  Pd  Pd9  1  0.250000  0.256097  0.628619  1
  Pd  Pd10  1  0.750000  0.747142  0.369620  1
  Pd  Pd11  1  0.250000  0.752858  0.869620  1
