# generated using pymatgen
data_Lu3Sc2GaPt3
_symmetry_space_group_name_H-M   'P 1'
_cell_length_a   7.18059889
_cell_length_b   7.18059887
_cell_length_c   4.27865500
_cell_angle_alpha   90.00000000
_cell_angle_beta   90.00000000
_cell_angle_gamma   121.54884330
_symmetry_Int_Tables_number   1
_chemical_formula_structural   Lu3Sc2GaPt3
_chemical_formula_sum   'Lu3 Sc2 Ga1 Pt3'
_cell_volume   188.00409038
_cell_formula_units_Z   1
loop_
 _symmetry_equiv_pos_site_id
 _symmetry_equiv_pos_as_xyz
  1  'x, y, z'
loop_
 _atom_site_type_symbol
 _atom_site_label
 _atom_site_symmetry_multiplicity
 _atom_site_fract_x
 _atom_site_fract_y
 _atom_site_fract_z
 _atom_site_occupancy
  Lu  Lu0  1  0.589396  0.982057  0.500001  1
  Lu  Lu1  1  0.432059  0.432058  0.500001  1
  Lu  Lu2  1  0.982057  0.589395  0.500001  1
  Sc  Sc3  1  0.244760  0.993341  0.000000  1
  Sc  Sc4  1  0.993341  0.244759  0.000000  1
  Ga  Ga5  1  0.753123  0.753123  0.000000  1
  Pt  Pt6  1  0.661345  0.332009  0.000000  1
  Pt  Pt7  1  0.332009  0.661346  0.000000  1
  Pt  Pt8  1  0.011913  0.011913  0.500001  1
