# generated using pymatgen
data_Ca8ErLu(Sn3H)2
_symmetry_space_group_name_H-M   'P 1'
_cell_length_a   9.41604885
_cell_length_b   9.39812447
_cell_length_c   9.41069112
_cell_angle_alpha   129.31641395
_cell_angle_beta   129.27190607
_cell_angle_gamma   74.45716312
_symmetry_Int_Tables_number   1
_chemical_formula_structural   Ca8ErLu(Sn3H)2
_chemical_formula_sum   'Ca8 Er1 Lu1 Sn6 H2'
_cell_volume   486.30223546
_cell_formula_units_Z   1
loop_
 _symmetry_equiv_pos_site_id
 _symmetry_equiv_pos_as_xyz
  1  'x, y, z'
loop_
 _atom_site_type_symbol
 _atom_site_label
 _atom_site_symmetry_multiplicity
 _atom_site_fract_x
 _atom_site_fract_y
 _atom_site_fract_z
 _atom_site_occupancy
  Ca  Ca0  1  0.000937  0.997987  0.000476  1
  Ca  Ca1  1  0.185475  0.685476  0.174135  1
  Ca  Ca2  1  0.007582  0.184998  0.497811  1
  Ca  Ca3  1  0.686377  0.508547  0.499467  1
  Ca  Ca4  1  0.489750  0.989331  0.177295  1
  Ca  Ca5  1  0.812200  0.312573  0.822029  1
  Ca  Ca6  1  0.988531  0.812485  0.499029  1
  Ca  Ca7  1  0.313512  0.489194  0.500159  1
  Er  Er8  1  0.512612  0.015486  0.824728  1
  Lu  Lu9  1  0.497297  0.500782  0.000044  1
  Sn  Sn10  1  0.260553  0.247958  0.994994  1
  Sn  Sn11  1  0.740388  0.751400  0.995225  1
  Sn  Sn12  1  0.861110  0.371152  0.232865  1
  Sn  Sn13  1  0.132649  0.621603  0.756198  1
  Sn  Sn14  1  0.373955  0.134125  0.513747  1
  Sn  Sn15  1  0.623962  0.864113  0.494613  1
  H  H16  1  0.263147  0.763066  0.515103  1
  H  H17  1  0.749964  0.249724  0.502081  1
