# generated using pymatgen
data_Rb6Na4TbNbAs6
_symmetry_space_group_name_H-M   'P 1'
_cell_length_a   11.16338610
_cell_length_b   11.16338650
_cell_length_c   16.03536800
_cell_angle_alpha   90.00000000
_cell_angle_beta   90.00000000
_cell_angle_gamma   143.19022587
_symmetry_Int_Tables_number   1
_chemical_formula_structural   Rb6Na4TbNbAs6
_chemical_formula_sum   'Rb12 Na8 Tb2 Nb2 As12'
_cell_volume   1197.32978316
_cell_formula_units_Z   2
loop_
 _symmetry_equiv_pos_site_id
 _symmetry_equiv_pos_as_xyz
  1  'x, y, z'
loop_
 _atom_site_type_symbol
 _atom_site_label
 _atom_site_symmetry_multiplicity
 _atom_site_fract_x
 _atom_site_fract_y
 _atom_site_fract_z
 _atom_site_occupancy
  Rb  Rb0  1  0.601976  0.943960  0.825141  1
  Rb  Rb1  1  0.276206  0.279226  0.317238  1
  Rb  Rb2  1  0.223794  0.220774  0.817238  1
  Rb  Rb3  1  0.720774  0.723794  0.682762  1
  Rb  Rb4  1  0.443960  0.101976  0.674859  1
  Rb  Rb5  1  0.898024  0.556040  0.325141  1
  Rb  Rb6  1  0.056040  0.398024  0.174859  1
  Rb  Rb7  1  0.392203  0.052581  0.178964  1
  Rb  Rb8  1  0.552581  0.892203  0.321036  1
  Rb  Rb9  1  0.107797  0.447419  0.678964  1
  Rb  Rb10  1  0.947419  0.607797  0.821036  1
  Rb  Rb11  1  0.779226  0.776206  0.182762  1
  Na  Na12  1  0.081647  0.918353  0.000000  1
  Na  Na13  1  0.581560  0.418440  0.500000  1
  Na  Na14  1  0.918440  0.081560  0.000000  1
  Na  Na15  1  0.753181  0.246819  0.000000  1
  Na  Na16  1  0.746819  0.253181  0.500000  1
  Na  Na17  1  0.245553  0.754447  0.000000  1
  Na  Na18  1  0.254447  0.745553  0.500000  1
  Na  Na19  1  0.418353  0.581647  0.500000  1
  Tb  Tb20  1  0.912377  0.087623  0.500000  1
  Tb  Tb21  1  0.587623  0.412377  0.000000  1
  Nb  Nb22  1  0.085671  0.914329  0.500000  1
  Nb  Nb23  1  0.414329  0.585671  0.000000  1
  As  As24  1  0.071307  0.394052  0.397145  1
  As  As25  1  0.894052  0.571307  0.102855  1
  As  As26  1  0.428693  0.105948  0.897145  1
  As  As27  1  0.605948  0.928693  0.602855  1
  As  As28  1  0.945655  0.639697  0.592135  1
  As  As29  1  0.139697  0.445655  0.907865  1
  As  As30  1  0.554345  0.860303  0.092135  1
  As  As31  1  0.360303  0.054345  0.407865  1
  As  As32  1  0.209541  0.190018  0.588586  1
  As  As33  1  0.690018  0.709541  0.911414  1
  As  As34  1  0.290459  0.309982  0.088586  1
  As  As35  1  0.809982  0.790459  0.411414  1
