# generated using pymatgen
data_Lu12Re(Si4Ir)3
_symmetry_space_group_name_H-M   'P 1'
_cell_length_a   4.16798400
_cell_length_b   10.51257050
_cell_length_c   12.05609413
_cell_angle_alpha   90.12421219
_cell_angle_beta   90.00000000
_cell_angle_gamma   90.00000000
_symmetry_Int_Tables_number   1
_chemical_formula_structural   Lu12Re(Si4Ir)3
_chemical_formula_sum   'Lu12 Re1 Si12 Ir3'
_cell_volume   528.25129920
_cell_formula_units_Z   1
loop_
 _symmetry_equiv_pos_site_id
 _symmetry_equiv_pos_as_xyz
  1  'x, y, z'
loop_
 _atom_site_type_symbol
 _atom_site_label
 _atom_site_symmetry_multiplicity
 _atom_site_fract_x
 _atom_site_fract_y
 _atom_site_fract_z
 _atom_site_occupancy
  Lu  Lu0  1  0.250000  0.877833  0.019756  1
  Lu  Lu1  1  0.250000  0.621098  0.520757  1
  Lu  Lu2  1  0.750000  0.119750  0.980964  1
  Lu  Lu3  1  0.750000  0.378414  0.481055  1
  Lu  Lu4  1  0.250000  0.921088  0.602095  1
  Lu  Lu5  1  0.250000  0.580147  0.104352  1
  Lu  Lu6  1  0.750000  0.079084  0.395675  1
  Lu  Lu7  1  0.750000  0.420354  0.895360  1
  Lu  Lu8  1  0.250000  0.663173  0.798698  1
  Lu  Lu9  1  0.250000  0.841207  0.299766  1
  Lu  Lu10  1  0.750000  0.341157  0.199765  1
  Lu  Lu11  1  0.750000  0.157720  0.700526  1
  Re  Re12  1  0.250000  0.391684  0.678412  1
  Si  Si13  1  0.250000  0.011655  0.821835  1
  Si  Si14  1  0.250000  0.486826  0.322257  1
  Si  Si15  1  0.750000  0.987061  0.178454  1
  Si  Si16  1  0.750000  0.513984  0.679054  1
  Si  Si17  1  0.250000  0.247833  0.841974  1
  Si  Si18  1  0.250000  0.250710  0.340941  1
  Si  Si19  1  0.750000  0.751701  0.158976  1
  Si  Si20  1  0.750000  0.751333  0.657983  1
  Si  Si21  1  0.250000  0.197972  0.544013  1
  Si  Si22  1  0.250000  0.300755  0.044337  1
  Si  Si23  1  0.750000  0.802298  0.455335  1
  Si  Si24  1  0.750000  0.696414  0.955946  1
  Ir  Ir25  1  0.250000  0.109060  0.177943  1
  Ir  Ir26  1  0.750000  0.609891  0.321220  1
  Ir  Ir27  1  0.750000  0.889795  0.822555  1
