# generated using pymatgen
data_Pr7Dy13Sb16
_symmetry_space_group_name_H-M   'P 1'
_cell_length_a   8.25006316
_cell_length_b   8.24267431
_cell_length_c   15.47841000
_cell_angle_alpha   90.03225318
_cell_angle_beta   89.71626537
_cell_angle_gamma   89.99868610
_symmetry_Int_Tables_number   1
_chemical_formula_structural   Pr7Dy13Sb16
_chemical_formula_sum   'Pr7 Dy13 Sb16'
_cell_volume   1052.55879739
_cell_formula_units_Z   1
loop_
 _symmetry_equiv_pos_site_id
 _symmetry_equiv_pos_as_xyz
  1  'x, y, z'
loop_
 _atom_site_type_symbol
 _atom_site_label
 _atom_site_symmetry_multiplicity
 _atom_site_fract_x
 _atom_site_fract_y
 _atom_site_fract_z
 _atom_site_occupancy
  Pr  Pr0  1  0.521698  0.321468  0.404012  1
  Pr  Pr1  1  0.474188  0.676230  0.904171  1
  Pr  Pr2  1  0.978735  0.822446  0.594674  1
  Pr  Pr3  1  0.977871  0.822971  0.904884  1
  Pr  Pr4  1  0.479012  0.677359  0.594807  1
  Pr  Pr5  1  0.521529  0.323968  0.095222  1
  Pr  Pr6  1  0.020265  0.177864  0.404813  1
  Dy  Dy7  1  0.850568  0.650703  0.122285  1
  Dy  Dy8  1  0.349561  0.851223  0.376623  1
  Dy  Dy9  1  0.646439  0.149870  0.877374  1
  Dy  Dy10  1  0.147934  0.350582  0.623192  1
  Dy  Dy11  1  0.144662  0.349965  0.877685  1
  Dy  Dy12  1  0.647793  0.149575  0.623373  1
  Dy  Dy13  1  0.355401  0.848734  0.123004  1
  Dy  Dy14  1  0.853017  0.648486  0.375441  1
  Dy  Dy15  1  0.029692  0.174451  0.098583  1
  Dy  Dy16  1  0.690826  0.001565  0.250298  1
  Dy  Dy17  1  0.191410  0.498463  0.249814  1
  Dy  Dy18  1  0.808515  0.501451  0.749849  1
  Dy  Dy19  1  0.308132  0.998679  0.750945  1
  Sb  Sb20  1  0.050899  0.865521  0.248395  1
  Sb  Sb21  1  0.550943  0.635275  0.250233  1
  Sb  Sb22  1  0.448329  0.364197  0.750695  1
  Sb  Sb23  1  0.948773  0.135814  0.750171  1
  Sb  Sb24  1  0.841762  0.345220  0.245947  1
  Sb  Sb25  1  0.335964  0.151256  0.249374  1
  Sb  Sb26  1  0.662162  0.848380  0.750358  1
  Sb  Sb27  1  0.161912  0.651593  0.749928  1
  Sb  Sb28  1  0.794013  0.460578  0.952582  1
  Sb  Sb29  1  0.296960  0.041723  0.547203  1
  Sb  Sb30  1  0.713166  0.967744  0.048453  1
  Sb  Sb31  1  0.203896  0.541305  0.452913  1
  Sb  Sb32  1  0.200482  0.538221  0.047817  1
  Sb  Sb33  1  0.702403  0.956710  0.452944  1
  Sb  Sb34  1  0.293766  0.043172  0.955981  1
  Sb  Sb35  1  0.797321  0.457237  0.545960  1
