# generated using pymatgen
data_Tb6TmCo4Sn23Ir2
_symmetry_space_group_name_H-M   'P 1'
_cell_length_a   9.76746228
_cell_length_b   9.76746129
_cell_length_c   10.04101899
_cell_angle_alpha   90.18523638
_cell_angle_beta   89.81476491
_cell_angle_gamma   120.05564239
_symmetry_Int_Tables_number   1
_chemical_formula_structural   Tb6TmCo4Sn23Ir2
_chemical_formula_sum   'Tb6 Tm1 Co4 Sn23 Ir2'
_cell_volume   829.13464002
_cell_formula_units_Z   1
loop_
 _symmetry_equiv_pos_site_id
 _symmetry_equiv_pos_as_xyz
  1  'x, y, z'
loop_
 _atom_site_type_symbol
 _atom_site_label
 _atom_site_symmetry_multiplicity
 _atom_site_fract_x
 _atom_site_fract_y
 _atom_site_fract_z
 _atom_site_occupancy
  Tb  Tb0  1  0.999974  0.000026  0.000104  1
  Tb  Tb1  1  0.521456  0.478544  0.693314  1
  Tb  Tb2  1  0.478846  0.957000  0.306080  1
  Tb  Tb3  1  0.521089  0.042986  0.693895  1
  Tb  Tb4  1  0.043000  0.521154  0.306080  1
  Tb  Tb5  1  0.957014  0.478911  0.693895  1
  Tm  Tm6  1  0.479121  0.520879  0.306259  1
  Co  Co7  1  0.830271  0.663823  0.197652  1
  Co  Co8  1  0.168853  0.335794  0.802562  1
  Co  Co9  1  0.336177  0.169729  0.197652  1
  Co  Co10  1  0.664206  0.831147  0.802562  1
  Sn  Sn11  1  0.351003  0.004636  0.005935  1
  Sn  Sn12  1  0.649032  0.995470  0.994250  1
  Sn  Sn13  1  0.004530  0.350968  0.994250  1
  Sn  Sn14  1  0.995364  0.648997  0.005935  1
  Sn  Sn15  1  0.653960  0.653973  0.000247  1
  Sn  Sn16  1  0.346027  0.346040  0.000247  1
  Sn  Sn17  1  0.335810  0.664190  0.819459  1
  Sn  Sn18  1  0.664012  0.335988  0.180711  1
  Sn  Sn19  1  0.999910  0.000090  0.499920  1
  Sn  Sn20  1  0.779412  0.220588  0.456752  1
  Sn  Sn21  1  0.220566  0.779434  0.543195  1
  Sn  Sn22  1  0.779957  0.561744  0.450277  1
  Sn  Sn23  1  0.219440  0.438288  0.548598  1
  Sn  Sn24  1  0.438256  0.220043  0.450277  1
  Sn  Sn25  1  0.561712  0.780560  0.548598  1
  Sn  Sn26  1  0.334501  0.665499  0.117514  1
  Sn  Sn27  1  0.666199  0.333801  0.883330  1
  Sn  Sn28  1  0.117079  0.882921  0.273961  1
  Sn  Sn29  1  0.882948  0.117052  0.725989  1
  Sn  Sn30  1  0.125103  0.237854  0.278749  1
  Sn  Sn31  1  0.875843  0.762942  0.721416  1
  Sn  Sn32  1  0.762146  0.874897  0.278749  1
  Sn  Sn33  1  0.237058  0.124157  0.721416  1
  Ir  Ir34  1  0.832200  0.167800  0.196755  1
  Ir  Ir35  1  0.167926  0.832074  0.803416  1
