# generated using pymatgen
data_ZrNb3(AsC)2
_symmetry_space_group_name_H-M   'P 1'
_cell_length_a   3.36500000
_cell_length_b   3.36500058
_cell_length_c   12.21446300
_cell_angle_alpha   90.00000000
_cell_angle_beta   90.00000000
_cell_angle_gamma   120.00003361
_symmetry_Int_Tables_number   1
_chemical_formula_structural   ZrNb3(AsC)2
_chemical_formula_sum   'Zr1 Nb3 As2 C2'
_cell_volume   119.77745333
_cell_formula_units_Z   1
loop_
 _symmetry_equiv_pos_site_id
 _symmetry_equiv_pos_as_xyz
  1  'x, y, z'
loop_
 _atom_site_type_symbol
 _atom_site_label
 _atom_site_symmetry_multiplicity
 _atom_site_fract_x
 _atom_site_fract_y
 _atom_site_fract_z
 _atom_site_occupancy
  Zr  Zr0  1  0.333333  0.666667  0.403994  1
  Nb  Nb1  1  0.666667  0.333333  0.905205  1
  Nb  Nb2  1  0.666667  0.333333  0.600657  1
  Nb  Nb3  1  0.333333  0.666667  0.091531  1
  As  As4  1  0.666667  0.333333  0.240506  1
  As  As5  1  0.333333  0.666667  0.752763  1
  C  C6  1  0.000000  0.000000  0.507173  1
  C  C7  1  0.000000  0.000000  0.998172  1
