# generated using pymatgen
data_Zr3AlP2Ir3
_symmetry_space_group_name_H-M   'P 1'
_cell_length_a   6.44389200
_cell_length_b   6.44389408
_cell_length_c   4.03042300
_cell_angle_alpha   90.00000000
_cell_angle_beta   90.00000000
_cell_angle_gamma   119.99999957
_symmetry_Int_Tables_number   1
_chemical_formula_structural   Zr3AlP2Ir3
_chemical_formula_sum   'Zr3 Al1 P2 Ir3'
_cell_volume   144.93654638
_cell_formula_units_Z   1
loop_
 _symmetry_equiv_pos_site_id
 _symmetry_equiv_pos_as_xyz
  1  'x, y, z'
loop_
 _atom_site_type_symbol
 _atom_site_label
 _atom_site_symmetry_multiplicity
 _atom_site_fract_x
 _atom_site_fract_y
 _atom_site_fract_z
 _atom_site_occupancy
  Zr  Zr0  1  0.000000  0.430459  0.500000  1
  Zr  Zr1  1  0.569541  0.569541  0.500000  1
  Zr  Zr2  1  0.430459  0.000000  0.500000  1
  Al  Al3  1  0.000000  0.000000  0.500000  1
  P  P4  1  0.666667  0.333333  0.000000  1
  P  P5  1  0.333333  0.666667  0.000000  1
  Ir  Ir6  1  0.000000  0.747005  0.000000  1
  Ir  Ir7  1  0.252995  0.252995  0.000000  1
  Ir  Ir8  1  0.747005  0.000000  0.000000  1
