# generated using pymatgen
data_Nd10Ir4OsRh
_symmetry_space_group_name_H-M   'P 1'
_cell_length_a   11.23882100
_cell_length_b   11.23882100
_cell_length_c   6.60961900
_cell_angle_alpha   90.00000000
_cell_angle_beta   90.00000000
_cell_angle_gamma   90.00000000
_symmetry_Int_Tables_number   1
_chemical_formula_structural   Nd10Ir4OsRh
_chemical_formula_sum   'Nd20 Ir8 Os2 Rh2'
_cell_volume   834.86822975
_cell_formula_units_Z   2
loop_
 _symmetry_equiv_pos_site_id
 _symmetry_equiv_pos_as_xyz
  1  'x, y, z'
loop_
 _atom_site_type_symbol
 _atom_site_label
 _atom_site_symmetry_multiplicity
 _atom_site_fract_x
 _atom_site_fract_y
 _atom_site_fract_z
 _atom_site_occupancy
  Nd  Nd0  1  0.089673  0.292597  0.112994  1
  Nd  Nd1  1  0.792597  0.410327  0.112994  1
  Nd  Nd2  1  0.207403  0.589673  0.112994  1
  Nd  Nd3  1  0.910327  0.707403  0.112994  1
  Nd  Nd4  1  0.410327  0.792597  0.387006  1
  Nd  Nd5  1  0.589673  0.207403  0.387006  1
  Nd  Nd6  1  0.292597  0.089673  0.387006  1
  Nd  Nd7  1  0.707403  0.910327  0.387006  1
  Nd  Nd8  1  0.410838  0.207660  0.881741  1
  Nd  Nd9  1  0.707660  0.089162  0.881741  1
  Nd  Nd10  1  0.292340  0.910838  0.881741  1
  Nd  Nd11  1  0.589162  0.792340  0.881741  1
  Nd  Nd12  1  0.089162  0.707660  0.618259  1
  Nd  Nd13  1  0.910838  0.292340  0.618259  1
  Nd  Nd14  1  0.207660  0.410838  0.618259  1
  Nd  Nd15  1  0.792340  0.589162  0.618259  1
  Nd  Nd16  1  0.000000  0.000000  0.000441  1
  Nd  Nd17  1  0.500000  0.500000  0.000441  1
  Nd  Nd18  1  0.500000  0.500000  0.499559  1
  Nd  Nd19  1  0.000000  0.000000  0.499559  1
  Ir  Ir20  1  0.153395  0.846605  0.250000  1
  Ir  Ir21  1  0.346605  0.346605  0.250000  1
  Ir  Ir22  1  0.653395  0.653395  0.250000  1
  Ir  Ir23  1  0.846605  0.153395  0.250000  1
  Ir  Ir24  1  0.346534  0.653466  0.750000  1
  Ir  Ir25  1  0.153466  0.153466  0.750000  1
  Ir  Ir26  1  0.846534  0.846534  0.750000  1
  Ir  Ir27  1  0.653466  0.346534  0.750000  1
  Os  Os28  1  0.500000  0.000000  0.623072  1
  Os  Os29  1  0.000000  0.500000  0.876928  1
  Rh  Rh30  1  0.000000  0.500000  0.380057  1
  Rh  Rh31  1  0.500000  0.000000  0.119943  1
