# generated using pymatgen
data_Ca2Co4B4Rh
_symmetry_space_group_name_H-M   'P 1'
_cell_length_a   7.20722017
_cell_length_b   5.88577944
_cell_length_c   5.52802866
_cell_angle_alpha   78.24478735
_cell_angle_beta   53.08455167
_cell_angle_gamma   48.67065573
_symmetry_Int_Tables_number   1
_chemical_formula_structural   Ca2Co4B4Rh
_chemical_formula_sum   'Ca2 Co4 B4 Rh1'
_cell_volume   133.32297802
_cell_formula_units_Z   1
loop_
 _symmetry_equiv_pos_site_id
 _symmetry_equiv_pos_as_xyz
  1  'x, y, z'
loop_
 _atom_site_type_symbol
 _atom_site_label
 _atom_site_symmetry_multiplicity
 _atom_site_fract_x
 _atom_site_fract_y
 _atom_site_fract_z
 _atom_site_occupancy
  Ca  Ca0  1  0.851976  0.851976  0.148024  1
  Ca  Ca1  1  0.148024  0.148024  0.851976  1
  Co  Co2  1  0.500000  0.500000  0.000000  1
  Co  Co3  1  0.750000  0.750000  0.750000  1
  Co  Co4  1  0.250000  0.250000  0.250000  1
  Co  Co5  1  0.000000  0.000000  0.500000  1
  B  B6  1  0.199624  0.540842  0.459158  1
  B  B7  1  0.800376  0.459158  0.540842  1
  B  B8  1  0.540842  0.199624  0.800376  1
  B  B9  1  0.459158  0.800376  0.199624  1
  Rh  Rh10  1  0.500000  0.500000  0.500000  1
