# generated using pymatgen
data_CaPr7(ScSn3)2
_symmetry_space_group_name_H-M   'P 1'
_cell_length_a   9.25343057
_cell_length_b   9.25344331
_cell_length_c   9.28969972
_cell_angle_alpha   96.53470063
_cell_angle_beta   96.20128647
_cell_angle_gamma   141.01380466
_symmetry_Int_Tables_number   1
_chemical_formula_structural   CaPr7(ScSn3)2
_chemical_formula_sum   'Ca1 Pr7 Sc2 Sn6'
_cell_volume   471.98330304
_cell_formula_units_Z   1
loop_
 _symmetry_equiv_pos_site_id
 _symmetry_equiv_pos_as_xyz
  1  'x, y, z'
loop_
 _atom_site_type_symbol
 _atom_site_label
 _atom_site_symmetry_multiplicity
 _atom_site_fract_x
 _atom_site_fract_y
 _atom_site_fract_z
 _atom_site_occupancy
  Ca  Ca0  1  0.283163  0.415935  0.699105  1
  Pr  Pr1  1  0.088935  0.221308  0.310240  1
  Pr  Pr2  1  0.909740  0.777428  0.687166  1
  Pr  Pr3  1  0.777109  0.086357  0.863478  1
  Pr  Pr4  1  0.412877  0.722969  0.135858  1
  Pr  Pr5  1  0.220900  0.911997  0.132891  1
  Pr  Pr6  1  0.589204  0.278383  0.867589  1
  Pr  Pr7  1  0.720836  0.586202  0.307051  1
  Sc  Sc8  1  0.250613  0.751394  0.499965  1
  Sc  Sc9  1  0.748585  0.249357  0.499965  1
  Sn  Sn10  1  0.149101  0.650187  0.799284  1
  Sn  Sn11  1  0.851451  0.349042  0.200496  1
  Sn  Sn12  1  0.348982  0.150631  0.499611  1
  Sn  Sn13  1  0.648763  0.848378  0.497133  1
  Sn  Sn14  1  0.247761  0.248106  0.000083  1
  Sn  Sn15  1  0.751979  0.752325  0.000085  1
