# generated using pymatgen
data_YbEu4CdIr2
_symmetry_space_group_name_H-M   'P 1'
_cell_length_a   9.27807376
_cell_length_b   9.27807354
_cell_length_c   9.27807357
_cell_angle_alpha   128.74694656
_cell_angle_beta   128.74694771
_cell_angle_gamma   75.41808556
_symmetry_Int_Tables_number   1
_chemical_formula_structural   YbEu4CdIr2
_chemical_formula_sum   'Yb2 Eu8 Cd2 Ir4'
_cell_volume   472.77918761
_cell_formula_units_Z   2
loop_
 _symmetry_equiv_pos_site_id
 _symmetry_equiv_pos_as_xyz
  1  'x, y, z'
loop_
 _atom_site_type_symbol
 _atom_site_label
 _atom_site_symmetry_multiplicity
 _atom_site_fract_x
 _atom_site_fract_y
 _atom_site_fract_z
 _atom_site_occupancy
  Yb  Yb0  1  0.500000  0.500000  0.000000  1
  Yb  Yb1  1  0.000000  0.000000  0.000000  1
  Eu  Eu2  1  0.536968  0.036968  0.824684  1
  Eu  Eu3  1  0.212285  0.712285  0.175316  1
  Eu  Eu4  1  0.036968  0.212285  0.500000  1
  Eu  Eu5  1  0.712285  0.536968  0.500000  1
  Eu  Eu6  1  0.463032  0.963032  0.175316  1
  Eu  Eu7  1  0.787715  0.287715  0.824684  1
  Eu  Eu8  1  0.963032  0.787715  0.500000  1
  Eu  Eu9  1  0.287715  0.463032  0.500000  1
  Cd  Cd10  1  0.250000  0.250000  0.000000  1
  Cd  Cd11  1  0.750000  0.750000  0.000000  1
  Ir  Ir12  1  0.136905  0.636905  0.773809  1
  Ir  Ir13  1  0.863095  0.363095  0.226191  1
  Ir  Ir14  1  0.636905  0.863095  0.500000  1
  Ir  Ir15  1  0.363095  0.136905  0.500000  1
