# generated using pymatgen
data_Hf6BeBi2
_symmetry_space_group_name_H-M   'P 1'
_cell_length_a   3.78963300
_cell_length_b   7.68743425
_cell_length_c   7.68743500
_cell_angle_alpha   119.99999032
_cell_angle_beta   90.00000000
_cell_angle_gamma   90.00000000
_symmetry_Int_Tables_number   1
_chemical_formula_structural   Hf6BeBi2
_chemical_formula_sum   'Hf6 Be1 Bi2'
_cell_volume   193.95040849
_cell_formula_units_Z   1
loop_
 _symmetry_equiv_pos_site_id
 _symmetry_equiv_pos_as_xyz
  1  'x, y, z'
loop_
 _atom_site_type_symbol
 _atom_site_label
 _atom_site_symmetry_multiplicity
 _atom_site_fract_x
 _atom_site_fract_y
 _atom_site_fract_z
 _atom_site_occupancy
  Hf  Hf0  1  0.500000  0.771646  0.771646  1
  Hf  Hf1  1  0.500000  0.000000  0.228354  1
  Hf  Hf2  1  0.500000  0.228354  0.000000  1
  Hf  Hf3  1  0.000000  0.383298  0.383298  1
  Hf  Hf4  1  0.000000  0.000000  0.616702  1
  Hf  Hf5  1  0.000000  0.616702  0.000000  1
  Be  Be6  1  0.000000  0.000000  0.000000  1
  Bi  Bi7  1  0.500000  0.666667  0.333333  1
  Bi  Bi8  1  0.500000  0.333333  0.666667  1
