# generated using pymatgen
data_Dy5YAl15Si9Os8
_symmetry_space_group_name_H-M   'P 1'
_cell_length_a   8.71247700
_cell_length_b   8.70262115
_cell_length_c   9.37823400
_cell_angle_alpha   90.00000000
_cell_angle_beta   90.00000000
_cell_angle_gamma   120.03746656
_symmetry_Int_Tables_number   1
_chemical_formula_structural   Dy5YAl15Si9Os8
_chemical_formula_sum   'Dy5 Y1 Al15 Si9 Os8'
_cell_volume   615.57267383
_cell_formula_units_Z   1
loop_
 _symmetry_equiv_pos_site_id
 _symmetry_equiv_pos_as_xyz
  1  'x, y, z'
loop_
 _atom_site_type_symbol
 _atom_site_label
 _atom_site_symmetry_multiplicity
 _atom_site_fract_x
 _atom_site_fract_y
 _atom_site_fract_z
 _atom_site_occupancy
  Dy  Dy0  1  0.806813  0.613625  0.750000  1
  Dy  Dy1  1  0.612628  0.808784  0.250000  1
  Dy  Dy2  1  0.387203  0.192668  0.750000  1
  Dy  Dy3  1  0.196156  0.808784  0.250000  1
  Dy  Dy4  1  0.805467  0.192668  0.750000  1
  Y  Y5  1  0.192837  0.385676  0.250000  1
  Al  Al6  1  0.165873  0.331748  0.580265  1
  Al  Al7  1  0.835594  0.671187  0.421531  1
  Al  Al8  1  0.667520  0.834014  0.579102  1
  Al  Al9  1  0.835594  0.671187  0.078469  1
  Al  Al10  1  0.328536  0.165078  0.422314  1
  Al  Al11  1  0.165873  0.331748  0.919735  1
  Al  Al12  1  0.166493  0.834014  0.579102  1
  Al  Al13  1  0.328536  0.165078  0.077686  1
  Al  Al14  1  0.836542  0.165078  0.422314  1
  Al  Al15  1  0.667520  0.834014  0.920898  1
  Al  Al16  1  0.836542  0.165078  0.077686  1
  Al  Al17  1  0.166493  0.834014  0.920898  1
  Al  Al18  1  0.873323  0.434333  0.250000  1
  Al  Al19  1  0.561009  0.434333  0.250000  1
  Al  Al20  1  0.999525  0.999052  0.250000  1
  Si  Si21  1  0.332695  0.665392  0.041320  1
  Si  Si22  1  0.667479  0.334956  0.960699  1
  Si  Si23  1  0.667479  0.334956  0.539301  1
  Si  Si24  1  0.332695  0.665392  0.458680  1
  Si  Si25  1  0.563477  0.126954  0.250000  1
  Si  Si26  1  0.437986  0.875971  0.750000  1
  Si  Si27  1  0.124828  0.561893  0.750000  1
  Si  Si28  1  0.437064  0.561893  0.750000  1
  Si  Si29  1  0.000517  0.001035  0.750000  1
  Os  Os30  1  0.499187  0.998373  0.998677  1
  Os  Os31  1  0.002138  0.500770  0.993183  1
  Os  Os32  1  0.499187  0.998373  0.501323  1
  Os  Os33  1  0.498633  0.500770  0.993183  1
  Os  Os34  1  0.002138  0.500770  0.506817  1
  Os  Os35  1  0.498633  0.500770  0.506817  1
  Os  Os36  1  0.999894  0.999787  0.992478  1
  Os  Os37  1  0.999894  0.999787  0.507522  1
