# generated using pymatgen
data_Hf2Sc4Al8Si8Rh7
_symmetry_space_group_name_H-M   'P 1'
_cell_length_a   8.59922312
_cell_length_b   8.59051685
_cell_length_c   8.59051623
_cell_angle_alpha   60.15628409
_cell_angle_beta   59.96647454
_cell_angle_gamma   59.96646637
_symmetry_Int_Tables_number   1
_chemical_formula_structural   Hf2Sc4Al8Si8Rh7
_chemical_formula_sum   'Hf2 Sc4 Al8 Si8 Rh7'
_cell_volume   449.02683497
_cell_formula_units_Z   1
loop_
 _symmetry_equiv_pos_site_id
 _symmetry_equiv_pos_as_xyz
  1  'x, y, z'
loop_
 _atom_site_type_symbol
 _atom_site_label
 _atom_site_symmetry_multiplicity
 _atom_site_fract_x
 _atom_site_fract_y
 _atom_site_fract_z
 _atom_site_occupancy
  Hf  Hf0  1  0.692483  0.307686  0.692313  1
  Hf  Hf1  1  0.692483  0.692313  0.307686  1
  Sc  Sc2  1  0.690574  0.308656  0.308656  1
  Sc  Sc3  1  0.307887  0.691343  0.691343  1
  Sc  Sc4  1  0.305144  0.693501  0.306498  1
  Sc  Sc5  1  0.305144  0.306498  0.693501  1
  Al  Al6  1  0.122998  0.121668  0.121668  1
  Al  Al7  1  0.121620  0.122926  0.634169  1
  Al  Al8  1  0.633433  0.121873  0.121873  1
  Al  Al9  1  0.121620  0.634169  0.122926  1
  Al  Al10  1  0.877179  0.878126  0.878126  1
  Al  Al11  1  0.878714  0.877073  0.365834  1
  Al  Al12  1  0.878714  0.365834  0.877073  1
  Al  Al13  1  0.366336  0.878331  0.878331  1
  Si  Si14  1  0.346474  0.346317  0.346317  1
  Si  Si15  1  0.346705  0.346380  0.960432  1
  Si  Si16  1  0.962879  0.345614  0.345614  1
  Si  Si17  1  0.346705  0.960432  0.346380  1
  Si  Si18  1  0.654108  0.654386  0.654386  1
  Si  Si19  1  0.653519  0.653620  0.039568  1
  Si  Si20  1  0.653519  0.039568  0.653620  1
  Si  Si21  1  0.039110  0.653683  0.653683  1
  Rh  Rh22  1  0.999027  0.000000  0.000000  1
  Rh  Rh23  1  0.501964  0.000000  0.000000  1
  Rh  Rh24  1  0.997600  0.500000  0.500000  1
  Rh  Rh25  1  0.999928  0.500057  0.002115  1
  Rh  Rh26  1  0.999928  0.002115  0.500057  1
  Rh  Rh27  1  0.502100  0.997885  0.499943  1
  Rh  Rh28  1  0.502100  0.499943  0.997885  1
