# generated using pymatgen
data_DyHo15(In3Ir)2
_symmetry_space_group_name_H-M   'P 1'
_cell_length_a   10.38866200
_cell_length_b   10.38992713
_cell_length_c   7.04431101
_cell_angle_alpha   90.00622286
_cell_angle_beta   90.00000000
_cell_angle_gamma   119.99597213
_symmetry_Int_Tables_number   1
_chemical_formula_structural   DyHo15(In3Ir)2
_chemical_formula_sum   'Dy1 Ho15 In6 Ir2'
_cell_volume   658.50472287
_cell_formula_units_Z   1
loop_
 _symmetry_equiv_pos_site_id
 _symmetry_equiv_pos_as_xyz
  1  'x, y, z'
loop_
 _atom_site_type_symbol
 _atom_site_label
 _atom_site_symmetry_multiplicity
 _atom_site_fract_x
 _atom_site_fract_y
 _atom_site_fract_z
 _atom_site_occupancy
  Dy  Dy0  1  0.533486  0.066972  0.506383  1
  Ho  Ho1  1  0.932735  0.466388  0.506572  1
  Ho  Ho2  1  0.533653  0.466388  0.506572  1
  Ho  Ho3  1  0.466219  0.932438  0.006479  1
  Ho  Ho4  1  0.067357  0.533673  0.006575  1
  Ho  Ho5  1  0.466316  0.533673  0.006575  1
  Ho  Ho6  1  0.176588  0.353176  0.712818  1
  Ho  Ho7  1  0.646977  0.823292  0.712998  1
  Ho  Ho8  1  0.176315  0.823292  0.712998  1
  Ho  Ho9  1  0.823452  0.646904  0.212763  1
  Ho  Ho10  1  0.353084  0.176670  0.212611  1
  Ho  Ho11  1  0.823585  0.176670  0.212611  1
  Ho  Ho12  1  0.666781  0.333562  0.887999  1
  Ho  Ho13  1  0.333225  0.666449  0.387926  1
  Ho  Ho14  1  0.999994  0.999988  0.492875  1
  Ho  Ho15  1  0.000033  0.000065  0.992958  1
  In  In16  1  0.837193  0.674387  0.752343  1
  In  In17  1  0.325349  0.162776  0.752297  1
  In  In18  1  0.837426  0.162776  0.752297  1
  In  In19  1  0.162778  0.325557  0.252355  1
  In  In20  1  0.674412  0.837224  0.252421  1
  In  In21  1  0.162812  0.837224  0.252421  1
  Ir  Ir22  1  0.666903  0.333805  0.283016  1
  Ir  Ir23  1  0.333326  0.666652  0.783181  1
