# generated using pymatgen
data_La4Al18Os2Pt3Rh
_symmetry_space_group_name_H-M   'P 1'
_cell_length_a   7.69916598
_cell_length_b   7.69916700
_cell_length_c   9.66061057
_cell_angle_alpha   89.97999466
_cell_angle_beta   89.97999426
_cell_angle_gamma   119.18834389
_symmetry_Int_Tables_number   1
_chemical_formula_structural   La4Al18Os2Pt3Rh
_chemical_formula_sum   'La4 Al18 Os2 Pt3 Rh1'
_cell_volume   499.93867871
_cell_formula_units_Z   1
loop_
 _symmetry_equiv_pos_site_id
 _symmetry_equiv_pos_as_xyz
  1  'x, y, z'
loop_
 _atom_site_type_symbol
 _atom_site_label
 _atom_site_symmetry_multiplicity
 _atom_site_fract_x
 _atom_site_fract_y
 _atom_site_fract_z
 _atom_site_occupancy
  La  La0  1  0.994391  0.675429  0.249994  1
  La  La1  1  0.007070  0.325859  0.750304  1
  La  La2  1  0.674141  0.992930  0.249696  1
  La  La3  1  0.324571  0.005609  0.750006  1
  Al  Al4  1  0.132435  0.133448  0.250408  1
  Al  Al5  1  0.866552  0.867565  0.749592  1
  Al  Al6  1  0.002686  0.332060  0.075513  1
  Al  Al7  1  0.995833  0.667824  0.924169  1
  Al  Al8  1  0.993933  0.664555  0.574622  1
  Al  Al9  1  0.335445  0.006067  0.425378  1
  Al  Al10  1  0.999314  0.331730  0.425776  1
  Al  Al11  1  0.668270  0.000686  0.574224  1
  Al  Al12  1  0.667940  0.997314  0.924487  1
  Al  Al13  1  0.332176  0.004167  0.075831  1
  Al  Al14  1  0.332463  0.329551  0.541087  1
  Al  Al15  1  0.670449  0.667537  0.458913  1
  Al  Al16  1  0.669855  0.669695  0.043435  1
  Al  Al17  1  0.330305  0.330145  0.956565  1
  Al  Al18  1  0.343326  0.544541  0.250232  1
  Al  Al19  1  0.656193  0.451664  0.746728  1
  Al  Al20  1  0.548336  0.343807  0.253272  1
  Al  Al21  1  0.455459  0.656674  0.749768  1
  Os  Os22  1  0.999866  0.000134  0.000000  1
  Os  Os23  1  0.999872  0.000128  0.500000  1
  Pt  Pt24  1  0.670755  0.329245  0.000000  1
  Pt  Pt25  1  0.328837  0.671163  0.000000  1
  Pt  Pt26  1  0.329081  0.670919  0.500000  1
  Rh  Rh27  1  0.670447  0.329553  0.500000  1
