# generated using pymatgen
data_PaV5P3
_symmetry_space_group_name_H-M   'P 1'
_cell_length_a   3.38190700
_cell_length_b   7.54328175
_cell_length_c   10.24433969
_cell_angle_alpha   79.48215474
_cell_angle_beta   90.00000000
_cell_angle_gamma   90.00000000
_symmetry_Int_Tables_number   1
_chemical_formula_structural   PaV5P3
_chemical_formula_sum   'Pa2 V10 P6'
_cell_volume   256.94903574
_cell_formula_units_Z   2
loop_
 _symmetry_equiv_pos_site_id
 _symmetry_equiv_pos_as_xyz
  1  'x, y, z'
loop_
 _atom_site_type_symbol
 _atom_site_label
 _atom_site_symmetry_multiplicity
 _atom_site_fract_x
 _atom_site_fract_y
 _atom_site_fract_z
 _atom_site_occupancy
  Pa  Pa0  1  0.250000  0.807372  0.778528  1
  Pa  Pa1  1  0.750000  0.192628  0.221472  1
  V  V2  1  0.250000  0.530611  0.090121  1
  V  V3  1  0.750000  0.469389  0.909879  1
  V  V4  1  0.250000  0.924628  0.092501  1
  V  V5  1  0.750000  0.075372  0.907499  1
  V  V6  1  0.250000  0.622004  0.501107  1
  V  V7  1  0.750000  0.377996  0.498893  1
  V  V8  1  0.250000  0.129243  0.487650  1
  V  V9  1  0.750000  0.870757  0.512350  1
  V  V10  1  0.250000  0.315955  0.730398  1
  V  V11  1  0.750000  0.684045  0.269602  1
  P  P12  1  0.250000  0.251904  0.987239  1
  P  P13  1  0.750000  0.748096  0.012761  1
  P  P14  1  0.250000  0.435112  0.329086  1
  P  P15  1  0.750000  0.564888  0.670914  1
  P  P16  1  0.250000  0.898668  0.337068  1
  P  P17  1  0.750000  0.101332  0.662932  1
