# generated using pymatgen
data_Th4Ta5TiSi8
_symmetry_space_group_name_H-M   'P 1'
_cell_length_a   7.17594600
_cell_length_b   7.16914515
_cell_length_c   13.35430700
_cell_angle_alpha   90.00000000
_cell_angle_beta   90.00000000
_cell_angle_gamma   89.98647109
_symmetry_Int_Tables_number   1
_chemical_formula_structural   Th4Ta5TiSi8
_chemical_formula_sum   'Th8 Ta10 Ti2 Si16'
_cell_volume   687.01762639
_cell_formula_units_Z   2
loop_
 _symmetry_equiv_pos_site_id
 _symmetry_equiv_pos_as_xyz
  1  'x, y, z'
loop_
 _atom_site_type_symbol
 _atom_site_label
 _atom_site_symmetry_multiplicity
 _atom_site_fract_x
 _atom_site_fract_y
 _atom_site_fract_z
 _atom_site_occupancy
  Th  Th0  1  0.338833  0.001479  0.468411  1
  Th  Th1  1  0.498810  0.838752  0.718381  1
  Th  Th2  1  0.501190  0.161248  0.218381  1
  Th  Th3  1  0.839309  0.498519  0.281896  1
  Th  Th4  1  0.160691  0.501481  0.781896  1
  Th  Th5  1  0.661167  0.998522  0.968411  1
  Th  Th6  1  0.002034  0.338043  0.531747  1
  Th  Th7  1  0.997967  0.661957  0.031747  1
  Ta  Ta8  1  0.331070  0.330861  0.999386  1
  Ta  Ta9  1  0.170221  0.828825  0.250429  1
  Ta  Ta10  1  0.829779  0.171175  0.750429  1
  Ta  Ta11  1  0.668930  0.669139  0.499386  1
  Ta  Ta12  1  0.158646  0.006603  0.876071  1
  Ta  Ta13  1  0.494446  0.658482  0.125832  1
  Ta  Ta14  1  0.505554  0.341518  0.625832  1
  Ta  Ta15  1  0.657740  0.494199  0.874060  1
  Ta  Ta16  1  0.342260  0.505801  0.374060  1
  Ta  Ta17  1  0.841354  0.993397  0.376071  1
  Ti  Ti18  1  0.005927  0.157783  0.123915  1
  Ti  Ti19  1  0.994073  0.842217  0.623915  1
  Si  Si20  1  0.200171  0.123670  0.685184  1
  Si  Si21  1  0.374288  0.701700  0.935498  1
  Si  Si22  1  0.625712  0.298300  0.435498  1
  Si  Si23  1  0.700144  0.373751  0.064396  1
  Si  Si24  1  0.299856  0.626249  0.564396  1
  Si  Si25  1  0.799829  0.876330  0.185184  1
  Si  Si26  1  0.125060  0.199741  0.313811  1
  Si  Si27  1  0.874940  0.800259  0.813811  1
  Si  Si28  1  0.285621  0.959432  0.064673  1
  Si  Si29  1  0.541968  0.787786  0.313862  1
  Si  Si30  1  0.458032  0.212214  0.813862  1
  Si  Si31  1  0.788449  0.542661  0.685339  1
  Si  Si32  1  0.211551  0.457339  0.185339  1
  Si  Si33  1  0.714379  0.040568  0.564673  1
  Si  Si34  1  0.958109  0.287619  0.937109  1
  Si  Si35  1  0.041891  0.712381  0.437109  1
