# generated using pymatgen
data_Tb8Ho11ScSi15Tc
_symmetry_space_group_name_H-M   'P 1'
_cell_length_a   7.31666831
_cell_length_b   7.73960929
_cell_length_c   14.52248900
_cell_angle_alpha   90.00000000
_cell_angle_beta   90.00000000
_cell_angle_gamma   90.21132241
_symmetry_Int_Tables_number   1
_chemical_formula_structural   Tb8Ho11ScSi15Tc
_chemical_formula_sum   'Tb8 Ho11 Sc1 Si15 Tc1'
_cell_volume   822.37615075
_cell_formula_units_Z   1
loop_
 _symmetry_equiv_pos_site_id
 _symmetry_equiv_pos_as_xyz
  1  'x, y, z'
loop_
 _atom_site_type_symbol
 _atom_site_label
 _atom_site_symmetry_multiplicity
 _atom_site_fract_x
 _atom_site_fract_y
 _atom_site_fract_z
 _atom_site_occupancy
  Tb  Tb0  1  0.020444  0.182502  0.097686  1
  Tb  Tb1  1  0.984263  0.826801  0.906065  1
  Tb  Tb2  1  0.482425  0.681701  0.905160  1
  Tb  Tb3  1  0.984263  0.826801  0.593935  1
  Tb  Tb4  1  0.517166  0.316573  0.097551  1
  Tb  Tb5  1  0.020444  0.182502  0.402314  1
  Tb  Tb6  1  0.517166  0.316573  0.402449  1
  Tb  Tb7  1  0.482425  0.681701  0.594840  1
  Ho  Ho8  1  0.154629  0.514661  0.750000  1
  Ho  Ho9  1  0.842576  0.485454  0.250000  1
  Ho  Ho10  1  0.665199  0.987656  0.750000  1
  Ho  Ho11  1  0.311670  0.174306  0.626557  1
  Ho  Ho12  1  0.676179  0.824211  0.374066  1
  Ho  Ho13  1  0.177544  0.681049  0.374048  1
  Ho  Ho14  1  0.676179  0.824211  0.125934  1
  Ho  Ho15  1  0.834252  0.315519  0.625203  1
  Ho  Ho16  1  0.311670  0.174306  0.873443  1
  Ho  Ho17  1  0.834252  0.315519  0.874797  1
  Ho  Ho18  1  0.177544  0.681049  0.125952  1
  Sc  Sc19  1  0.341015  0.017359  0.250000  1
  Si  Si20  1  0.976178  0.901787  0.250000  1
  Si  Si21  1  0.473525  0.600947  0.250000  1
  Si  Si22  1  0.528773  0.396719  0.750000  1
  Si  Si23  1  0.277160  0.866689  0.750000  1
  Si  Si24  1  0.715568  0.129688  0.250000  1
  Si  Si25  1  0.224661  0.363353  0.250000  1
  Si  Si26  1  0.767893  0.624635  0.750000  1
  Si  Si27  1  0.156292  0.473620  0.536447  1
  Si  Si28  1  0.847805  0.531996  0.461418  1
  Si  Si29  1  0.347218  0.970601  0.458813  1
  Si  Si30  1  0.847805  0.531996  0.038582  1
  Si  Si31  1  0.648324  0.030529  0.536851  1
  Si  Si32  1  0.156292  0.473620  0.963553  1
  Si  Si33  1  0.648324  0.030529  0.963149  1
  Si  Si34  1  0.347218  0.970601  0.041187  1
  Tc  Tc35  1  0.025659  0.092236  0.750000  1
