# generated using pymatgen
data_TbDy2CdSi2Ag3
_symmetry_space_group_name_H-M   'P 1'
_cell_length_a   7.24655309
_cell_length_b   7.24655360
_cell_length_c   4.22803000
_cell_angle_alpha   90.00000000
_cell_angle_beta   90.00000000
_cell_angle_gamma   120.01766240
_symmetry_Int_Tables_number   1
_chemical_formula_structural   TbDy2CdSi2Ag3
_chemical_formula_sum   'Tb1 Dy2 Cd1 Si2 Ag3'
_cell_volume   192.24469164
_cell_formula_units_Z   1
loop_
 _symmetry_equiv_pos_site_id
 _symmetry_equiv_pos_as_xyz
  1  'x, y, z'
loop_
 _atom_site_type_symbol
 _atom_site_label
 _atom_site_symmetry_multiplicity
 _atom_site_fract_x
 _atom_site_fract_y
 _atom_site_fract_z
 _atom_site_occupancy
  Tb  Tb0  1  0.426250  0.426250  0.500000  1
  Dy  Dy1  1  0.573592  0.000030  0.500000  1
  Dy  Dy2  1  0.000030  0.573592  0.500000  1
  Cd  Cd3  1  0.999870  0.999870  0.500000  1
  Si  Si4  1  0.666898  0.333221  0.000000  1
  Si  Si5  1  0.333221  0.666898  0.000000  1
  Ag  Ag6  1  0.736368  0.736368  0.000000  1
  Ag  Ag7  1  0.263888  0.999884  0.000000  1
  Ag  Ag8  1  0.999884  0.263888  0.000000  1
