# generated using pymatgen
data_Sr4LiDy(TeO6)2
_symmetry_space_group_name_H-M   'P 1'
_cell_length_a   5.77701249
_cell_length_b   5.80851615
_cell_length_c   8.29100382
_cell_angle_alpha   89.99558257
_cell_angle_beta   89.98993609
_cell_angle_gamma   89.97463455
_symmetry_Int_Tables_number   1
_chemical_formula_structural   Sr4LiDy(TeO6)2
_chemical_formula_sum   'Sr4 Li1 Dy1 Te2 O12'
_cell_volume   278.21181646
_cell_formula_units_Z   1
loop_
 _symmetry_equiv_pos_site_id
 _symmetry_equiv_pos_as_xyz
  1  'x, y, z'
loop_
 _atom_site_type_symbol
 _atom_site_label
 _atom_site_symmetry_multiplicity
 _atom_site_fract_x
 _atom_site_fract_y
 _atom_site_fract_z
 _atom_site_occupancy
  Sr  Sr0  1  0.004819  0.476742  0.229654  1
  Sr  Sr1  1  0.995181  0.523258  0.770346  1
  Sr  Sr2  1  0.493333  0.961739  0.230170  1
  Sr  Sr3  1  0.506667  0.038261  0.769830  1
  Li  Li4  1  0.500000  0.500000  0.000000  1
  Dy  Dy5  1  0.000000  0.000000  0.500000  1
  Te  Te6  1  0.000000  0.000000  0.000000  1
  Te  Te7  1  0.500000  0.500000  0.500000  1
  O  O8  1  0.936463  0.012859  0.235008  1
  O  O9  1  0.063537  0.987141  0.764992  1
  O  O10  1  0.572889  0.519968  0.272915  1
  O  O11  1  0.427111  0.480033  0.727085  1
  O  O12  1  0.206152  0.738810  0.031098  1
  O  O13  1  0.793848  0.261190  0.968902  1
  O  O14  1  0.310702  0.223628  0.458084  1
  O  O15  1  0.689298  0.776372  0.541916  1
  O  O16  1  0.259786  0.208107  0.028373  1
  O  O17  1  0.740214  0.791893  0.971627  1
  O  O18  1  0.225864  0.694070  0.460033  1
  O  O19  1  0.774136  0.305930  0.539967  1
