# generated using pymatgen
data_La4Nd4Cd2OsRu
_symmetry_space_group_name_H-M   'P 1'
_cell_length_a   9.99261817
_cell_length_b   9.99261924
_cell_length_c   10.07195900
_cell_angle_alpha   59.73701287
_cell_angle_beta   59.73700929
_cell_angle_gamma   60.27697107
_symmetry_Int_Tables_number   1
_chemical_formula_structural   La4Nd4Cd2OsRu
_chemical_formula_sum   'La8 Nd8 Cd4 Os2 Ru2'
_cell_volume   709.76279103
_cell_formula_units_Z   2
loop_
 _symmetry_equiv_pos_site_id
 _symmetry_equiv_pos_as_xyz
  1  'x, y, z'
loop_
 _atom_site_type_symbol
 _atom_site_label
 _atom_site_symmetry_multiplicity
 _atom_site_fract_x
 _atom_site_fract_y
 _atom_site_fract_z
 _atom_site_occupancy
  La  La0  1  0.344482  0.344482  0.348180  1
  La  La1  1  0.344482  0.344482  0.962855  1
  La  La2  1  0.346295  0.962638  0.345533  1
  La  La3  1  0.962638  0.346295  0.345533  1
  La  La4  1  0.810214  0.189255  0.187722  1
  La  La5  1  0.189255  0.810214  0.812811  1
  La  La6  1  0.189255  0.810214  0.187722  1
  La  La7  1  0.810214  0.189255  0.812811  1
  Nd  Nd8  1  0.192292  0.192292  0.807708  1
  Nd  Nd9  1  0.807359  0.807359  0.192641  1
  Nd  Nd10  1  0.935278  0.562898  0.565250  1
  Nd  Nd11  1  0.562898  0.935278  0.936572  1
  Nd  Nd12  1  0.562898  0.935278  0.565250  1
  Nd  Nd13  1  0.935278  0.562898  0.936572  1
  Nd  Nd14  1  0.562704  0.562704  0.937296  1
  Nd  Nd15  1  0.940727  0.940727  0.559273  1
  Cd  Cd16  1  0.580250  0.580250  0.578056  1
  Cd  Cd17  1  0.580250  0.580250  0.261444  1
  Cd  Cd18  1  0.578074  0.260029  0.580949  1
  Cd  Cd19  1  0.260029  0.578074  0.580949  1
  Os  Os20  1  0.134678  0.134678  0.144798  1
  Os  Os21  1  0.134678  0.134678  0.585846  1
  Ru  Ru22  1  0.145013  0.590759  0.132113  1
  Ru  Ru23  1  0.590759  0.145013  0.132113  1
