# generated using pymatgen
data_NaHo(BeB14)2
_symmetry_space_group_name_H-M   'P 1'
_cell_length_a   7.19409556
_cell_length_b   7.19409450
_cell_length_c   7.19409569
_cell_angle_alpha   132.90452531
_cell_angle_beta   110.44263143
_cell_angle_gamma   88.27811612
_symmetry_Int_Tables_number   1
_chemical_formula_structural   NaHo(BeB14)2
_chemical_formula_sum   'Na1 Ho1 Be2 B28'
_cell_volume   243.56721589
_cell_formula_units_Z   1
loop_
 _symmetry_equiv_pos_site_id
 _symmetry_equiv_pos_as_xyz
  1  'x, y, z'
loop_
 _atom_site_type_symbol
 _atom_site_label
 _atom_site_symmetry_multiplicity
 _atom_site_fract_x
 _atom_site_fract_y
 _atom_site_fract_z
 _atom_site_occupancy
  Na  Na0  1  0.393006  0.750000  0.643006  1
  Ho  Ho1  1  0.608843  0.250000  0.358843  1
  Be  Be2  1  0.004315  0.506833  0.011149  1
  Be  Be3  1  0.004315  0.993167  0.497482  1
  B  B4  1  0.977679  0.343927  0.633752  1
  B  B5  1  0.626611  0.327100  0.792937  1
  B  B6  1  0.801788  0.834141  0.967647  1
  B  B7  1  0.633506  0.665859  0.967647  1
  B  B8  1  0.196785  0.165590  0.031195  1
  B  B9  1  0.779571  0.779277  0.676545  1
  B  B10  1  0.965837  0.666326  0.792937  1
  B  B11  1  0.023000  0.655766  0.367233  1
  B  B12  1  0.965837  0.172900  0.299511  1
  B  B13  1  0.034440  0.826888  0.698215  1
  B  B14  1  0.365605  0.334410  0.031195  1
  B  B15  1  0.077340  0.909174  0.168166  1
  B  B16  1  0.626611  0.833674  0.299511  1
  B  B17  1  0.397268  0.720723  0.000294  1
  B  B18  1  0.241333  0.410391  0.830943  1
  B  B19  1  0.218886  0.219499  0.321384  1
  B  B20  1  0.211466  0.844234  0.367233  1
  B  B21  1  0.920552  0.089609  0.830943  1
  B  B22  1  0.397268  0.396974  0.676545  1
  B  B23  1  0.218886  0.897503  0.999387  1
  B  B24  1  0.779571  0.103026  0.000294  1
  B  B25  1  0.601884  0.280501  0.999387  1
  B  B26  1  0.601884  0.602497  0.321384  1
  B  B27  1  0.034440  0.336225  0.207552  1
  B  B28  1  0.758993  0.590826  0.168166  1
  B  B29  1  0.789827  0.156073  0.633752  1
  B  B30  1  0.371327  0.163775  0.698215  1
  B  B31  1  0.371327  0.673112  0.207552  1
