# generated using pymatgen
data_Zr6Zn21Rh2O
_symmetry_space_group_name_H-M   'P 1'
_cell_length_a   8.72530155
_cell_length_b   8.70787934
_cell_length_c   8.72530100
_cell_angle_alpha   60.06602954
_cell_angle_beta   59.47424667
_cell_angle_gamma   60.06602499
_symmetry_Int_Tables_number   1
_chemical_formula_structural   Zr6Zn21Rh2O
_chemical_formula_sum   'Zr6 Zn21 Rh2 O1'
_cell_volume   467.33918558
_cell_formula_units_Z   1
loop_
 _symmetry_equiv_pos_site_id
 _symmetry_equiv_pos_as_xyz
  1  'x, y, z'
loop_
 _atom_site_type_symbol
 _atom_site_label
 _atom_site_symmetry_multiplicity
 _atom_site_fract_x
 _atom_site_fract_y
 _atom_site_fract_z
 _atom_site_occupancy
  Zr  Zr0  1  0.688305  0.307023  0.311695  1
  Zr  Zr1  1  0.311695  0.692977  0.688305  1
  Zr  Zr2  1  0.308323  0.691677  0.308323  1
  Zr  Zr3  1  0.691677  0.308323  0.691677  1
  Zr  Zr4  1  0.311695  0.307023  0.688305  1
  Zr  Zr5  1  0.688305  0.692977  0.311695  1
  Zn  Zn6  1  0.119390  0.118202  0.119390  1
  Zn  Zn7  1  0.880610  0.881798  0.880610  1
  Zn  Zn8  1  0.124809  0.117274  0.640645  1
  Zn  Zn9  1  0.119390  0.643019  0.119390  1
  Zn  Zn10  1  0.875191  0.882726  0.359355  1
  Zn  Zn11  1  0.880610  0.356981  0.880610  1
  Zn  Zn12  1  0.640645  0.117274  0.124809  1
  Zn  Zn13  1  0.359355  0.882726  0.875191  1
  Zn  Zn14  1  0.500000  0.000000  0.000000  1
  Zn  Zn15  1  0.000000  0.500000  0.500000  1
  Zn  Zn16  1  0.000000  0.500000  0.000000  1
  Zn  Zn17  1  0.000000  0.000000  0.500000  1
  Zn  Zn18  1  0.500000  0.500000  0.000000  1
  Zn  Zn19  1  0.331204  0.331997  0.331204  1
  Zn  Zn20  1  0.668796  0.668003  0.668796  1
  Zn  Zn21  1  0.331251  0.332500  0.003750  1
  Zn  Zn22  1  0.331204  0.005595  0.331204  1
  Zn  Zn23  1  0.668749  0.667500  0.996250  1
  Zn  Zn24  1  0.668796  0.994405  0.668796  1
  Zn  Zn25  1  0.003750  0.332500  0.331251  1
  Zn  Zn26  1  0.996250  0.667500  0.668749  1
  Rh  Rh27  1  0.500000  0.000000  0.500000  1
  Rh  Rh28  1  0.000000  0.000000  0.000000  1
  O  O29  1  0.500000  0.500000  0.500000  1
