# generated using pymatgen
data_Zn3(BiO4)2
_symmetry_space_group_name_H-M   'P 1'
_cell_length_a   6.33717956
_cell_length_b   6.33718034
_cell_length_c   10.17673438
_cell_angle_alpha   70.44608127
_cell_angle_beta   70.44612007
_cell_angle_gamma   86.95477034
_symmetry_Int_Tables_number   1
_chemical_formula_structural   Zn3(BiO4)2
_chemical_formula_sum   'Zn6 Bi4 O16'
_cell_volume   362.11498255
_cell_formula_units_Z   2
loop_
 _symmetry_equiv_pos_site_id
 _symmetry_equiv_pos_as_xyz
  1  'x, y, z'
loop_
 _atom_site_type_symbol
 _atom_site_label
 _atom_site_symmetry_multiplicity
 _atom_site_fract_x
 _atom_site_fract_y
 _atom_site_fract_z
 _atom_site_occupancy
  Zn  Zn0  1  0.765677  0.234323  0.749999  1
  Zn  Zn1  1  0.234323  0.765677  0.249999  1
  Zn  Zn2  1  0.673710  0.643095  0.005434  1
  Zn  Zn3  1  0.356906  0.326289  0.494567  1
  Zn  Zn4  1  0.326289  0.356905  0.994567  1
  Zn  Zn5  1  0.643095  0.673711  0.505434  1
  Bi  Bi6  1  0.065758  0.776581  0.627406  1
  Bi  Bi7  1  0.223417  0.934243  0.872594  1
  Bi  Bi8  1  0.934243  0.223418  0.372594  1
  Bi  Bi9  1  0.776581  0.065758  0.127406  1
  O  O10  1  0.189256  0.438961  0.357802  1
  O  O11  1  0.561039  0.810743  0.142198  1
  O  O12  1  0.810743  0.561039  0.642198  1
  O  O13  1  0.438961  0.189256  0.857801  1
  O  O14  1  0.323379  0.561628  0.593719  1
  O  O15  1  0.438371  0.676622  0.906281  1
  O  O16  1  0.676622  0.438371  0.406280  1
  O  O17  1  0.561627  0.323379  0.093720  1
  O  O18  1  0.983598  0.698158  0.864768  1
  O  O19  1  0.301842  0.016402  0.635232  1
  O  O20  1  0.058801  0.848415  0.112349  1
  O  O21  1  0.151587  0.941198  0.387651  1
  O  O22  1  0.941198  0.151586  0.887652  1
  O  O23  1  0.848414  0.058801  0.612349  1
  O  O24  1  0.698158  0.983598  0.364768  1
  O  O25  1  0.016402  0.301842  0.135232  1
