# generated using pymatgen
data_Dy10Co2SiSb3
_symmetry_space_group_name_H-M   'P 1'
_cell_length_a   7.87262400
_cell_length_b   8.69831568
_cell_length_c   12.07088500
_cell_angle_alpha   90.00000000
_cell_angle_beta   90.00000000
_cell_angle_gamma   90.13003069
_symmetry_Int_Tables_number   1
_chemical_formula_structural   Dy10Co2SiSb3
_chemical_formula_sum   'Dy20 Co4 Si2 Sb6'
_cell_volume   826.59479969
_cell_formula_units_Z   2
loop_
 _symmetry_equiv_pos_site_id
 _symmetry_equiv_pos_as_xyz
  1  'x, y, z'
loop_
 _atom_site_type_symbol
 _atom_site_label
 _atom_site_symmetry_multiplicity
 _atom_site_fract_x
 _atom_site_fract_y
 _atom_site_fract_z
 _atom_site_occupancy
  Dy  Dy0  1  0.149957  0.741784  0.205707  1
  Dy  Dy1  1  0.350043  0.758216  0.705707  1
  Dy  Dy2  1  0.836774  0.239672  0.793730  1
  Dy  Dy3  1  0.663226  0.260328  0.293730  1
  Dy  Dy4  1  0.460860  0.761143  0.992178  1
  Dy  Dy5  1  0.039140  0.738857  0.492178  1
  Dy  Dy6  1  0.545040  0.238572  0.996971  1
  Dy  Dy7  1  0.954960  0.261428  0.496971  1
  Dy  Dy8  1  0.634691  0.741573  0.306289  1
  Dy  Dy9  1  0.865309  0.758427  0.806289  1
  Dy  Dy10  1  0.382069  0.240673  0.699318  1
  Dy  Dy11  1  0.117931  0.259327  0.199318  1
  Dy  Dy12  1  0.820411  0.530991  0.070552  1
  Dy  Dy13  1  0.679589  0.969009  0.570552  1
  Dy  Dy14  1  0.181425  0.036825  0.934250  1
  Dy  Dy15  1  0.318575  0.463175  0.434250  1
  Dy  Dy16  1  0.177100  0.468863  0.934691  1
  Dy  Dy17  1  0.322900  0.031137  0.434691  1
  Dy  Dy18  1  0.820473  0.964316  0.064327  1
  Dy  Dy19  1  0.679527  0.535684  0.564327  1
  Co  Co20  1  0.439689  0.748455  0.490279  1
  Co  Co21  1  0.060311  0.751545  0.990279  1
  Co  Co22  1  0.567135  0.250011  0.510729  1
  Co  Co23  1  0.932865  0.249989  0.010729  1
  Si  Si24  1  0.931268  0.506425  0.328455  1
  Si  Si25  1  0.568732  0.993575  0.828455  1
  Sb  Sb26  1  0.071759  0.006838  0.668010  1
  Sb  Sb27  1  0.428241  0.493162  0.168010  1
  Sb  Sb28  1  0.073085  0.492687  0.676231  1
  Sb  Sb29  1  0.426915  0.007313  0.176231  1
  Sb  Sb30  1  0.927804  0.992867  0.328281  1
  Sb  Sb31  1  0.572196  0.507133  0.828281  1
