# generated using pymatgen
data_Nd2Co3Si5P2Ru9
_symmetry_space_group_name_H-M   'P 1'
_cell_length_a   9.50413904
_cell_length_b   9.49099906
_cell_length_c   3.86892500
_cell_angle_alpha   90.00000000
_cell_angle_beta   90.00000000
_cell_angle_gamma   120.25683769
_symmetry_Int_Tables_number   1
_chemical_formula_structural   Nd2Co3Si5P2Ru9
_chemical_formula_sum   'Nd2 Co3 Si5 P2 Ru9'
_cell_volume   301.45038495
_cell_formula_units_Z   1
loop_
 _symmetry_equiv_pos_site_id
 _symmetry_equiv_pos_as_xyz
  1  'x, y, z'
loop_
 _atom_site_type_symbol
 _atom_site_label
 _atom_site_symmetry_multiplicity
 _atom_site_fract_x
 _atom_site_fract_y
 _atom_site_fract_z
 _atom_site_occupancy
  Nd  Nd0  1  0.001138  0.998356  0.000000  1
  Nd  Nd1  1  0.332414  0.664929  0.500000  1
  Co  Co2  1  0.816846  0.604771  0.000000  1
  Co  Co3  1  0.396683  0.218776  0.000000  1
  Co  Co4  1  0.781503  0.177511  0.000000  1
  Si  Si5  1  0.773177  0.724109  0.500000  1
  Si  Si6  1  0.278539  0.052047  0.500000  1
  Si  Si7  1  0.947826  0.225012  0.500000  1
  Si  Si8  1  0.667963  0.334240  0.000000  1
  Si  Si9  1  0.067759  0.629536  0.000000  1
  P  P10  1  0.365556  0.435686  0.000000  1
  P  P11  1  0.563127  0.927711  0.000000  1
  Ru  Ru12  1  0.090644  0.387232  0.000000  1
  Ru  Ru13  1  0.603241  0.694615  0.000000  1
  Ru  Ru14  1  0.309106  0.911984  0.000000  1
  Ru  Ru15  1  0.049893  0.770786  0.500000  1
  Ru  Ru16  1  0.236910  0.286095  0.500000  1
  Ru  Ru17  1  0.712203  0.949118  0.500000  1
  Ru  Ru18  1  0.872452  0.431597  0.500000  1
  Ru  Ru19  1  0.573141  0.441716  0.500000  1
  Ru  Ru20  1  0.559881  0.134172  0.500000  1
