# generated using pymatgen
data_LaNd2Hg3PdRh2
_symmetry_space_group_name_H-M   'P 1'
_cell_length_a   7.67698425
_cell_length_b   7.78302580
_cell_length_c   4.04276500
_cell_angle_alpha   90.00000000
_cell_angle_beta   90.00000000
_cell_angle_gamma   120.45798482
_symmetry_Int_Tables_number   1
_chemical_formula_structural   LaNd2Hg3PdRh2
_chemical_formula_sum   'La1 Nd2 Hg3 Pd1 Rh2'
_cell_volume   208.22143781
_cell_formula_units_Z   1
loop_
 _symmetry_equiv_pos_site_id
 _symmetry_equiv_pos_as_xyz
  1  'x, y, z'
loop_
 _atom_site_type_symbol
 _atom_site_label
 _atom_site_symmetry_multiplicity
 _atom_site_fract_x
 _atom_site_fract_y
 _atom_site_fract_z
 _atom_site_occupancy
  La  La0  1  0.000000  0.590086  0.500000  1
  Nd  Nd1  1  0.407485  0.406672  0.500000  1
  Nd  Nd2  1  0.592515  0.999187  0.500000  1
  Hg  Hg3  1  0.737902  0.741452  0.000000  1
  Hg  Hg4  1  0.262098  0.003550  0.000000  1
  Hg  Hg5  1  0.000000  0.254381  0.000000  1
  Pd  Pd6  1  0.000000  0.999802  0.500000  1
  Rh  Rh7  1  0.671634  0.338252  0.000000  1
  Rh  Rh8  1  0.328366  0.666619  0.000000  1
