# generated using pymatgen
data_La4Yb5Rh6
_symmetry_space_group_name_H-M   'P 1'
_cell_length_a   7.51280354
_cell_length_b   7.52507057
_cell_length_c   7.53319919
_cell_angle_alpha   70.66178700
_cell_angle_beta   70.93134816
_cell_angle_gamma   70.90583047
_symmetry_Int_Tables_number   1
_chemical_formula_structural   La4Yb5Rh6
_chemical_formula_sum   'La4 Yb5 Rh6'
_cell_volume   368.18245923
_cell_formula_units_Z   1
loop_
 _symmetry_equiv_pos_site_id
 _symmetry_equiv_pos_as_xyz
  1  'x, y, z'
loop_
 _atom_site_type_symbol
 _atom_site_label
 _atom_site_symmetry_multiplicity
 _atom_site_fract_x
 _atom_site_fract_y
 _atom_site_fract_z
 _atom_site_occupancy
  La  La0  1  0.396852  0.669505  0.153160  1
  La  La1  1  0.852212  0.604723  0.323300  1
  La  La2  1  0.323908  0.855136  0.607293  1
  La  La3  1  0.606505  0.319749  0.846557  1
  Yb  Yb4  1  0.998578  0.007034  0.000858  1
  Yb  Yb5  1  0.805520  0.803762  0.797386  1
  Yb  Yb6  1  0.194667  0.194408  0.195387  1
  Yb  Yb7  1  0.147796  0.398494  0.677787  1
  Yb  Yb8  1  0.677228  0.150491  0.396811  1
  Rh  Rh9  1  0.953431  0.169402  0.587340  1
  Rh  Rh10  1  0.589564  0.948049  0.170592  1
  Rh  Rh11  1  0.170748  0.582449  0.954781  1
  Rh  Rh12  1  0.051245  0.830797  0.411938  1
  Rh  Rh13  1  0.414119  0.044967  0.830539  1
  Rh  Rh14  1  0.817627  0.421035  0.046273  1
