# generated using pymatgen
data_Pa5Co16(Si4W)3
_symmetry_space_group_name_H-M   'P 1'
_cell_length_a   12.10169200
_cell_length_b   12.10169176
_cell_length_c   3.76217400
_cell_angle_alpha   90.00000000
_cell_angle_beta   90.00000000
_cell_angle_gamma   119.99999519
_symmetry_Int_Tables_number   1
_chemical_formula_structural   Pa5Co16(Si4W)3
_chemical_formula_sum   'Pa5 Co16 Si12 W3'
_cell_volume   477.15745426
_cell_formula_units_Z   1
loop_
 _symmetry_equiv_pos_site_id
 _symmetry_equiv_pos_as_xyz
  1  'x, y, z'
loop_
 _atom_site_type_symbol
 _atom_site_label
 _atom_site_symmetry_multiplicity
 _atom_site_fract_x
 _atom_site_fract_y
 _atom_site_fract_z
 _atom_site_occupancy
  Pa  Pa0  1  0.666667  0.333333  0.000000  1
  Pa  Pa1  1  0.333333  0.666667  0.000000  1
  Pa  Pa2  1  0.185632  0.185632  0.500000  1
  Pa  Pa3  1  0.814368  0.000000  0.500000  1
  Pa  Pa4  1  0.000000  0.814368  0.500000  1
  Co  Co5  1  0.819546  0.194073  0.000000  1
  Co  Co6  1  0.805927  0.625473  0.000000  1
  Co  Co7  1  0.374527  0.180454  0.000000  1
  Co  Co8  1  0.194073  0.819546  0.000000  1
  Co  Co9  1  0.625473  0.805927  0.000000  1
  Co  Co10  1  0.180454  0.374527  0.000000  1
  Co  Co11  1  0.641923  0.125067  0.500000  1
  Co  Co12  1  0.874933  0.516857  0.500000  1
  Co  Co13  1  0.483143  0.358077  0.500000  1
  Co  Co14  1  0.125067  0.641923  0.500000  1
  Co  Co15  1  0.516857  0.874933  0.500000  1
  Co  Co16  1  0.358077  0.483143  0.500000  1
  Co  Co17  1  0.722087  0.722087  0.500000  1
  Co  Co18  1  0.277913  0.000000  0.500000  1
  Co  Co19  1  0.000000  0.277913  0.500000  1
  Co  Co20  1  0.000000  0.000000  0.000000  1
  Si  Si21  1  0.366252  0.366252  0.000000  1
  Si  Si22  1  0.633748  0.000000  0.000000  1
  Si  Si23  1  0.000000  0.633748  0.000000  1
  Si  Si24  1  0.833656  0.310604  0.500000  1
  Si  Si25  1  0.689396  0.523052  0.500000  1
  Si  Si26  1  0.476948  0.166344  0.500000  1
  Si  Si27  1  0.310604  0.833656  0.500000  1
  Si  Si28  1  0.523052  0.689396  0.500000  1
  Si  Si29  1  0.166344  0.476948  0.500000  1
  Si  Si30  1  0.817475  0.817475  0.000000  1
  Si  Si31  1  0.182525  0.000000  0.000000  1
  Si  Si32  1  0.000000  0.182525  0.000000  1
  W  W33  1  0.566031  0.566031  0.000000  1
  W  W34  1  0.433969  0.000000  0.000000  1
  W  W35  1  0.000000  0.433969  0.000000  1
