# generated using pymatgen
data_La2TbCu5(Ni4B)2
_symmetry_space_group_name_H-M   'P 1'
_cell_length_a   5.12637702
_cell_length_b   5.09559747
_cell_length_c   10.93618602
_cell_angle_alpha   89.99926809
_cell_angle_beta   90.00146621
_cell_angle_gamma   120.20001098
_symmetry_Int_Tables_number   1
_chemical_formula_structural   La2TbCu5(Ni4B)2
_chemical_formula_sum   'La2 Tb1 Cu5 Ni8 B2'
_cell_volume   246.90128360
_cell_formula_units_Z   1
loop_
 _symmetry_equiv_pos_site_id
 _symmetry_equiv_pos_as_xyz
  1  'x, y, z'
loop_
 _atom_site_type_symbol
 _atom_site_label
 _atom_site_symmetry_multiplicity
 _atom_site_fract_x
 _atom_site_fract_y
 _atom_site_fract_z
 _atom_site_occupancy
  La  La0  1  0.999988  0.000000  0.325014  1
  La  La1  1  0.000000  0.000000  0.675002  1
  Tb  Tb2  1  0.999997  0.000000  0.000009  1
  Cu  Cu3  1  0.499993  0.000000  0.499966  1
  Cu  Cu4  1  0.332021  0.664077  0.315110  1
  Cu  Cu5  1  0.667944  0.335923  0.315110  1
  Cu  Cu6  1  0.667946  0.335884  0.684879  1
  Cu  Cu7  1  0.332062  0.664116  0.684879  1
  Ni  Ni8  1  0.499979  0.499987  0.499987  1
  Ni  Ni9  1  0.999992  0.500013  0.499987  1
  Ni  Ni10  1  0.500018  0.000000  0.127290  1
  Ni  Ni11  1  0.500026  0.500005  0.127137  1
  Ni  Ni12  1  0.000021  0.499995  0.127137  1
  Ni  Ni13  1  0.499974  0.000000  0.872718  1
  Ni  Ni14  1  0.499971  0.499995  0.872882  1
  Ni  Ni15  1  0.999977  0.500005  0.872882  1
  B  B16  1  0.333272  0.666548  0.000004  1
  B  B17  1  0.666723  0.333452  0.000004  1
