# generated using pymatgen
data_TmSi3AsRh6
_symmetry_space_group_name_H-M   'P 1'
_cell_length_a   7.11725053
_cell_length_b   7.11725044
_cell_length_c   3.75855900
_cell_angle_alpha   90.00000000
_cell_angle_beta   90.00000000
_cell_angle_gamma   120.12554469
_symmetry_Int_Tables_number   1
_chemical_formula_structural   TmSi3AsRh6
_chemical_formula_sum   'Tm1 Si3 As1 Rh6'
_cell_volume   164.67425224
_cell_formula_units_Z   1
loop_
 _symmetry_equiv_pos_site_id
 _symmetry_equiv_pos_as_xyz
  1  'x, y, z'
loop_
 _atom_site_type_symbol
 _atom_site_label
 _atom_site_symmetry_multiplicity
 _atom_site_fract_x
 _atom_site_fract_y
 _atom_site_fract_z
 _atom_site_occupancy
  Tm  Tm0  1  0.005825  0.994175  0.000000  1
  Si  Si1  1  0.800646  0.606878  0.500000  1
  Si  Si2  1  0.333349  0.666651  0.000000  1
  Si  Si3  1  0.393122  0.199354  0.500000  1
  As  As4  1  0.807940  0.192060  0.500000  1
  Rh  Rh5  1  0.523600  0.064380  0.000000  1
  Rh  Rh6  1  0.600440  0.796401  0.500000  1
  Rh  Rh7  1  0.203599  0.399560  0.500000  1
  Rh  Rh8  1  0.533906  0.466094  0.000000  1
  Rh  Rh9  1  0.195289  0.804711  0.500000  1
  Rh  Rh10  1  0.935620  0.476400  0.000000  1
