# generated using pymatgen
data_K3InAg5
_symmetry_space_group_name_H-M   'P 1'
_cell_length_a   11.29899789
_cell_length_b   11.29899821
_cell_length_c   11.29899756
_cell_angle_alpha   150.49425161
_cell_angle_beta   133.87508198
_cell_angle_gamma   55.70910828
_symmetry_Int_Tables_number   1
_chemical_formula_structural   K3InAg5
_chemical_formula_sum   'K6 In2 Ag10'
_cell_volume   508.90324147
_cell_formula_units_Z   2
loop_
 _symmetry_equiv_pos_site_id
 _symmetry_equiv_pos_as_xyz
  1  'x, y, z'
loop_
 _atom_site_type_symbol
 _atom_site_label
 _atom_site_symmetry_multiplicity
 _atom_site_fract_x
 _atom_site_fract_y
 _atom_site_fract_z
 _atom_site_occupancy
  K  K0  1  0.288701  0.911270  0.377431  1
  K  K1  1  0.033837  0.411270  0.622569  1
  K  K2  1  0.638374  0.250000  0.388374  1
  K  K3  1  0.361626  0.750000  0.611626  1
  K  K4  1  0.966163  0.588730  0.377431  1
  K  K5  1  0.711299  0.088730  0.622569  1
  In  In6  1  0.915499  0.750000  0.165499  1
  In  In7  1  0.084501  0.250000  0.834501  1
  Ag  Ag8  1  0.000000  0.000000  0.000000  1
  Ag  Ag9  1  0.500000  0.500000  0.000000  1
  Ag  Ag10  1  0.684956  0.684956  0.500000  1
  Ag  Ag11  1  0.684956  0.184956  0.000000  1
  Ag  Ag12  1  0.817644  0.855853  0.961790  1
  Ag  Ag13  1  0.394063  0.355853  0.038210  1
  Ag  Ag14  1  0.605937  0.644147  0.961790  1
  Ag  Ag15  1  0.182356  0.144147  0.038210  1
  Ag  Ag16  1  0.315044  0.815044  0.000000  1
  Ag  Ag17  1  0.315044  0.315044  0.500000  1
