# generated using pymatgen
data_La2Dy3Er(IrO7)2
_symmetry_space_group_name_H-M   'P 1'
_cell_length_a   6.48702752
_cell_length_b   6.48102166
_cell_length_c   7.51065100
_cell_angle_alpha   90.00000000
_cell_angle_beta   90.00000000
_cell_angle_gamma   109.55772839
_symmetry_Int_Tables_number   1
_chemical_formula_structural   La2Dy3Er(IrO7)2
_chemical_formula_sum   'La2 Dy3 Er1 Ir2 O14'
_cell_volume   297.54876056
_cell_formula_units_Z   1
loop_
 _symmetry_equiv_pos_site_id
 _symmetry_equiv_pos_as_xyz
  1  'x, y, z'
loop_
 _atom_site_type_symbol
 _atom_site_label
 _atom_site_symmetry_multiplicity
 _atom_site_fract_x
 _atom_site_fract_y
 _atom_site_fract_z
 _atom_site_occupancy
  La  La0  1  0.000888  0.000648  0.499560  1
  La  La1  1  0.000888  0.000648  0.000440  1
  Dy  Dy2  1  0.515699  0.064383  0.250000  1
  Dy  Dy3  1  0.936985  0.483940  0.750000  1
  Dy  Dy4  1  0.484167  0.936044  0.750000  1
  Er  Er5  1  0.062230  0.514446  0.250000  1
  Ir  Ir6  1  0.500984  0.500936  0.499394  1
  Ir  Ir7  1  0.500984  0.500936  0.000606  1
  O  O8  1  0.442794  0.181860  0.534648  1
  O  O9  1  0.818803  0.556774  0.463858  1
  O  O10  1  0.442794  0.181860  0.965352  1
  O  O11  1  0.818803  0.556774  0.036142  1
  O  O12  1  0.558563  0.818863  0.464908  1
  O  O13  1  0.181411  0.444047  0.532683  1
  O  O14  1  0.558563  0.818863  0.035092  1
  O  O15  1  0.181411  0.444047  0.967317  1
  O  O16  1  0.161355  0.875472  0.250000  1
  O  O17  1  0.120978  0.839288  0.750000  1
  O  O18  1  0.839205  0.120716  0.750000  1
  O  O19  1  0.879470  0.162869  0.250000  1
  O  O20  1  0.403704  0.406755  0.250000  1
  O  O21  1  0.589323  0.589829  0.750000  1
