# generated using pymatgen
data_Ho2Tm6Re(TcB8)3
_symmetry_space_group_name_H-M   'P 1'
_cell_length_a   3.64899700
_cell_length_b   9.10513788
_cell_length_c   11.47459302
_cell_angle_alpha   90.02213805
_cell_angle_beta   90.00000000
_cell_angle_gamma   90.00000000
_symmetry_Int_Tables_number   1
_chemical_formula_structural   Ho2Tm6Re(TcB8)3
_chemical_formula_sum   'Ho2 Tm6 Re1 Tc3 B24'
_cell_volume   381.23897367
_cell_formula_units_Z   1
loop_
 _symmetry_equiv_pos_site_id
 _symmetry_equiv_pos_as_xyz
  1  'x, y, z'
loop_
 _atom_site_type_symbol
 _atom_site_label
 _atom_site_symmetry_multiplicity
 _atom_site_fract_x
 _atom_site_fract_y
 _atom_site_fract_z
 _atom_site_occupancy
  Ho  Ho0  1  0.000000  0.323730  0.413997  1
  Ho  Ho1  1  0.000000  0.676459  0.585941  1
  Tm  Tm2  1  0.000000  0.823776  0.086043  1
  Tm  Tm3  1  0.000000  0.176567  0.914261  1
  Tm  Tm4  1  0.000000  0.942962  0.369160  1
  Tm  Tm5  1  0.000000  0.057592  0.629953  1
  Tm  Tm6  1  0.000000  0.442936  0.130455  1
  Tm  Tm7  1  0.000000  0.556016  0.870040  1
  Re  Re8  1  0.000000  0.861316  0.820822  1
  Tc  Tc9  1  0.000000  0.639409  0.319927  1
  Tc  Tc10  1  0.000000  0.360648  0.680011  1
  Tc  Tc11  1  0.000000  0.138884  0.179366  1
  B  B12  1  0.500000  0.553626  0.432870  1
  B  B13  1  0.500000  0.446508  0.567161  1
  B  B14  1  0.500000  0.053293  0.066735  1
  B  B15  1  0.500000  0.946953  0.933601  1
  B  B16  1  0.500000  0.750035  0.418583  1
  B  B17  1  0.500000  0.250204  0.581352  1
  B  B18  1  0.500000  0.249718  0.080792  1
  B  B19  1  0.500000  0.749843  0.919418  1
  B  B20  1  0.500000  0.792809  0.264700  1
  B  B21  1  0.500000  0.207221  0.735126  1
  B  B22  1  0.500000  0.292505  0.234725  1
  B  B23  1  0.500000  0.707124  0.765415  1
  B  B24  1  0.500000  0.630812  0.184729  1
  B  B25  1  0.500000  0.368983  0.815264  1
  B  B26  1  0.500000  0.130473  0.314769  1
  B  B27  1  0.500000  0.869729  0.685072  1
  B  B28  1  0.500000  0.981535  0.211589  1
  B  B29  1  0.500000  0.018807  0.788189  1
  B  B30  1  0.500000  0.481959  0.287855  1
  B  B31  1  0.500000  0.517909  0.712261  1
  B  B32  1  0.500000  0.599563  0.027868  1
  B  B33  1  0.500000  0.399913  0.972354  1
  B  B34  1  0.500000  0.099222  0.472109  1
  B  B35  1  0.500000  0.900963  0.527487  1
