# generated using pymatgen
data_Tb3Dy2Ho15(CoSb2)4
_symmetry_space_group_name_H-M   'P 1'
_cell_length_a   7.88643852
_cell_length_b   8.74887495
_cell_length_c   12.16174500
_cell_angle_alpha   90.01842544
_cell_angle_beta   89.98044766
_cell_angle_gamma   90.02081439
_symmetry_Int_Tables_number   1
_chemical_formula_structural   Tb3Dy2Ho15(CoSb2)4
_chemical_formula_sum   'Tb3 Dy2 Ho15 Co4 Sb8'
_cell_volume   839.12942031
_cell_formula_units_Z   1
loop_
 _symmetry_equiv_pos_site_id
 _symmetry_equiv_pos_as_xyz
  1  'x, y, z'
loop_
 _atom_site_type_symbol
 _atom_site_label
 _atom_site_symmetry_multiplicity
 _atom_site_fract_x
 _atom_site_fract_y
 _atom_site_fract_z
 _atom_site_occupancy
  Tb  Tb0  1  0.378606  0.249585  0.694045  1
  Tb  Tb1  1  0.878186  0.749984  0.806271  1
  Tb  Tb2  1  0.320724  0.464608  0.434944  1
  Dy  Dy3  1  0.621977  0.750321  0.306110  1
  Dy  Dy4  1  0.121560  0.250136  0.193448  1
  Ho  Ho5  1  0.154844  0.750038  0.202972  1
  Ho  Ho6  1  0.655187  0.249776  0.296731  1
  Ho  Ho7  1  0.845171  0.249997  0.796959  1
  Ho  Ho8  1  0.345085  0.750151  0.703250  1
  Ho  Ho9  1  0.453009  0.750044  0.997926  1
  Ho  Ho10  1  0.952298  0.249770  0.502046  1
  Ho  Ho11  1  0.547067  0.249946  0.002095  1
  Ho  Ho12  1  0.046181  0.750343  0.497942  1
  Ho  Ho13  1  0.822214  0.964475  0.065120  1
  Ho  Ho14  1  0.322223  0.035457  0.434933  1
  Ho  Ho15  1  0.177853  0.463944  0.934993  1
  Ho  Ho16  1  0.678151  0.536152  0.565203  1
  Ho  Ho17  1  0.177842  0.036042  0.934955  1
  Ho  Ho18  1  0.677898  0.963643  0.565207  1
  Ho  Ho19  1  0.822162  0.535504  0.065072  1
  Co  Co20  1  0.433736  0.750330  0.490448  1
  Co  Co21  1  0.933293  0.249990  0.009490  1
  Co  Co22  1  0.568125  0.249399  0.509715  1
  Co  Co23  1  0.066806  0.750009  0.990601  1
  Sb  Sb24  1  0.928815  0.991645  0.327273  1
  Sb  Sb25  1  0.428622  0.008464  0.172585  1
  Sb  Sb26  1  0.071533  0.491556  0.672499  1
  Sb  Sb27  1  0.571320  0.508489  0.827510  1
  Sb  Sb28  1  0.071357  0.008475  0.672544  1
  Sb  Sb29  1  0.571461  0.991489  0.827628  1
  Sb  Sb30  1  0.927813  0.508602  0.327175  1
  Sb  Sb31  1  0.428877  0.491635  0.172311  1
