# generated using pymatgen
data_TbEr3Tm2GaCo2
_symmetry_space_group_name_H-M   'P 1'
_cell_length_a   8.17918365
_cell_length_b   8.20925411
_cell_length_c   8.20925454
_cell_angle_alpha   112.28806754
_cell_angle_beta   109.46686392
_cell_angle_gamma   106.84340849
_symmetry_Int_Tables_number   1
_chemical_formula_structural   TbEr3Tm2GaCo2
_chemical_formula_sum   'Tb2 Er6 Tm4 Ga2 Co4'
_cell_volume   422.63485442
_cell_formula_units_Z   2
loop_
 _symmetry_equiv_pos_site_id
 _symmetry_equiv_pos_as_xyz
  1  'x, y, z'
loop_
 _atom_site_type_symbol
 _atom_site_label
 _atom_site_symmetry_multiplicity
 _atom_site_fract_x
 _atom_site_fract_y
 _atom_site_fract_z
 _atom_site_occupancy
  Tb  Tb0  1  0.958620  0.261238  0.697382  1
  Tb  Tb1  1  0.041380  0.738762  0.302618  1
  Er  Er2  1  0.562677  0.260649  0.302027  1
  Er  Er3  1  0.437323  0.739351  0.697973  1
  Er  Er4  1  0.180590  0.781370  0.960854  1
  Er  Er5  1  0.819410  0.780263  0.600781  1
  Er  Er6  1  0.180590  0.219737  0.399219  1
  Er  Er7  1  0.819410  0.218630  0.039146  1
  Tm  Tm8  1  0.671596  0.860088  0.186164  1
  Tm  Tm9  1  0.328404  0.514567  0.188492  1
  Tm  Tm10  1  0.328404  0.139912  0.813836  1
  Tm  Tm11  1  0.671596  0.485433  0.811508  1
  Ga  Ga12  1  0.000000  0.500000  0.500000  1
  Ga  Ga13  1  0.500000  0.000000  0.500000  1
  Co  Co14  1  0.117735  0.115633  0.002103  1
  Co  Co15  1  0.882265  0.884367  0.997897  1
  Co  Co16  1  0.661647  0.499388  0.162258  1
  Co  Co17  1  0.338353  0.500612  0.837742  1
