# generated using pymatgen
data_NdTh(Si2Pd)2
_symmetry_space_group_name_H-M   'P 1'
_cell_length_a   8.72437113
_cell_length_b   8.72437171
_cell_length_c   4.22824100
_cell_angle_alpha   90.00000000
_cell_angle_beta   90.00000000
_cell_angle_gamma   151.64146709
_symmetry_Int_Tables_number   1
_chemical_formula_structural   NdTh(Si2Pd)2
_chemical_formula_sum   'Nd1 Th1 Si4 Pd2'
_cell_volume   152.86573930
_cell_formula_units_Z   1
loop_
 _symmetry_equiv_pos_site_id
 _symmetry_equiv_pos_as_xyz
  1  'x, y, z'
loop_
 _atom_site_type_symbol
 _atom_site_label
 _atom_site_symmetry_multiplicity
 _atom_site_fract_x
 _atom_site_fract_y
 _atom_site_fract_z
 _atom_site_occupancy
  Nd  Nd0  1  0.602222  0.397778  0.250000  1
  Th  Th1  1  0.396681  0.603319  0.750000  1
  Si  Si2  1  0.965935  0.034065  0.250000  1
  Si  Si3  1  0.035153  0.964847  0.750000  1
  Si  Si4  1  0.249915  0.750085  0.250000  1
  Si  Si5  1  0.748737  0.251263  0.750000  1
  Pd  Pd6  1  0.823009  0.176991  0.250000  1
  Pd  Pd7  1  0.178345  0.821655  0.750000  1
