# generated using pymatgen
data_Cs2Zn3FeF12
_symmetry_space_group_name_H-M   'P 1'
_cell_length_a   7.35787700
_cell_length_b   7.56079934
_cell_length_c   12.78654857
_cell_angle_alpha   55.15241041
_cell_angle_beta   90.00000000
_cell_angle_gamma   90.00000000
_symmetry_Int_Tables_number   1
_chemical_formula_structural   Cs2Zn3FeF12
_chemical_formula_sum   'Cs4 Zn6 Fe2 F24'
_cell_volume   583.77395674
_cell_formula_units_Z   2
loop_
 _symmetry_equiv_pos_site_id
 _symmetry_equiv_pos_as_xyz
  1  'x, y, z'
loop_
 _atom_site_type_symbol
 _atom_site_label
 _atom_site_symmetry_multiplicity
 _atom_site_fract_x
 _atom_site_fract_y
 _atom_site_fract_z
 _atom_site_occupancy
  Cs  Cs0  1  0.497297  0.363726  0.377425  1
  Cs  Cs1  1  0.002703  0.363726  0.877425  1
  Cs  Cs2  1  0.502703  0.636274  0.622575  1
  Cs  Cs3  1  0.997297  0.636274  0.122575  1
  Zn  Zn4  1  0.500000  0.000000  0.000000  1
  Zn  Zn5  1  0.000000  0.000000  0.500000  1
  Zn  Zn6  1  0.725514  0.987302  0.261122  1
  Zn  Zn7  1  0.774486  0.987302  0.761122  1
  Zn  Zn8  1  0.274486  0.012698  0.738878  1
  Zn  Zn9  1  0.225514  0.012698  0.238878  1
  Fe  Fe10  1  0.500000  0.500000  0.000000  1
  Fe  Fe11  1  0.000000  0.500000  0.500000  1
  F  F12  1  0.669560  0.897702  0.145098  1
  F  F13  1  0.830440  0.897702  0.645098  1
  F  F14  1  0.330440  0.102298  0.854902  1
  F  F15  1  0.169560  0.102298  0.354902  1
  F  F16  1  0.216271  0.962676  0.604898  1
  F  F17  1  0.283729  0.962676  0.104898  1
  F  F18  1  0.783729  0.037324  0.395102  1
  F  F19  1  0.716271  0.037324  0.895102  1
  F  F20  1  0.468952  0.928330  0.321464  1
  F  F21  1  0.031048  0.928330  0.821464  1
  F  F22  1  0.531048  0.071670  0.678536  1
  F  F23  1  0.968952  0.071670  0.178536  1
  F  F24  1  0.842974  0.315131  0.646008  1
  F  F25  1  0.657026  0.315131  0.146008  1
  F  F26  1  0.157026  0.684869  0.353992  1
  F  F27  1  0.342974  0.684869  0.853992  1
  F  F28  1  0.284583  0.337213  0.097710  1
  F  F29  1  0.215417  0.337213  0.597710  1
  F  F30  1  0.715417  0.662787  0.902290  1
  F  F31  1  0.784583  0.662787  0.402290  1
  F  F32  1  0.536711  0.319633  0.937545  1
  F  F33  1  0.963289  0.319633  0.437545  1
  F  F34  1  0.463289  0.680367  0.062455  1
  F  F35  1  0.036711  0.680367  0.562455  1
