# generated using pymatgen
data_CaNd3(ZnGa)4
_symmetry_space_group_name_H-M   'P 1'
_cell_length_a   4.55879100
_cell_length_b   7.47897273
_cell_length_c   7.64807019
_cell_angle_alpha   89.88723304
_cell_angle_beta   90.00000000
_cell_angle_gamma   90.00000000
_symmetry_Int_Tables_number   1
_chemical_formula_structural   CaNd3(ZnGa)4
_chemical_formula_sum   'Ca1 Nd3 Zn4 Ga4'
_cell_volume   260.76101054
_cell_formula_units_Z   1
loop_
 _symmetry_equiv_pos_site_id
 _symmetry_equiv_pos_as_xyz
  1  'x, y, z'
loop_
 _atom_site_type_symbol
 _atom_site_label
 _atom_site_symmetry_multiplicity
 _atom_site_fract_x
 _atom_site_fract_y
 _atom_site_fract_z
 _atom_site_occupancy
  Ca  Ca0  1  0.250000  0.500763  0.218858  1
  Nd  Nd1  1  0.750000  0.998052  0.714832  1
  Nd  Nd2  1  0.250000  0.000021  0.279566  1
  Nd  Nd3  1  0.750000  0.499484  0.792187  1
  Zn  Zn4  1  0.750000  0.692393  0.414899  1
  Zn  Zn5  1  0.250000  0.304986  0.583497  1
  Zn  Zn6  1  0.750000  0.192514  0.083164  1
  Zn  Zn7  1  0.250000  0.801249  0.914421  1
  Ga  Ga8  1  0.750000  0.804643  0.086509  1
  Ga  Ga9  1  0.250000  0.206679  0.909724  1
  Ga  Ga10  1  0.750000  0.294877  0.413869  1
  Ga  Ga11  1  0.250000  0.704338  0.588475  1
