# generated using pymatgen
data_Hf4FeCo3Si7
_symmetry_space_group_name_H-M   'P 1'
_cell_length_a   9.42996204
_cell_length_b   9.42996151
_cell_length_c   9.45279200
_cell_angle_alpha   94.13567579
_cell_angle_beta   94.13567086
_cell_angle_gamma   148.80546840
_symmetry_Int_Tables_number   1
_chemical_formula_structural   Hf4FeCo3Si7
_chemical_formula_sum   'Hf8 Fe2 Co6 Si14'
_cell_volume   419.42177210
_cell_formula_units_Z   2
loop_
 _symmetry_equiv_pos_site_id
 _symmetry_equiv_pos_as_xyz
  1  'x, y, z'
loop_
 _atom_site_type_symbol
 _atom_site_label
 _atom_site_symmetry_multiplicity
 _atom_site_fract_x
 _atom_site_fract_y
 _atom_site_fract_z
 _atom_site_occupancy
  Hf  Hf0  1  0.137598  0.137598  0.275196  1
  Hf  Hf1  1  0.862402  0.862402  0.724804  1
  Hf  Hf2  1  0.861676  0.138324  0.000000  1
  Hf  Hf3  1  0.138324  0.861676  0.000000  1
  Hf  Hf4  1  0.501289  0.305035  0.803804  1
  Hf  Hf5  1  0.501232  0.697485  0.196196  1
  Hf  Hf6  1  0.694965  0.498711  0.196196  1
  Hf  Hf7  1  0.302515  0.498768  0.803804  1
  Fe  Fe8  1  0.399289  0.899289  0.798580  1
  Fe  Fe9  1  0.100711  0.600711  0.201420  1
  Co  Co10  1  0.100951  0.899049  0.500000  1
  Co  Co11  1  0.399049  0.600951  0.500000  1
  Co  Co12  1  0.603515  0.396485  0.500000  1
  Co  Co13  1  0.896485  0.103515  0.500000  1
  Co  Co14  1  0.897272  0.397272  0.794543  1
  Co  Co15  1  0.602728  0.102728  0.205457  1
  Si  Si16  1  0.493361  0.083607  0.593619  1
  Si  Si17  1  0.489989  0.899742  0.406381  1
  Si  Si18  1  0.916393  0.506639  0.406381  1
  Si  Si19  1  0.100258  0.510011  0.593619  1
  Si  Si20  1  0.749641  0.749641  0.000000  1
  Si  Si21  1  0.250359  0.250359  0.000000  1
  Si  Si22  1  0.290062  0.290062  0.580122  1
  Si  Si23  1  0.709938  0.709938  0.419878  1
  Si  Si24  1  0.709779  0.290221  0.000000  1
  Si  Si25  1  0.290221  0.709779  0.000000  1
  Si  Si26  1  0.002102  0.303310  0.300532  1
  Si  Si27  1  0.002779  0.701570  0.699468  1
  Si  Si28  1  0.696690  0.997898  0.699468  1
  Si  Si29  1  0.298430  0.997221  0.300532  1
