# generated using pymatgen
data_Hf10Sn3B2Sb3
_symmetry_space_group_name_H-M   'P 1'
_cell_length_a   8.45242500
_cell_length_b   8.45242545
_cell_length_c   5.73583200
_cell_angle_alpha   90.00000000
_cell_angle_beta   90.00000000
_cell_angle_gamma   120.00000217
_symmetry_Int_Tables_number   1
_chemical_formula_structural   Hf10Sn3B2Sb3
_chemical_formula_sum   'Hf10 Sn3 B2 Sb3'
_cell_volume   354.88669651
_cell_formula_units_Z   1
loop_
 _symmetry_equiv_pos_site_id
 _symmetry_equiv_pos_as_xyz
  1  'x, y, z'
loop_
 _atom_site_type_symbol
 _atom_site_label
 _atom_site_symmetry_multiplicity
 _atom_site_fract_x
 _atom_site_fract_y
 _atom_site_fract_z
 _atom_site_occupancy
  Hf  Hf0  1  0.666667  0.333333  0.000813  1
  Hf  Hf1  1  0.333333  0.666667  0.000813  1
  Hf  Hf2  1  0.333333  0.666667  0.499187  1
  Hf  Hf3  1  0.666667  0.333333  0.499187  1
  Hf  Hf4  1  0.769654  0.769654  0.750000  1
  Hf  Hf5  1  0.230346  0.000000  0.750000  1
  Hf  Hf6  1  0.000000  0.230346  0.750000  1
  Hf  Hf7  1  0.231906  0.231906  0.250000  1
  Hf  Hf8  1  0.768094  0.000000  0.250000  1
  Hf  Hf9  1  0.000000  0.768094  0.250000  1
  Sn  Sn10  1  0.600965  0.600965  0.250000  1
  Sn  Sn11  1  0.399035  0.000000  0.250000  1
  Sn  Sn12  1  0.000000  0.399035  0.250000  1
  B  B13  1  0.000000  0.000000  0.000697  1
  B  B14  1  0.000000  0.000000  0.499303  1
  Sb  Sb15  1  0.401067  0.401067  0.750000  1
  Sb  Sb16  1  0.598933  0.000000  0.750000  1
  Sb  Sb17  1  0.000000  0.598933  0.750000  1
