# generated using pymatgen
data_K16HfTiBi8
_symmetry_space_group_name_H-M   'P 1'
_cell_length_a   11.78581458
_cell_length_b   11.78581401
_cell_length_c   11.78581500
_cell_angle_alpha   60.00000002
_cell_angle_beta   60.00000163
_cell_angle_gamma   60.00000272
_symmetry_Int_Tables_number   1
_chemical_formula_structural   K16HfTiBi8
_chemical_formula_sum   'K16 Hf1 Ti1 Bi8'
_cell_volume   1157.61414229
_cell_formula_units_Z   1
loop_
 _symmetry_equiv_pos_site_id
 _symmetry_equiv_pos_as_xyz
  1  'x, y, z'
loop_
 _atom_site_type_symbol
 _atom_site_label
 _atom_site_symmetry_multiplicity
 _atom_site_fract_x
 _atom_site_fract_y
 _atom_site_fract_z
 _atom_site_occupancy
  K  K0  1  0.623191  0.130425  0.623191  1
  K  K1  1  0.623191  0.623191  0.130425  1
  K  K2  1  0.130425  0.623191  0.623191  1
  K  K3  1  0.623191  0.623191  0.623191  1
  K  K4  1  0.025616  0.025616  0.474384  1
  K  K5  1  0.778276  0.221724  0.221724  1
  K  K6  1  0.221724  0.778276  0.778276  1
  K  K7  1  0.778276  0.778276  0.221724  1
  K  K8  1  0.778276  0.221724  0.778276  1
  K  K9  1  0.221724  0.778276  0.221724  1
  K  K10  1  0.474384  0.025616  0.474384  1
  K  K11  1  0.474384  0.025616  0.025616  1
  K  K12  1  0.025616  0.474384  0.474384  1
  K  K13  1  0.025616  0.474384  0.025616  1
  K  K14  1  0.221724  0.221724  0.778276  1
  K  K15  1  0.474384  0.474384  0.025616  1
  Hf  Hf16  1  0.750000  0.750000  0.750000  1
  Ti  Ti17  1  0.500000  0.500000  0.500000  1
  Bi  Bi18  1  0.400975  0.797076  0.400975  1
  Bi  Bi19  1  0.851568  0.851568  0.445296  1
  Bi  Bi20  1  0.445296  0.851568  0.851568  1
  Bi  Bi21  1  0.851568  0.851568  0.851568  1
  Bi  Bi22  1  0.797076  0.400975  0.400975  1
  Bi  Bi23  1  0.400975  0.400975  0.400975  1
  Bi  Bi24  1  0.400975  0.400975  0.797076  1
  Bi  Bi25  1  0.851568  0.445296  0.851568  1
