# generated using pymatgen
data_Ce4Cd2Pd3Ru
_symmetry_space_group_name_H-M   'P 1'
_cell_length_a   7.79470128
_cell_length_b   7.79470128
_cell_length_c   3.79861700
_cell_angle_alpha   90.00000000
_cell_angle_beta   90.00000000
_cell_angle_gamma   89.14832152
_symmetry_Int_Tables_number   1
_chemical_formula_structural   Ce4Cd2Pd3Ru
_chemical_formula_sum   'Ce4 Cd2 Pd3 Ru1'
_cell_volume   230.76847422
_cell_formula_units_Z   1
loop_
 _symmetry_equiv_pos_site_id
 _symmetry_equiv_pos_as_xyz
  1  'x, y, z'
loop_
 _atom_site_type_symbol
 _atom_site_label
 _atom_site_symmetry_multiplicity
 _atom_site_fract_x
 _atom_site_fract_y
 _atom_site_fract_z
 _atom_site_occupancy
  Ce  Ce0  1  0.327399  0.841377  0.500000  1
  Ce  Ce1  1  0.834177  0.665823  0.500000  1
  Ce  Ce2  1  0.187158  0.312842  0.500000  1
  Ce  Ce3  1  0.658623  0.172601  0.500000  1
  Cd  Cd4  1  0.995102  0.997774  0.000000  1
  Cd  Cd5  1  0.502226  0.504898  0.000000  1
  Pd  Pd6  1  0.871760  0.365078  0.000000  1
  Pd  Pd7  1  0.134922  0.628240  0.000000  1
  Pd  Pd8  1  0.631148  0.868852  0.000000  1
  Ru  Ru9  1  0.357486  0.142514  0.000000  1
