# generated using pymatgen
data_Li4TmNi9As7
_symmetry_space_group_name_H-M   'P 1'
_cell_length_a   9.40917400
_cell_length_b   9.40917338
_cell_length_c   3.84008200
_cell_angle_alpha   90.00000000
_cell_angle_beta   90.00000000
_cell_angle_gamma   120.00000826
_symmetry_Int_Tables_number   1
_chemical_formula_structural   Li4TmNi9As7
_chemical_formula_sum   'Li4 Tm1 Ni9 As7'
_cell_volume   294.42458055
_cell_formula_units_Z   1
loop_
 _symmetry_equiv_pos_site_id
 _symmetry_equiv_pos_as_xyz
  1  'x, y, z'
loop_
 _atom_site_type_symbol
 _atom_site_label
 _atom_site_symmetry_multiplicity
 _atom_site_fract_x
 _atom_site_fract_y
 _atom_site_fract_z
 _atom_site_occupancy
  Li  Li0  1  0.773364  0.544965  0.500000  1
  Li  Li1  1  0.455035  0.228399  0.500000  1
  Li  Li2  1  0.771601  0.226636  0.500000  1
  Li  Li3  1  0.000000  0.000000  0.500000  1
  Tm  Tm4  1  0.333333  0.666667  0.000000  1
  Ni  Ni5  1  0.274009  0.376047  0.500000  1
  Ni  Ni6  1  0.623953  0.897961  0.500000  1
  Ni  Ni7  1  0.102039  0.725991  0.500000  1
  Ni  Ni8  1  0.495126  0.452038  0.000000  1
  Ni  Ni9  1  0.547962  0.043088  0.000000  1
  Ni  Ni10  1  0.956912  0.504874  0.000000  1
  Ni  Ni11  1  0.715674  0.761495  0.000000  1
  Ni  Ni12  1  0.238505  0.954180  0.000000  1
  Ni  Ni13  1  0.045820  0.284326  0.000000  1
  As  As14  1  0.963314  0.756571  0.000000  1
  As  As15  1  0.243429  0.206743  0.000000  1
  As  As16  1  0.793257  0.036686  0.000000  1
  As  As17  1  0.666667  0.333333  0.000000  1
  As  As18  1  0.543870  0.618603  0.500000  1
  As  As19  1  0.381397  0.925266  0.500000  1
  As  As20  1  0.074734  0.456130  0.500000  1
