# generated using pymatgen
data_La2Ga2CuAu
_symmetry_space_group_name_H-M   'P 1'
_cell_length_a   5.92173364
_cell_length_b   5.84772920
_cell_length_c   5.84772896
_cell_angle_alpha   133.24615747
_cell_angle_beta   101.75857525
_cell_angle_gamma   96.15061731
_symmetry_Int_Tables_number   1
_chemical_formula_structural   La2Ga2CuAu
_chemical_formula_sum   'La2 Ga2 Cu1 Au1'
_cell_volume   135.48742741
_cell_formula_units_Z   1
loop_
 _symmetry_equiv_pos_site_id
 _symmetry_equiv_pos_as_xyz
  1  'x, y, z'
loop_
 _atom_site_type_symbol
 _atom_site_label
 _atom_site_symmetry_multiplicity
 _atom_site_fract_x
 _atom_site_fract_y
 _atom_site_fract_z
 _atom_site_occupancy
  La  La0  1  0.216982  0.471904  0.745079  1
  La  La1  1  0.779285  0.526104  0.253180  1
  Ga  Ga2  1  0.600710  0.155599  0.445111  1
  Ga  Ga3  1  0.232257  0.178441  0.053816  1
  Cu  Cu4  1  0.365872  0.833151  0.532721  1
  Au  Au5  1  0.804893  0.834800  0.970093  1
