# generated using pymatgen
data_Tb4Ga18Ir5Pd
_symmetry_space_group_name_H-M   'P 1'
_cell_length_a   7.62469926
_cell_length_b   7.62470477
_cell_length_c   9.52785609
_cell_angle_alpha   89.99226855
_cell_angle_beta   89.99215101
_cell_angle_gamma   119.82133264
_symmetry_Int_Tables_number   1
_chemical_formula_structural   Tb4Ga18Ir5Pd
_chemical_formula_sum   'Tb4 Ga18 Ir5 Pd1'
_cell_volume   480.56333704
_cell_formula_units_Z   1
loop_
 _symmetry_equiv_pos_site_id
 _symmetry_equiv_pos_as_xyz
  1  'x, y, z'
loop_
 _atom_site_type_symbol
 _atom_site_label
 _atom_site_symmetry_multiplicity
 _atom_site_fract_x
 _atom_site_fract_y
 _atom_site_fract_z
 _atom_site_occupancy
  Tb  Tb0  1  0.996841  0.668931  0.251000  1
  Tb  Tb1  1  0.002285  0.330574  0.748805  1
  Tb  Tb2  1  0.669427  0.997715  0.251196  1
  Tb  Tb3  1  0.331069  0.003161  0.749000  1
  Ga  Ga4  1  0.127342  0.126220  0.250151  1
  Ga  Ga5  1  0.873779  0.872658  0.749849  1
  Ga  Ga6  1  0.002479  0.334395  0.081971  1
  Ga  Ga7  1  0.003749  0.668367  0.918186  1
  Ga  Ga8  1  0.000811  0.665363  0.579734  1
  Ga  Ga9  1  0.334637  0.999188  0.420266  1
  Ga  Ga10  1  0.999376  0.334937  0.419948  1
  Ga  Ga11  1  0.665063  0.000624  0.580051  1
  Ga  Ga12  1  0.665605  0.997522  0.918029  1
  Ga  Ga13  1  0.331635  0.996251  0.081815  1
  Ga  Ga14  1  0.331335  0.331484  0.562919  1
  Ga  Ga15  1  0.668517  0.668665  0.437080  1
  Ga  Ga16  1  0.668180  0.671212  0.066264  1
  Ga  Ga17  1  0.328789  0.331821  0.933736  1
  Ga  Ga18  1  0.340348  0.547598  0.250412  1
  Ga  Ga19  1  0.660230  0.454254  0.748330  1
  Ga  Ga20  1  0.545746  0.339770  0.251671  1
  Ga  Ga21  1  0.452402  0.659652  0.749588  1
  Ir  Ir22  1  0.329354  0.670647  0.000000  1
  Ir  Ir23  1  0.328482  0.671521  0.500000  1
  Ir  Ir24  1  0.671397  0.328602  0.500001  1
  Ir  Ir25  1  0.000496  0.999505  0.000000  1
  Ir  Ir26  1  0.999577  0.000424  0.500000  1
  Pd  Pd27  1  0.671049  0.328944  0.999999  1
