# generated using pymatgen
data_Ho10AlSn3Bi2
_symmetry_space_group_name_H-M   'P 1'
_cell_length_a   8.96245000
_cell_length_b   8.98106792
_cell_length_c   6.56176000
_cell_angle_alpha   90.00000000
_cell_angle_beta   90.00000000
_cell_angle_gamma   119.78346797
_symmetry_Int_Tables_number   1
_chemical_formula_structural   Ho10AlSn3Bi2
_chemical_formula_sum   'Ho10 Al1 Sn3 Bi2'
_cell_volume   458.40481090
_cell_formula_units_Z   1
loop_
 _symmetry_equiv_pos_site_id
 _symmetry_equiv_pos_as_xyz
  1  'x, y, z'
loop_
 _atom_site_type_symbol
 _atom_site_label
 _atom_site_symmetry_multiplicity
 _atom_site_fract_x
 _atom_site_fract_y
 _atom_site_fract_z
 _atom_site_occupancy
  Ho  Ho0  1  0.761956  0.755385  0.250000  1
  Ho  Ho1  1  0.005921  0.242817  0.250000  1
  Ho  Ho2  1  0.762897  0.991356  0.750000  1
  Ho  Ho3  1  0.333798  0.657719  0.502315  1
  Ho  Ho4  1  0.233733  0.999984  0.250000  1
  Ho  Ho5  1  0.670846  0.347386  0.502164  1
  Ho  Ho6  1  0.986141  0.754434  0.750000  1
  Ho  Ho7  1  0.333798  0.657719  0.997685  1
  Ho  Ho8  1  0.241194  0.247793  0.750000  1
  Ho  Ho9  1  0.670846  0.347386  0.997836  1
  Al  Al10  1  0.602316  0.604401  0.750000  1
  Sn  Sn11  1  0.996310  0.391737  0.750000  1
  Sn  Sn12  1  0.395830  0.393496  0.250000  1
  Sn  Sn13  1  0.005610  0.606764  0.250000  1
  Bi  Bi14  1  0.390906  0.998745  0.750000  1
  Bi  Bi15  1  0.607897  0.002882  0.250000  1
