# generated using pymatgen
data_Li6In9Pt7
_symmetry_space_group_name_H-M   'P 1'
_cell_length_a   7.19510061
_cell_length_b   7.19510116
_cell_length_c   9.57736100
_cell_angle_alpha   62.23639027
_cell_angle_beta   62.23638796
_cell_angle_gamma   75.18132776
_symmetry_Int_Tables_number   1
_chemical_formula_structural   Li6In9Pt7
_chemical_formula_sum   'Li6 In9 Pt7'
_cell_volume   387.75059879
_cell_formula_units_Z   1
loop_
 _symmetry_equiv_pos_site_id
 _symmetry_equiv_pos_as_xyz
  1  'x, y, z'
loop_
 _atom_site_type_symbol
 _atom_site_label
 _atom_site_symmetry_multiplicity
 _atom_site_fract_x
 _atom_site_fract_y
 _atom_site_fract_z
 _atom_site_occupancy
  Li  Li0  1  0.540794  0.052270  0.155784  1
  Li  Li1  1  0.538173  0.538173  0.672789  1
  Li  Li2  1  0.052270  0.540794  0.155784  1
  Li  Li3  1  0.461827  0.461827  0.327211  1
  Li  Li4  1  0.947730  0.459206  0.844216  1
  Li  Li5  1  0.459206  0.947730  0.844216  1
  In  In6  1  0.237967  0.831293  0.195604  1
  In  In7  1  0.173863  0.173863  0.387425  1
  In  In8  1  0.280968  0.280968  0.670824  1
  In  In9  1  0.831293  0.237967  0.195604  1
  In  In10  1  0.719032  0.719032  0.329176  1
  In  In11  1  0.500000  0.500000  0.000000  1
  In  In12  1  0.762033  0.168707  0.804396  1
  In  In13  1  0.168707  0.762033  0.804396  1
  In  In14  1  0.826137  0.826137  0.612575  1
  Pt  Pt15  1  0.500000  0.000000  0.500000  1
  Pt  Pt16  1  0.265700  0.734300  0.500000  1
  Pt  Pt17  1  0.270146  0.270146  0.986118  1
  Pt  Pt18  1  0.729854  0.729854  0.013882  1
  Pt  Pt19  1  0.734300  0.265700  0.500000  1
  Pt  Pt20  1  0.000000  0.000000  0.000000  1
  Pt  Pt21  1  0.000000  0.500000  0.500000  1
