# generated using pymatgen
data_Ce4Ho16Ir11Rh
_symmetry_space_group_name_H-M   'P 1'
_cell_length_a   10.94236001
_cell_length_b   10.91096801
_cell_length_c   6.30924500
_cell_angle_alpha   90.00000000
_cell_angle_beta   90.00000000
_cell_angle_gamma   90.00582572
_symmetry_Int_Tables_number   1
_chemical_formula_structural   Ce4Ho16Ir11Rh
_chemical_formula_sum   'Ce4 Ho16 Ir11 Rh1'
_cell_volume   753.27173546
_cell_formula_units_Z   1
loop_
 _symmetry_equiv_pos_site_id
 _symmetry_equiv_pos_as_xyz
  1  'x, y, z'
loop_
 _atom_site_type_symbol
 _atom_site_label
 _atom_site_symmetry_multiplicity
 _atom_site_fract_x
 _atom_site_fract_y
 _atom_site_fract_z
 _atom_site_occupancy
  Ce  Ce0  1  0.293186  0.092704  0.381294  1
  Ce  Ce1  1  0.293205  0.907156  0.881253  1
  Ce  Ce2  1  0.706795  0.092844  0.881253  1
  Ce  Ce3  1  0.706814  0.907296  0.381294  1
  Ho  Ho4  1  0.589105  0.785948  0.878896  1
  Ho  Ho5  1  0.588988  0.214045  0.378942  1
  Ho  Ho6  1  0.411012  0.785955  0.378942  1
  Ho  Ho7  1  0.410895  0.214052  0.878896  1
  Ho  Ho8  1  0.207317  0.413048  0.620437  1
  Ho  Ho9  1  0.207498  0.587027  0.122089  1
  Ho  Ho10  1  0.792502  0.412973  0.122089  1
  Ho  Ho11  1  0.792683  0.586952  0.620437  1
  Ho  Ho12  1  0.912643  0.708568  0.118108  1
  Ho  Ho13  1  0.912768  0.291590  0.616223  1
  Ho  Ho14  1  0.087232  0.708410  0.616223  1
  Ho  Ho15  1  0.087357  0.291432  0.118108  1
  Ho  Ho16  1  0.000000  0.000000  0.496210  1
  Ho  Ho17  1  0.000000  0.000000  0.996181  1
  Ho  Ho18  1  0.500000  0.500000  0.010478  1
  Ho  Ho19  1  0.500000  0.500000  0.510698  1
  Ir  Ir20  1  0.844556  0.153819  0.243743  1
  Ir  Ir21  1  0.844753  0.846035  0.743956  1
  Ir  Ir22  1  0.155247  0.153965  0.743956  1
  Ir  Ir23  1  0.155444  0.846181  0.243743  1
  Ir  Ir24  1  0.653925  0.346581  0.756496  1
  Ir  Ir25  1  0.653758  0.653527  0.256386  1
  Ir  Ir26  1  0.346242  0.346473  0.256386  1
  Ir  Ir27  1  0.346075  0.653419  0.756496  1
  Ir  Ir28  1  0.500000  0.000000  0.119707  1
  Ir  Ir29  1  0.500000  0.000000  0.619815  1
  Ir  Ir30  1  0.000000  0.500000  0.375251  1
  Rh  Rh31  1  0.000000  0.500000  0.876014  1
