# generated using pymatgen
data_TbDy19(IrPt5)2
_symmetry_space_group_name_H-M   'P 1'
_cell_length_a   11.05640602
_cell_length_b   11.05608007
_cell_length_c   6.42473103
_cell_angle_alpha   89.98885019
_cell_angle_beta   89.99689909
_cell_angle_gamma   90.00582465
_symmetry_Int_Tables_number   1
_chemical_formula_structural   TbDy19(IrPt5)2
_chemical_formula_sum   'Tb1 Dy19 Ir2 Pt10'
_cell_volume   785.36237918
_cell_formula_units_Z   1
loop_
 _symmetry_equiv_pos_site_id
 _symmetry_equiv_pos_as_xyz
  1  'x, y, z'
loop_
 _atom_site_type_symbol
 _atom_site_label
 _atom_site_symmetry_multiplicity
 _atom_site_fract_x
 _atom_site_fract_y
 _atom_site_fract_z
 _atom_site_occupancy
  Tb  Tb0  1  0.292431  0.088718  0.376804  1
  Dy  Dy1  1  0.292690  0.911178  0.877025  1
  Dy  Dy2  1  0.707286  0.088707  0.877161  1
  Dy  Dy3  1  0.707287  0.911301  0.377111  1
  Dy  Dy4  1  0.588665  0.792678  0.877082  1
  Dy  Dy5  1  0.588849  0.207339  0.377117  1
  Dy  Dy6  1  0.411372  0.792536  0.377082  1
  Dy  Dy7  1  0.411438  0.207413  0.877073  1
  Dy  Dy8  1  0.204831  0.412019  0.623530  1
  Dy  Dy9  1  0.204851  0.588000  0.123501  1
  Dy  Dy10  1  0.795178  0.412009  0.123460  1
  Dy  Dy11  1  0.795155  0.588046  0.623482  1
  Dy  Dy12  1  0.911982  0.704840  0.123478  1
  Dy  Dy13  1  0.911978  0.295182  0.623463  1
  Dy  Dy14  1  0.087996  0.704822  0.623531  1
  Dy  Dy15  1  0.087923  0.295217  0.123373  1
  Dy  Dy16  1  0.999850  0.999944  0.500723  1
  Dy  Dy17  1  0.999947  0.999980  0.000612  1
  Dy  Dy18  1  0.500010  0.500026  0.000657  1
  Dy  Dy19  1  0.500013  0.499989  0.500692  1
  Ir  Ir20  1  0.999990  0.500007  0.878210  1
  Ir  Ir21  1  0.999985  0.500027  0.378155  1
  Pt  Pt22  1  0.845899  0.152909  0.249906  1
  Pt  Pt23  1  0.845865  0.847100  0.749897  1
  Pt  Pt24  1  0.153927  0.153016  0.750478  1
  Pt  Pt25  1  0.154035  0.846891  0.249789  1
  Pt  Pt26  1  0.652906  0.345881  0.749913  1
  Pt  Pt27  1  0.652883  0.654128  0.249920  1
  Pt  Pt28  1  0.347190  0.346171  0.249761  1
  Pt  Pt29  1  0.347093  0.654123  0.749902  1
  Pt  Pt30  1  0.500213  0.999917  0.118328  1
  Pt  Pt31  1  0.500283  0.999885  0.618786  1
