# generated using pymatgen
data_Ce3Cd3Ag2Ru
_symmetry_space_group_name_H-M   'P 1'
_cell_length_a   8.02438000
_cell_length_b   8.02437969
_cell_length_c   3.85826000
_cell_angle_alpha   90.00000000
_cell_angle_beta   90.00000000
_cell_angle_gamma   120.00000950
_symmetry_Int_Tables_number   1
_chemical_formula_structural   Ce3Cd3Ag2Ru
_chemical_formula_sum   'Ce3 Cd3 Ag2 Ru1'
_cell_volume   215.15182669
_cell_formula_units_Z   1
loop_
 _symmetry_equiv_pos_site_id
 _symmetry_equiv_pos_as_xyz
  1  'x, y, z'
loop_
 _atom_site_type_symbol
 _atom_site_label
 _atom_site_symmetry_multiplicity
 _atom_site_fract_x
 _atom_site_fract_y
 _atom_site_fract_z
 _atom_site_occupancy
  Ce  Ce0  1  0.571831  0.608235  0.000000  1
  Ce  Ce1  1  0.391765  0.963596  0.000000  1
  Ce  Ce2  1  0.036404  0.428169  0.000000  1
  Cd  Cd3  1  0.987423  0.731108  0.500000  1
  Cd  Cd4  1  0.268892  0.256313  0.500000  1
  Cd  Cd5  1  0.743687  0.012577  0.500000  1
  Ag  Ag6  1  0.000000  0.000000  0.000000  1
  Ag  Ag7  1  0.666667  0.333333  0.500000  1
  Ru  Ru8  1  0.333333  0.666667  0.500000  1
