# generated using pymatgen
data_Hf4Zr6Zn2SnSb5
_symmetry_space_group_name_H-M   'P 1'
_cell_length_a   8.65697100
_cell_length_b   8.66073024
_cell_length_c   5.82742700
_cell_angle_alpha   90.00000000
_cell_angle_beta   90.00000000
_cell_angle_gamma   119.98564641
_symmetry_Int_Tables_number   1
_chemical_formula_structural   Hf4Zr6Zn2SnSb5
_chemical_formula_sum   'Hf4 Zr6 Zn2 Sn1 Sb5'
_cell_volume   378.43451953
_cell_formula_units_Z   1
loop_
 _symmetry_equiv_pos_site_id
 _symmetry_equiv_pos_as_xyz
  1  'x, y, z'
loop_
 _atom_site_type_symbol
 _atom_site_label
 _atom_site_symmetry_multiplicity
 _atom_site_fract_x
 _atom_site_fract_y
 _atom_site_fract_z
 _atom_site_occupancy
  Hf  Hf0  1  0.333231  0.666201  0.500372  1
  Hf  Hf1  1  0.667032  0.333799  0.999628  1
  Hf  Hf2  1  0.667032  0.333799  0.500372  1
  Hf  Hf3  1  0.333231  0.666201  0.999628  1
  Zr  Zr4  1  0.729989  0.729985  0.250000  1
  Zr  Zr5  1  0.730659  0.000000  0.750000  1
  Zr  Zr6  1  0.000003  0.270015  0.250000  1
  Zr  Zr7  1  0.999639  0.729339  0.750000  1
  Zr  Zr8  1  0.270300  0.270661  0.750000  1
  Zr  Zr9  1  0.269256  0.000000  0.250000  1
  Zn  Zn10  1  0.000628  0.000000  0.999555  1
  Zn  Zn11  1  0.000628  0.000000  0.500445  1
  Sn  Sn12  1  0.384415  0.000000  0.750000  1
  Sb  Sb13  1  0.385566  0.385130  0.250000  1
  Sb  Sb14  1  0.000435  0.614870  0.250000  1
  Sb  Sb15  1  0.000056  0.385501  0.750000  1
  Sb  Sb16  1  0.614555  0.614499  0.750000  1
  Sb  Sb17  1  0.613350  0.000000  0.250000  1
