# generated using pymatgen
data_Gd2OsN3
_symmetry_space_group_name_H-M   'P 1'
_cell_length_a   3.42243466
_cell_length_b   3.78746499
_cell_length_c   6.88171800
_cell_angle_alpha   105.98143333
_cell_angle_beta   104.43433108
_cell_angle_gamma   90.02224904
_symmetry_Int_Tables_number   1
_chemical_formula_structural   Gd2OsN3
_chemical_formula_sum   'Gd2 Os1 N3'
_cell_volume   82.82013959
_cell_formula_units_Z   1
loop_
 _symmetry_equiv_pos_site_id
 _symmetry_equiv_pos_as_xyz
  1  'x, y, z'
loop_
 _atom_site_type_symbol
 _atom_site_label
 _atom_site_symmetry_multiplicity
 _atom_site_fract_x
 _atom_site_fract_y
 _atom_site_fract_z
 _atom_site_occupancy
  Gd  Gd0  1  0.347727  0.347701  0.695344  1
  Gd  Gd1  1  0.652273  0.652299  0.304656  1
  Os  Os2  1  0.000000  0.000000  0.000000  1
  N  N3  1  0.165213  0.165305  0.330376  1
  N  N4  1  0.834786  0.834695  0.669624  1
  N  N5  1  0.000000  0.500000  0.000000  1
