# generated using pymatgen
data_Tb9Y7Cd4OsPt3
_symmetry_space_group_name_H-M   'P 1'
_cell_length_a   9.74611894
_cell_length_b   9.74611956
_cell_length_c   9.74736014
_cell_angle_alpha   59.53175152
_cell_angle_beta   59.53175772
_cell_angle_gamma   59.57524281
_symmetry_Int_Tables_number   1
_chemical_formula_structural   Tb9Y7Cd4OsPt3
_chemical_formula_sum   'Tb9 Y7 Cd4 Os1 Pt3'
_cell_volume   647.93521365
_cell_formula_units_Z   1
loop_
 _symmetry_equiv_pos_site_id
 _symmetry_equiv_pos_as_xyz
  1  'x, y, z'
loop_
 _atom_site_type_symbol
 _atom_site_label
 _atom_site_symmetry_multiplicity
 _atom_site_fract_x
 _atom_site_fract_y
 _atom_site_fract_z
 _atom_site_occupancy
  Tb  Tb0  1  0.351758  0.351758  0.351836  1
  Tb  Tb1  1  0.349574  0.349574  0.948924  1
  Tb  Tb2  1  0.349593  0.949281  0.349207  1
  Tb  Tb3  1  0.949281  0.349593  0.349207  1
  Tb  Tb4  1  0.814144  0.189043  0.189466  1
  Tb  Tb5  1  0.188763  0.809162  0.809552  1
  Tb  Tb6  1  0.189043  0.814144  0.189466  1
  Tb  Tb7  1  0.809162  0.188763  0.809552  1
  Tb  Tb8  1  0.189500  0.189500  0.814096  1
  Y  Y9  1  0.808860  0.808860  0.189180  1
  Y  Y10  1  0.935607  0.564968  0.565134  1
  Y  Y11  1  0.558543  0.937361  0.937384  1
  Y  Y12  1  0.564968  0.935607  0.565134  1
  Y  Y13  1  0.937361  0.558543  0.937384  1
  Y  Y14  1  0.564854  0.564854  0.936216  1
  Y  Y15  1  0.937432  0.937432  0.558610  1
  Cd  Cd16  1  0.580530  0.580530  0.579796  1
  Cd  Cd17  1  0.581550  0.581550  0.254105  1
  Cd  Cd18  1  0.581219  0.254235  0.581349  1
  Cd  Cd19  1  0.254235  0.581219  0.581349  1
  Os  Os20  1  0.143279  0.143279  0.143038  1
  Pt  Pt21  1  0.143782  0.143782  0.572646  1
  Pt  Pt22  1  0.144518  0.572446  0.143685  1
  Pt  Pt23  1  0.572446  0.144518  0.143685  1
