# generated using pymatgen
data_Ac4Si4I3
_symmetry_space_group_name_H-M   'P 1'
_cell_length_a   12.92001216
_cell_length_b   12.92001160
_cell_length_c   13.00722618
_cell_angle_alpha   82.78101215
_cell_angle_beta   82.78101235
_cell_angle_gamma   19.65907988
_symmetry_Int_Tables_number   1
_chemical_formula_structural   Ac4Si4I3
_chemical_formula_sum   'Ac8 Si8 I6'
_cell_volume   724.49431863
_cell_formula_units_Z   2
loop_
 _symmetry_equiv_pos_site_id
 _symmetry_equiv_pos_as_xyz
  1  'x, y, z'
loop_
 _atom_site_type_symbol
 _atom_site_label
 _atom_site_symmetry_multiplicity
 _atom_site_fract_x
 _atom_site_fract_y
 _atom_site_fract_z
 _atom_site_occupancy
  Ac  Ac0  1  0.495966  0.495966  0.164911  1
  Ac  Ac1  1  0.925580  0.925580  0.444012  1
  Ac  Ac2  1  0.355944  0.355944  0.023561  1
  Ac  Ac3  1  0.074420  0.074420  0.555988  1
  Ac  Ac4  1  0.644056  0.644056  0.976439  1
  Ac  Ac5  1  0.638220  0.638220  0.290051  1
  Ac  Ac6  1  0.361780  0.361780  0.709949  1
  Ac  Ac7  1  0.504034  0.504034  0.835089  1
  Si  Si8  1  0.523396  0.523396  0.406278  1
  Si  Si9  1  0.040965  0.040965  0.324640  1
  Si  Si10  1  0.048791  0.048791  0.988548  1
  Si  Si11  1  0.476604  0.476604  0.593722  1
  Si  Si12  1  0.907200  0.907200  0.858596  1
  Si  Si13  1  0.951209  0.951209  0.011452  1
  Si  Si14  1  0.959035  0.959035  0.675360  1
  Si  Si15  1  0.092800  0.092800  0.141404  1
  I  I16  1  0.243866  0.243866  0.871173  1
  I  I17  1  0.756134  0.756134  0.128827  1
  I  I18  1  0.799949  0.799949  0.571706  1
  I  I19  1  0.367543  0.367543  0.288816  1
  I  I20  1  0.200051  0.200051  0.428294  1
  I  I21  1  0.632457  0.632457  0.711184  1
