# generated using pymatgen
data_Sc3Cd2In3Ru
_symmetry_space_group_name_H-M   'P 1'
_cell_length_a   8.09504600
_cell_length_b   8.09504595
_cell_length_c   3.42210800
_cell_angle_alpha   90.00000000
_cell_angle_beta   90.00000000
_cell_angle_gamma   119.99999203
_symmetry_Int_Tables_number   1
_chemical_formula_structural   Sc3Cd2In3Ru
_chemical_formula_sum   'Sc3 Cd2 In3 Ru1'
_cell_volume   194.20616725
_cell_formula_units_Z   1
loop_
 _symmetry_equiv_pos_site_id
 _symmetry_equiv_pos_as_xyz
  1  'x, y, z'
loop_
 _atom_site_type_symbol
 _atom_site_label
 _atom_site_symmetry_multiplicity
 _atom_site_fract_x
 _atom_site_fract_y
 _atom_site_fract_z
 _atom_site_occupancy
  Sc  Sc0  1  0.586001  0.636490  0.000000  1
  Sc  Sc1  1  0.363510  0.949509  0.000000  1
  Sc  Sc2  1  0.050491  0.413999  0.000000  1
  Cd  Cd3  1  0.000000  0.000000  0.000000  1
  Cd  Cd4  1  0.666667  0.333333  0.500000  1
  In  In5  1  0.994799  0.703388  0.500000  1
  In  In6  1  0.296612  0.291411  0.500000  1
  In  In7  1  0.708589  0.005201  0.500000  1
  Ru  Ru8  1  0.333333  0.666667  0.500000  1
