# generated using pymatgen
data_Ca6LaY(Si3Pd)4
_symmetry_space_group_name_H-M   'P 1'
_cell_length_a   8.26259000
_cell_length_b   8.26258964
_cell_length_c   8.41656100
_cell_angle_alpha   90.00000000
_cell_angle_beta   90.00000000
_cell_angle_gamma   119.99999344
_symmetry_Int_Tables_number   1
_chemical_formula_structural   Ca6LaY(Si3Pd)4
_chemical_formula_sum   'Ca6 La1 Y1 Si12 Pd4'
_cell_volume   497.61988076
_cell_formula_units_Z   1
loop_
 _symmetry_equiv_pos_site_id
 _symmetry_equiv_pos_as_xyz
  1  'x, y, z'
loop_
 _atom_site_type_symbol
 _atom_site_label
 _atom_site_symmetry_multiplicity
 _atom_site_fract_x
 _atom_site_fract_y
 _atom_site_fract_z
 _atom_site_occupancy
  Ca  Ca0  1  0.501916  0.003831  0.250000  1
  Ca  Ca1  1  0.497877  0.995756  0.750000  1
  Ca  Ca2  1  0.996169  0.498084  0.250000  1
  Ca  Ca3  1  0.004244  0.502123  0.750000  1
  Ca  Ca4  1  0.501916  0.498084  0.250000  1
  Ca  Ca5  1  0.497877  0.502123  0.750000  1
  La  La6  1  0.000000  0.000000  0.250000  1
  Y  Y7  1  0.000000  0.000000  0.750000  1
  Si  Si8  1  0.165183  0.330365  0.997671  1
  Si  Si9  1  0.834861  0.669721  0.993851  1
  Si  Si10  1  0.669635  0.834817  0.997671  1
  Si  Si11  1  0.834861  0.669721  0.506149  1
  Si  Si12  1  0.330279  0.165139  0.993851  1
  Si  Si13  1  0.165183  0.330365  0.502329  1
  Si  Si14  1  0.165183  0.834817  0.997671  1
  Si  Si15  1  0.330279  0.165139  0.506149  1
  Si  Si16  1  0.834861  0.165139  0.993851  1
  Si  Si17  1  0.669635  0.834817  0.502329  1
  Si  Si18  1  0.834861  0.165139  0.506149  1
  Si  Si19  1  0.165183  0.834817  0.502329  1
  Pd  Pd20  1  0.333333  0.666667  0.002747  1
  Pd  Pd21  1  0.666667  0.333333  0.995770  1
  Pd  Pd22  1  0.666667  0.333333  0.504230  1
  Pd  Pd23  1  0.333333  0.666667  0.497253  1
