# generated using pymatgen
data_Tb3SmScPt3O14
_symmetry_space_group_name_H-M   'P 1'
_cell_length_a   7.31117376
_cell_length_b   7.31117335
_cell_length_c   7.38677177
_cell_angle_alpha   60.27340334
_cell_angle_beta   60.27341553
_cell_angle_gamma   59.93158668
_symmetry_Int_Tables_number   1
_chemical_formula_structural   Tb3SmScPt3O14
_chemical_formula_sum   'Tb3 Sm1 Sc1 Pt3 O14'
_cell_volume   280.20084407
_cell_formula_units_Z   1
loop_
 _symmetry_equiv_pos_site_id
 _symmetry_equiv_pos_as_xyz
  1  'x, y, z'
loop_
 _atom_site_type_symbol
 _atom_site_label
 _atom_site_symmetry_multiplicity
 _atom_site_fract_x
 _atom_site_fract_y
 _atom_site_fract_z
 _atom_site_occupancy
  Tb  Tb0  1  0.625000  0.625000  0.125000  1
  Tb  Tb1  1  0.625000  0.125000  0.625000  1
  Tb  Tb2  1  0.125000  0.625000  0.625000  1
  Sm  Sm3  1  0.625000  0.625000  0.625000  1
  Sc  Sc4  1  0.125000  0.125000  0.625000  1
  Pt  Pt5  1  0.125000  0.125000  0.125000  1
  Pt  Pt6  1  0.625000  0.125000  0.125000  1
  Pt  Pt7  1  0.125000  0.625000  0.125000  1
  O  O8  1  0.035303  0.475238  0.458826  1
  O  O9  1  0.790306  0.790306  0.200076  1
  O  O10  1  0.789855  0.218337  0.202372  1
  O  O11  1  0.475238  0.035303  0.458826  1
  O  O12  1  0.031663  0.460145  0.047628  1
  O  O13  1  0.749408  0.749408  0.758951  1
  O  O14  1  0.032181  0.032181  0.459357  1
  O  O15  1  0.218337  0.789855  0.202372  1
  O  O16  1  0.217819  0.217819  0.790643  1
  O  O17  1  0.500592  0.500592  0.491049  1
  O  O18  1  0.774762  0.214697  0.791174  1
  O  O19  1  0.460145  0.031663  0.047628  1
  O  O20  1  0.459694  0.459694  0.049924  1
  O  O21  1  0.214697  0.774762  0.791174  1
