# generated using pymatgen
data_Er5Al14Sn
_symmetry_space_group_name_H-M   'P 1'
_cell_length_a   12.45607744
_cell_length_b   12.45903027
_cell_length_c   12.45902929
_cell_angle_alpha   28.53236348
_cell_angle_beta   28.48161971
_cell_angle_gamma   28.48161903
_symmetry_Int_Tables_number   1
_chemical_formula_structural   Er5Al14Sn
_chemical_formula_sum   'Er5 Al14 Sn1'
_cell_volume   389.06002069
_cell_formula_units_Z   1
loop_
 _symmetry_equiv_pos_site_id
 _symmetry_equiv_pos_as_xyz
  1  'x, y, z'
loop_
 _atom_site_type_symbol
 _atom_site_label
 _atom_site_symmetry_multiplicity
 _atom_site_fract_x
 _atom_site_fract_y
 _atom_site_fract_z
 _atom_site_occupancy
  Er  Er0  1  0.001008  0.998978  0.998978  1
  Er  Er1  1  0.130615  0.131151  0.131151  1
  Er  Er2  1  0.868942  0.869532  0.869532  1
  Er  Er3  1  0.401731  0.398529  0.398529  1
  Er  Er4  1  0.599999  0.599973  0.599973  1
  Al  Al5  1  0.635463  0.636205  0.129307  1
  Al  Al6  1  0.635463  0.129307  0.636205  1
  Al  Al7  1  0.366613  0.882194  0.356206  1
  Al  Al8  1  0.366613  0.356206  0.882194  1
  Al  Al9  1  0.871250  0.364118  0.364118  1
  Al  Al10  1  0.430483  0.883589  0.883589  1
  Al  Al11  1  0.877984  0.887326  0.427242  1
  Al  Al12  1  0.877984  0.427242  0.887326  1
  Al  Al13  1  0.115748  0.568758  0.117233  1
  Al  Al14  1  0.115748  0.117233  0.568758  1
  Al  Al15  1  0.570558  0.116704  0.116704  1
  Al  Al16  1  0.498740  0.499830  0.000561  1
  Al  Al17  1  0.498740  0.000561  0.499830  1
  Al  Al18  1  0.002358  0.498479  0.498479  1
  Sn  Sn19  1  0.133961  0.634085  0.634085  1
