# generated using pymatgen
data_Tb3Ru2Au
_symmetry_space_group_name_H-M   'P 1'
_cell_length_a   3.41523100
_cell_length_b   3.41523100
_cell_length_c   10.86497900
_cell_angle_alpha   90.00000000
_cell_angle_beta   90.00000000
_cell_angle_gamma   90.00000000
_symmetry_Int_Tables_number   1
_chemical_formula_structural   Tb3Ru2Au
_chemical_formula_sum   'Tb3 Ru2 Au1'
_cell_volume   126.72697230
_cell_formula_units_Z   1
loop_
 _symmetry_equiv_pos_site_id
 _symmetry_equiv_pos_as_xyz
  1  'x, y, z'
loop_
 _atom_site_type_symbol
 _atom_site_label
 _atom_site_symmetry_multiplicity
 _atom_site_fract_x
 _atom_site_fract_y
 _atom_site_fract_z
 _atom_site_occupancy
  Tb  Tb0  1  0.000000  0.000000  0.000000  1
  Tb  Tb1  1  0.000000  0.000000  0.315099  1
  Tb  Tb2  1  0.000000  0.000000  0.684901  1
  Ru  Ru3  1  0.500000  0.500000  0.163273  1
  Ru  Ru4  1  0.500000  0.500000  0.836727  1
  Au  Au5  1  0.500000  0.500000  0.500000  1
