# generated using pymatgen
data_Dy15Ni32
_symmetry_space_group_name_H-M   'P 1'
_cell_length_a   10.09239795
_cell_length_b   10.09239752
_cell_length_c   10.09239800
_cell_angle_alpha   59.99999844
_cell_angle_beta   59.99999985
_cell_angle_gamma   60.00000038
_symmetry_Int_Tables_number   1
_chemical_formula_structural   Dy15Ni32
_chemical_formula_sum   'Dy15 Ni32'
_cell_volume   726.88897506
_cell_formula_units_Z   1
loop_
 _symmetry_equiv_pos_site_id
 _symmetry_equiv_pos_as_xyz
  1  'x, y, z'
loop_
 _atom_site_type_symbol
 _atom_site_label
 _atom_site_symmetry_multiplicity
 _atom_site_fract_x
 _atom_site_fract_y
 _atom_site_fract_z
 _atom_site_occupancy
  Dy  Dy0  1  0.987100  0.987100  0.512900  1
  Dy  Dy1  1  0.512900  0.987100  0.987100  1
  Dy  Dy2  1  0.987100  0.512900  0.987100  1
  Dy  Dy3  1  0.512900  0.512900  0.987100  1
  Dy  Dy4  1  0.987100  0.512900  0.512900  1
  Dy  Dy5  1  0.512900  0.987100  0.512900  1
  Dy  Dy6  1  0.373150  0.373150  0.373150  1
  Dy  Dy7  1  0.373150  0.880551  0.373150  1
  Dy  Dy8  1  0.880551  0.373150  0.373150  1
  Dy  Dy9  1  0.373150  0.373150  0.880551  1
  Dy  Dy10  1  0.500000  0.500000  0.500000  1
  Dy  Dy11  1  0.900645  0.900645  0.900645  1
  Dy  Dy12  1  0.900645  0.298065  0.900645  1
  Dy  Dy13  1  0.298065  0.900645  0.900645  1
  Dy  Dy14  1  0.900645  0.900645  0.298065  1
  Ni  Ni15  1  0.192797  0.673997  0.192797  1
  Ni  Ni16  1  0.192797  0.192797  0.673997  1
  Ni  Ni17  1  0.673997  0.192797  0.192797  1
  Ni  Ni18  1  0.192797  0.940410  0.192797  1
  Ni  Ni19  1  0.673997  0.940410  0.192797  1
  Ni  Ni20  1  0.192797  0.940410  0.673997  1
  Ni  Ni21  1  0.940410  0.192797  0.673997  1
  Ni  Ni22  1  0.940410  0.673997  0.192797  1
  Ni  Ni23  1  0.940410  0.192797  0.192797  1
  Ni  Ni24  1  0.673997  0.192797  0.940410  1
  Ni  Ni25  1  0.192797  0.192797  0.940410  1
  Ni  Ni26  1  0.192797  0.673997  0.940410  1
  Ni  Ni27  1  0.687509  0.187475  0.687509  1
  Ni  Ni28  1  0.687509  0.687509  0.187475  1
  Ni  Ni29  1  0.187475  0.687509  0.687509  1
  Ni  Ni30  1  0.687509  0.437507  0.687509  1
  Ni  Ni31  1  0.187475  0.437507  0.687509  1
  Ni  Ni32  1  0.687509  0.437507  0.187475  1
  Ni  Ni33  1  0.437507  0.687509  0.187475  1
  Ni  Ni34  1  0.437507  0.187475  0.687509  1
  Ni  Ni35  1  0.437507  0.687509  0.687509  1
  Ni  Ni36  1  0.187475  0.687509  0.437507  1
  Ni  Ni37  1  0.687509  0.687509  0.437507  1
  Ni  Ni38  1  0.687509  0.187475  0.437507  1
  Ni  Ni39  1  0.688377  0.688377  0.688377  1
  Ni  Ni40  1  0.688377  0.934868  0.688377  1
  Ni  Ni41  1  0.934868  0.688377  0.688377  1
  Ni  Ni42  1  0.688377  0.688377  0.934868  1
  Ni  Ni43  1  0.188398  0.188398  0.188398  1
  Ni  Ni44  1  0.188398  0.434806  0.188398  1
  Ni  Ni45  1  0.434806  0.188398  0.188398  1
  Ni  Ni46  1  0.188398  0.188398  0.434806  1
