# generated using pymatgen
data_Er4SiBi5Rh7
_symmetry_space_group_name_H-M   'P 1'
_cell_length_a   7.69905127
_cell_length_b   7.69905292
_cell_length_c   7.69905260
_cell_angle_alpha   106.54358073
_cell_angle_beta   110.95456938
_cell_angle_gamma   110.95458225
_symmetry_Int_Tables_number   1
_chemical_formula_structural   Er4SiBi5Rh7
_chemical_formula_sum   'Er4 Si1 Bi5 Rh7'
_cell_volume   350.62606218
_cell_formula_units_Z   1
loop_
 _symmetry_equiv_pos_site_id
 _symmetry_equiv_pos_as_xyz
  1  'x, y, z'
loop_
 _atom_site_type_symbol
 _atom_site_label
 _atom_site_symmetry_multiplicity
 _atom_site_fract_x
 _atom_site_fract_y
 _atom_site_fract_z
 _atom_site_occupancy
  Er  Er0  1  0.000000  0.979663  0.533997  1
  Er  Er1  1  0.000000  0.533997  0.979663  1
  Er  Er2  1  0.445665  0.979663  0.979663  1
  Er  Er3  1  0.554335  0.533997  0.533997  1
  Si  Si4  1  0.000000  0.637552  0.637552  1
  Bi  Bi5  1  0.690412  0.707876  0.017464  1
  Bi  Bi6  1  0.309588  0.017464  0.327052  1
  Bi  Bi7  1  0.000000  0.305806  0.305806  1
  Bi  Bi8  1  0.309588  0.327052  0.017464  1
  Bi  Bi9  1  0.690412  0.017464  0.707876  1
  Rh  Rh10  1  0.756227  0.264681  0.508454  1
  Rh  Rh11  1  0.756227  0.508454  0.264681  1
  Rh  Rh12  1  0.500000  0.263273  0.763273  1
  Rh  Rh13  1  0.243773  0.508454  0.752227  1
  Rh  Rh14  1  0.243773  0.752227  0.508454  1
  Rh  Rh15  1  0.500000  0.763273  0.263273  1
  Rh  Rh16  1  0.000000  0.899101  0.899101  1
