# generated using pymatgen
data_Th8MgS17
_symmetry_space_group_name_H-M   'P 1'
_cell_length_a   8.12617849
_cell_length_b   8.12617499
_cell_length_c   10.82781910
_cell_angle_alpha   80.26580636
_cell_angle_beta   80.26575037
_cell_angle_gamma   64.39521903
_symmetry_Int_Tables_number   1
_chemical_formula_structural   Th8MgS17
_chemical_formula_sum   'Th8 Mg1 S17'
_cell_volume   631.79370869
_cell_formula_units_Z   1
loop_
 _symmetry_equiv_pos_site_id
 _symmetry_equiv_pos_as_xyz
  1  'x, y, z'
loop_
 _atom_site_type_symbol
 _atom_site_label
 _atom_site_symmetry_multiplicity
 _atom_site_fract_x
 _atom_site_fract_y
 _atom_site_fract_z
 _atom_site_occupancy
  Th  Th0  1  0.186957  0.698539  0.704073  1
  Th  Th1  1  0.698540  0.186957  0.704072  1
  Th  Th2  1  0.813043  0.301461  0.295927  1
  Th  Th3  1  0.301460  0.813043  0.295928  1
  Th  Th4  1  0.795213  0.795213  0.454804  1
  Th  Th5  1  0.204787  0.204787  0.545196  1
  Th  Th6  1  0.314892  0.314892  0.023582  1
  Th  Th7  1  0.685108  0.685108  0.976418  1
  Mg  Mg8  1  0.000000  0.000000  0.000000  1
  S  S9  1  0.175876  0.569939  0.470608  1
  S  S10  1  0.569939  0.175876  0.470608  1
  S  S11  1  0.824124  0.430061  0.529392  1
  S  S12  1  0.430061  0.824124  0.529392  1
  S  S13  1  0.057801  0.671150  0.963006  1
  S  S14  1  0.671150  0.057801  0.963006  1
  S  S15  1  0.942199  0.328850  0.036994  1
  S  S16  1  0.328850  0.942199  0.036994  1
  S  S17  1  0.792475  0.792475  0.718584  1
  S  S18  1  0.207525  0.207525  0.281416  1
  S  S19  1  0.940872  0.940873  0.230705  1
  S  S20  1  0.059128  0.059127  0.769295  1
  S  S21  1  0.695814  0.695815  0.245125  1
  S  S22  1  0.304186  0.304185  0.754875  1
  S  S23  1  0.479972  0.479972  0.168057  1
  S  S24  1  0.520028  0.520028  0.831943  1
  S  S25  1  0.000000  0.000000  0.500000  1
