# generated using pymatgen
data_Li4PrNd3As8
_symmetry_space_group_name_H-M   'P 1'
_cell_length_a   3.97555200
_cell_length_b   4.01437501
_cell_length_c   21.40746400
_cell_angle_alpha   89.95938003
_cell_angle_beta   90.00000000
_cell_angle_gamma   90.00000000
_symmetry_Int_Tables_number   1
_chemical_formula_structural   Li4PrNd3As8
_chemical_formula_sum   'Li4 Pr1 Nd3 As8'
_cell_volume   341.64926591
_cell_formula_units_Z   1
loop_
 _symmetry_equiv_pos_site_id
 _symmetry_equiv_pos_as_xyz
  1  'x, y, z'
loop_
 _atom_site_type_symbol
 _atom_site_label
 _atom_site_symmetry_multiplicity
 _atom_site_fract_x
 _atom_site_fract_y
 _atom_site_fract_z
 _atom_site_occupancy
  Li  Li0  1  0.750000  0.726703  0.249510  1
  Li  Li1  1  0.250000  0.226727  0.249582  1
  Li  Li2  1  0.750000  0.773250  0.750324  1
  Li  Li3  1  0.250000  0.273151  0.750362  1
  Pr  Pr4  1  0.750000  0.271086  0.883120  1
  Nd  Nd5  1  0.250000  0.730024  0.116577  1
  Nd  Nd6  1  0.750000  0.229694  0.383256  1
  Nd  Nd7  1  0.250000  0.770134  0.617103  1
  As  As8  1  0.750000  0.227280  0.170206  1
  As  As9  1  0.250000  0.726877  0.329099  1
  As  As10  1  0.750000  0.272864  0.671516  1
  As  As11  1  0.250000  0.772998  0.828163  1
  As  As12  1  0.250000  0.207987  0.002211  1
  As  As13  1  0.750000  0.708197  0.498216  1
  As  As14  1  0.250000  0.291751  0.502025  1
  As  As15  1  0.750000  0.791276  0.998728  1
