# generated using pymatgen
data_SrLa3(Ga8Pt3)3
_symmetry_space_group_name_H-M   'P 1'
_cell_length_a   7.63177933
_cell_length_b   7.69403822
_cell_length_c   13.55141495
_cell_angle_alpha   84.61065550
_cell_angle_beta   79.33528294
_cell_angle_gamma   60.18500281
_symmetry_Int_Tables_number   1
_chemical_formula_structural   SrLa3(Ga8Pt3)3
_chemical_formula_sum   'Sr1 La3 Ga24 Pt9'
_cell_volume   678.47491441
_cell_formula_units_Z   1
loop_
 _symmetry_equiv_pos_site_id
 _symmetry_equiv_pos_as_xyz
  1  'x, y, z'
loop_
 _atom_site_type_symbol
 _atom_site_label
 _atom_site_symmetry_multiplicity
 _atom_site_fract_x
 _atom_site_fract_y
 _atom_site_fract_z
 _atom_site_occupancy
  Sr  Sr0  1  0.394700  0.167814  0.808971  1
  La  La1  1  0.604325  0.832265  0.191413  1
  La  La2  1  0.731996  0.497308  0.810449  1
  La  La3  1  0.267429  0.501881  0.190412  1
  Ga  Ga4  1  0.689397  0.835129  0.943743  1
  Ga  Ga5  1  0.311235  0.167044  0.059264  1
  Ga  Ga6  1  0.145774  0.832426  0.557754  1
  Ga  Ga7  1  0.854650  0.167929  0.440145  1
  Ga  Ga8  1  0.479913  0.166601  0.554461  1
  Ga  Ga9  1  0.521385  0.833164  0.443258  1
  Ga  Ga10  1  0.218781  0.165178  0.328176  1
  Ga  Ga11  1  0.782644  0.835693  0.667840  1
  Ga  Ga12  1  0.438286  0.505364  0.665143  1
  Ga  Ga13  1  0.561977  0.494894  0.331075  1
  Ga  Ga14  1  0.109897  0.160893  0.664787  1
  Ga  Ga15  1  0.891394  0.838139  0.332348  1
  Ga  Ga16  1  0.349777  0.502399  0.944870  1
  Ga  Ga17  1  0.647114  0.499453  0.058681  1
  Ga  Ga18  1  0.017525  0.165352  0.952758  1
  Ga  Ga19  1  0.981446  0.833843  0.051946  1
  Ga  Ga20  1  0.187405  0.497252  0.442131  1
  Ga  Ga21  1  0.813692  0.502169  0.556493  1
  Ga  Ga22  1  0.736996  0.164284  0.183062  1
  Ga  Ga23  1  0.266974  0.827216  0.817550  1
  Ga  Ga24  1  0.056433  0.635806  0.816760  1
  Ga  Ga25  1  0.936774  0.366545  0.184391  1
  Ga  Ga26  1  0.864488  0.039119  0.816533  1
  Ga  Ga27  1  0.137780  0.962374  0.184250  1
  Pt  Pt28  1  0.118081  0.498840  0.635518  1
  Pt  Pt29  1  0.882459  0.500671  0.363147  1
  Pt  Pt30  1  0.659531  0.171018  0.001079  1
  Pt  Pt31  1  0.339659  0.830802  0.002783  1
  Pt  Pt32  1  0.543511  0.166099  0.361986  1
  Pt  Pt33  1  0.456891  0.834513  0.636385  1
  Pt  Pt34  1  0.782526  0.169694  0.633824  1
  Pt  Pt35  1  0.217963  0.830590  0.364313  1
  Pt  Pt36  1  0.999195  0.500237  0.002305  1
