# generated using pymatgen
data_Dy6TcB14Ru
_symmetry_space_group_name_H-M   'P 1'
_cell_length_a   8.06413800
_cell_length_b   8.06413869
_cell_length_c   9.33586500
_cell_angle_alpha   90.00000000
_cell_angle_beta   90.00000000
_cell_angle_gamma   154.70354306
_symmetry_Int_Tables_number   1
_chemical_formula_structural   Dy6TcB14Ru
_chemical_formula_sum   'Dy6 Tc1 B14 Ru1'
_cell_volume   259.42115185
_cell_formula_units_Z   1
loop_
 _symmetry_equiv_pos_site_id
 _symmetry_equiv_pos_as_xyz
  1  'x, y, z'
loop_
 _atom_site_type_symbol
 _atom_site_label
 _atom_site_symmetry_multiplicity
 _atom_site_fract_x
 _atom_site_fract_y
 _atom_site_fract_z
 _atom_site_occupancy
  Dy  Dy0  1  0.894645  0.105355  0.440145  1
  Dy  Dy1  1  0.105438  0.894562  0.560965  1
  Dy  Dy2  1  0.894645  0.105355  0.059855  1
  Dy  Dy3  1  0.105438  0.894562  0.939035  1
  Dy  Dy4  1  0.243129  0.756871  0.250000  1
  Dy  Dy5  1  0.757030  0.242970  0.750000  1
  Tc  Tc6  1  0.946994  0.053006  0.750000  1
  B  B7  1  0.726788  0.273212  0.465510  1
  B  B8  1  0.272664  0.727336  0.533281  1
  B  B9  1  0.726788  0.273212  0.034490  1
  B  B10  1  0.272664  0.727336  0.966719  1
  B  B11  1  0.631368  0.368632  0.151683  1
  B  B12  1  0.367931  0.632069  0.848858  1
  B  B13  1  0.631368  0.368632  0.348317  1
  B  B14  1  0.367931  0.632069  0.651142  1
  B  B15  1  0.520700  0.479300  0.096595  1
  B  B16  1  0.479396  0.520604  0.904200  1
  B  B17  1  0.520700  0.479300  0.403405  1
  B  B18  1  0.479396  0.520604  0.595800  1
  B  B19  1  0.457590  0.542410  0.250000  1
  B  B20  1  0.543272  0.456728  0.750000  1
  Ru  Ru21  1  0.054124  0.945876  0.250000  1
