# generated using pymatgen
data_V12Ga4Au4SN3
_symmetry_space_group_name_H-M   'P 1'
_cell_length_a   6.80082874
_cell_length_b   6.80082874
_cell_length_c   6.80082874
_cell_angle_alpha   90.39659068
_cell_angle_beta   89.60340932
_cell_angle_gamma   89.60340932
_symmetry_Int_Tables_number   1
_chemical_formula_structural   V12Ga4Au4SN3
_chemical_formula_sum   'V12 Ga4 Au4 S1 N3'
_cell_volume   314.52426695
_cell_formula_units_Z   1
loop_
 _symmetry_equiv_pos_site_id
 _symmetry_equiv_pos_as_xyz
  1  'x, y, z'
loop_
 _atom_site_type_symbol
 _atom_site_label
 _atom_site_symmetry_multiplicity
 _atom_site_fract_x
 _atom_site_fract_y
 _atom_site_fract_z
 _atom_site_occupancy
  V  V0  1  0.774354  0.949103  0.351761  1
  V  V1  1  0.708621  0.028436  0.904164  1
  V  V2  1  0.218757  0.460550  0.123522  1
  V  V3  1  0.282520  0.542914  0.622996  1
  V  V4  1  0.971564  0.404164  0.791379  1
  V  V5  1  0.050897  0.851761  0.725646  1
  V  V6  1  0.457086  0.122996  0.217480  1
  V  V7  1  0.539450  0.623522  0.281243  1
  V  V8  1  0.376478  0.781243  0.960550  1
  V  V9  1  0.877004  0.717480  0.042914  1
  V  V10  1  0.148239  0.225646  0.449103  1
  V  V11  1  0.595836  0.291379  0.528436  1
  Ga  Ga12  1  0.570066  0.429934  0.929934  1
  Ga  Ga13  1  0.430902  0.930538  0.568377  1
  Ga  Ga14  1  0.931623  0.569098  0.430538  1
  Ga  Ga15  1  0.069462  0.068377  0.069098  1
  Au  Au16  1  0.177621  0.822379  0.322379  1
  Au  Au17  1  0.321143  0.178920  0.822133  1
  Au  Au18  1  0.821080  0.322133  0.178857  1
  Au  Au19  1  0.677867  0.678857  0.678920  1
  S  S20  1  0.875677  0.124323  0.624323  1
  N  N21  1  0.613114  0.865170  0.124192  1
  N  N22  1  0.134830  0.624192  0.886886  1
  N  N23  1  0.375808  0.386886  0.365170  1
