# generated using pymatgen
data_Hf2Zr2ScSn3
_symmetry_space_group_name_H-M   'P 1'
_cell_length_a   8.50402505
_cell_length_b   8.49154894
_cell_length_c   5.82595300
_cell_angle_alpha   90.00000000
_cell_angle_beta   90.00000000
_cell_angle_gamma   119.95146365
_symmetry_Int_Tables_number   1
_chemical_formula_structural   Hf2Zr2ScSn3
_chemical_formula_sum   'Hf4 Zr4 Sc2 Sn6'
_cell_volume   364.51991098
_cell_formula_units_Z   2
loop_
 _symmetry_equiv_pos_site_id
 _symmetry_equiv_pos_as_xyz
  1  'x, y, z'
loop_
 _atom_site_type_symbol
 _atom_site_label
 _atom_site_symmetry_multiplicity
 _atom_site_fract_x
 _atom_site_fract_y
 _atom_site_fract_z
 _atom_site_occupancy
  Hf  Hf0  1  0.668318  0.332343  0.000249  1
  Hf  Hf1  1  0.331682  0.664026  0.000249  1
  Hf  Hf2  1  0.331682  0.664026  0.499751  1
  Hf  Hf3  1  0.668318  0.332343  0.499751  1
  Zr  Zr4  1  0.000000  0.248226  0.750000  1
  Zr  Zr5  1  0.243377  0.243741  0.250000  1
  Zr  Zr6  1  0.756623  0.000363  0.250000  1
  Zr  Zr7  1  0.000000  0.756964  0.250000  1
  Sc  Sc8  1  0.754277  0.755792  0.750000  1
  Sc  Sc9  1  0.245723  0.001516  0.750000  1
  Sn  Sn10  1  0.394377  0.391992  0.750000  1
  Sn  Sn11  1  0.605623  0.997615  0.750000  1
  Sn  Sn12  1  0.000000  0.610968  0.750000  1
  Sn  Sn13  1  0.607262  0.607011  0.250000  1
  Sn  Sn14  1  0.392738  0.999749  0.250000  1
  Sn  Sn15  1  0.000000  0.393325  0.250000  1
