# generated using pymatgen
data_Tb7Er4In(Hg2Pd)4
_symmetry_space_group_name_H-M   'P 1'
_cell_length_a   13.09900693
_cell_length_b   13.09900689
_cell_length_c   3.72017700
_cell_angle_alpha   90.00000000
_cell_angle_beta   90.00000000
_cell_angle_gamma   113.44026410
_symmetry_Int_Tables_number   1
_chemical_formula_structural   Tb7Er4In(Hg2Pd)4
_chemical_formula_sum   'Tb7 Er4 In1 Hg8 Pd4'
_cell_volume   585.64539169
_cell_formula_units_Z   1
loop_
 _symmetry_equiv_pos_site_id
 _symmetry_equiv_pos_as_xyz
  1  'x, y, z'
loop_
 _atom_site_type_symbol
 _atom_site_label
 _atom_site_symmetry_multiplicity
 _atom_site_fract_x
 _atom_site_fract_y
 _atom_site_fract_z
 _atom_site_occupancy
  Tb  Tb0  1  0.167197  0.832803  0.000000  1
  Tb  Tb1  1  0.832803  0.167197  0.000000  1
  Tb  Tb2  1  0.371266  0.628734  0.000000  1
  Tb  Tb3  1  0.628734  0.371266  0.000000  1
  Tb  Tb4  1  0.296175  0.296175  0.000000  1
  Tb  Tb5  1  0.703825  0.703825  0.000000  1
  Tb  Tb6  1  0.000000  0.000000  0.000000  1
  Er  Er7  1  0.414404  0.075937  0.000000  1
  Er  Er8  1  0.585596  0.924063  0.000000  1
  Er  Er9  1  0.075937  0.414404  0.000000  1
  Er  Er10  1  0.924063  0.585596  0.000000  1
  In  In11  1  0.500000  0.500000  0.500000  1
  Hg  Hg12  1  0.371503  0.846718  0.500000  1
  Hg  Hg13  1  0.628497  0.153282  0.500000  1
  Hg  Hg14  1  0.846720  0.371503  0.500000  1
  Hg  Hg15  1  0.153280  0.628497  0.500000  1
  Hg  Hg16  1  0.213987  0.062749  0.500000  1
  Hg  Hg17  1  0.786013  0.937251  0.500000  1
  Hg  Hg18  1  0.062748  0.213986  0.500000  1
  Hg  Hg19  1  0.937252  0.786014  0.500000  1
  Pd  Pd20  1  0.448517  0.249594  0.500000  1
  Pd  Pd21  1  0.551483  0.750406  0.500000  1
  Pd  Pd22  1  0.249595  0.448517  0.500000  1
  Pd  Pd23  1  0.750405  0.551483  0.500000  1
