# generated using pymatgen
data_LaZr(SiTc2)4
_symmetry_space_group_name_H-M   'P 1'
_cell_length_a   7.40024788
_cell_length_b   7.40024788
_cell_length_c   4.12168000
_cell_angle_alpha   90.00000000
_cell_angle_beta   90.00000000
_cell_angle_gamma   87.75836637
_symmetry_Int_Tables_number   1
_chemical_formula_structural   LaZr(SiTc2)4
_chemical_formula_sum   'La1 Zr1 Si4 Tc8'
_cell_volume   225.54558888
_cell_formula_units_Z   1
loop_
 _symmetry_equiv_pos_site_id
 _symmetry_equiv_pos_as_xyz
  1  'x, y, z'
loop_
 _atom_site_type_symbol
 _atom_site_label
 _atom_site_symmetry_multiplicity
 _atom_site_fract_x
 _atom_site_fract_y
 _atom_site_fract_z
 _atom_site_occupancy
  La  La0  1  0.500000  0.500000  0.000000  1
  Zr  Zr1  1  0.000000  0.000000  0.500000  1
  Si  Si2  1  0.198034  0.801966  0.000000  1
  Si  Si3  1  0.280155  0.280155  0.500000  1
  Si  Si4  1  0.719845  0.719845  0.500000  1
  Si  Si5  1  0.801966  0.198034  0.000000  1
  Tc  Tc6  1  0.602670  0.147651  0.500000  1
  Tc  Tc7  1  0.397330  0.852349  0.500000  1
  Tc  Tc8  1  0.147651  0.602670  0.500000  1
  Tc  Tc9  1  0.852349  0.397330  0.500000  1
  Tc  Tc10  1  0.081996  0.339596  0.000000  1
  Tc  Tc11  1  0.918004  0.660404  0.000000  1
  Tc  Tc12  1  0.660404  0.918004  0.000000  1
  Tc  Tc13  1  0.339596  0.081996  0.000000  1
