# generated using pymatgen
data_Ho4Pd3Pb2Au
_symmetry_space_group_name_H-M   'P 1'
_cell_length_a   7.97511596
_cell_length_b   7.97511596
_cell_length_c   3.61191200
_cell_angle_alpha   90.00000000
_cell_angle_beta   90.00000000
_cell_angle_gamma   90.18114550
_symmetry_Int_Tables_number   1
_chemical_formula_structural   Ho4Pd3Pb2Au
_chemical_formula_sum   'Ho4 Pd3 Pb2 Au1'
_cell_volume   229.72539328
_cell_formula_units_Z   1
loop_
 _symmetry_equiv_pos_site_id
 _symmetry_equiv_pos_as_xyz
  1  'x, y, z'
loop_
 _atom_site_type_symbol
 _atom_site_label
 _atom_site_symmetry_multiplicity
 _atom_site_fract_x
 _atom_site_fract_y
 _atom_site_fract_z
 _atom_site_occupancy
  Ho  Ho0  1  0.675645  0.169670  0.500000  1
  Ho  Ho1  1  0.165247  0.334753  0.500000  1
  Ho  Ho2  1  0.829492  0.670508  0.500000  1
  Ho  Ho3  1  0.330330  0.824355  0.500000  1
  Pd  Pd4  1  0.124764  0.625460  0.000000  1
  Pd  Pd5  1  0.626423  0.873577  0.000000  1
  Pd  Pd6  1  0.874540  0.375236  0.000000  1
  Pb  Pb7  1  0.995149  0.998341  0.000000  1
  Pb  Pb8  1  0.501659  0.504851  0.000000  1
  Au  Au9  1  0.376752  0.123248  0.000000  1
