# generated using pymatgen
data_Nd2AlZnIr2
_symmetry_space_group_name_H-M   'P 1'
_cell_length_a   4.18470300
_cell_length_b   7.15851924
_cell_length_c   8.25961423
_cell_angle_alpha   90.42766464
_cell_angle_beta   90.00000000
_cell_angle_gamma   90.00000000
_symmetry_Int_Tables_number   1
_chemical_formula_structural   Nd2AlZnIr2
_chemical_formula_sum   'Nd4 Al2 Zn2 Ir4'
_cell_volume   247.42039880
_cell_formula_units_Z   2
loop_
 _symmetry_equiv_pos_site_id
 _symmetry_equiv_pos_as_xyz
  1  'x, y, z'
loop_
 _atom_site_type_symbol
 _atom_site_label
 _atom_site_symmetry_multiplicity
 _atom_site_fract_x
 _atom_site_fract_y
 _atom_site_fract_z
 _atom_site_occupancy
  Nd  Nd0  1  0.250000  0.534992  0.190898  1
  Nd  Nd1  1  0.750000  0.465008  0.809102  1
  Nd  Nd2  1  0.750000  0.962795  0.680424  1
  Nd  Nd3  1  0.250000  0.037205  0.319576  1
  Al  Al4  1  0.750000  0.862495  0.063076  1
  Al  Al5  1  0.250000  0.137505  0.936924  1
  Zn  Zn6  1  0.250000  0.640306  0.563781  1
  Zn  Zn7  1  0.750000  0.359694  0.436219  1
  Ir  Ir8  1  0.250000  0.774453  0.895719  1
  Ir  Ir9  1  0.750000  0.225547  0.104281  1
  Ir  Ir10  1  0.750000  0.740124  0.371588  1
  Ir  Ir11  1  0.250000  0.259876  0.628412  1
