# generated using pymatgen
data_Nd8Sc12Si15Tc
_symmetry_space_group_name_H-M   'P 1'
_cell_length_a   7.23165163
_cell_length_b   7.57716643
_cell_length_c   14.16809700
_cell_angle_alpha   90.00000000
_cell_angle_beta   90.00000000
_cell_angle_gamma   90.08509764
_symmetry_Int_Tables_number   1
_chemical_formula_structural   Nd8Sc12Si15Tc
_chemical_formula_sum   'Nd8 Sc12 Si15 Tc1'
_cell_volume   776.34608265
_cell_formula_units_Z   1
loop_
 _symmetry_equiv_pos_site_id
 _symmetry_equiv_pos_as_xyz
  1  'x, y, z'
loop_
 _atom_site_type_symbol
 _atom_site_label
 _atom_site_symmetry_multiplicity
 _atom_site_fract_x
 _atom_site_fract_y
 _atom_site_fract_z
 _atom_site_occupancy
  Nd  Nd0  1  0.011269  0.176630  0.096580  1
  Nd  Nd1  1  0.990119  0.829043  0.902203  1
  Nd  Nd2  1  0.488386  0.672282  0.903491  1
  Nd  Nd3  1  0.990119  0.829043  0.597797  1
  Nd  Nd4  1  0.511014  0.326335  0.096269  1
  Nd  Nd5  1  0.011269  0.176630  0.403420  1
  Nd  Nd6  1  0.511014  0.326335  0.403731  1
  Nd  Nd7  1  0.488386  0.672282  0.596509  1
  Sc  Sc8  1  0.153968  0.490901  0.750000  1
  Sc  Sc9  1  0.840500  0.498754  0.250000  1
  Sc  Sc10  1  0.339245  0.002441  0.250000  1
  Sc  Sc11  1  0.665922  0.003086  0.750000  1
  Sc  Sc12  1  0.316861  0.171608  0.628052  1
  Sc  Sc13  1  0.671822  0.827067  0.373499  1
  Sc  Sc14  1  0.171980  0.677499  0.373688  1
  Sc  Sc15  1  0.671822  0.827067  0.126501  1
  Sc  Sc16  1  0.837493  0.318502  0.627870  1
  Sc  Sc17  1  0.316861  0.171608  0.871948  1
  Sc  Sc18  1  0.837493  0.318502  0.872130  1
  Sc  Sc19  1  0.171980  0.677499  0.126312  1
  Si  Si20  1  0.968053  0.876889  0.250000  1
  Si  Si21  1  0.469551  0.621198  0.250000  1
  Si  Si22  1  0.530253  0.381721  0.750000  1
  Si  Si23  1  0.289343  0.877451  0.750000  1
  Si  Si24  1  0.711028  0.121659  0.250000  1
  Si  Si25  1  0.212438  0.377519  0.250000  1
  Si  Si26  1  0.781180  0.620220  0.750000  1
  Si  Si27  1  0.154301  0.467699  0.537251  1
  Si  Si28  1  0.850211  0.538332  0.461147  1
  Si  Si29  1  0.349122  0.963841  0.459499  1
  Si  Si30  1  0.850211  0.538332  0.038853  1
  Si  Si31  1  0.650649  0.034782  0.539026  1
  Si  Si32  1  0.154301  0.467699  0.962749  1
  Si  Si33  1  0.650649  0.034782  0.960974  1
  Si  Si34  1  0.349122  0.963841  0.040501  1
  Tc  Tc35  1  0.032068  0.120923  0.750000  1
