# generated using pymatgen
data_Ho2Er8Cd3Co
_symmetry_space_group_name_H-M   'P 1'
_cell_length_a   9.48656803
_cell_length_b   9.48268756
_cell_length_c   9.66492300
_cell_angle_alpha   90.00000000
_cell_angle_beta   90.00000000
_cell_angle_gamma   119.98775742
_symmetry_Int_Tables_number   1
_chemical_formula_structural   Ho2Er8Cd3Co
_chemical_formula_sum   'Ho4 Er16 Cd6 Co2'
_cell_volume   753.04886859
_cell_formula_units_Z   2
loop_
 _symmetry_equiv_pos_site_id
 _symmetry_equiv_pos_as_xyz
  1  'x, y, z'
loop_
 _atom_site_type_symbol
 _atom_site_label
 _atom_site_symmetry_multiplicity
 _atom_site_fract_x
 _atom_site_fract_y
 _atom_site_fract_z
 _atom_site_occupancy
  Ho  Ho0  1  0.914564  0.457264  0.250000  1
  Ho  Ho1  1  0.457525  0.542314  0.750000  1
  Ho  Ho2  1  0.457502  0.915204  0.750000  1
  Ho  Ho3  1  0.084475  0.542236  0.750000  1
  Er  Er4  1  0.000071  0.000015  0.499826  1
  Er  Er5  1  0.000071  0.000015  0.000174  1
  Er  Er6  1  0.542390  0.457413  0.250000  1
  Er  Er7  1  0.542384  0.085006  0.250000  1
  Er  Er8  1  0.212083  0.788575  0.436311  1
  Er  Er9  1  0.212128  0.423547  0.436321  1
  Er  Er10  1  0.576642  0.788318  0.436224  1
  Er  Er11  1  0.787873  0.211575  0.563219  1
  Er  Er12  1  0.787874  0.576300  0.563197  1
  Er  Er13  1  0.423891  0.211931  0.563016  1
  Er  Er14  1  0.787873  0.211575  0.936781  1
  Er  Er15  1  0.787874  0.576300  0.936803  1
  Er  Er16  1  0.423891  0.211931  0.936984  1
  Er  Er17  1  0.212083  0.788575  0.063689  1
  Er  Er18  1  0.212128  0.423547  0.063679  1
  Er  Er19  1  0.576642  0.788318  0.063776  1
  Cd  Cd20  1  0.884498  0.114418  0.250000  1
  Cd  Cd21  1  0.884505  0.770079  0.250000  1
  Cd  Cd22  1  0.230310  0.115160  0.250000  1
  Cd  Cd23  1  0.114772  0.885559  0.750000  1
  Cd  Cd24  1  0.114763  0.229230  0.750000  1
  Cd  Cd25  1  0.770689  0.885341  0.750000  1
  Co  Co26  1  0.333683  0.666852  0.250000  1
  Co  Co27  1  0.666813  0.333400  0.750000  1
