# generated using pymatgen
data_Er7TmSc12Si13Pt3
_symmetry_space_group_name_H-M   'P 1'
_cell_length_a   7.07644032
_cell_length_b   7.41429183
_cell_length_c   13.98183659
_cell_angle_alpha   89.77341365
_cell_angle_beta   89.63609187
_cell_angle_gamma   90.62381020
_symmetry_Int_Tables_number   1
_chemical_formula_structural   Er7TmSc12Si13Pt3
_chemical_formula_sum   'Er7 Tm1 Sc12 Si13 Pt3'
_cell_volume   733.51792151
_cell_formula_units_Z   1
loop_
 _symmetry_equiv_pos_site_id
 _symmetry_equiv_pos_as_xyz
  1  'x, y, z'
loop_
 _atom_site_type_symbol
 _atom_site_label
 _atom_site_symmetry_multiplicity
 _atom_site_fract_x
 _atom_site_fract_y
 _atom_site_fract_z
 _atom_site_occupancy
  Er  Er0  1  0.009123  0.177472  0.094429  1
  Er  Er1  1  0.990249  0.822919  0.906031  1
  Er  Er2  1  0.487370  0.680435  0.906182  1
  Er  Er3  1  0.990621  0.819496  0.594192  1
  Er  Er4  1  0.511939  0.321526  0.094528  1
  Er  Er5  1  0.011003  0.178915  0.405696  1
  Er  Er6  1  0.507870  0.321874  0.404868  1
  Tm  Tm7  1  0.486993  0.671855  0.595576  1
  Sc  Sc8  1  0.159271  0.503674  0.748526  1
  Sc  Sc9  1  0.841704  0.497491  0.251333  1
  Sc  Sc10  1  0.332381  0.002064  0.250396  1
  Sc  Sc11  1  0.666718  0.995810  0.749078  1
  Sc  Sc12  1  0.331546  0.181172  0.622680  1
  Sc  Sc13  1  0.673626  0.825494  0.374010  1
  Sc  Sc14  1  0.171325  0.668233  0.378101  1
  Sc  Sc15  1  0.675008  0.826879  0.124881  1
  Sc  Sc16  1  0.829494  0.327938  0.624720  1
  Sc  Sc17  1  0.325733  0.173181  0.874922  1
  Sc  Sc18  1  0.831359  0.321824  0.875330  1
  Sc  Sc19  1  0.170808  0.676939  0.124522  1
  Si  Si20  1  0.468746  0.608752  0.248290  1
  Si  Si21  1  0.533644  0.392480  0.753866  1
  Si  Si22  1  0.288560  0.867281  0.750875  1
  Si  Si23  1  0.711649  0.135369  0.249286  1
  Si  Si24  1  0.221324  0.370724  0.247490  1
  Si  Si25  1  0.780240  0.629545  0.753338  1
  Si  Si26  1  0.830594  0.533404  0.460198  1
  Si  Si27  1  0.343997  0.964498  0.459528  1
  Si  Si28  1  0.842125  0.532507  0.038921  1
  Si  Si29  1  0.658184  0.031057  0.539097  1
  Si  Si30  1  0.156430  0.468291  0.960906  1
  Si  Si31  1  0.656816  0.032310  0.960562  1
  Si  Si32  1  0.342923  0.968754  0.040288  1
  Pt  Pt33  1  0.035040  0.112547  0.747697  1
  Pt  Pt34  1  0.967964  0.893411  0.250239  1
  Pt  Pt35  1  0.157623  0.463877  0.539420  1
