# generated using pymatgen
data_Dy5P12Ir6Ru12Pt
_symmetry_space_group_name_H-M   'P 1'
_cell_length_a   12.57125292
_cell_length_b   12.55417172
_cell_length_c   3.96658100
_cell_angle_alpha   90.00000000
_cell_angle_beta   90.00000000
_cell_angle_gamma   119.27258130
_symmetry_Int_Tables_number   1
_chemical_formula_structural   Dy5P12Ir6Ru12Pt
_chemical_formula_sum   'Dy5 P12 Ir6 Ru12 Pt1'
_cell_volume   546.07274837
_cell_formula_units_Z   1
loop_
 _symmetry_equiv_pos_site_id
 _symmetry_equiv_pos_as_xyz
  1  'x, y, z'
loop_
 _atom_site_type_symbol
 _atom_site_label
 _atom_site_symmetry_multiplicity
 _atom_site_fract_x
 _atom_site_fract_y
 _atom_site_fract_z
 _atom_site_occupancy
  Dy  Dy0  1  0.662971  0.330454  0.000000  1
  Dy  Dy1  1  0.335003  0.667153  0.000000  1
  Dy  Dy2  1  0.813826  0.001538  0.500000  1
  Dy  Dy3  1  0.186789  0.188167  0.500000  1
  Dy  Dy4  1  0.000291  0.814401  0.500000  1
  P  P5  1  0.631387  0.002146  0.000000  1
  P  P6  1  0.370528  0.371206  0.000000  1
  P  P7  1  0.009910  0.639085  0.000000  1
  P  P8  1  0.679927  0.516833  0.500000  1
  P  P9  1  0.823721  0.298013  0.500000  1
  P  P10  1  0.313450  0.830606  0.500000  1
  P  P11  1  0.518525  0.687065  0.500000  1
  P  P12  1  0.181474  0.002320  0.000000  1
  P  P13  1  0.819256  0.818847  0.000000  1
  P  P14  1  0.999366  0.184326  0.000000  1
  P  P15  1  0.480375  0.167123  0.500000  1
  P  P16  1  0.170442  0.483563  0.500000  1
  Ir  Ir17  1  0.626185  0.807732  0.000000  1
  Ir  Ir18  1  0.183670  0.376997  0.000000  1
  Ir  Ir19  1  0.373794  0.182280  0.000000  1
  Ir  Ir20  1  0.196467  0.821319  0.000000  1
  Ir  Ir21  1  0.810739  0.623985  0.000000  1
  Ir  Ir22  1  0.998561  0.000588  0.000000  1
  Ru  Ru23  1  0.488540  0.359217  0.500000  1
  Ru  Ru24  1  0.635152  0.122011  0.500000  1
  Ru  Ru25  1  0.126967  0.640826  0.500000  1
  Ru  Ru26  1  0.362279  0.490086  0.500000  1
  Ru  Ru27  1  0.509391  0.869521  0.500000  1
  Ru  Ru28  1  0.716953  0.714642  0.500000  1
  Ru  Ru29  1  0.002912  0.288127  0.500000  1
  Ru  Ru30  1  0.447431  0.998742  0.000000  1
  Ru  Ru31  1  0.553551  0.550507  0.000000  1
  Ru  Ru32  1  0.000588  0.451978  0.000000  1
  Ru  Ru33  1  0.819208  0.196872  0.000000  1
  Ru  Ru34  1  0.284611  0.000884  0.500000  1
  Pt  Pt35  1  0.865761  0.500841  0.500000  1
