# generated using pymatgen
data_DyTm4Al2Ru3
_symmetry_space_group_name_H-M   'P 1'
_cell_length_a   8.26803905
_cell_length_b   8.26998075
_cell_length_c   8.26010245
_cell_angle_alpha   109.42745319
_cell_angle_beta   109.62006134
_cell_angle_gamma   109.32119410
_symmetry_Int_Tables_number   1
_chemical_formula_structural   DyTm4Al2Ru3
_chemical_formula_sum   'Dy2 Tm8 Al4 Ru6'
_cell_volume   435.01976405
_cell_formula_units_Z   2
loop_
 _symmetry_equiv_pos_site_id
 _symmetry_equiv_pos_as_xyz
  1  'x, y, z'
loop_
 _atom_site_type_symbol
 _atom_site_label
 _atom_site_symmetry_multiplicity
 _atom_site_fract_x
 _atom_site_fract_y
 _atom_site_fract_z
 _atom_site_occupancy
  Dy  Dy0  1  0.474297  0.157842  0.224199  1
  Dy  Dy1  1  0.157689  0.225997  0.476066  1
  Tm  Tm2  1  0.229054  0.478478  0.158225  1
  Tm  Tm3  1  0.406253  0.693680  0.907698  1
  Tm  Tm4  1  0.695308  0.909598  0.409621  1
  Tm  Tm5  1  0.908453  0.407088  0.695309  1
  Tm  Tm6  1  0.656369  0.084981  0.835375  1
  Tm  Tm7  1  0.087225  0.836938  0.657327  1
  Tm  Tm8  1  0.837482  0.658009  0.088195  1
  Tm  Tm9  1  0.622532  0.621803  0.623107  1
  Al  Al10  1  0.411093  0.319670  0.907987  1
  Al  Al11  1  0.316967  0.904852  0.406251  1
  Al  Al12  1  0.906434  0.407693  0.317095  1
  Al  Al13  1  0.994593  0.997068  0.996117  1
  Ru  Ru14  1  0.037302  0.158796  0.786106  1
  Ru  Ru15  1  0.154857  0.782434  0.032108  1
  Ru  Ru16  1  0.780819  0.032652  0.156618  1
  Ru  Ru17  1  0.658832  0.535363  0.284075  1
  Ru  Ru18  1  0.533465  0.280403  0.656916  1
  Ru  Ru19  1  0.280976  0.656657  0.531607  1
