# generated using pymatgen
data_Tb3Er3(CI3)2
_symmetry_space_group_name_H-M   'P 1'
_cell_length_a   3.89955500
_cell_length_b   8.69717427
_cell_length_c   11.85508936
_cell_angle_alpha   92.22258282
_cell_angle_beta   90.00000000
_cell_angle_gamma   90.00000000
_symmetry_Int_Tables_number   1
_chemical_formula_structural   Tb3Er3(CI3)2
_chemical_formula_sum   'Tb3 Er3 C2 I6'
_cell_volume   401.76418116
_cell_formula_units_Z   1
loop_
 _symmetry_equiv_pos_site_id
 _symmetry_equiv_pos_as_xyz
  1  'x, y, z'
loop_
 _atom_site_type_symbol
 _atom_site_label
 _atom_site_symmetry_multiplicity
 _atom_site_fract_x
 _atom_site_fract_y
 _atom_site_fract_z
 _atom_site_occupancy
  Tb  Tb0  1  0.250000  0.917642  0.599931  1
  Tb  Tb1  1  0.750000  0.082131  0.400452  1
  Tb  Tb2  1  0.250000  0.886509  0.185772  1
  Er  Er3  1  0.750000  0.113744  0.812291  1
  Er  Er4  1  0.250000  0.290456  0.615483  1
  Er  Er5  1  0.750000  0.709518  0.384545  1
  C  C6  1  0.250000  0.879380  0.386823  1
  C  C7  1  0.750000  0.120543  0.615384  1
  I  I8  1  0.250000  0.861366  0.873329  1
  I  I9  1  0.750000  0.143297  0.125895  1
  I  I10  1  0.250000  0.374047  0.870565  1
  I  I11  1  0.750000  0.621549  0.129174  1
  I  I12  1  0.250000  0.384347  0.369137  1
  I  I13  1  0.750000  0.615470  0.631219  1
