# generated using pymatgen
data_YTm3ZrRh5
_symmetry_space_group_name_H-M   'P 1'
_cell_length_a   3.38686100
_cell_length_b   3.38686100
_cell_length_c   16.87543100
_cell_angle_alpha   90.00000000
_cell_angle_beta   90.00000000
_cell_angle_gamma   90.00000000
_symmetry_Int_Tables_number   1
_chemical_formula_structural   YTm3ZrRh5
_chemical_formula_sum   'Y1 Tm3 Zr1 Rh5'
_cell_volume   193.57515686
_cell_formula_units_Z   1
loop_
 _symmetry_equiv_pos_site_id
 _symmetry_equiv_pos_as_xyz
  1  'x, y, z'
loop_
 _atom_site_type_symbol
 _atom_site_label
 _atom_site_symmetry_multiplicity
 _atom_site_fract_x
 _atom_site_fract_y
 _atom_site_fract_z
 _atom_site_occupancy
  Y  Y0  1  0.000000  0.000000  0.800706  1
  Tm  Tm1  1  0.000000  0.000000  0.199468  1
  Tm  Tm2  1  0.000000  0.000000  0.399476  1
  Tm  Tm3  1  0.000000  0.000000  0.598974  1
  Zr  Zr4  1  0.000000  0.000000  0.001413  1
  Rh  Rh5  1  0.500000  0.500000  0.092892  1
  Rh  Rh6  1  0.500000  0.500000  0.297293  1
  Rh  Rh7  1  0.500000  0.500000  0.499036  1
  Rh  Rh8  1  0.500000  0.500000  0.698810  1
  Rh  Rh9  1  0.500000  0.500000  0.911931  1
