# generated using pymatgen
data_Pr2Y4RhI10
_symmetry_space_group_name_H-M   'P 1'
_cell_length_a   7.84122509
_cell_length_b   9.88573373
_cell_length_c   9.90987029
_cell_angle_alpha   106.79844382
_cell_angle_beta   96.10080290
_cell_angle_gamma   105.04936230
_symmetry_Int_Tables_number   1
_chemical_formula_structural   Pr2Y4RhI10
_chemical_formula_sum   'Pr2 Y4 Rh1 I10'
_cell_volume   696.38102377
_cell_formula_units_Z   1
loop_
 _symmetry_equiv_pos_site_id
 _symmetry_equiv_pos_as_xyz
  1  'x, y, z'
loop_
 _atom_site_type_symbol
 _atom_site_label
 _atom_site_symmetry_multiplicity
 _atom_site_fract_x
 _atom_site_fract_y
 _atom_site_fract_z
 _atom_site_occupancy
  Pr  Pr0  1  0.883362  0.956749  0.237707  1
  Pr  Pr1  1  0.116638  0.043251  0.762293  1
  Y  Y2  1  0.029547  0.712910  0.913630  1
  Y  Y3  1  0.970453  0.287090  0.086370  1
  Y  Y4  1  0.651868  0.875138  0.835859  1
  Y  Y5  1  0.348132  0.124862  0.164141  1
  Rh  Rh6  1  0.000000  0.000000  0.000000  1
  I  I7  1  0.653040  0.554456  0.731871  1
  I  I8  1  0.346960  0.445544  0.268129  1
  I  I9  1  0.734460  0.911643  0.544512  1
  I  I10  1  0.265540  0.088357  0.455488  1
  I  I11  1  0.082326  0.378003  0.824932  1
  I  I12  1  0.917674  0.621997  0.175068  1
  I  I13  1  0.447969  0.817687  0.089081  1
  I  I14  1  0.552031  0.182313  0.910919  1
  I  I15  1  0.228487  0.740082  0.660544  1
  I  I16  1  0.771513  0.259918  0.339456  1
