# generated using pymatgen
data_Pr3PO7
_symmetry_space_group_name_H-M   'P 1'
_cell_length_a   9.36099474
_cell_length_b   9.36099515
_cell_length_c   12.37499100
_cell_angle_alpha   102.77890240
_cell_angle_beta   102.77890297
_cell_angle_gamma   91.18287446
_symmetry_Int_Tables_number   1
_chemical_formula_structural   Pr3PO7
_chemical_formula_sum   'Pr18 P6 O42'
_cell_volume   1028.58177841
_cell_formula_units_Z   6
loop_
 _symmetry_equiv_pos_site_id
 _symmetry_equiv_pos_as_xyz
  1  'x, y, z'
loop_
 _atom_site_type_symbol
 _atom_site_label
 _atom_site_symmetry_multiplicity
 _atom_site_fract_x
 _atom_site_fract_y
 _atom_site_fract_z
 _atom_site_occupancy
  Pr  Pr0  1  0.163991  0.855850  0.835773  1
  Pr  Pr1  1  0.855850  0.163991  0.835773  1
  Pr  Pr2  1  0.153763  0.497779  0.295420  1
  Pr  Pr3  1  0.497779  0.153763  0.295420  1
  Pr  Pr4  1  0.155497  0.811576  0.161576  1
  Pr  Pr5  1  0.811576  0.155497  0.161576  1
  Pr  Pr6  1  0.508524  0.852248  0.053683  1
  Pr  Pr7  1  0.852248  0.508524  0.053683  1
  Pr  Pr8  1  0.494969  0.807650  0.719914  1
  Pr  Pr9  1  0.807650  0.494969  0.719914  1
  Pr  Pr10  1  0.169152  0.856420  0.496368  1
  Pr  Pr11  1  0.856420  0.169152  0.496368  1
  Pr  Pr12  1  0.142948  0.520386  0.607757  1
  Pr  Pr13  1  0.520386  0.142948  0.607757  1
  Pr  Pr14  1  0.166133  0.509407  0.920004  1
  Pr  Pr15  1  0.509407  0.166133  0.920004  1
  Pr  Pr16  1  0.807644  0.500065  0.379556  1
  Pr  Pr17  1  0.500065  0.807644  0.379556  1
  P  P18  1  0.836583  0.836583  0.926082  1
  P  P19  1  0.163617  0.163617  0.341421  1
  P  P20  1  0.827757  0.827757  0.287649  1
  P  P21  1  0.498466  0.498466  0.873094  1
  P  P22  1  0.494842  0.494842  0.495502  1
  P  P23  1  0.166283  0.166283  0.720754  1
  O  O24  1  0.228770  0.773074  0.663514  1
  O  O25  1  0.773074  0.228770  0.663514  1
  O  O26  1  0.414183  0.925845  0.885508  1
  O  O27  1  0.925845  0.414183  0.885508  1
  O  O28  1  0.253460  0.757869  0.996104  1
  O  O29  1  0.757869  0.253460  0.996104  1
  O  O30  1  0.944935  0.944935  0.897196  1
  O  O31  1  0.135490  0.135490  0.833323  1
  O  O32  1  0.259439  0.259439  0.289738  1
  O  O33  1  0.249631  0.737721  0.330082  1
  O  O34  1  0.737721  0.249631  0.330082  1
  O  O35  1  0.118437  0.545380  0.107574  1
  O  O36  1  0.545380  0.118437  0.107574  1
  O  O37  1  0.058783  0.058783  0.235343  1
  O  O38  1  0.930437  0.738731  0.994709  1
  O  O39  1  0.738731  0.930437  0.994709  1
  O  O40  1  0.924763  0.733331  0.218564  1
  O  O41  1  0.733331  0.924763  0.218564  1
  O  O42  1  0.605104  0.605104  0.976860  1
  O  O43  1  0.410627  0.905645  0.219306  1
  O  O44  1  0.905645  0.410627  0.219306  1
  O  O45  1  0.436164  0.889392  0.552079  1
  O  O46  1  0.889392  0.436164  0.552079  1
  O  O47  1  0.596723  0.596723  0.602641  1
  O  O48  1  0.740785  0.740785  0.813841  1
  O  O49  1  0.618358  0.048371  0.771205  1
  O  O50  1  0.048371  0.618358  0.771205  1
  O  O51  1  0.924714  0.924714  0.398853  1
  O  O52  1  0.044931  0.616170  0.444456  1
  O  O53  1  0.616170  0.044931  0.444456  1
  O  O54  1  0.266641  0.074544  0.413599  1
  O  O55  1  0.074544  0.266641  0.413599  1
  O  O56  1  0.326762  0.136176  0.716566  1
  O  O57  1  0.136176  0.326762  0.716566  1
  O  O58  1  0.060099  0.060099  0.617954  1
  O  O59  1  0.333006  0.523304  0.495554  1
  O  O60  1  0.523304  0.333006  0.495554  1
  O  O61  1  0.393338  0.585748  0.800821  1
  O  O62  1  0.585748  0.393338  0.800821  1
  O  O63  1  0.404423  0.404423  0.927545  1
  O  O64  1  0.719871  0.719871  0.317447  1
  O  O65  1  0.532276  0.532276  0.386974  1
