# generated using pymatgen
data_La10Ir4OsRu
_symmetry_space_group_name_H-M   'P 1'
_cell_length_a   11.41588300
_cell_length_b   11.41588300
_cell_length_c   6.69700100
_cell_angle_alpha   90.00000000
_cell_angle_beta   90.00000000
_cell_angle_gamma   90.00000000
_symmetry_Int_Tables_number   1
_chemical_formula_structural   La10Ir4OsRu
_chemical_formula_sum   'La20 Ir8 Os2 Ru2'
_cell_volume   872.76914046
_cell_formula_units_Z   2
loop_
 _symmetry_equiv_pos_site_id
 _symmetry_equiv_pos_as_xyz
  1  'x, y, z'
loop_
 _atom_site_type_symbol
 _atom_site_label
 _atom_site_symmetry_multiplicity
 _atom_site_fract_x
 _atom_site_fract_y
 _atom_site_fract_z
 _atom_site_occupancy
  La  La0  1  0.294699  0.089871  0.387859  1
  La  La1  1  0.294699  0.910129  0.887859  1
  La  La2  1  0.705301  0.089871  0.887859  1
  La  La3  1  0.705301  0.910129  0.387859  1
  La  La4  1  0.589871  0.794699  0.887859  1
  La  La5  1  0.589871  0.205301  0.387859  1
  La  La6  1  0.410129  0.794699  0.387859  1
  La  La7  1  0.410129  0.205301  0.887859  1
  La  La8  1  0.204717  0.410382  0.612988  1
  La  La9  1  0.204717  0.589618  0.112988  1
  La  La10  1  0.795283  0.410382  0.112988  1
  La  La11  1  0.795283  0.589618  0.612988  1
  La  La12  1  0.910382  0.704717  0.112988  1
  La  La13  1  0.910382  0.295283  0.612988  1
  La  La14  1  0.089618  0.704717  0.612988  1
  La  La15  1  0.089618  0.295283  0.112988  1
  La  La16  1  0.000000  0.000000  0.500295  1
  La  La17  1  0.000000  0.000000  0.000295  1
  La  La18  1  0.500000  0.500000  0.000295  1
  La  La19  1  0.500000  0.500000  0.500295  1
  Ir  Ir20  1  0.847436  0.151349  0.249492  1
  Ir  Ir21  1  0.847436  0.848651  0.749492  1
  Ir  Ir22  1  0.152564  0.151349  0.749492  1
  Ir  Ir23  1  0.152564  0.848651  0.249492  1
  Ir  Ir24  1  0.651349  0.347436  0.749492  1
  Ir  Ir25  1  0.651349  0.652564  0.249492  1
  Ir  Ir26  1  0.348651  0.347436  0.249492  1
  Ir  Ir27  1  0.348651  0.652564  0.749492  1
  Os  Os28  1  0.000000  0.500000  0.876417  1
  Os  Os29  1  0.000000  0.500000  0.376417  1
  Ru  Ru30  1  0.500000  0.000000  0.121637  1
  Ru  Ru31  1  0.500000  0.000000  0.621637  1
