# generated using pymatgen
data_Ba3HoInWO9
_symmetry_space_group_name_H-M   'P 1'
_cell_length_a   10.44064387
_cell_length_b   10.44064378
_cell_length_c   10.44064318
_cell_angle_alpha   146.48748895
_cell_angle_beta   131.65675156
_cell_angle_gamma   60.10369219
_symmetry_Int_Tables_number   1
_chemical_formula_structural   Ba3HoInWO9
_chemical_formula_sum   'Ba6 Ho2 In2 W2 O18'
_cell_volume   465.17310480
_cell_formula_units_Z   2
loop_
 _symmetry_equiv_pos_site_id
 _symmetry_equiv_pos_as_xyz
  1  'x, y, z'
loop_
 _atom_site_type_symbol
 _atom_site_label
 _atom_site_symmetry_multiplicity
 _atom_site_fract_x
 _atom_site_fract_y
 _atom_site_fract_z
 _atom_site_occupancy
  Ba  Ba0  1  0.576377  0.840188  0.736187  1
  Ba  Ba1  1  0.268497  0.497858  0.770639  1
  Ba  Ba2  1  0.901343  0.161193  0.740151  1
  Ba  Ba3  1  0.104002  0.840188  0.263813  1
  Ba  Ba4  1  0.727219  0.497858  0.229361  1
  Ba  Ba5  1  0.421041  0.161193  0.259849  1
  Ho  Ho6  1  0.999717  0.999717  0.000000  1
  Ho  Ho7  1  0.670076  0.670076  0.000000  1
  In  In8  1  0.329079  0.329079  0.000000  1
  In  In9  1  0.500310  0.000310  0.500000  1
  W  W10  1  0.166557  0.666557  0.500000  1
  W  W11  1  0.834181  0.334181  0.500000  1
  O  O12  1  0.600784  0.330715  0.270066  1
  O  O13  1  0.250022  0.999645  0.250377  1
  O  O14  1  0.940268  0.669980  0.270288  1
  O  O15  1  0.911379  0.641078  0.729699  1
  O  O16  1  0.586702  0.336617  0.749915  1
  O  O17  1  0.242830  0.979396  0.736566  1
  O  O18  1  0.758487  0.490173  0.731685  1
  O  O19  1  0.410657  0.161732  0.751074  1
  O  O20  1  0.090406  0.819635  0.729230  1
  O  O21  1  0.060649  0.330715  0.729934  1
  O  O22  1  0.749268  0.999645  0.749623  1
  O  O23  1  0.399690  0.669980  0.729712  1
  O  O24  1  0.758487  0.026802  0.268315  1
  O  O25  1  0.410657  0.659583  0.248926  1
  O  O26  1  0.090406  0.361176  0.270770  1
  O  O27  1  0.911379  0.181680  0.270301  1
  O  O28  1  0.586702  0.836786  0.250085  1
  O  O29  1  0.242830  0.506263  0.263434  1
