# generated using pymatgen
data_PrGa5Pt3
_symmetry_space_group_name_H-M   'P 1'
_cell_length_a   4.15391600
_cell_length_b   7.43961400
_cell_length_c   21.12078500
_cell_angle_alpha   90.00000000
_cell_angle_beta   90.00000000
_cell_angle_gamma   90.00000000
_symmetry_Int_Tables_number   1
_chemical_formula_structural   PrGa5Pt3
_chemical_formula_sum   'Pr4 Ga20 Pt12'
_cell_volume   652.70684726
_cell_formula_units_Z   4
loop_
 _symmetry_equiv_pos_site_id
 _symmetry_equiv_pos_as_xyz
  1  'x, y, z'
loop_
 _atom_site_type_symbol
 _atom_site_label
 _atom_site_symmetry_multiplicity
 _atom_site_fract_x
 _atom_site_fract_y
 _atom_site_fract_z
 _atom_site_occupancy
  Pr  Pr0  1  0.250000  0.116952  0.640576  1
  Pr  Pr1  1  0.750000  0.883048  0.359424  1
  Pr  Pr2  1  0.250000  0.383048  0.140576  1
  Pr  Pr3  1  0.750000  0.616952  0.859424  1
  Ga  Ga4  1  0.750000  0.353875  0.383495  1
  Ga  Ga5  1  0.750000  0.882800  0.982905  1
  Ga  Ga6  1  0.750000  0.677884  0.200261  1
  Ga  Ga7  1  0.250000  0.871891  0.490121  1
  Ga  Ga8  1  0.250000  0.628109  0.990121  1
  Ga  Ga9  1  0.250000  0.322116  0.799739  1
  Ga  Ga10  1  0.750000  0.082917  0.207073  1
  Ga  Ga11  1  0.250000  0.646125  0.616505  1
  Ga  Ga12  1  0.250000  0.582917  0.292927  1
  Ga  Ga13  1  0.250000  0.177884  0.299739  1
  Ga  Ga14  1  0.750000  0.146125  0.883495  1
  Ga  Ga15  1  0.250000  0.917083  0.792927  1
  Ga  Ga16  1  0.750000  0.371891  0.009879  1
  Ga  Ga17  1  0.750000  0.617200  0.482905  1
  Ga  Ga18  1  0.750000  0.128109  0.509879  1
  Ga  Ga19  1  0.250000  0.117200  0.017095  1
  Ga  Ga20  1  0.250000  0.853875  0.116505  1
  Ga  Ga21  1  0.250000  0.382800  0.517095  1
  Ga  Ga22  1  0.750000  0.417083  0.707073  1
  Ga  Ga23  1  0.750000  0.822116  0.700261  1
  Pt  Pt24  1  0.750000  0.383351  0.264095  1
  Pt  Pt25  1  0.250000  0.883351  0.235905  1
  Pt  Pt26  1  0.250000  0.616649  0.735905  1
  Pt  Pt27  1  0.750000  0.116649  0.764095  1
  Pt  Pt28  1  0.250000  0.163869  0.425209  1
  Pt  Pt29  1  0.750000  0.423452  0.585435  1
  Pt  Pt30  1  0.750000  0.076548  0.085435  1
  Pt  Pt31  1  0.250000  0.923452  0.914565  1
  Pt  Pt32  1  0.750000  0.836131  0.574791  1
  Pt  Pt33  1  0.250000  0.336131  0.925209  1
  Pt  Pt34  1  0.750000  0.663869  0.074791  1
  Pt  Pt35  1  0.250000  0.576548  0.414565  1
