# generated using pymatgen
data_Tb3Zn3CuPdRh
_symmetry_space_group_name_H-M   'P 1'
_cell_length_a   7.31310600
_cell_length_b   7.31310587
_cell_length_c   3.77111500
_cell_angle_alpha   90.00000000
_cell_angle_beta   90.00000000
_cell_angle_gamma   119.99999156
_symmetry_Int_Tables_number   1
_chemical_formula_structural   Tb3Zn3CuPdRh
_chemical_formula_sum   'Tb3 Zn3 Cu1 Pd1 Rh1'
_cell_volume   174.66431052
_cell_formula_units_Z   1
loop_
 _symmetry_equiv_pos_site_id
 _symmetry_equiv_pos_as_xyz
  1  'x, y, z'
loop_
 _atom_site_type_symbol
 _atom_site_label
 _atom_site_symmetry_multiplicity
 _atom_site_fract_x
 _atom_site_fract_y
 _atom_site_fract_z
 _atom_site_occupancy
  Tb  Tb0  1  0.008723  0.413154  0.000000  1
  Tb  Tb1  1  0.586846  0.595568  0.000000  1
  Tb  Tb2  1  0.404432  0.991277  0.000000  1
  Zn  Zn3  1  0.001913  0.753859  0.500000  1
  Zn  Zn4  1  0.246141  0.248054  0.500000  1
  Zn  Zn5  1  0.751946  0.998087  0.500000  1
  Cu  Cu6  1  0.000000  0.000000  0.000000  1
  Pd  Pd7  1  0.666667  0.333333  0.500000  1
  Rh  Rh8  1  0.333333  0.666667  0.500000  1
