# generated using pymatgen
data_Ho3Sn3Pd2Pt
_symmetry_space_group_name_H-M   'P 1'
_cell_length_a   7.63030600
_cell_length_b   7.63030441
_cell_length_c   3.89998100
_cell_angle_alpha   90.00000000
_cell_angle_beta   90.00000000
_cell_angle_gamma   120.00000689
_symmetry_Int_Tables_number   1
_chemical_formula_structural   Ho3Sn3Pd2Pt
_chemical_formula_sum   'Ho3 Sn3 Pd2 Pt1'
_cell_volume   196.64228503
_cell_formula_units_Z   1
loop_
 _symmetry_equiv_pos_site_id
 _symmetry_equiv_pos_as_xyz
  1  'x, y, z'
loop_
 _atom_site_type_symbol
 _atom_site_label
 _atom_site_symmetry_multiplicity
 _atom_site_fract_x
 _atom_site_fract_y
 _atom_site_fract_z
 _atom_site_occupancy
  Ho  Ho0  1  0.403457  0.407352  0.500000  1
  Ho  Ho1  1  0.592648  0.996105  0.500000  1
  Ho  Ho2  1  0.003895  0.596543  0.500000  1
  Sn  Sn3  1  0.996521  0.258562  0.000000  1
  Sn  Sn4  1  0.741438  0.737960  0.000000  1
  Sn  Sn5  1  0.262040  0.003479  0.000000  1
  Pd  Pd6  1  0.666667  0.333333  0.000000  1
  Pd  Pd7  1  0.000000  0.000000  0.500000  1
  Pt  Pt8  1  0.333333  0.666667  0.000000  1
