# generated using pymatgen
data_Tb3Er2Tm11(Ga3Co)2
_symmetry_space_group_name_H-M   'P 1'
_cell_length_a   9.88195220
_cell_length_b   9.88195072
_cell_length_c   6.90559201
_cell_angle_alpha   89.99536209
_cell_angle_beta   90.00464264
_cell_angle_gamma   120.02273051
_symmetry_Int_Tables_number   1
_chemical_formula_structural   Tb3Er2Tm11(Ga3Co)2
_chemical_formula_sum   'Tb3 Er2 Tm11 Ga6 Co2'
_cell_volume   583.87174475
_cell_formula_units_Z   1
loop_
 _symmetry_equiv_pos_site_id
 _symmetry_equiv_pos_as_xyz
  1  'x, y, z'
loop_
 _atom_site_type_symbol
 _atom_site_label
 _atom_site_symmetry_multiplicity
 _atom_site_fract_x
 _atom_site_fract_y
 _atom_site_fract_z
 _atom_site_occupancy
  Tb  Tb0  1  0.464162  0.535838  0.291526  1
  Tb  Tb1  1  0.999945  0.000055  0.769059  1
  Tb  Tb2  1  0.000008  0.999992  0.269258  1
  Er  Er3  1  0.463775  0.927880  0.291723  1
  Er  Er4  1  0.072120  0.536225  0.291723  1
  Tm  Tm5  1  0.826354  0.652069  0.489824  1
  Tm  Tm6  1  0.347931  0.173646  0.489824  1
  Tm  Tm7  1  0.825968  0.174032  0.489529  1
  Tm  Tm8  1  0.173532  0.347489  0.986583  1
  Tm  Tm9  1  0.652511  0.826468  0.986583  1
  Tm  Tm10  1  0.173942  0.826058  0.986886  1
  Tm  Tm11  1  0.666838  0.333162  0.172255  1
  Tm  Tm12  1  0.333133  0.666867  0.673282  1
  Tm  Tm13  1  0.537133  0.074289  0.792706  1
  Tm  Tm14  1  0.925711  0.462867  0.792706  1
  Tm  Tm15  1  0.537259  0.462741  0.792656  1
  Ga  Ga16  1  0.835843  0.671592  0.040880  1
  Ga  Ga17  1  0.328408  0.164157  0.040880  1
  Ga  Ga18  1  0.835795  0.164205  0.041106  1
  Ga  Ga19  1  0.163403  0.327247  0.542476  1
  Ga  Ga20  1  0.672753  0.836597  0.542476  1
  Ga  Ga21  1  0.163764  0.836236  0.542087  1
  Co  Co22  1  0.666692  0.333308  0.555812  1
  Co  Co23  1  0.333019  0.666981  0.054235  1
