# generated using pymatgen
data_Mn3Tc(PtCl9)2
_symmetry_space_group_name_H-M   'P 1'
_cell_length_a   6.22076700
_cell_length_b   6.21770415
_cell_length_c   19.92948700
_cell_angle_alpha   90.00091574
_cell_angle_beta   89.99816942
_cell_angle_gamma   120.01630178
_symmetry_Int_Tables_number   1
_chemical_formula_structural   Mn3Tc(PtCl9)2
_chemical_formula_sum   'Mn3 Tc1 Pt2 Cl18'
_cell_volume   667.46635056
_cell_formula_units_Z   1
loop_
 _symmetry_equiv_pos_site_id
 _symmetry_equiv_pos_as_xyz
  1  'x, y, z'
loop_
 _atom_site_type_symbol
 _atom_site_label
 _atom_site_symmetry_multiplicity
 _atom_site_fract_x
 _atom_site_fract_y
 _atom_site_fract_z
 _atom_site_occupancy
  Mn  Mn0  1  0.555349  0.110764  0.166655  1
  Mn  Mn1  1  0.889781  0.445072  0.499929  1
  Mn  Mn2  1  0.555291  0.445060  0.833410  1
  Tc  Tc3  1  0.222186  0.444375  0.166663  1
  Pt  Pt4  1  0.555755  0.777840  0.500088  1
  Pt  Pt5  1  0.222088  0.777839  0.833252  1
  Cl  Cl6  1  0.523901  0.768344  0.764507  1
  Cl  Cl7  1  0.910600  0.768014  0.902087  1
  Cl  Cl8  1  0.523833  0.089373  0.902072  1
  Cl  Cl9  1  0.857431  0.768034  0.431253  1
  Cl  Cl10  1  0.244281  0.475883  0.431295  1
  Cl  Cl11  1  0.907597  0.140628  0.096537  1
  Cl  Cl12  1  0.525636  0.758540  0.236708  1
  Cl  Cl13  1  0.910536  0.475901  0.764476  1
  Cl  Cl14  1  0.231623  0.475893  0.902044  1
  Cl  Cl15  1  0.565351  0.475890  0.568864  1
  Cl  Cl16  1  0.857503  0.089421  0.568903  1
  Cl  Cl17  1  0.244456  0.768362  0.568832  1
  Cl  Cl18  1  0.233027  0.140622  0.236787  1
  Cl  Cl19  1  0.565528  0.089370  0.431268  1
  Cl  Cl20  1  0.907819  0.433404  0.236841  1
  Cl  Cl21  1  0.525588  0.433409  0.096480  1
  Cl  Cl22  1  0.231935  0.089428  0.764436  1
  Cl  Cl23  1  0.232906  0.758532  0.096612  1
