# generated using pymatgen
data_BaNdSiPt8
_symmetry_space_group_name_H-M   'P 1'
_cell_length_a   4.29608700
_cell_length_b   9.46112485
_cell_length_c   9.45098091
_cell_angle_alpha   145.89430190
_cell_angle_beta   90.00000000
_cell_angle_gamma   90.00000000
_symmetry_Int_Tables_number   1
_chemical_formula_structural   BaNdSiPt8
_chemical_formula_sum   'Ba1 Nd1 Si1 Pt8'
_cell_volume   215.39708129
_cell_formula_units_Z   1
loop_
 _symmetry_equiv_pos_site_id
 _symmetry_equiv_pos_as_xyz
  1  'x, y, z'
loop_
 _atom_site_type_symbol
 _atom_site_label
 _atom_site_symmetry_multiplicity
 _atom_site_fract_x
 _atom_site_fract_y
 _atom_site_fract_z
 _atom_site_occupancy
  Ba  Ba0  1  0.500000  0.615588  0.376476  1
  Nd  Nd1  1  0.500000  0.367967  0.617482  1
  Si  Si2  1  0.000000  0.219393  0.220058  1
  Pt  Pt3  1  0.000000  0.891600  0.112195  1
  Pt  Pt4  1  0.500000  0.792856  0.189177  1
  Pt  Pt5  1  0.000000  0.999160  0.489643  1
  Pt  Pt6  1  0.000000  0.625729  0.644769  1
  Pt  Pt7  1  0.500000  0.197545  0.787072  1
  Pt  Pt8  1  0.000000  0.107783  0.885370  1
  Pt  Pt9  1  0.000000  0.493196  0.983300  1
  Pt  Pt10  1  0.500000  0.002767  0.008040  1
