# generated using pymatgen
data_LaPrGa6
_symmetry_space_group_name_H-M   'P 1'
_cell_length_a   6.55072300
_cell_length_b   6.55072316
_cell_length_c   4.64050200
_cell_angle_alpha   90.00000000
_cell_angle_beta   90.00000000
_cell_angle_gamma   119.99999416
_symmetry_Int_Tables_number   1
_chemical_formula_structural   LaPrGa6
_chemical_formula_sum   'La1 Pr1 Ga6'
_cell_volume   172.45432985
_cell_formula_units_Z   1
loop_
 _symmetry_equiv_pos_site_id
 _symmetry_equiv_pos_as_xyz
  1  'x, y, z'
loop_
 _atom_site_type_symbol
 _atom_site_label
 _atom_site_symmetry_multiplicity
 _atom_site_fract_x
 _atom_site_fract_y
 _atom_site_fract_z
 _atom_site_occupancy
  La  La0  1  0.333333  0.666667  0.750000  1
  Pr  Pr1  1  0.666667  0.333333  0.250000  1
  Ga  Ga2  1  0.142305  0.284611  0.250000  1
  Ga  Ga3  1  0.715389  0.857695  0.250000  1
  Ga  Ga4  1  0.142305  0.857695  0.250000  1
  Ga  Ga5  1  0.857595  0.715189  0.750000  1
  Ga  Ga6  1  0.284811  0.142405  0.750000  1
  Ga  Ga7  1  0.857595  0.142405  0.750000  1
