# generated using pymatgen
data_Ca8La2RuRh
_symmetry_space_group_name_H-M   'P 1'
_cell_length_a   6.79804841
_cell_length_b   7.50140269
_cell_length_c   16.47704500
_cell_angle_alpha   90.00000000
_cell_angle_beta   90.00000000
_cell_angle_gamma   90.09671791
_symmetry_Int_Tables_number   1
_chemical_formula_structural   Ca8La2RuRh
_chemical_formula_sum   'Ca16 La4 Ru2 Rh2'
_cell_volume   840.24404174
_cell_formula_units_Z   2
loop_
 _symmetry_equiv_pos_site_id
 _symmetry_equiv_pos_as_xyz
  1  'x, y, z'
loop_
 _atom_site_type_symbol
 _atom_site_label
 _atom_site_symmetry_multiplicity
 _atom_site_fract_x
 _atom_site_fract_y
 _atom_site_fract_z
 _atom_site_occupancy
  Ca  Ca0  1  0.351384  0.308635  0.058892  1
  Ca  Ca1  1  0.648616  0.691365  0.941108  1
  Ca  Ca2  1  0.850778  0.190469  0.940952  1
  Ca  Ca3  1  0.648616  0.691365  0.558892  1
  Ca  Ca4  1  0.149222  0.809531  0.059048  1
  Ca  Ca5  1  0.351384  0.308635  0.441108  1
  Ca  Ca6  1  0.149222  0.809531  0.440952  1
  Ca  Ca7  1  0.850778  0.190469  0.559048  1
  Ca  Ca8  1  0.324607  0.038757  0.644610  1
  Ca  Ca9  1  0.675393  0.961243  0.355390  1
  Ca  Ca10  1  0.826133  0.460813  0.355547  1
  Ca  Ca11  1  0.675393  0.961243  0.144610  1
  Ca  Ca12  1  0.173867  0.539187  0.644453  1
  Ca  Ca13  1  0.324607  0.038757  0.855390  1
  Ca  Ca14  1  0.173867  0.539187  0.855547  1
  Ca  Ca15  1  0.826133  0.460813  0.144453  1
  La  La16  1  0.168798  0.087955  0.250000  1
  La  La17  1  0.831202  0.912045  0.750000  1
  La  La18  1  0.656383  0.423396  0.750000  1
  La  La19  1  0.343617  0.576604  0.250000  1
  Ru  Ru20  1  0.497915  0.274595  0.250000  1
  Ru  Ru21  1  0.502085  0.725405  0.750000  1
  Rh  Rh22  1  0.012728  0.231230  0.750000  1
  Rh  Rh23  1  0.987272  0.768770  0.250000  1
