# generated using pymatgen
data_Li4Ho(Ni2P3)2
_symmetry_space_group_name_H-M   'P 1'
_cell_length_a   7.74838869
_cell_length_b   7.74839017
_cell_length_c   7.74838917
_cell_angle_alpha   151.40221356
_cell_angle_beta   113.30082276
_cell_angle_gamma   74.12376722
_symmetry_Int_Tables_number   1
_chemical_formula_structural   Li4Ho(Ni2P3)2
_chemical_formula_sum   'Li4 Ho1 Ni4 P6'
_cell_volume   201.61062760
_cell_formula_units_Z   1
loop_
 _symmetry_equiv_pos_site_id
 _symmetry_equiv_pos_as_xyz
  1  'x, y, z'
loop_
 _atom_site_type_symbol
 _atom_site_label
 _atom_site_symmetry_multiplicity
 _atom_site_fract_x
 _atom_site_fract_y
 _atom_site_fract_z
 _atom_site_occupancy
  Li  Li0  1  0.718578  0.718578  0.000000  1
  Li  Li1  1  0.672264  0.500000  0.172264  1
  Li  Li2  1  0.327736  0.500000  0.827736  1
  Li  Li3  1  0.281422  0.281422  0.000000  1
  Ho  Ho4  1  0.000000  0.000000  0.000000  1
  Ni  Ni5  1  0.906289  0.173114  0.733176  1
  Ni  Ni6  1  0.560062  0.826886  0.733176  1
  Ni  Ni7  1  0.439938  0.173114  0.266824  1
  Ni  Ni8  1  0.093711  0.826886  0.266824  1
  P  P9  1  0.978162  0.345544  0.632619  1
  P  P10  1  0.712923  0.345544  0.367381  1
  P  P11  1  0.587027  0.087027  0.500000  1
  P  P12  1  0.412973  0.912973  0.500000  1
  P  P13  1  0.287077  0.654456  0.632619  1
  P  P14  1  0.021838  0.654456  0.367381  1
