# generated using pymatgen
data_CaPrSc3Si7Pt9
_symmetry_space_group_name_H-M   'P 1'
_cell_length_a   10.10084100
_cell_length_b   10.10084083
_cell_length_c   3.99835300
_cell_angle_alpha   90.00000000
_cell_angle_beta   90.00000000
_cell_angle_gamma   119.99999728
_symmetry_Int_Tables_number   1
_chemical_formula_structural   CaPrSc3Si7Pt9
_chemical_formula_sum   'Ca1 Pr1 Sc3 Si7 Pt9'
_cell_volume   353.28633531
_cell_formula_units_Z   1
loop_
 _symmetry_equiv_pos_site_id
 _symmetry_equiv_pos_as_xyz
  1  'x, y, z'
loop_
 _atom_site_type_symbol
 _atom_site_label
 _atom_site_symmetry_multiplicity
 _atom_site_fract_x
 _atom_site_fract_y
 _atom_site_fract_z
 _atom_site_occupancy
  Ca  Ca0  1  0.333333  0.666667  0.500000  1
  Pr  Pr1  1  0.000000  0.000000  0.000000  1
  Sc  Sc2  1  0.894523  0.454146  0.500000  1
  Sc  Sc3  1  0.559623  0.105477  0.500000  1
  Sc  Sc4  1  0.545854  0.440377  0.500000  1
  Si  Si5  1  0.251267  0.201984  0.500000  1
  Si  Si6  1  0.798016  0.049284  0.500000  1
  Si  Si7  1  0.950716  0.748733  0.500000  1
  Si  Si8  1  0.553948  0.647021  0.000000  1
  Si  Si9  1  0.352979  0.906926  0.000000  1
  Si  Si10  1  0.093074  0.446052  0.000000  1
  Si  Si11  1  0.666667  0.333333  0.000000  1
  Pt  Pt12  1  0.222581  0.937881  0.500000  1
  Pt  Pt13  1  0.062119  0.284700  0.500000  1
  Pt  Pt14  1  0.715300  0.777419  0.500000  1
  Pt  Pt15  1  0.312399  0.408390  0.000000  1
  Pt  Pt16  1  0.591610  0.904008  0.000000  1
  Pt  Pt17  1  0.095992  0.687601  0.000000  1
  Pt  Pt18  1  0.386002  0.171058  0.000000  1
  Pt  Pt19  1  0.828942  0.214944  0.000000  1
  Pt  Pt20  1  0.785056  0.613998  0.000000  1
