# generated using pymatgen
data_YMg2ZrCo8
_symmetry_space_group_name_H-M   'P 1'
_cell_length_a   4.91197400
_cell_length_b   4.91197367
_cell_length_c   8.54924594
_cell_angle_alpha   73.30509586
_cell_angle_beta   90.00000000
_cell_angle_gamma   120.00000221
_symmetry_Int_Tables_number   1
_chemical_formula_structural   YMg2ZrCo8
_chemical_formula_sum   'Y1 Mg2 Zr1 Co8'
_cell_volume   168.52203840
_cell_formula_units_Z   1
loop_
 _symmetry_equiv_pos_site_id
 _symmetry_equiv_pos_as_xyz
  1  'x, y, z'
loop_
 _atom_site_type_symbol
 _atom_site_label
 _atom_site_symmetry_multiplicity
 _atom_site_fract_x
 _atom_site_fract_y
 _atom_site_fract_z
 _atom_site_occupancy
  Y  Y0  1  0.000283  0.000567  0.999150  1
  Mg  Mg1  1  0.874182  0.748365  0.377453  1
  Mg  Mg2  1  0.376464  0.752927  0.870609  1
  Zr  Zr3  1  0.500052  0.000103  0.499845  1
  Co  Co4  1  0.436444  0.369349  0.194207  1
  Co  Co5  1  0.937034  0.381023  0.681944  1
  Co  Co6  1  0.436444  0.872888  0.194207  1
  Co  Co7  1  0.937034  0.874067  0.681944  1
  Co  Co8  1  0.187378  0.374755  0.437867  1
  Co  Co9  1  0.687793  0.375586  0.936621  1
  Co  Co10  1  0.932904  0.369349  0.194207  1
  Co  Co11  1  0.443988  0.381023  0.681944  1
