# generated using pymatgen
data_Pr12OsPd2Rh
_symmetry_space_group_name_H-M   'P 1'
_cell_length_a   6.61837874
_cell_length_b   7.41220766
_cell_length_c   10.02824700
_cell_angle_alpha   90.00000000
_cell_angle_beta   90.00000000
_cell_angle_gamma   90.25204814
_symmetry_Int_Tables_number   1
_chemical_formula_structural   Pr12OsPd2Rh
_chemical_formula_sum   'Pr12 Os1 Pd2 Rh1'
_cell_volume   491.94892356
_cell_formula_units_Z   1
loop_
 _symmetry_equiv_pos_site_id
 _symmetry_equiv_pos_as_xyz
  1  'x, y, z'
loop_
 _atom_site_type_symbol
 _atom_site_label
 _atom_site_symmetry_multiplicity
 _atom_site_fract_x
 _atom_site_fract_y
 _atom_site_fract_z
 _atom_site_occupancy
  Pr  Pr0  1  0.329450  0.681095  0.058747  1
  Pr  Pr1  1  0.163421  0.172364  0.435427  1
  Pr  Pr2  1  0.665005  0.328905  0.566615  1
  Pr  Pr3  1  0.825993  0.817595  0.936872  1
  Pr  Pr4  1  0.665005  0.328905  0.933385  1
  Pr  Pr5  1  0.825993  0.817595  0.563128  1
  Pr  Pr6  1  0.329450  0.681095  0.441253  1
  Pr  Pr7  1  0.163421  0.172364  0.064573  1
  Pr  Pr8  1  0.867752  0.533676  0.250000  1
  Pr  Pr9  1  0.643114  0.026962  0.250000  1
  Pr  Pr10  1  0.145094  0.475768  0.750000  1
  Pr  Pr11  1  0.370389  0.960531  0.750000  1
  Os  Os12  1  0.567042  0.618163  0.750000  1
  Pd  Pd13  1  0.427226  0.387319  0.250000  1
  Pd  Pd14  1  0.936693  0.114965  0.750000  1
  Rh  Rh15  1  0.074953  0.882702  0.250000  1
