# generated using pymatgen
data_Nd4Sc4Cr(B8Os)3
_symmetry_space_group_name_H-M   'P 1'
_cell_length_a   3.60227400
_cell_length_b   9.08361819
_cell_length_c   11.53000928
_cell_angle_alpha   89.96138888
_cell_angle_beta   90.00000000
_cell_angle_gamma   90.00000000
_symmetry_Int_Tables_number   1
_chemical_formula_structural   Nd4Sc4Cr(B8Os)3
_chemical_formula_sum   'Nd4 Sc4 Cr1 B24 Os3'
_cell_volume   377.28120698
_cell_formula_units_Z   1
loop_
 _symmetry_equiv_pos_site_id
 _symmetry_equiv_pos_as_xyz
  1  'x, y, z'
loop_
 _atom_site_type_symbol
 _atom_site_label
 _atom_site_symmetry_multiplicity
 _atom_site_fract_x
 _atom_site_fract_y
 _atom_site_fract_z
 _atom_site_occupancy
  Nd  Nd0  1  0.000000  0.821215  0.084556  1
  Nd  Nd1  1  0.000000  0.180431  0.913336  1
  Nd  Nd2  1  0.000000  0.321447  0.416970  1
  Nd  Nd3  1  0.000000  0.677376  0.586321  1
  Sc  Sc4  1  0.000000  0.444525  0.127626  1
  Sc  Sc5  1  0.000000  0.553795  0.871012  1
  Sc  Sc6  1  0.000000  0.944110  0.373195  1
  Sc  Sc7  1  0.000000  0.056847  0.627504  1
  Cr  Cr8  1  0.000000  0.359091  0.682681  1
  B  B9  1  0.500000  0.056803  0.069753  1
  B  B10  1  0.500000  0.943632  0.929405  1
  B  B11  1  0.500000  0.556265  0.430308  1
  B  B12  1  0.500000  0.443641  0.570777  1
  B  B13  1  0.500000  0.253947  0.083756  1
  B  B14  1  0.500000  0.745896  0.915709  1
  B  B15  1  0.500000  0.753244  0.416253  1
  B  B16  1  0.500000  0.246706  0.584398  1
  B  B17  1  0.500000  0.293275  0.234478  1
  B  B18  1  0.500000  0.706109  0.765838  1
  B  B19  1  0.500000  0.793517  0.265743  1
  B  B20  1  0.500000  0.206761  0.733698  1
  B  B21  1  0.500000  0.128241  0.316757  1
  B  B22  1  0.500000  0.871984  0.683813  1
  B  B23  1  0.500000  0.628403  0.183310  1
  B  B24  1  0.500000  0.371740  0.815808  1
  B  B25  1  0.500000  0.483446  0.284736  1
  B  B26  1  0.500000  0.516453  0.715501  1
  B  B27  1  0.500000  0.983378  0.215353  1
  B  B28  1  0.500000  0.017171  0.783999  1
  B  B29  1  0.500000  0.096110  0.474108  1
  B  B30  1  0.500000  0.903428  0.525991  1
  B  B31  1  0.500000  0.596050  0.025805  1
  B  B32  1  0.500000  0.403635  0.974263  1
  Os  Os33  1  0.000000  0.140808  0.182837  1
  Os  Os34  1  0.000000  0.858942  0.817817  1
  Os  Os35  1  0.000000  0.641573  0.316587  1
