# generated using pymatgen
data_Ba9Ca3Sm4(Fe4O15)2
_symmetry_space_group_name_H-M   'P 1'
_cell_length_a   7.00311337
_cell_length_b   11.71354258
_cell_length_c   11.72132813
_cell_angle_alpha   119.98197163
_cell_angle_beta   90.15651008
_cell_angle_gamma   89.73141678
_symmetry_Int_Tables_number   1
_chemical_formula_structural   Ba9Ca3Sm4(Fe4O15)2
_chemical_formula_sum   'Ba9 Ca3 Sm4 Fe8 O30'
_cell_volume   832.83875346
_cell_formula_units_Z   1
loop_
 _symmetry_equiv_pos_site_id
 _symmetry_equiv_pos_as_xyz
  1  'x, y, z'
loop_
 _atom_site_type_symbol
 _atom_site_label
 _atom_site_symmetry_multiplicity
 _atom_site_fract_x
 _atom_site_fract_y
 _atom_site_fract_z
 _atom_site_occupancy
  Ba  Ba0  1  0.687572  0.349411  0.178849  1
  Ba  Ba1  1  0.680942  0.828547  0.176403  1
  Ba  Ba2  1  0.684026  0.823711  0.650352  1
  Ba  Ba3  1  0.165702  0.662655  0.828444  1
  Ba  Ba4  1  0.170157  0.165987  0.827091  1
  Ba  Ba5  1  0.167999  0.169364  0.339526  1
  Ba  Ba6  1  0.998401  0.668284  0.337115  1
  Ba  Ba7  1  0.493829  0.330208  0.662888  1
  Ba  Ba8  1  0.501475  0.999992  0.000140  1
  Ca  Ca9  1  0.997291  0.000683  0.000264  1
  Ca  Ca10  1  0.353806  0.960534  0.480259  1
  Ca  Ca11  1  0.856185  0.479759  0.520942  1
  Sm  Sm12  1  0.346511  0.521173  0.479123  1
  Sm  Sm13  1  0.346983  0.521628  0.043020  1
  Sm  Sm14  1  0.846997  0.043322  0.521477  1
  Sm  Sm15  1  0.847212  0.478372  0.955923  1
  Fe  Fe16  1  0.535271  0.669134  0.334727  1
  Fe  Fe17  1  0.037395  0.334695  0.665326  1
  Fe  Fe18  1  0.169980  0.353956  0.176308  1
  Fe  Fe19  1  0.166386  0.822659  0.178817  1
  Fe  Fe20  1  0.169893  0.823397  0.643774  1
  Fe  Fe21  1  0.671831  0.646206  0.822253  1
  Fe  Fe22  1  0.675191  0.176432  0.825101  1
  Fe  Fe23  1  0.674849  0.178553  0.353729  1
  O  O24  1  0.353710  0.495001  0.243997  1
  O  O25  1  0.351075  0.746797  0.243482  1
  O  O26  1  0.350836  0.749164  0.500614  1
  O  O27  1  0.847848  0.501305  0.754476  1
  O  O28  1  0.849768  0.251622  0.754606  1
  O  O29  1  0.847396  0.250050  0.500961  1
  O  O30  1  0.538146  0.606698  0.940085  1
  O  O31  1  0.543635  0.061570  0.669101  1
  O  O32  1  0.520974  0.325501  0.385935  1
  O  O33  1  0.537600  0.332927  0.940877  1
  O  O34  1  0.521769  0.613059  0.674531  1
  O  O35  1  0.544137  0.061378  0.392909  1
  O  O36  1  0.036987  0.400422  0.063626  1
  O  O37  1  0.022336  0.933491  0.330444  1
  O  O38  1  0.042441  0.665007  0.599040  1
  O  O39  1  0.035762  0.663655  0.063921  1
  O  O40  1  0.043228  0.401861  0.335187  1
  O  O41  1  0.022159  0.934382  0.603694  1
  O  O42  1  0.790141  0.811918  0.905489  1
  O  O43  1  0.790403  0.094697  0.909952  1
  O  O44  1  0.791530  0.096387  0.187267  1
  O  O45  1  0.234189  0.176676  0.086379  1
  O  O46  1  0.237808  0.909841  0.090002  1
  O  O47  1  0.236610  0.912345  0.821023  1
  O  O48  1  0.684719  0.833195  0.415932  1
  O  O49  1  0.672649  0.581098  0.417630  1
  O  O50  1  0.679058  0.581192  0.162478  1
  O  O51  1  0.171586  0.163471  0.582472  1
  O  O52  1  0.185479  0.417610  0.583771  1
  O  O53  1  0.178139  0.419026  0.838269  1
