# generated using pymatgen
data_Tm6Al24Cu3Ru5
_symmetry_space_group_name_H-M   'P 1'
_cell_length_a   8.77937642
_cell_length_b   8.81033101
_cell_length_c   9.47443700
_cell_angle_alpha   89.90232115
_cell_angle_beta   90.06366289
_cell_angle_gamma   119.34885401
_symmetry_Int_Tables_number   1
_chemical_formula_structural   Tm6Al24Cu3Ru5
_chemical_formula_sum   'Tm6 Al24 Cu3 Ru5'
_cell_volume   638.78046346
_cell_formula_units_Z   1
loop_
 _symmetry_equiv_pos_site_id
 _symmetry_equiv_pos_as_xyz
  1  'x, y, z'
loop_
 _atom_site_type_symbol
 _atom_site_label
 _atom_site_symmetry_multiplicity
 _atom_site_fract_x
 _atom_site_fract_y
 _atom_site_fract_z
 _atom_site_occupancy
  Tm  Tm0  1  0.192645  0.385953  0.248150  1
  Tm  Tm1  1  0.807355  0.614047  0.751850  1
  Tm  Tm2  1  0.611955  0.808740  0.252831  1
  Tm  Tm3  1  0.388045  0.191260  0.747169  1
  Tm  Tm4  1  0.197329  0.806764  0.248762  1
  Tm  Tm5  1  0.802671  0.193236  0.751238  1
  Al  Al6  1  0.335397  0.669635  0.025356  1
  Al  Al7  1  0.664603  0.330365  0.974644  1
  Al  Al8  1  0.669077  0.332501  0.524608  1
  Al  Al9  1  0.330923  0.667499  0.475392  1
  Al  Al10  1  0.156673  0.323486  0.577315  1
  Al  Al11  1  0.843327  0.676514  0.422685  1
  Al  Al12  1  0.675621  0.841872  0.578157  1
  Al  Al13  1  0.838503  0.678174  0.081862  1
  Al  Al14  1  0.324379  0.158128  0.421843  1
  Al  Al15  1  0.161497  0.321826  0.918138  1
  Al  Al16  1  0.163170  0.834914  0.577758  1
  Al  Al17  1  0.324480  0.157692  0.078616  1
  Al  Al18  1  0.836830  0.165086  0.422242  1
  Al  Al19  1  0.675520  0.842308  0.921384  1
  Al  Al20  1  0.832327  0.157858  0.081959  1
  Al  Al21  1  0.167673  0.842142  0.918041  1
  Al  Al22  1  0.561849  0.122709  0.249805  1
  Al  Al23  1  0.438151  0.877291  0.750195  1
  Al  Al24  1  0.876836  0.438742  0.251330  1
  Al  Al25  1  0.123164  0.561258  0.748670  1
  Al  Al26  1  0.561530  0.440538  0.250326  1
  Al  Al27  1  0.438470  0.559462  0.749674  1
  Al  Al28  1  0.999605  0.002720  0.250475  1
  Al  Al29  1  0.000395  0.997280  0.749525  1
  Cu  Cu30  1  0.000000  0.500000  0.000000  1
  Cu  Cu31  1  0.500000  0.500000  0.000000  1
  Cu  Cu32  1  0.500000  0.500000  0.500000  1
  Ru  Ru33  1  0.500000  0.000000  0.000000  1
  Ru  Ru34  1  0.500000  0.000000  0.500000  1
  Ru  Ru35  1  0.000000  0.500000  0.500000  1
  Ru  Ru36  1  0.000000  0.000000  0.000000  1
  Ru  Ru37  1  0.000000  0.000000  0.500000  1
