# generated using pymatgen
data_Sc3Si2AsRu3
_symmetry_space_group_name_H-M   'P 1'
_cell_length_a   6.82932600
_cell_length_b   6.82932703
_cell_length_c   3.54532600
_cell_angle_alpha   90.00000000
_cell_angle_beta   90.00000000
_cell_angle_gamma   119.99999499
_symmetry_Int_Tables_number   1
_chemical_formula_structural   Sc3Si2AsRu3
_chemical_formula_sum   'Sc3 Si2 As1 Ru3'
_cell_volume   143.19985682
_cell_formula_units_Z   1
loop_
 _symmetry_equiv_pos_site_id
 _symmetry_equiv_pos_as_xyz
  1  'x, y, z'
loop_
 _atom_site_type_symbol
 _atom_site_label
 _atom_site_symmetry_multiplicity
 _atom_site_fract_x
 _atom_site_fract_y
 _atom_site_fract_z
 _atom_site_occupancy
  Sc  Sc0  1  0.403665  0.405331  0.500000  1
  Sc  Sc1  1  0.594669  0.998334  0.500000  1
  Sc  Sc2  1  0.001666  0.596335  0.500000  1
  Si  Si3  1  0.333333  0.666667  0.000000  1
  Si  Si4  1  0.000000  0.000000  0.500000  1
  As  As5  1  0.666667  0.333333  0.000000  1
  Ru  Ru6  1  0.751653  0.756179  0.000000  1
  Ru  Ru7  1  0.243821  0.995474  0.000000  1
  Ru  Ru8  1  0.004526  0.248347  0.000000  1
