# generated using pymatgen
data_Na4Si2SnSe6
_symmetry_space_group_name_H-M   'P 1'
_cell_length_a   7.10389041
_cell_length_b   7.10389111
_cell_length_c   8.01695260
_cell_angle_alpha   81.44979769
_cell_angle_beta   81.44979720
_cell_angle_gamma   119.90507442
_symmetry_Int_Tables_number   1
_chemical_formula_structural   Na4Si2SnSe6
_chemical_formula_sum   'Na4 Si2 Sn1 Se6'
_cell_volume   334.89236440
_cell_formula_units_Z   1
loop_
 _symmetry_equiv_pos_site_id
 _symmetry_equiv_pos_as_xyz
  1  'x, y, z'
loop_
 _atom_site_type_symbol
 _atom_site_label
 _atom_site_symmetry_multiplicity
 _atom_site_fract_x
 _atom_site_fract_y
 _atom_site_fract_z
 _atom_site_occupancy
  Na  Na0  1  0.499099  0.500901  0.000000  1
  Na  Na1  1  0.826556  0.173444  0.000000  1
  Na  Na2  1  0.174583  0.825417  0.000000  1
  Na  Na3  1  0.665519  0.334481  0.500000  1
  Si  Si4  1  0.049887  0.049793  0.346965  1
  Si  Si5  1  0.950207  0.950113  0.653035  1
  Sn  Sn6  1  0.335257  0.664743  0.500000  1
  Se  Se7  1  0.771128  0.773951  0.255747  1
  Se  Se8  1  0.226049  0.228872  0.744253  1
  Se  Se9  1  0.082881  0.391009  0.256432  1
  Se  Se10  1  0.388530  0.078687  0.254423  1
  Se  Se11  1  0.921313  0.611470  0.745577  1
  Se  Se12  1  0.608991  0.917119  0.743568  1
