# generated using pymatgen
data_CaVTeO6
_symmetry_space_group_name_H-M   'P 1'
_cell_length_a   5.19759926
_cell_length_b   5.20488112
_cell_length_c   5.09217820
_cell_angle_alpha   90.10655457
_cell_angle_beta   89.94665250
_cell_angle_gamma   120.04636073
_symmetry_Int_Tables_number   1
_chemical_formula_structural   CaVTeO6
_chemical_formula_sum   'Ca1 V1 Te1 O6'
_cell_volume   119.24605101
_cell_formula_units_Z   1
loop_
 _symmetry_equiv_pos_site_id
 _symmetry_equiv_pos_as_xyz
  1  'x, y, z'
loop_
 _atom_site_type_symbol
 _atom_site_label
 _atom_site_symmetry_multiplicity
 _atom_site_fract_x
 _atom_site_fract_y
 _atom_site_fract_z
 _atom_site_occupancy
  Ca  Ca0  1  0.999990  0.999995  0.000000  1
  V  V1  1  0.665440  0.332720  0.500000  1
  Te  Te2  1  0.333494  0.666748  0.500000  1
  O  O3  1  0.374766  0.998268  0.287442  1
  O  O4  1  0.002192  0.376595  0.287430  1
  O  O5  1  0.623578  0.625609  0.286987  1
  O  O6  1  0.623578  0.997970  0.713013  1
  O  O7  1  0.374765  0.376498  0.712558  1
  O  O8  1  0.002193  0.625597  0.712570  1
