# generated using pymatgen
data_Zr3CoAsPOs3
_symmetry_space_group_name_H-M   'P 1'
_cell_length_a   6.54938200
_cell_length_b   6.54938233
_cell_length_c   3.91366200
_cell_angle_alpha   90.00000000
_cell_angle_beta   90.00000000
_cell_angle_gamma   120.00000841
_symmetry_Int_Tables_number   1
_chemical_formula_structural   Zr3CoAsPOs3
_chemical_formula_sum   'Zr3 Co1 As1 P1 Os3'
_cell_volume   145.38331800
_cell_formula_units_Z   1
loop_
 _symmetry_equiv_pos_site_id
 _symmetry_equiv_pos_as_xyz
  1  'x, y, z'
loop_
 _atom_site_type_symbol
 _atom_site_label
 _atom_site_symmetry_multiplicity
 _atom_site_fract_x
 _atom_site_fract_y
 _atom_site_fract_z
 _atom_site_occupancy
  Zr  Zr0  1  0.391208  0.400149  0.500000  1
  Zr  Zr1  1  0.599851  0.991059  0.500000  1
  Zr  Zr2  1  0.008941  0.608792  0.500000  1
  Co  Co3  1  0.000000  0.000000  0.500000  1
  As  As4  1  0.666667  0.333333  0.000000  1
  P  P5  1  0.333333  0.666667  0.000000  1
  Os  Os6  1  0.758437  0.766882  0.000000  1
  Os  Os7  1  0.233118  0.991555  0.000000  1
  Os  Os8  1  0.008445  0.241563  0.000000  1
