# generated using pymatgen
data_HoTm3Ga16FeCo2
_symmetry_space_group_name_H-M   'P 1'
_cell_length_a   6.01836800
_cell_length_b   6.02832200
_cell_length_c   11.09967500
_cell_angle_alpha   90.00000000
_cell_angle_beta   90.00000000
_cell_angle_gamma   90.00000000
_symmetry_Int_Tables_number   1
_chemical_formula_structural   HoTm3Ga16FeCo2
_chemical_formula_sum   'Ho1 Tm3 Ga16 Fe1 Co2'
_cell_volume   402.70353721
_cell_formula_units_Z   1
loop_
 _symmetry_equiv_pos_site_id
 _symmetry_equiv_pos_as_xyz
  1  'x, y, z'
loop_
 _atom_site_type_symbol
 _atom_site_label
 _atom_site_symmetry_multiplicity
 _atom_site_fract_x
 _atom_site_fract_y
 _atom_site_fract_z
 _atom_site_occupancy
  Ho  Ho0  1  0.500000  0.000000  0.194254  1
  Tm  Tm1  1  0.000000  0.500000  0.194574  1
  Tm  Tm2  1  0.000000  0.500000  0.805218  1
  Tm  Tm3  1  0.500000  0.000000  0.805359  1
  Ga  Ga4  1  0.000000  0.000000  0.217721  1
  Ga  Ga5  1  0.000000  0.000000  0.782480  1
  Ga  Ga6  1  0.500000  0.500000  0.195870  1
  Ga  Ga7  1  0.500000  0.500000  0.804129  1
  Ga  Ga8  1  0.279872  0.281120  0.999479  1
  Ga  Ga9  1  0.720128  0.718880  0.999479  1
  Ga  Ga10  1  0.279872  0.718880  0.999479  1
  Ga  Ga11  1  0.720128  0.281120  0.999479  1
  Ga  Ga12  1  0.248466  0.249453  0.384441  1
  Ga  Ga13  1  0.751534  0.750547  0.384441  1
  Ga  Ga14  1  0.248893  0.751038  0.616082  1
  Ga  Ga15  1  0.751107  0.248962  0.616082  1
  Ga  Ga16  1  0.751107  0.751038  0.616082  1
  Ga  Ga17  1  0.248893  0.248962  0.616082  1
  Ga  Ga18  1  0.248466  0.750547  0.384441  1
  Ga  Ga19  1  0.751534  0.249453  0.384441  1
  Fe  Fe20  1  0.000000  0.000000  0.999997  1
  Co  Co21  1  0.000000  0.500000  0.500137  1
  Co  Co22  1  0.500000  0.000000  0.500257  1
