# generated using pymatgen
data_Er16Cd3HgIr4
_symmetry_space_group_name_H-M   'P 1'
_cell_length_a   9.53610303
_cell_length_b   9.53420797
_cell_length_c   9.53496828
_cell_angle_alpha   60.01630317
_cell_angle_beta   60.02913498
_cell_angle_gamma   60.02182355
_symmetry_Int_Tables_number   1
_chemical_formula_structural   Er16Cd3HgIr4
_chemical_formula_sum   'Er16 Cd3 Hg1 Ir4'
_cell_volume   613.31060840
_cell_formula_units_Z   1
loop_
 _symmetry_equiv_pos_site_id
 _symmetry_equiv_pos_as_xyz
  1  'x, y, z'
loop_
 _atom_site_type_symbol
 _atom_site_label
 _atom_site_symmetry_multiplicity
 _atom_site_fract_x
 _atom_site_fract_y
 _atom_site_fract_z
 _atom_site_occupancy
  Er  Er0  1  0.599695  0.599622  0.599637  1
  Er  Er1  1  0.599897  0.599902  0.200563  1
  Er  Er2  1  0.599888  0.200554  0.599919  1
  Er  Er3  1  0.200457  0.599907  0.599923  1
  Er  Er4  1  0.060535  0.439478  0.439478  1
  Er  Er5  1  0.439744  0.060338  0.060300  1
  Er  Er6  1  0.439584  0.060483  0.439386  1
  Er  Er7  1  0.060345  0.439670  0.060272  1
  Er  Er8  1  0.439554  0.439406  0.060489  1
  Er  Er9  1  0.060331  0.060281  0.439654  1
  Er  Er10  1  0.186905  0.812457  0.812450  1
  Er  Er11  1  0.812443  0.187512  0.187523  1
  Er  Er12  1  0.812366  0.186953  0.812484  1
  Er  Er13  1  0.187495  0.812490  0.187563  1
  Er  Er14  1  0.812366  0.812499  0.186952  1
  Er  Er15  1  0.187499  0.187566  0.812500  1
  Cd  Cd16  1  0.831235  0.831204  0.505994  1
  Cd  Cd17  1  0.831252  0.505995  0.831190  1
  Cd  Cd18  1  0.505980  0.831219  0.831208  1
  Hg  Hg19  1  0.832480  0.832445  0.832437  1
  Ir  Ir20  1  0.392003  0.392038  0.392053  1
  Ir  Ir21  1  0.392049  0.392035  0.823886  1
  Ir  Ir22  1  0.392040  0.823888  0.392056  1
  Ir  Ir23  1  0.823856  0.392054  0.392081  1
