# generated using pymatgen
data_Pr4Co3Pd3O19
_symmetry_space_group_name_H-M   'P 1'
_cell_length_a   7.71449462
_cell_length_b   7.69717838
_cell_length_c   7.71449400
_cell_angle_alpha   109.28663813
_cell_angle_beta   109.04083696
_cell_angle_gamma   110.18053567
_symmetry_Int_Tables_number   1
_chemical_formula_structural   Pr4Co3Pd3O19
_chemical_formula_sum   'Pr4 Co3 Pd3 O19'
_cell_volume   352.19412112
_cell_formula_units_Z   1
loop_
 _symmetry_equiv_pos_site_id
 _symmetry_equiv_pos_as_xyz
  1  'x, y, z'
loop_
 _atom_site_type_symbol
 _atom_site_label
 _atom_site_symmetry_multiplicity
 _atom_site_fract_x
 _atom_site_fract_y
 _atom_site_fract_z
 _atom_site_occupancy
  Pr  Pr0  1  0.673370  0.671137  0.670804  1
  Pr  Pr1  1  0.332651  0.008866  0.006473  1
  Pr  Pr2  1  0.999668  0.328863  0.002233  1
  Pr  Pr3  1  0.997606  0.991134  0.323785  1
  Co  Co4  1  0.342375  0.841991  0.500292  1
  Co  Co5  1  0.658300  0.158009  0.500384  1
  Co  Co6  1  0.843900  0.500000  0.343900  1
  Pd  Pd7  1  0.154433  0.500000  0.654433  1
  Pd  Pd8  1  0.501284  0.337476  0.838049  1
  Pd  Pd9  1  0.500573  0.662524  0.163807  1
  O  O10  1  0.660033  0.662371  0.998102  1
  O  O11  1  0.335731  0.337629  0.997662  1
  O  O12  1  0.637696  0.000000  0.637696  1
  O  O13  1  0.359860  0.000000  0.359860  1
  O  O14  1  0.992666  0.652829  0.641338  1
  O  O15  1  0.988508  0.347171  0.339837  1
  O  O16  1  0.001279  0.000000  0.001279  1
  O  O17  1  0.358429  0.615900  0.332860  1
  O  O18  1  0.643167  0.973794  0.260380  1
  O  O19  1  0.716961  0.384100  0.742530  1
  O  O20  1  0.622576  0.321714  0.367468  1
  O  O21  1  0.286585  0.026206  0.669371  1
  O  O22  1  0.947679  0.238993  0.632540  1
  O  O23  1  0.393547  0.761006  0.708688  1
  O  O24  1  0.045753  0.678286  0.300861  1
  O  O25  1  0.322288  0.357791  0.599886  1
  O  O26  1  0.756873  0.704937  0.389047  1
  O  O27  1  0.684111  0.295063  0.051938  1
  O  O28  1  0.242094  0.642209  0.964497  1
