# generated using pymatgen
data_Ho3ErAl18(Os2Pd)2
_symmetry_space_group_name_H-M   'P 1'
_cell_length_a   7.58555875
_cell_length_b   7.58512358
_cell_length_c   9.52535800
_cell_angle_alpha   90.00000000
_cell_angle_beta   90.00000000
_cell_angle_gamma   119.54836085
_symmetry_Int_Tables_number   1
_chemical_formula_structural   Ho3ErAl18(Os2Pd)2
_chemical_formula_sum   'Ho3 Er1 Al18 Os4 Pd2'
_cell_volume   476.78295487
_cell_formula_units_Z   1
loop_
 _symmetry_equiv_pos_site_id
 _symmetry_equiv_pos_as_xyz
  1  'x, y, z'
loop_
 _atom_site_type_symbol
 _atom_site_label
 _atom_site_symmetry_multiplicity
 _atom_site_fract_x
 _atom_site_fract_y
 _atom_site_fract_z
 _atom_site_occupancy
  Ho  Ho0  1  0.001948  0.329595  0.750000  1
  Ho  Ho1  1  0.670261  0.997996  0.250000  1
  Ho  Ho2  1  0.329279  0.002115  0.750000  1
  Er  Er3  1  0.997867  0.670029  0.250000  1
  Al  Al4  1  0.131902  0.131816  0.250000  1
  Al  Al5  1  0.867284  0.867394  0.750000  1
  Al  Al6  1  0.002610  0.340377  0.073374  1
  Al  Al7  1  0.997652  0.659700  0.926946  1
  Al  Al8  1  0.997652  0.659700  0.573054  1
  Al  Al9  1  0.340132  0.002476  0.426517  1
  Al  Al10  1  0.002610  0.340377  0.426626  1
  Al  Al11  1  0.659658  0.997588  0.573231  1
  Al  Al12  1  0.659658  0.997588  0.926769  1
  Al  Al13  1  0.340132  0.002476  0.073483  1
  Al  Al14  1  0.338955  0.338963  0.548716  1
  Al  Al15  1  0.661261  0.661226  0.451121  1
  Al  Al16  1  0.661261  0.661226  0.048879  1
  Al  Al17  1  0.338955  0.338963  0.951284  1
  Al  Al18  1  0.337319  0.550389  0.250000  1
  Al  Al19  1  0.662772  0.449870  0.750000  1
  Al  Al20  1  0.550369  0.337516  0.250000  1
  Al  Al21  1  0.449583  0.662498  0.750000  1
  Os  Os22  1  0.672983  0.327412  0.000170  1
  Os  Os23  1  0.327320  0.672867  0.000218  1
  Os  Os24  1  0.327320  0.672867  0.499782  1
  Os  Os25  1  0.672983  0.327412  0.499830  1
  Pd  Pd26  1  0.000138  0.999786  0.999840  1
  Pd  Pd27  1  0.000138  0.999786  0.500160  1
