# generated using pymatgen
data_Ce2NdDy2(In2Pd)2
_symmetry_space_group_name_H-M   'P 1'
_cell_length_a   3.70915400
_cell_length_b   8.24206700
_cell_length_c   18.39558200
_cell_angle_alpha   90.00000000
_cell_angle_beta   90.00000000
_cell_angle_gamma   90.00000000
_symmetry_Int_Tables_number   1
_chemical_formula_structural   Ce2NdDy2(In2Pd)2
_chemical_formula_sum   'Ce4 Nd2 Dy4 In8 Pd4'
_cell_volume   562.37309928
_cell_formula_units_Z   2
loop_
 _symmetry_equiv_pos_site_id
 _symmetry_equiv_pos_as_xyz
  1  'x, y, z'
loop_
 _atom_site_type_symbol
 _atom_site_label
 _atom_site_symmetry_multiplicity
 _atom_site_fract_x
 _atom_site_fract_y
 _atom_site_fract_z
 _atom_site_occupancy
  Ce  Ce0  1  0.000000  0.734362  0.285114  1
  Ce  Ce1  1  0.000000  0.265638  0.714886  1
  Ce  Ce2  1  0.000000  0.765638  0.785114  1
  Ce  Ce3  1  0.000000  0.234362  0.214886  1
  Nd  Nd4  1  0.000000  0.500000  0.500000  1
  Nd  Nd5  1  0.000000  0.000000  0.000000  1
  Dy  Dy6  1  0.000000  0.618640  0.083657  1
  Dy  Dy7  1  0.000000  0.381360  0.916343  1
  Dy  Dy8  1  0.000000  0.881360  0.583657  1
  Dy  Dy9  1  0.000000  0.118640  0.416343  1
  In  In10  1  0.500000  0.698209  0.936157  1
  In  In11  1  0.500000  0.301791  0.063843  1
  In  In12  1  0.500000  0.801791  0.436157  1
  In  In13  1  0.500000  0.198209  0.563843  1
  In  In14  1  0.500000  0.589513  0.651920  1
  In  In15  1  0.500000  0.410487  0.348080  1
  In  In16  1  0.500000  0.910487  0.151920  1
  In  In17  1  0.500000  0.089513  0.848080  1
  Pd  Pd18  1  0.500000  0.524395  0.196239  1
  Pd  Pd19  1  0.500000  0.475605  0.803761  1
  Pd  Pd20  1  0.500000  0.975605  0.696239  1
  Pd  Pd21  1  0.500000  0.024395  0.303761  1
