# generated using pymatgen
data_Pr2NdIn3Ag2Pt
_symmetry_space_group_name_H-M   'P 1'
_cell_length_a   7.91295611
_cell_length_b   7.91145031
_cell_length_c   4.13372600
_cell_angle_alpha   90.00000000
_cell_angle_beta   90.00000000
_cell_angle_gamma   119.98690711
_symmetry_Int_Tables_number   1
_chemical_formula_structural   Pr2NdIn3Ag2Pt
_chemical_formula_sum   'Pr2 Nd1 In3 Ag2 Pt1'
_cell_volume   224.14262936
_cell_formula_units_Z   1
loop_
 _symmetry_equiv_pos_site_id
 _symmetry_equiv_pos_as_xyz
  1  'x, y, z'
loop_
 _atom_site_type_symbol
 _atom_site_label
 _atom_site_symmetry_multiplicity
 _atom_site_fract_x
 _atom_site_fract_y
 _atom_site_fract_z
 _atom_site_occupancy
  Pr  Pr0  1  0.015975  0.593394  0.500000  1
  Pr  Pr1  1  0.577470  0.983924  0.500000  1
  Nd  Nd2  1  0.406378  0.422697  0.500000  1
  In  In3  1  0.997666  0.253144  0.000000  1
  In  In4  1  0.255747  0.002966  0.000000  1
  In  In5  1  0.746641  0.744011  0.000000  1
  Ag  Ag6  1  0.000252  0.000257  0.500000  1
  Ag  Ag7  1  0.666348  0.333471  0.000000  1
  Pt  Pt8  1  0.333524  0.666135  0.000000  1
