# generated using pymatgen
data_Pr3Al9Re2MoOs4
_symmetry_space_group_name_H-M   'P 1'
_cell_length_a   8.97189600
_cell_length_b   8.94429625
_cell_length_c   9.74251600
_cell_angle_alpha   90.00000000
_cell_angle_beta   90.00000000
_cell_angle_gamma   120.10212799
_symmetry_Int_Tables_number   1
_chemical_formula_structural   Pr3Al9Re2MoOs4
_chemical_formula_sum   'Pr6 Al18 Re4 Mo2 Os8'
_cell_volume   676.36995611
_cell_formula_units_Z   2
loop_
 _symmetry_equiv_pos_site_id
 _symmetry_equiv_pos_as_xyz
  1  'x, y, z'
loop_
 _atom_site_type_symbol
 _atom_site_label
 _atom_site_symmetry_multiplicity
 _atom_site_fract_x
 _atom_site_fract_y
 _atom_site_fract_z
 _atom_site_occupancy
  Pr  Pr0  1  0.194285  0.388569  0.250000  1
  Pr  Pr1  1  0.805715  0.611431  0.750000  1
  Pr  Pr2  1  0.611550  0.804275  0.250000  1
  Pr  Pr3  1  0.388450  0.195725  0.750000  1
  Pr  Pr4  1  0.192725  0.804275  0.250000  1
  Pr  Pr5  1  0.807275  0.195725  0.750000  1
  Al  Al6  1  0.333398  0.666797  0.004926  1
  Al  Al7  1  0.666602  0.333203  0.995074  1
  Al  Al8  1  0.666602  0.333203  0.504926  1
  Al  Al9  1  0.333398  0.666797  0.495074  1
  Al  Al10  1  0.165990  0.331979  0.573093  1
  Al  Al11  1  0.834010  0.668021  0.426907  1
  Al  Al12  1  0.669694  0.833736  0.575618  1
  Al  Al13  1  0.834010  0.668021  0.073093  1
  Al  Al14  1  0.330306  0.166264  0.424382  1
  Al  Al15  1  0.165990  0.331979  0.926907  1
  Al  Al16  1  0.164044  0.833736  0.575618  1
  Al  Al17  1  0.330306  0.166264  0.075618  1
  Al  Al18  1  0.835956  0.166264  0.424382  1
  Al  Al19  1  0.669694  0.833736  0.924382  1
  Al  Al20  1  0.835956  0.166264  0.075618  1
  Al  Al21  1  0.164044  0.833736  0.924382  1
  Al  Al22  1  0.000110  0.000221  0.250000  1
  Al  Al23  1  0.999890  0.999779  0.750000  1
  Re  Re24  1  0.854477  0.430518  0.250000  1
  Re  Re25  1  0.145523  0.569482  0.750000  1
  Re  Re26  1  0.576041  0.430518  0.250000  1
  Re  Re27  1  0.423959  0.569482  0.750000  1
  Mo  Mo28  1  0.570674  0.141349  0.250000  1
  Mo  Mo29  1  0.429326  0.858651  0.750000  1
  Os  Os30  1  0.500000  0.000000  0.000000  1
  Os  Os31  1  0.000000  0.500000  0.000000  1
  Os  Os32  1  0.500000  0.000000  0.500000  1
  Os  Os33  1  0.500000  0.500000  0.000000  1
  Os  Os34  1  0.000000  0.500000  0.500000  1
  Os  Os35  1  0.500000  0.500000  0.500000  1
  Os  Os36  1  0.000000  0.000000  0.000000  1
  Os  Os37  1  0.000000  0.000000  0.500000  1
