# generated using pymatgen
data_Dy2Ta2Co10P7
_symmetry_space_group_name_H-M   'P 1'
_cell_length_a   9.17136135
_cell_length_b   9.12972079
_cell_length_c   3.66775200
_cell_angle_alpha   90.00000000
_cell_angle_beta   90.00000000
_cell_angle_gamma   119.94342528
_symmetry_Int_Tables_number   1
_chemical_formula_structural   Dy2Ta2Co10P7
_chemical_formula_sum   'Dy2 Ta2 Co10 P7'
_cell_volume   266.11490329
_cell_formula_units_Z   1
loop_
 _symmetry_equiv_pos_site_id
 _symmetry_equiv_pos_as_xyz
  1  'x, y, z'
loop_
 _atom_site_type_symbol
 _atom_site_label
 _atom_site_symmetry_multiplicity
 _atom_site_fract_x
 _atom_site_fract_y
 _atom_site_fract_z
 _atom_site_occupancy
  Dy  Dy0  1  0.661634  0.327519  0.000000  1
  Dy  Dy1  1  0.331699  0.667976  0.500000  1
  Ta  Ta2  1  0.103820  0.221091  0.500000  1
  Ta  Ta3  1  0.778455  0.879852  0.500000  1
  Co  Co4  1  0.366428  0.938204  0.000000  1
  Co  Co5  1  0.062892  0.433297  0.000000  1
  Co  Co6  1  0.568447  0.630806  0.000000  1
  Co  Co7  1  0.879472  0.716649  0.000000  1
  Co  Co8  1  0.280152  0.158293  0.000000  1
  Co  Co9  1  0.838907  0.122938  0.000000  1
  Co  Co10  1  0.953766  0.566353  0.500000  1
  Co  Co11  1  0.439688  0.384716  0.500000  1
  Co  Co12  1  0.610923  0.052115  0.500000  1
  Co  Co13  1  0.128279  0.905991  0.500000  1
  P  P14  1  0.110857  0.700966  0.000000  1
  P  P15  1  0.309111  0.419093  0.000000  1
  P  P16  1  0.581281  0.890224  0.000000  1
  P  P17  1  0.711181  0.583670  0.500000  1
  P  P18  1  0.400878  0.112685  0.500000  1
  P  P19  1  0.877612  0.293989  0.500000  1
  P  P20  1  0.004515  0.993574  0.000000  1
