# generated using pymatgen
data_Ac15Lu(InRu)4
_symmetry_space_group_name_H-M   'P 1'
_cell_length_a   10.46756322
_cell_length_b   10.46756407
_cell_length_c   10.46853100
_cell_angle_alpha   59.99694740
_cell_angle_beta   59.99694472
_cell_angle_gamma   59.87709211
_symmetry_Int_Tables_number   1
_chemical_formula_structural   Ac15Lu(InRu)4
_chemical_formula_sum   'Ac15 Lu1 In4 Ru4'
_cell_volume   810.28336729
_cell_formula_units_Z   1
loop_
 _symmetry_equiv_pos_site_id
 _symmetry_equiv_pos_as_xyz
  1  'x, y, z'
loop_
 _atom_site_type_symbol
 _atom_site_label
 _atom_site_symmetry_multiplicity
 _atom_site_fract_x
 _atom_site_fract_y
 _atom_site_fract_z
 _atom_site_occupancy
  Ac  Ac0  1  0.595382  0.595382  0.597392  1
  Ac  Ac1  1  0.595382  0.595382  0.211847  1
  Ac  Ac2  1  0.596263  0.208351  0.597694  1
  Ac  Ac3  1  0.208351  0.596263  0.597694  1
  Ac  Ac4  1  0.060170  0.439265  0.445358  1
  Ac  Ac5  1  0.439265  0.060170  0.055207  1
  Ac  Ac6  1  0.439265  0.060170  0.445358  1
  Ac  Ac7  1  0.060170  0.439265  0.055207  1
  Ac  Ac8  1  0.441982  0.441982  0.058018  1
  Ac  Ac9  1  0.060393  0.060393  0.439607  1
  Ac  Ac10  1  0.187061  0.818773  0.810979  1
  Ac  Ac11  1  0.818773  0.187061  0.183187  1
  Ac  Ac12  1  0.818773  0.187061  0.810979  1
  Ac  Ac13  1  0.187061  0.818773  0.183187  1
  Ac  Ac14  1  0.809996  0.809996  0.190004  1
  Lu  Lu15  1  0.195617  0.195617  0.804383  1
  In  In16  1  0.826220  0.826220  0.830157  1
  In  In17  1  0.826220  0.826220  0.517402  1
  In  In18  1  0.835185  0.507044  0.828885  1
  In  In19  1  0.507044  0.835185  0.828885  1
  Ru  Ru20  1  0.384293  0.384293  0.392173  1
  Ru  Ru21  1  0.384293  0.384293  0.839240  1
  Ru  Ru22  1  0.385961  0.836882  0.388578  1
  Ru  Ru23  1  0.836882  0.385961  0.388578  1
