# generated using pymatgen
data_CsPr6(CBr6)2
_symmetry_space_group_name_H-M   'P 1'
_cell_length_a   9.31950953
_cell_length_b   9.29423969
_cell_length_c   9.84063714
_cell_angle_alpha   71.52047052
_cell_angle_beta   70.27472554
_cell_angle_gamma   72.15804425
_symmetry_Int_Tables_number   1
_chemical_formula_structural   CsPr6(CBr6)2
_chemical_formula_sum   'Cs1 Pr6 C2 Br12'
_cell_volume   741.76037486
_cell_formula_units_Z   1
loop_
 _symmetry_equiv_pos_site_id
 _symmetry_equiv_pos_as_xyz
  1  'x, y, z'
loop_
 _atom_site_type_symbol
 _atom_site_label
 _atom_site_symmetry_multiplicity
 _atom_site_fract_x
 _atom_site_fract_y
 _atom_site_fract_z
 _atom_site_occupancy
  Cs  Cs0  1  0.000002  0.499999  0.999998  1
  Pr  Pr1  1  0.476456  0.117146  0.181831  1
  Pr  Pr2  1  0.782852  0.032256  0.405590  1
  Pr  Pr3  1  0.595721  0.719986  0.474888  1
  Pr  Pr4  1  0.404276  0.280014  0.525114  1
  Pr  Pr5  1  0.217148  0.967746  0.594411  1
  Pr  Pr6  1  0.523544  0.882851  0.818170  1
  C  C7  1  0.494073  0.025852  0.426134  1
  C  C8  1  0.505929  0.974146  0.573867  1
  Br  Br9  1  0.798778  0.159838  0.083541  1
  Br  Br10  1  0.586773  0.785369  0.144208  1
  Br  Br11  1  0.350541  0.433492  0.224486  1
  Br  Br12  1  0.138039  0.071552  0.295298  1
  Br  Br13  1  0.925121  0.721437  0.353413  1
  Br  Br14  1  0.714334  0.365478  0.429332  1
  Br  Br15  1  0.285667  0.634523  0.570668  1
  Br  Br16  1  0.074878  0.278566  0.646585  1
  Br  Br17  1  0.861963  0.928449  0.704701  1
  Br  Br18  1  0.649461  0.566506  0.775515  1
  Br  Br19  1  0.413228  0.214629  0.855791  1
  Br  Br20  1  0.201222  0.840161  0.916459  1
