# generated using pymatgen
data_Tb5Zr3(Co4P3)4
_symmetry_space_group_name_H-M   'P 1'
_cell_length_a   12.33350200
_cell_length_b   12.33350109
_cell_length_c   3.72922200
_cell_angle_alpha   90.00000000
_cell_angle_beta   90.00000000
_cell_angle_gamma   120.00000244
_symmetry_Int_Tables_number   1
_chemical_formula_structural   Tb5Zr3(Co4P3)4
_chemical_formula_sum   'Tb5 Zr3 Co16 P12'
_cell_volume   491.27158317
_cell_formula_units_Z   1
loop_
 _symmetry_equiv_pos_site_id
 _symmetry_equiv_pos_as_xyz
  1  'x, y, z'
loop_
 _atom_site_type_symbol
 _atom_site_label
 _atom_site_symmetry_multiplicity
 _atom_site_fract_x
 _atom_site_fract_y
 _atom_site_fract_z
 _atom_site_occupancy
  Tb  Tb0  1  0.666667  0.333333  0.000000  1
  Tb  Tb1  1  0.333333  0.666667  0.000000  1
  Tb  Tb2  1  0.817763  0.817763  0.500000  1
  Tb  Tb3  1  0.182237  0.000000  0.500000  1
  Tb  Tb4  1  0.000000  0.182237  0.500000  1
  Zr  Zr5  1  0.441030  0.441030  0.000000  1
  Zr  Zr6  1  0.558970  0.000000  0.000000  1
  Zr  Zr7  1  0.000000  0.558970  0.000000  1
  Co  Co8  1  0.875587  0.355017  0.500000  1
  Co  Co9  1  0.644983  0.520569  0.500000  1
  Co  Co10  1  0.479431  0.124413  0.500000  1
  Co  Co11  1  0.355017  0.875587  0.500000  1
  Co  Co12  1  0.520569  0.644983  0.500000  1
  Co  Co13  1  0.124413  0.479431  0.500000  1
  Co  Co14  1  0.805213  0.178558  0.000000  1
  Co  Co15  1  0.821442  0.626654  0.000000  1
  Co  Co16  1  0.373346  0.194787  0.000000  1
  Co  Co17  1  0.178558  0.805213  0.000000  1
  Co  Co18  1  0.626654  0.821442  0.000000  1
  Co  Co19  1  0.194787  0.373346  0.000000  1
  Co  Co20  1  0.277593  0.277593  0.500000  1
  Co  Co21  1  0.722407  0.000000  0.500000  1
  Co  Co22  1  0.000000  0.722407  0.500000  1
  Co  Co23  1  0.000000  0.000000  0.000000  1
  P  P24  1  0.693863  0.171738  0.500000  1
  P  P25  1  0.828262  0.522126  0.500000  1
  P  P26  1  0.477874  0.306137  0.500000  1
  P  P27  1  0.171738  0.693863  0.500000  1
  P  P28  1  0.522126  0.828262  0.500000  1
  P  P29  1  0.306137  0.477874  0.500000  1
  P  P30  1  0.178717  0.178717  0.000000  1
  P  P31  1  0.821283  0.000000  0.000000  1
  P  P32  1  0.000000  0.821283  0.000000  1
  P  P33  1  0.648351  0.648351  0.000000  1
  P  P34  1  0.351649  0.000000  0.000000  1
  P  P35  1  0.000000  0.351649  0.000000  1
