# generated using pymatgen
data_TmLu9CuSiPb6
_symmetry_space_group_name_H-M   'P 1'
_cell_length_a   9.05556235
_cell_length_b   9.05330122
_cell_length_c   6.55379626
_cell_angle_alpha   89.98394089
_cell_angle_beta   90.03211020
_cell_angle_gamma   120.00826228
_symmetry_Int_Tables_number   1
_chemical_formula_structural   TmLu9CuSiPb6
_chemical_formula_sum   'Tm1 Lu9 Cu1 Si1 Pb6'
_cell_volume   465.27501466
_cell_formula_units_Z   1
loop_
 _symmetry_equiv_pos_site_id
 _symmetry_equiv_pos_as_xyz
  1  'x, y, z'
loop_
 _atom_site_type_symbol
 _atom_site_label
 _atom_site_symmetry_multiplicity
 _atom_site_fract_x
 _atom_site_fract_y
 _atom_site_fract_z
 _atom_site_occupancy
  Tm  Tm0  1  0.250797  0.000000  0.739760  1
  Lu  Lu1  1  0.748879  0.000000  0.260026  1
  Lu  Lu2  1  0.000328  0.250645  0.738447  1
  Lu  Lu3  1  0.999592  0.749516  0.260212  1
  Lu  Lu4  1  0.749682  0.749355  0.738447  1
  Lu  Lu5  1  0.250076  0.250484  0.260212  1
  Lu  Lu6  1  0.333533  0.666753  0.500616  1
  Lu  Lu7  1  0.666781  0.333247  0.500616  1
  Lu  Lu8  1  0.666756  0.333031  0.000667  1
  Lu  Lu9  1  0.333724  0.666969  0.000667  1
  Cu  Cu10  1  0.999543  0.000000  0.999542  1
  Si  Si11  1  0.999407  0.000000  0.498008  1
  Pb  Pb12  1  0.607929  0.000000  0.750586  1
  Pb  Pb13  1  0.393016  0.000000  0.249922  1
  Pb  Pb14  1  0.999799  0.606922  0.750868  1
  Pb  Pb15  1  0.000257  0.393234  0.250269  1
  Pb  Pb16  1  0.392876  0.393078  0.750868  1
  Pb  Pb17  1  0.607023  0.606766  0.250269  1
