# generated using pymatgen
data_DyYNi9P7Ir3
_symmetry_space_group_name_H-M   'P 1'
_cell_length_a   9.16116000
_cell_length_b   9.16223805
_cell_length_c   3.82167800
_cell_angle_alpha   90.00000000
_cell_angle_beta   90.00000000
_cell_angle_gamma   119.99313191
_symmetry_Int_Tables_number   1
_chemical_formula_structural   DyYNi9P7Ir3
_chemical_formula_sum   'Dy1 Y1 Ni9 P7 Ir3'
_cell_volume   277.82211667
_cell_formula_units_Z   1
loop_
 _symmetry_equiv_pos_site_id
 _symmetry_equiv_pos_as_xyz
  1  'x, y, z'
loop_
 _atom_site_type_symbol
 _atom_site_label
 _atom_site_symmetry_multiplicity
 _atom_site_fract_x
 _atom_site_fract_y
 _atom_site_fract_z
 _atom_site_occupancy
  Dy  Dy0  1  0.999967  0.999996  0.500000  1
  Y  Y1  1  0.666683  0.333361  0.000000  1
  Ni  Ni2  1  0.765959  0.729302  0.000000  1
  Ni  Ni3  1  0.270679  0.036670  0.000000  1
  Ni  Ni4  1  0.963373  0.234091  0.000000  1
  Ni  Ni5  1  0.528448  0.742024  0.500000  1
  Ni  Ni6  1  0.257974  0.786421  0.500000  1
  Ni  Ni7  1  0.213591  0.471513  0.500000  1
  Ni  Ni8  1  0.487026  0.939443  0.000000  1
  Ni  Ni9  1  0.060503  0.547493  0.000000  1
  Ni  Ni10  1  0.452444  0.512989  0.000000  1
  P  P11  1  0.439535  0.064520  0.500000  1
  P  P12  1  0.935484  0.375038  0.500000  1
  P  P13  1  0.624971  0.560458  0.500000  1
  P  P14  1  0.333356  0.666694  0.000000  1
  P  P15  1  0.744970  0.959405  0.000000  1
  P  P16  1  0.040603  0.785561  0.000000  1
  P  P17  1  0.214445  0.255016  0.000000  1
  Ir  Ir18  1  0.716487  0.094320  0.500000  1
  Ir  Ir19  1  0.905696  0.622194  0.500000  1
  Ir  Ir20  1  0.377805  0.283491  0.500000  1
