# generated using pymatgen
data_HoLu2Mg3Si2Au
_symmetry_space_group_name_H-M   'P 1'
_cell_length_a   7.16727207
_cell_length_b   7.16727324
_cell_length_c   4.27292300
_cell_angle_alpha   90.00000000
_cell_angle_beta   90.00000000
_cell_angle_gamma   120.24911661
_symmetry_Int_Tables_number   1
_chemical_formula_structural   HoLu2Mg3Si2Au
_chemical_formula_sum   'Ho1 Lu2 Mg3 Si2 Au1'
_cell_volume   189.61289707
_cell_formula_units_Z   1
loop_
 _symmetry_equiv_pos_site_id
 _symmetry_equiv_pos_as_xyz
  1  'x, y, z'
loop_
 _atom_site_type_symbol
 _atom_site_label
 _atom_site_symmetry_multiplicity
 _atom_site_fract_x
 _atom_site_fract_y
 _atom_site_fract_z
 _atom_site_occupancy
  Ho  Ho0  1  0.420470  0.420470  0.000000  1
  Lu  Lu1  1  0.581991  0.001284  0.000000  1
  Lu  Lu2  1  0.001284  0.581991  0.000000  1
  Mg  Mg3  1  0.246952  0.000369  0.500000  1
  Mg  Mg4  1  0.000369  0.246952  0.500000  1
  Mg  Mg5  1  0.752125  0.752125  0.500000  1
  Si  Si6  1  0.331932  0.669063  0.500000  1
  Si  Si7  1  0.669063  0.331932  0.500000  1
  Au  Au8  1  0.995812  0.995812  0.000000  1
