# generated using pymatgen
data_CeHo(Al3Ir)3
_symmetry_space_group_name_H-M   'P 1'
_cell_length_a   7.58229313
_cell_length_b   7.59083245
_cell_length_c   9.46318600
_cell_angle_alpha   90.00000000
_cell_angle_beta   90.00000000
_cell_angle_gamma   119.58631941
_symmetry_Int_Tables_number   1
_chemical_formula_structural   CeHo(Al3Ir)3
_chemical_formula_sum   'Ce2 Ho2 Al18 Ir6'
_cell_volume   473.64537120
_cell_formula_units_Z   2
loop_
 _symmetry_equiv_pos_site_id
 _symmetry_equiv_pos_as_xyz
  1  'x, y, z'
loop_
 _atom_site_type_symbol
 _atom_site_label
 _atom_site_symmetry_multiplicity
 _atom_site_fract_x
 _atom_site_fract_y
 _atom_site_fract_z
 _atom_site_occupancy
  Ce  Ce0  1  0.997847  0.671268  0.750000  1
  Ce  Ce1  1  0.002153  0.328732  0.250000  1
  Ho  Ho2  1  0.670594  0.995182  0.750000  1
  Ho  Ho3  1  0.329406  0.004818  0.250000  1
  Al  Al4  1  0.128941  0.128097  0.750000  1
  Al  Al5  1  0.871059  0.871903  0.250000  1
  Al  Al6  1  0.001123  0.333360  0.576630  1
  Al  Al7  1  0.998877  0.666640  0.423370  1
  Al  Al8  1  0.998877  0.666640  0.076630  1
  Al  Al9  1  0.337046  0.002827  0.926397  1
  Al  Al10  1  0.001123  0.333360  0.923370  1
  Al  Al11  1  0.662954  0.997173  0.073603  1
  Al  Al12  1  0.662954  0.997173  0.426397  1
  Al  Al13  1  0.337046  0.002827  0.573603  1
  Al  Al14  1  0.334270  0.333599  0.052646  1
  Al  Al15  1  0.665730  0.666401  0.947354  1
  Al  Al16  1  0.665730  0.666401  0.552646  1
  Al  Al17  1  0.334270  0.333599  0.447354  1
  Al  Al18  1  0.342926  0.547927  0.750000  1
  Al  Al19  1  0.657074  0.452073  0.250000  1
  Al  Al20  1  0.548239  0.337814  0.750000  1
  Al  Al21  1  0.451761  0.662186  0.250000  1
  Ir  Ir22  1  0.672233  0.328202  0.499396  1
  Ir  Ir23  1  0.327767  0.671798  0.500604  1
  Ir  Ir24  1  0.327767  0.671798  0.999396  1
  Ir  Ir25  1  0.672233  0.328202  0.000604  1
  Ir  Ir26  1  0.000000  0.000000  0.500000  1
  Ir  Ir27  1  0.000000  0.000000  0.000000  1
