# generated using pymatgen
data_Lu4Si2AgB8
_symmetry_space_group_name_H-M   'P 1'
_cell_length_a   7.08697500
_cell_length_b   7.08697500
_cell_length_c   7.52347800
_cell_angle_alpha   90.00000000
_cell_angle_beta   90.00000000
_cell_angle_gamma   90.00000000
_symmetry_Int_Tables_number   1
_chemical_formula_structural   Lu4Si2AgB8
_chemical_formula_sum   'Lu8 Si4 Ag2 B16'
_cell_volume   377.86829747
_cell_formula_units_Z   2
loop_
 _symmetry_equiv_pos_site_id
 _symmetry_equiv_pos_as_xyz
  1  'x, y, z'
loop_
 _atom_site_type_symbol
 _atom_site_label
 _atom_site_symmetry_multiplicity
 _atom_site_fract_x
 _atom_site_fract_y
 _atom_site_fract_z
 _atom_site_occupancy
  Lu  Lu0  1  0.681920  0.181920  0.233875  1
  Lu  Lu1  1  0.318080  0.818080  0.766125  1
  Lu  Lu2  1  0.318080  0.818080  0.233875  1
  Lu  Lu3  1  0.818080  0.681920  0.233875  1
  Lu  Lu4  1  0.818080  0.681920  0.766125  1
  Lu  Lu5  1  0.681920  0.181920  0.766125  1
  Lu  Lu6  1  0.181920  0.318080  0.766125  1
  Lu  Lu7  1  0.181920  0.318080  0.233875  1
  Si  Si8  1  0.114971  0.614971  0.500000  1
  Si  Si9  1  0.885029  0.385029  0.500000  1
  Si  Si10  1  0.385029  0.114971  0.500000  1
  Si  Si11  1  0.614971  0.885029  0.500000  1
  Ag  Ag12  1  0.000000  0.000000  0.500000  1
  Ag  Ag13  1  0.500000  0.500000  0.500000  1
  B  B14  1  0.174180  0.040237  0.000000  1
  B  B15  1  0.825820  0.959763  0.000000  1
  B  B16  1  0.959763  0.174180  0.000000  1
  B  B17  1  0.325820  0.540237  0.000000  1
  B  B18  1  0.040237  0.825820  0.000000  1
  B  B19  1  0.674180  0.459763  0.000000  1
  B  B20  1  0.540237  0.674180  0.000000  1
  B  B21  1  0.459763  0.325820  0.000000  1
  B  B22  1  0.088661  0.588661  0.000000  1
  B  B23  1  0.911339  0.411339  0.000000  1
  B  B24  1  0.411339  0.088661  0.000000  1
  B  B25  1  0.588661  0.911339  0.000000  1
  B  B26  1  0.000000  0.000000  0.169381  1
  B  B27  1  0.000000  0.000000  0.830619  1
  B  B28  1  0.500000  0.500000  0.830619  1
  B  B29  1  0.500000  0.500000  0.169381  1
