# generated using pymatgen
data_LaHo5Zn4Pt13
_symmetry_space_group_name_H-M   'P 1'
_cell_length_a   8.28180606
_cell_length_b   8.28180716
_cell_length_c   8.28180663
_cell_angle_alpha   109.50889761
_cell_angle_beta   109.45239477
_cell_angle_gamma   109.45237973
_symmetry_Int_Tables_number   1
_chemical_formula_structural   LaHo5Zn4Pt13
_chemical_formula_sum   'La1 Ho5 Zn4 Pt13'
_cell_volume   437.27354637
_cell_formula_units_Z   1
loop_
 _symmetry_equiv_pos_site_id
 _symmetry_equiv_pos_as_xyz
  1  'x, y, z'
loop_
 _atom_site_type_symbol
 _atom_site_label
 _atom_site_symmetry_multiplicity
 _atom_site_fract_x
 _atom_site_fract_y
 _atom_site_fract_z
 _atom_site_occupancy
  La  La0  1  0.000000  0.705198  0.705198  1
  Ho  Ho1  1  0.698141  0.698844  0.000703  1
  Ho  Ho2  1  0.301859  0.000703  0.302561  1
  Ho  Ho3  1  0.000000  0.304974  0.304974  1
  Ho  Ho4  1  0.301859  0.302561  0.000703  1
  Ho  Ho5  1  0.698141  0.000703  0.698844  1
  Zn  Zn6  1  0.000000  0.000099  0.493282  1
  Zn  Zn7  1  0.000000  0.493282  0.000099  1
  Zn  Zn8  1  0.506816  0.000099  0.000099  1
  Zn  Zn9  1  0.493184  0.493282  0.493282  1
  Pt  Pt10  1  0.333834  0.333951  0.667785  1
  Pt  Pt11  1  0.666166  0.000117  0.333951  1
  Pt  Pt12  1  0.000000  0.670172  0.327509  1
  Pt  Pt13  1  0.666166  0.333951  0.000117  1
  Pt  Pt14  1  0.333834  0.667785  0.333951  1
  Pt  Pt15  1  0.000000  0.327509  0.670172  1
  Pt  Pt16  1  0.336419  0.664453  0.000872  1
  Pt  Pt17  1  0.336419  0.000872  0.664453  1
  Pt  Pt18  1  0.657338  0.327509  0.327509  1
  Pt  Pt19  1  0.663581  0.664453  0.328033  1
  Pt  Pt20  1  0.663581  0.328033  0.664453  1
  Pt  Pt21  1  0.342662  0.670172  0.670172  1
  Pt  Pt22  1  0.000000  0.011280  0.011280  1
