# generated using pymatgen
data_Tm4B12MoRu
_symmetry_space_group_name_H-M   'P 1'
_cell_length_a   3.61808200
_cell_length_b   9.13533105
_cell_length_c   11.51431273
_cell_angle_alpha   89.74837824
_cell_angle_beta   90.00000000
_cell_angle_gamma   90.00000000
_symmetry_Int_Tables_number   1
_chemical_formula_structural   Tm4B12MoRu
_chemical_formula_sum   'Tm8 B24 Mo2 Ru2'
_cell_volume   380.57173324
_cell_formula_units_Z   2
loop_
 _symmetry_equiv_pos_site_id
 _symmetry_equiv_pos_as_xyz
  1  'x, y, z'
loop_
 _atom_site_type_symbol
 _atom_site_label
 _atom_site_symmetry_multiplicity
 _atom_site_fract_x
 _atom_site_fract_y
 _atom_site_fract_z
 _atom_site_occupancy
  Tm  Tm0  1  0.000000  0.322011  0.414542  1
  Tm  Tm1  1  0.000000  0.677989  0.585458  1
  Tm  Tm2  1  0.000000  0.821789  0.085866  1
  Tm  Tm3  1  0.000000  0.178211  0.914134  1
  Tm  Tm4  1  0.000000  0.944821  0.371212  1
  Tm  Tm5  1  0.000000  0.055179  0.628788  1
  Tm  Tm6  1  0.000000  0.442038  0.128216  1
  Tm  Tm7  1  0.000000  0.557962  0.871784  1
  B  B8  1  0.500000  0.551721  0.434342  1
  B  B9  1  0.500000  0.448279  0.565658  1
  B  B10  1  0.500000  0.053856  0.066488  1
  B  B11  1  0.500000  0.946144  0.933512  1
  B  B12  1  0.500000  0.750943  0.421275  1
  B  B13  1  0.500000  0.249057  0.578725  1
  B  B14  1  0.500000  0.248742  0.080465  1
  B  B15  1  0.500000  0.751258  0.919535  1
  B  B16  1  0.500000  0.795674  0.263788  1
  B  B17  1  0.500000  0.204326  0.736212  1
  B  B18  1  0.500000  0.291025  0.233962  1
  B  B19  1  0.500000  0.708975  0.766038  1
  B  B20  1  0.500000  0.631803  0.182129  1
  B  B21  1  0.500000  0.368197  0.817871  1
  B  B22  1  0.500000  0.130740  0.313942  1
  B  B23  1  0.500000  0.869260  0.686058  1
  B  B24  1  0.500000  0.983022  0.211654  1
  B  B25  1  0.500000  0.016978  0.788346  1
  B  B26  1  0.500000  0.478139  0.287034  1
  B  B27  1  0.500000  0.521861  0.712966  1
  B  B28  1  0.500000  0.603363  0.028042  1
  B  B29  1  0.500000  0.396637  0.971958  1
  B  B30  1  0.500000  0.103267  0.470649  1
  B  B31  1  0.500000  0.896733  0.529351  1
  Mo  Mo32  1  0.000000  0.639440  0.318745  1
  Mo  Mo33  1  0.000000  0.360560  0.681255  1
  Ru  Ru34  1  0.000000  0.138305  0.178088  1
  Ru  Ru35  1  0.000000  0.861695  0.821912  1
