# generated using pymatgen
data_LiTb6Mn2CrC12
_symmetry_space_group_name_H-M   'P 1'
_cell_length_a   8.16182600
_cell_length_b   8.16182543
_cell_length_c   5.03468400
_cell_angle_alpha   90.00000000
_cell_angle_beta   90.00000000
_cell_angle_gamma   120.00000933
_symmetry_Int_Tables_number   1
_chemical_formula_structural   LiTb6Mn2CrC12
_chemical_formula_sum   'Li1 Tb6 Mn2 Cr1 C12'
_cell_volume   290.45405356
_cell_formula_units_Z   1
loop_
 _symmetry_equiv_pos_site_id
 _symmetry_equiv_pos_as_xyz
  1  'x, y, z'
loop_
 _atom_site_type_symbol
 _atom_site_label
 _atom_site_symmetry_multiplicity
 _atom_site_fract_x
 _atom_site_fract_y
 _atom_site_fract_z
 _atom_site_occupancy
  Li  Li0  1  0.000000  0.000000  0.500000  1
  Tb  Tb1  1  0.621947  0.686911  0.743214  1
  Tb  Tb2  1  0.935036  0.621947  0.256786  1
  Tb  Tb3  1  0.686911  0.064964  0.256786  1
  Tb  Tb4  1  0.313089  0.935036  0.743214  1
  Tb  Tb5  1  0.064964  0.378053  0.743214  1
  Tb  Tb6  1  0.378053  0.313089  0.256786  1
  Mn  Mn7  1  0.666667  0.333333  0.749371  1
  Mn  Mn8  1  0.333333  0.666667  0.250629  1
  Cr  Cr9  1  0.000000  0.000000  0.000000  1
  C  C10  1  0.965972  0.764995  0.768715  1
  C  C11  1  0.200979  0.965972  0.231285  1
  C  C12  1  0.764995  0.799021  0.231285  1
  C  C13  1  0.235005  0.200979  0.768715  1
  C  C14  1  0.799021  0.034028  0.768715  1
  C  C15  1  0.034028  0.235005  0.231285  1
  C  C16  1  0.861054  0.574363  0.759806  1
  C  C17  1  0.286691  0.861054  0.240194  1
  C  C18  1  0.574363  0.713309  0.240194  1
  C  C19  1  0.425637  0.286691  0.759806  1
  C  C20  1  0.138946  0.425637  0.240194  1
  C  C21  1  0.713309  0.138946  0.759806  1
