# generated using pymatgen
data_TbTh3(NiB4)4
_symmetry_space_group_name_H-M   'P 1'
_cell_length_a   6.94017754
_cell_length_b   6.94017839
_cell_length_c   6.94017726
_cell_angle_alpha   112.78057600
_cell_angle_beta   112.78058018
_cell_angle_gamma   103.03779647
_symmetry_Int_Tables_number   1
_chemical_formula_structural   TbTh3(NiB4)4
_chemical_formula_sum   'Tb1 Th3 Ni4 B16'
_cell_volume   254.93400672
_cell_formula_units_Z   1
loop_
 _symmetry_equiv_pos_site_id
 _symmetry_equiv_pos_as_xyz
  1  'x, y, z'
loop_
 _atom_site_type_symbol
 _atom_site_label
 _atom_site_symmetry_multiplicity
 _atom_site_fract_x
 _atom_site_fract_y
 _atom_site_fract_z
 _atom_site_occupancy
  Tb  Tb0  1  0.250000  0.750000  0.500000  1
  Th  Th1  1  0.203635  0.203635  0.000000  1
  Th  Th2  1  0.796365  0.796365  0.000000  1
  Th  Th3  1  0.750000  0.250000  0.500000  1
  Ni  Ni4  1  0.498629  0.269835  0.771206  1
  Ni  Ni5  1  0.498629  0.727422  0.228794  1
  Ni  Ni6  1  0.730165  0.501371  0.228794  1
  Ni  Ni7  1  0.272578  0.501371  0.771206  1
  B  B8  1  0.111283  0.273661  0.385720  1
  B  B9  1  0.887941  0.725563  0.614280  1
  B  B10  1  0.887941  0.273661  0.162379  1
  B  B11  1  0.111283  0.725563  0.837621  1
  B  B12  1  0.726339  0.888717  0.614280  1
  B  B13  1  0.274437  0.112059  0.385720  1
  B  B14  1  0.726339  0.112059  0.837621  1
  B  B15  1  0.274437  0.888717  0.162379  1
  B  B16  1  0.417861  0.419562  0.532069  1
  B  B17  1  0.887494  0.885793  0.467931  1
  B  B18  1  0.580438  0.112506  0.998299  1
  B  B19  1  0.114207  0.582139  0.001701  1
  B  B20  1  0.580438  0.582139  0.467931  1
  B  B21  1  0.114207  0.112506  0.532069  1
  B  B22  1  0.887494  0.419562  0.001701  1
  B  B23  1  0.417861  0.885793  0.998299  1
