# generated using pymatgen
data_Tb3Ga2P4Rh9
_symmetry_space_group_name_H-M   'P 1'
_cell_length_a   3.99826100
_cell_length_b   11.35561500
_cell_length_c   12.89672500
_cell_angle_alpha   90.00000000
_cell_angle_beta   90.00000000
_cell_angle_gamma   90.00000000
_symmetry_Int_Tables_number   1
_chemical_formula_structural   Tb3Ga2P4Rh9
_chemical_formula_sum   'Tb6 Ga4 P8 Rh18'
_cell_volume   585.54629847
_cell_formula_units_Z   2
loop_
 _symmetry_equiv_pos_site_id
 _symmetry_equiv_pos_as_xyz
  1  'x, y, z'
loop_
 _atom_site_type_symbol
 _atom_site_label
 _atom_site_symmetry_multiplicity
 _atom_site_fract_x
 _atom_site_fract_y
 _atom_site_fract_z
 _atom_site_occupancy
  Tb  Tb0  1  0.000000  0.500000  0.523831  1
  Tb  Tb1  1  0.500000  0.000000  0.476169  1
  Tb  Tb2  1  0.500000  0.813334  0.207449  1
  Tb  Tb3  1  0.500000  0.186666  0.207449  1
  Tb  Tb4  1  0.000000  0.686666  0.792551  1
  Tb  Tb5  1  0.000000  0.313334  0.792551  1
  Ga  Ga6  1  0.500000  0.500000  0.875576  1
  Ga  Ga7  1  0.000000  0.000000  0.124424  1
  Ga  Ga8  1  0.500000  0.500000  0.346509  1
  Ga  Ga9  1  0.000000  0.000000  0.653491  1
  P  P10  1  0.500000  0.307946  0.617829  1
  P  P11  1  0.500000  0.692054  0.617829  1
  P  P12  1  0.000000  0.192054  0.382171  1
  P  P13  1  0.000000  0.807946  0.382171  1
  P  P14  1  0.500000  0.844216  0.896435  1
  P  P15  1  0.500000  0.155784  0.896435  1
  P  P16  1  0.000000  0.655784  0.103565  1
  P  P17  1  0.000000  0.344216  0.103565  1
  Rh  Rh18  1  0.500000  0.500000  0.155048  1
  Rh  Rh19  1  0.000000  0.000000  0.844952  1
  Rh  Rh20  1  0.500000  0.500000  0.684432  1
  Rh  Rh21  1  0.000000  0.000000  0.315568  1
  Rh  Rh22  1  0.000000  0.500000  0.992344  1
  Rh  Rh23  1  0.500000  0.000000  0.007656  1
  Rh  Rh24  1  0.500000  0.329637  0.996255  1
  Rh  Rh25  1  0.500000  0.670363  0.996255  1
  Rh  Rh26  1  0.000000  0.170363  0.003745  1
  Rh  Rh27  1  0.000000  0.829637  0.003745  1
  Rh  Rh28  1  0.500000  0.288288  0.431009  1
  Rh  Rh29  1  0.500000  0.711712  0.431009  1
  Rh  Rh30  1  0.000000  0.211712  0.568991  1
  Rh  Rh31  1  0.000000  0.788288  0.568991  1
  Rh  Rh32  1  0.500000  0.869290  0.716010  1
  Rh  Rh33  1  0.500000  0.130710  0.716010  1
  Rh  Rh34  1  0.000000  0.630710  0.283990  1
  Rh  Rh35  1  0.000000  0.369290  0.283990  1
