# generated using pymatgen
data_Ca2Tb2Sb6Rh7
_symmetry_space_group_name_H-M   'P 1'
_cell_length_a   7.62194091
_cell_length_b   7.62194017
_cell_length_c   7.65104196
_cell_angle_alpha   109.45582836
_cell_angle_beta   109.45582498
_cell_angle_gamma   109.34749290
_symmetry_Int_Tables_number   1
_chemical_formula_structural   Ca2Tb2Sb6Rh7
_chemical_formula_sum   'Ca2 Tb2 Sb6 Rh7'
_cell_volume   342.81106508
_cell_formula_units_Z   1
loop_
 _symmetry_equiv_pos_site_id
 _symmetry_equiv_pos_as_xyz
  1  'x, y, z'
loop_
 _atom_site_type_symbol
 _atom_site_label
 _atom_site_symmetry_multiplicity
 _atom_site_fract_x
 _atom_site_fract_y
 _atom_site_fract_z
 _atom_site_occupancy
  Ca  Ca0  1  0.500000  0.000000  0.000000  1
  Ca  Ca1  1  0.000000  0.500000  0.000000  1
  Tb  Tb2  1  0.000000  0.000000  0.500000  1
  Tb  Tb3  1  0.500000  0.500000  0.500000  1
  Sb  Sb4  1  0.997650  0.318693  0.316343  1
  Sb  Sb5  1  0.681307  0.002350  0.683657  1
  Sb  Sb6  1  0.680923  0.680923  0.000000  1
  Sb  Sb7  1  0.002350  0.681307  0.683657  1
  Sb  Sb8  1  0.318693  0.997650  0.316343  1
  Sb  Sb9  1  0.319077  0.319077  0.000000  1
  Rh  Rh10  1  0.000000  0.000000  0.000000  1
  Rh  Rh11  1  0.504848  0.750256  0.255104  1
  Rh  Rh12  1  0.750256  0.504848  0.255104  1
  Rh  Rh13  1  0.250000  0.750000  0.500000  1
  Rh  Rh14  1  0.249744  0.495152  0.744896  1
  Rh  Rh15  1  0.495152  0.249744  0.744896  1
  Rh  Rh16  1  0.750000  0.250000  0.500000  1
