# generated using pymatgen
data_RbGd10(C2Cl9)2
_symmetry_space_group_name_H-M   'P 1'
_cell_length_a   10.31587160
_cell_length_b   10.39241003
_cell_length_c   10.61919400
_cell_angle_alpha   112.61550628
_cell_angle_beta   88.41005711
_cell_angle_gamma   117.88537604
_symmetry_Int_Tables_number   1
_chemical_formula_structural   RbGd10(C2Cl9)2
_chemical_formula_sum   'Rb1 Gd10 C4 Cl18'
_cell_volume   912.59944484
_cell_formula_units_Z   1
loop_
 _symmetry_equiv_pos_site_id
 _symmetry_equiv_pos_as_xyz
  1  'x, y, z'
loop_
 _atom_site_type_symbol
 _atom_site_label
 _atom_site_symmetry_multiplicity
 _atom_site_fract_x
 _atom_site_fract_y
 _atom_site_fract_z
 _atom_site_occupancy
  Rb  Rb0  1  0.500000  0.000000  0.500000  1
  Gd  Gd1  1  0.648339  0.710866  0.695024  1
  Gd  Gd2  1  0.282595  0.376836  0.009156  1
  Gd  Gd3  1  0.093070  0.422004  0.308753  1
  Gd  Gd4  1  0.957036  0.035347  0.339363  1
  Gd  Gd5  1  0.906930  0.577996  0.691247  1
  Gd  Gd6  1  0.119601  0.939742  0.001046  1
  Gd  Gd7  1  0.042964  0.964653  0.660637  1
  Gd  Gd8  1  0.351661  0.289134  0.304976  1
  Gd  Gd9  1  0.717405  0.623164  0.990844  1
  Gd  Gd10  1  0.880399  0.060258  0.998954  1
  C  C11  1  0.159538  0.235460  0.126980  1
  C  C12  1  0.840462  0.764540  0.873020  1
  C  C13  1  0.918521  0.844845  0.790691  1
  C  C14  1  0.081479  0.155155  0.209309  1
  Cl  Cl15  1  0.456517  0.531600  0.835214  1
  Cl  Cl16  1  0.383742  0.038981  0.166162  1
  Cl  Cl17  1  0.775801  0.861716  0.504144  1
  Cl  Cl18  1  0.839082  0.315300  0.156636  1
  Cl  Cl19  1  0.543483  0.468400  0.164786  1
  Cl  Cl20  1  0.224199  0.138284  0.495856  1
  Cl  Cl21  1  0.308152  0.104154  0.833304  1
  Cl  Cl22  1  0.691848  0.895846  0.166696  1
  Cl  Cl23  1  0.977367  0.767744  0.175074  1
  Cl  Cl24  1  0.929103  0.300697  0.496774  1
  Cl  Cl25  1  0.022633  0.232256  0.824926  1
  Cl  Cl26  1  0.070897  0.699303  0.503226  1
  Cl  Cl27  1  0.263905  0.629441  0.195179  1
  Cl  Cl28  1  0.736095  0.370559  0.804821  1
  Cl  Cl29  1  0.635636  0.432151  0.500978  1
  Cl  Cl30  1  0.160918  0.684700  0.843364  1
  Cl  Cl31  1  0.616258  0.961019  0.833838  1
  Cl  Cl32  1  0.364364  0.567849  0.499022  1
