# generated using pymatgen
data_Y5Sn2PbO
_symmetry_space_group_name_H-M   'P 1'
_cell_length_a   9.07458384
_cell_length_b   9.07458404
_cell_length_c   9.07458500
_cell_angle_alpha   126.87541123
_cell_angle_beta   126.87541218
_cell_angle_gamma   78.45403559
_symmetry_Int_Tables_number   1
_chemical_formula_structural   Y5Sn2PbO
_chemical_formula_sum   'Y10 Sn4 Pb2 O2'
_cell_volume   463.00970868
_cell_formula_units_Z   2
loop_
 _symmetry_equiv_pos_site_id
 _symmetry_equiv_pos_as_xyz
  1  'x, y, z'
loop_
 _atom_site_type_symbol
 _atom_site_label
 _atom_site_symmetry_multiplicity
 _atom_site_fract_x
 _atom_site_fract_y
 _atom_site_fract_z
 _atom_site_occupancy
  Y  Y0  1  0.499707  0.301514  0.500000  1
  Y  Y1  1  0.801514  0.999707  0.500000  1
  Y  Y2  1  0.999707  0.499707  0.198193  1
  Y  Y3  1  0.301514  0.801514  0.801807  1
  Y  Y4  1  0.502837  0.701032  0.500000  1
  Y  Y5  1  0.201032  0.002837  0.500000  1
  Y  Y6  1  0.002837  0.502837  0.801804  1
  Y  Y7  1  0.701032  0.201032  0.198196  1
  Y  Y8  1  0.501261  0.501261  0.000000  1
  Y  Y9  1  0.001261  0.001261  0.000000  1
  Sn  Sn10  1  0.146656  0.355854  0.500000  1
  Sn  Sn11  1  0.855854  0.646656  0.500000  1
  Sn  Sn12  1  0.646656  0.146656  0.790801  1
  Sn  Sn13  1  0.355854  0.855854  0.209199  1
  Pb  Pb14  1  0.751295  0.751295  0.000000  1
  Pb  Pb15  1  0.251295  0.251295  0.000000  1
  O  O16  1  0.751265  0.251265  0.500000  1
  O  O17  1  0.251265  0.751265  0.500000  1
