# generated using pymatgen
data_Hf(SF6)2
_symmetry_space_group_name_H-M   'P 1'
_cell_length_a   6.41520800
_cell_length_b   7.94362300
_cell_length_c   10.07546200
_cell_angle_alpha   90.00000000
_cell_angle_beta   90.00000000
_cell_angle_gamma   90.00000000
_symmetry_Int_Tables_number   1
_chemical_formula_structural   Hf(SF6)2
_chemical_formula_sum   'Hf2 S4 F24'
_cell_volume   513.44548124
_cell_formula_units_Z   2
loop_
 _symmetry_equiv_pos_site_id
 _symmetry_equiv_pos_as_xyz
  1  'x, y, z'
loop_
 _atom_site_type_symbol
 _atom_site_label
 _atom_site_symmetry_multiplicity
 _atom_site_fract_x
 _atom_site_fract_y
 _atom_site_fract_z
 _atom_site_occupancy
  Hf  Hf0  1  0.000000  0.500000  0.000000  1
  Hf  Hf1  1  0.500000  0.000000  0.500000  1
  S  S2  1  0.500000  0.574768  0.243227  1
  S  S3  1  0.500000  0.425232  0.756773  1
  S  S4  1  0.000000  0.074768  0.256773  1
  S  S5  1  0.000000  0.925232  0.743227  1
  F  F6  1  0.222439  0.370278  0.903065  1
  F  F7  1  0.222439  0.629722  0.096935  1
  F  F8  1  0.277561  0.870278  0.596935  1
  F  F9  1  0.277561  0.129722  0.403065  1
  F  F10  1  0.777561  0.629722  0.096935  1
  F  F11  1  0.777561  0.370278  0.903065  1
  F  F12  1  0.819577  0.968053  0.843659  1
  F  F13  1  0.819577  0.031947  0.156341  1
  F  F14  1  0.680423  0.468053  0.656341  1
  F  F15  1  0.680423  0.531947  0.343659  1
  F  F16  1  0.180423  0.031947  0.156341  1
  F  F17  1  0.180423  0.968053  0.843659  1
  F  F18  1  0.319577  0.531947  0.343659  1
  F  F19  1  0.319577  0.468053  0.656341  1
  F  F20  1  0.000000  0.671201  0.853239  1
  F  F21  1  0.000000  0.328799  0.146761  1
  F  F22  1  0.500000  0.171201  0.646761  1
  F  F23  1  0.500000  0.828799  0.353239  1
  F  F24  1  0.500000  0.605239  0.822712  1
  F  F25  1  0.500000  0.394761  0.177288  1
  F  F26  1  0.000000  0.105239  0.677288  1
  F  F27  1  0.000000  0.894761  0.322712  1
  F  F28  1  0.722439  0.870278  0.596935  1
  F  F29  1  0.722439  0.129722  0.403065  1
