# generated using pymatgen
data_TbHo7(AlRu)8
_symmetry_space_group_name_H-M   'P 1'
_cell_length_a   4.06730100
_cell_length_b   6.97316186
_cell_length_c   15.89519277
_cell_angle_alpha   90.02277867
_cell_angle_beta   90.00000000
_cell_angle_gamma   90.00000000
_symmetry_Int_Tables_number   1
_chemical_formula_structural   TbHo7(AlRu)8
_chemical_formula_sum   'Tb1 Ho7 Al8 Ru8'
_cell_volume   450.81859814
_cell_formula_units_Z   1
loop_
 _symmetry_equiv_pos_site_id
 _symmetry_equiv_pos_as_xyz
  1  'x, y, z'
loop_
 _atom_site_type_symbol
 _atom_site_label
 _atom_site_symmetry_multiplicity
 _atom_site_fract_x
 _atom_site_fract_y
 _atom_site_fract_z
 _atom_site_occupancy
  Tb  Tb0  1  0.250000  0.536297  0.719469  1
  Ho  Ho1  1  0.750000  0.963683  0.219498  1
  Ho  Ho2  1  0.250000  0.160767  0.562614  1
  Ho  Ho3  1  0.750000  0.842814  0.436610  1
  Ho  Ho4  1  0.750000  0.463763  0.280981  1
  Ho  Ho5  1  0.750000  0.339726  0.063216  1
  Ho  Ho6  1  0.250000  0.656705  0.937201  1
  Ho  Ho7  1  0.250000  0.036151  0.780850  1
  Al  Al8  1  0.750000  0.503586  0.564800  1
  Al  Al9  1  0.750000  0.362886  0.849955  1
  Al  Al10  1  0.750000  0.997683  0.934527  1
  Al  Al11  1  0.750000  0.869171  0.650578  1
  Al  Al12  1  0.250000  0.500866  0.434178  1
  Al  Al13  1  0.250000  0.997106  0.066086  1
  Al  Al14  1  0.250000  0.633270  0.151258  1
  Al  Al15  1  0.250000  0.135066  0.348814  1
  Ru  Ru16  1  0.750000  0.746100  0.812332  1
  Ru  Ru17  1  0.250000  0.232634  0.937323  1
  Ru  Ru18  1  0.750000  0.265569  0.436567  1
  Ru  Ru19  1  0.250000  0.753544  0.311926  1
  Ru  Ru20  1  0.750000  0.762846  0.063856  1
  Ru  Ru21  1  0.750000  0.247831  0.687090  1
  Ru  Ru22  1  0.250000  0.253005  0.187522  1
  Ru  Ru23  1  0.250000  0.738928  0.562749  1
