# generated using pymatgen
data_Eu21MgGa8Sn5Pb
_symmetry_space_group_name_H-M   'P 1'
_cell_length_a   11.86559366
_cell_length_b   11.87130289
_cell_length_c   11.86559300
_cell_angle_alpha   59.98409012
_cell_angle_beta   60.03183143
_cell_angle_gamma   59.98408949
_symmetry_Int_Tables_number   1
_chemical_formula_structural   Eu21MgGa8Sn5Pb
_chemical_formula_sum   'Eu21 Mg1 Ga8 Sn5 Pb1'
_cell_volume   1181.84940979
_cell_formula_units_Z   1
loop_
 _symmetry_equiv_pos_site_id
 _symmetry_equiv_pos_as_xyz
  1  'x, y, z'
loop_
 _atom_site_type_symbol
 _atom_site_label
 _atom_site_symmetry_multiplicity
 _atom_site_fract_x
 _atom_site_fract_y
 _atom_site_fract_z
 _atom_site_occupancy
  Eu  Eu0  1  0.868594  0.868968  0.393470  1
  Eu  Eu1  1  0.605631  0.130476  0.133419  1
  Eu  Eu2  1  0.869524  0.394369  0.869524  1
  Eu  Eu3  1  0.131032  0.131406  0.131032  1
  Eu  Eu4  1  0.393470  0.868968  0.868594  1
  Eu  Eu5  1  0.869524  0.866581  0.869524  1
  Eu  Eu6  1  0.171485  0.828515  0.500202  1
  Eu  Eu7  1  0.828726  0.501520  0.498480  1
  Eu  Eu8  1  0.133419  0.130476  0.605631  1
  Eu  Eu9  1  0.828726  0.171274  0.498480  1
  Eu  Eu10  1  0.171485  0.499798  0.500202  1
  Eu  Eu11  1  0.131032  0.606530  0.131032  1
  Eu  Eu12  1  0.500202  0.499798  0.171485  1
  Eu  Eu13  1  0.498480  0.171274  0.828726  1
  Eu  Eu14  1  0.500202  0.828515  0.171485  1
  Eu  Eu15  1  0.498480  0.501520  0.828726  1
  Eu  Eu16  1  0.499931  0.171300  0.499931  1
  Eu  Eu17  1  0.171163  0.500069  0.828700  1
  Eu  Eu18  1  0.000544  0.999456  0.000544  1
  Eu  Eu19  1  0.499931  0.828837  0.499931  1
  Eu  Eu20  1  0.828700  0.500069  0.171163  1
  Mg  Mg21  1  0.500186  0.499814  0.500186  1
  Ga  Ga22  1  0.692178  0.923624  0.692178  1
  Ga  Ga23  1  0.692146  0.692087  0.923681  1
  Ga  Ga24  1  0.692178  0.692021  0.692178  1
  Ga  Ga25  1  0.307913  0.076319  0.307913  1
  Ga  Ga26  1  0.923681  0.692087  0.692146  1
  Ga  Ga27  1  0.307979  0.307822  0.076376  1
  Ga  Ga28  1  0.076376  0.307822  0.307979  1
  Ga  Ga29  1  0.307913  0.307854  0.307913  1
  Sn  Sn30  1  0.785236  0.214764  0.214673  1
  Sn  Sn31  1  0.214886  0.785114  0.214886  1
  Sn  Sn32  1  0.214673  0.785327  0.785236  1
  Sn  Sn33  1  0.785236  0.785327  0.214673  1
  Sn  Sn34  1  0.214673  0.214764  0.785236  1
  Pb  Pb35  1  0.784464  0.215536  0.784464  1
