# generated using pymatgen
data_DyPu3(AlB4)4
_symmetry_space_group_name_H-M   'P 1'
_cell_length_a   3.58371500
_cell_length_b   5.94058569
_cell_length_c   11.52235431
_cell_angle_alpha   89.99961418
_cell_angle_beta   90.00000000
_cell_angle_gamma   90.00000000
_symmetry_Int_Tables_number   1
_chemical_formula_structural   DyPu3(AlB4)4
_chemical_formula_sum   'Dy1 Pu3 Al4 B16'
_cell_volume   245.30361873
_cell_formula_units_Z   1
loop_
 _symmetry_equiv_pos_site_id
 _symmetry_equiv_pos_as_xyz
  1  'x, y, z'
loop_
 _atom_site_type_symbol
 _atom_site_label
 _atom_site_symmetry_multiplicity
 _atom_site_fract_x
 _atom_site_fract_y
 _atom_site_fract_z
 _atom_site_occupancy
  Dy  Dy0  1  0.000000  0.128725  0.150372  1
  Pu  Pu1  1  0.000000  0.369704  0.649885  1
  Pu  Pu2  1  0.000000  0.630784  0.349698  1
  Pu  Pu3  1  0.000000  0.869697  0.850667  1
  Al  Al4  1  0.000000  0.361620  0.908553  1
  Al  Al5  1  0.000000  0.638326  0.090198  1
  Al  Al6  1  0.000000  0.860798  0.590683  1
  Al  Al7  1  0.000000  0.139696  0.410239  1
  B  B8  1  0.500000  0.026349  0.692890  1
  B  B9  1  0.500000  0.973086  0.307271  1
  B  B10  1  0.500000  0.527493  0.807051  1
  B  B11  1  0.500000  0.475167  0.192788  1
  B  B12  1  0.500000  0.113919  0.546863  1
  B  B13  1  0.500000  0.886778  0.452797  1
  B  B14  1  0.500000  0.613319  0.953795  1
  B  B15  1  0.500000  0.385577  0.046887  1
  B  B16  1  0.500000  0.291294  0.312602  1
  B  B17  1  0.500000  0.709713  0.687857  1
  B  B18  1  0.500000  0.788795  0.188111  1
  B  B19  1  0.500000  0.208806  0.812502  1
  B  B20  1  0.500000  0.367345  0.467914  1
  B  B21  1  0.500000  0.633183  0.530675  1
  B  B22  1  0.500000  0.866766  0.030970  1
  B  B23  1  0.500000  0.133061  0.968732  1
