# generated using pymatgen
data_NdYRe7Si4W
_symmetry_space_group_name_H-M   'P 1'
_cell_length_a   7.17568528
_cell_length_b   7.75011013
_cell_length_c   4.17575200
_cell_angle_alpha   90.00000000
_cell_angle_beta   90.00000000
_cell_angle_gamma   90.39287355
_symmetry_Int_Tables_number   1
_chemical_formula_structural   NdYRe7Si4W
_chemical_formula_sum   'Nd1 Y1 Re7 Si4 W1'
_cell_volume   232.21792722
_cell_formula_units_Z   1
loop_
 _symmetry_equiv_pos_site_id
 _symmetry_equiv_pos_as_xyz
  1  'x, y, z'
loop_
 _atom_site_type_symbol
 _atom_site_label
 _atom_site_symmetry_multiplicity
 _atom_site_fract_x
 _atom_site_fract_y
 _atom_site_fract_z
 _atom_site_occupancy
  Nd  Nd0  1  0.999374  0.999802  0.500000  1
  Y  Y1  1  0.500853  0.498162  0.000000  1
  Re  Re2  1  0.156029  0.604561  0.500000  1
  Re  Re3  1  0.081920  0.342050  0.000000  1
  Re  Re4  1  0.919472  0.657368  0.000000  1
  Re  Re5  1  0.421729  0.837873  0.500000  1
  Re  Re6  1  0.577917  0.165403  0.500000  1
  Re  Re7  1  0.343830  0.108640  0.000000  1
  Re  Re8  1  0.845862  0.393990  0.500000  1
  Si  Si9  1  0.227274  0.804496  0.000000  1
  Si  Si10  1  0.775197  0.197528  0.000000  1
  Si  Si11  1  0.723692  0.689074  0.500000  1
  Si  Si12  1  0.276945  0.308805  0.500000  1
  W  W13  1  0.649911  0.892246  0.000000  1
