# generated using pymatgen
data_LaCoAsN
_symmetry_space_group_name_H-M   'P 1'
_cell_length_a   3.88606200
_cell_length_b   3.88606200
_cell_length_c   8.37050100
_cell_angle_alpha   90.00000000
_cell_angle_beta   90.00000000
_cell_angle_gamma   90.00000000
_symmetry_Int_Tables_number   1
_chemical_formula_structural   LaCoAsN
_chemical_formula_sum   'La2 Co2 As2 N2'
_cell_volume   126.40693559
_cell_formula_units_Z   2
loop_
 _symmetry_equiv_pos_site_id
 _symmetry_equiv_pos_as_xyz
  1  'x, y, z'
loop_
 _atom_site_type_symbol
 _atom_site_label
 _atom_site_symmetry_multiplicity
 _atom_site_fract_x
 _atom_site_fract_y
 _atom_site_fract_z
 _atom_site_occupancy
  La  La0  1  0.499999  0.000000  0.161041  1
  La  La1  1  0.000000  0.499999  0.838959  1
  Co  Co2  1  0.000000  0.000000  0.500000  1
  Co  Co3  1  0.499999  0.499999  0.500000  1
  As  As4  1  0.000000  0.499999  0.353673  1
  As  As5  1  0.499999  0.000000  0.646327  1
  N  N6  1  0.000000  0.499999  0.124303  1
  N  N7  1  0.499999  0.000000  0.875697  1
