# generated using pymatgen
data_YH6Rh
_symmetry_space_group_name_H-M   'P 1'
_cell_length_a   4.14253269
_cell_length_b   4.14253200
_cell_length_c   4.14253296
_cell_angle_alpha   99.12244719
_cell_angle_beta   99.12242744
_cell_angle_gamma   99.12245990
_symmetry_Int_Tables_number   1
_chemical_formula_structural   YH6Rh
_chemical_formula_sum   'Y1 H6 Rh1'
_cell_volume   68.06008197
_cell_formula_units_Z   1
loop_
 _symmetry_equiv_pos_site_id
 _symmetry_equiv_pos_as_xyz
  1  'x, y, z'
loop_
 _atom_site_type_symbol
 _atom_site_label
 _atom_site_symmetry_multiplicity
 _atom_site_fract_x
 _atom_site_fract_y
 _atom_site_fract_z
 _atom_site_occupancy
  Y  Y0  1  0.500000  0.500000  0.500000  1
  H  H1  1  0.293926  0.932723  0.293926  1
  H  H2  1  0.293926  0.293926  0.932723  1
  H  H3  1  0.932723  0.293926  0.293926  1
  H  H4  1  0.706074  0.067277  0.706074  1
  H  H5  1  0.706074  0.706074  0.067277  1
  H  H6  1  0.067277  0.706074  0.706074  1
  Rh  Rh7  1  0.000000  0.000000  0.000000  1
