# generated using pymatgen
data_Pr2CdHg(Ir2O7)2
_symmetry_space_group_name_H-M   'P 1'
_cell_length_a   7.31654091
_cell_length_b   7.31654191
_cell_length_c   7.23545147
_cell_angle_alpha   60.89878035
_cell_angle_beta   60.89877779
_cell_angle_gamma   61.97317937
_symmetry_Int_Tables_number   1
_chemical_formula_structural   Pr2CdHg(Ir2O7)2
_chemical_formula_sum   'Pr2 Cd1 Hg1 Ir4 O14'
_cell_volume   281.55769107
_cell_formula_units_Z   1
loop_
 _symmetry_equiv_pos_site_id
 _symmetry_equiv_pos_as_xyz
  1  'x, y, z'
loop_
 _atom_site_type_symbol
 _atom_site_label
 _atom_site_symmetry_multiplicity
 _atom_site_fract_x
 _atom_site_fract_y
 _atom_site_fract_z
 _atom_site_occupancy
  Pr  Pr0  1  0.625000  0.125000  0.125000  1
  Pr  Pr1  1  0.125000  0.625000  0.125000  1
  Cd  Cd2  1  0.125000  0.125000  0.625000  1
  Hg  Hg3  1  0.125000  0.125000  0.125000  1
  Ir  Ir4  1  0.625000  0.625000  0.625000  1
  Ir  Ir5  1  0.125000  0.625000  0.625000  1
  Ir  Ir6  1  0.625000  0.125000  0.625000  1
  Ir  Ir7  1  0.625000  0.625000  0.125000  1
  O  O8  1  0.949279  0.549592  0.547403  1
  O  O9  1  0.304375  0.304375  0.690513  1
  O  O10  1  0.946988  0.556733  0.949068  1
  O  O11  1  0.693267  0.303012  0.300932  1
  O  O12  1  0.540409  0.540409  0.958560  1
  O  O13  1  0.549592  0.949279  0.547403  1
  O  O14  1  0.556733  0.946988  0.949068  1
  O  O15  1  0.239847  0.239847  0.257811  1
  O  O16  1  0.300721  0.700408  0.702597  1
  O  O17  1  0.700408  0.300721  0.702597  1
  O  O18  1  0.010153  0.010153  0.992189  1
  O  O19  1  0.945625  0.945625  0.559487  1
  O  O20  1  0.303012  0.693267  0.300932  1
  O  O21  1  0.709591  0.709591  0.291440  1
