# generated using pymatgen
data_Tb9Th3Tc3Ni
_symmetry_space_group_name_H-M   'P 1'
_cell_length_a   6.39643751
_cell_length_b   7.25326492
_cell_length_c   9.56763100
_cell_angle_alpha   90.00000000
_cell_angle_beta   90.00000000
_cell_angle_gamma   90.71154344
_symmetry_Int_Tables_number   1
_chemical_formula_structural   Tb9Th3Tc3Ni
_chemical_formula_sum   'Tb9 Th3 Tc3 Ni1'
_cell_volume   443.85654539
_cell_formula_units_Z   1
loop_
 _symmetry_equiv_pos_site_id
 _symmetry_equiv_pos_as_xyz
  1  'x, y, z'
loop_
 _atom_site_type_symbol
 _atom_site_label
 _atom_site_symmetry_multiplicity
 _atom_site_fract_x
 _atom_site_fract_y
 _atom_site_fract_z
 _atom_site_occupancy
  Tb  Tb0  1  0.324632  0.676642  0.066310  1
  Tb  Tb1  1  0.165373  0.176497  0.436753  1
  Tb  Tb2  1  0.667577  0.326690  0.566694  1
  Tb  Tb3  1  0.832783  0.821878  0.931763  1
  Tb  Tb4  1  0.667577  0.326690  0.933306  1
  Tb  Tb5  1  0.832783  0.821878  0.568237  1
  Tb  Tb6  1  0.324632  0.676642  0.433690  1
  Tb  Tb7  1  0.165373  0.176497  0.063247  1
  Tb  Tb8  1  0.373129  0.959216  0.750000  1
  Th  Th9  1  0.851847  0.550353  0.250000  1
  Th  Th10  1  0.637100  0.049521  0.250000  1
  Th  Th11  1  0.150745  0.447531  0.750000  1
  Tc  Tc12  1  0.015053  0.873335  0.250000  1
  Tc  Tc13  1  0.479826  0.372203  0.250000  1
  Tc  Tc14  1  0.967247  0.129300  0.750000  1
  Ni  Ni15  1  0.544326  0.615128  0.750000  1
