# generated using pymatgen
data_Tb2Dy2HfIr3
_symmetry_space_group_name_H-M   'P 1'
_cell_length_a   10.87546600
_cell_length_b   10.87546600
_cell_length_c   6.26722800
_cell_angle_alpha   90.00000000
_cell_angle_beta   90.00000000
_cell_angle_gamma   90.00000000
_symmetry_Int_Tables_number   1
_chemical_formula_structural   Tb2Dy2HfIr3
_chemical_formula_sum   'Tb8 Dy8 Hf4 Ir12'
_cell_volume   741.26115929
_cell_formula_units_Z   4
loop_
 _symmetry_equiv_pos_site_id
 _symmetry_equiv_pos_as_xyz
  1  'x, y, z'
loop_
 _atom_site_type_symbol
 _atom_site_label
 _atom_site_symmetry_multiplicity
 _atom_site_fract_x
 _atom_site_fract_y
 _atom_site_fract_z
 _atom_site_occupancy
  Tb  Tb0  1  0.288497  0.085995  0.374561  1
  Tb  Tb1  1  0.288497  0.914005  0.874561  1
  Tb  Tb2  1  0.711503  0.085995  0.874561  1
  Tb  Tb3  1  0.711503  0.914005  0.374561  1
  Tb  Tb4  1  0.585995  0.788497  0.874561  1
  Tb  Tb5  1  0.585995  0.211503  0.374561  1
  Tb  Tb6  1  0.414005  0.788497  0.374561  1
  Tb  Tb7  1  0.414005  0.211503  0.874561  1
  Dy  Dy8  1  0.210595  0.414895  0.624699  1
  Dy  Dy9  1  0.210595  0.585105  0.124699  1
  Dy  Dy10  1  0.789405  0.414895  0.124699  1
  Dy  Dy11  1  0.789405  0.585105  0.624699  1
  Dy  Dy12  1  0.914895  0.710595  0.124699  1
  Dy  Dy13  1  0.914895  0.289405  0.624699  1
  Dy  Dy14  1  0.085105  0.710595  0.624699  1
  Dy  Dy15  1  0.085105  0.289405  0.124699  1
  Hf  Hf16  1  0.000000  0.000000  0.500938  1
  Hf  Hf17  1  0.000000  0.000000  0.000938  1
  Hf  Hf18  1  0.500000  0.500000  0.000938  1
  Hf  Hf19  1  0.500000  0.500000  0.500938  1
  Ir  Ir20  1  0.858536  0.143043  0.250347  1
  Ir  Ir21  1  0.858536  0.856957  0.750347  1
  Ir  Ir22  1  0.141464  0.143043  0.750347  1
  Ir  Ir23  1  0.141464  0.856957  0.250347  1
  Ir  Ir24  1  0.643043  0.358536  0.750347  1
  Ir  Ir25  1  0.643043  0.641464  0.250347  1
  Ir  Ir26  1  0.356957  0.358536  0.250347  1
  Ir  Ir27  1  0.356957  0.641464  0.750347  1
  Ir  Ir28  1  0.500000  0.000000  0.121002  1
  Ir  Ir29  1  0.500000  0.000000  0.621002  1
  Ir  Ir30  1  0.000000  0.500000  0.878699  1
  Ir  Ir31  1  0.000000  0.500000  0.378699  1
