# generated using pymatgen
data_SrLi4Th3Si8
_symmetry_space_group_name_H-M   'P 1'
_cell_length_a   3.89284000
_cell_length_b   7.80576400
_cell_length_c   10.57681203
_cell_angle_alpha   89.55341972
_cell_angle_beta   90.00000000
_cell_angle_gamma   90.00000000
_symmetry_Int_Tables_number   1
_chemical_formula_structural   SrLi4Th3Si8
_chemical_formula_sum   'Sr1 Li4 Th3 Si8'
_cell_volume   321.38349190
_cell_formula_units_Z   1
loop_
 _symmetry_equiv_pos_site_id
 _symmetry_equiv_pos_as_xyz
  1  'x, y, z'
loop_
 _atom_site_type_symbol
 _atom_site_label
 _atom_site_symmetry_multiplicity
 _atom_site_fract_x
 _atom_site_fract_y
 _atom_site_fract_z
 _atom_site_occupancy
  Sr  Sr0  1  0.750000  0.359373  0.364238  1
  Li  Li1  1  0.250000  0.999510  0.393942  1
  Li  Li2  1  0.750000  0.010192  0.607595  1
  Li  Li3  1  0.250000  0.487442  0.108615  1
  Li  Li4  1  0.750000  0.507918  0.896100  1
  Th  Th5  1  0.250000  0.132478  0.862998  1
  Th  Th6  1  0.750000  0.860927  0.132257  1
  Th  Th7  1  0.250000  0.638037  0.635917  1
  Si  Si8  1  0.750000  0.259146  0.064117  1
  Si  Si9  1  0.250000  0.729027  0.928876  1
  Si  Si10  1  0.750000  0.777672  0.429909  1
  Si  Si11  1  0.250000  0.236403  0.579237  1
  Si  Si12  1  0.750000  0.834842  0.815014  1
  Si  Si13  1  0.250000  0.154411  0.172742  1
  Si  Si14  1  0.750000  0.336983  0.688925  1
  Si  Si15  1  0.250000  0.675640  0.319515  1
