# generated using pymatgen
data_Tb2Dy2Sc2CoTe2
_symmetry_space_group_name_H-M   'P 1'
_cell_length_a   3.92949800
_cell_length_b   8.21347544
_cell_length_c   8.21347542
_cell_angle_alpha   121.08281511
_cell_angle_beta   90.00000000
_cell_angle_gamma   90.00000000
_symmetry_Int_Tables_number   1
_chemical_formula_structural   Tb2Dy2Sc2CoTe2
_chemical_formula_sum   'Tb2 Dy2 Sc2 Co1 Te2'
_cell_volume   227.02767286
_cell_formula_units_Z   1
loop_
 _symmetry_equiv_pos_site_id
 _symmetry_equiv_pos_as_xyz
  1  'x, y, z'
loop_
 _atom_site_type_symbol
 _atom_site_label
 _atom_site_symmetry_multiplicity
 _atom_site_fract_x
 _atom_site_fract_y
 _atom_site_fract_z
 _atom_site_occupancy
  Tb  Tb0  1  0.000000  0.000594  0.599303  1
  Tb  Tb1  1  0.000000  0.599303  0.000594  1
  Dy  Dy2  1  0.500000  0.767933  0.767933  1
  Dy  Dy3  1  0.000000  0.383313  0.383313  1
  Sc  Sc4  1  0.500000  0.994405  0.225180  1
  Sc  Sc5  1  0.500000  0.225180  0.994405  1
  Co  Co6  1  0.000000  0.036112  0.036112  1
  Te  Te7  1  0.500000  0.664941  0.328217  1
  Te  Te8  1  0.500000  0.328217  0.664941  1
