# generated using pymatgen
data_HoSc5CrCo17P12
_symmetry_space_group_name_H-M   'P 1'
_cell_length_a   3.61217100
_cell_length_b   10.42166300
_cell_length_c   12.01454900
_cell_angle_alpha   90.00000000
_cell_angle_beta   90.00000000
_cell_angle_gamma   90.00000000
_symmetry_Int_Tables_number   1
_chemical_formula_structural   HoSc5CrCo17P12
_chemical_formula_sum   'Ho1 Sc5 Cr1 Co17 P12'
_cell_volume   452.28564094
_cell_formula_units_Z   1
loop_
 _symmetry_equiv_pos_site_id
 _symmetry_equiv_pos_as_xyz
  1  'x, y, z'
loop_
 _atom_site_type_symbol
 _atom_site_label
 _atom_site_symmetry_multiplicity
 _atom_site_fract_x
 _atom_site_fract_y
 _atom_site_fract_z
 _atom_site_occupancy
  Ho  Ho0  1  0.500000  0.000000  0.475155  1
  Sc  Sc1  1  0.000000  0.500000  0.524273  1
  Sc  Sc2  1  0.500000  0.817825  0.205841  1
  Sc  Sc3  1  0.500000  0.182175  0.205841  1
  Sc  Sc4  1  0.000000  0.679983  0.795723  1
  Sc  Sc5  1  0.000000  0.320017  0.795723  1
  Cr  Cr6  1  0.500000  0.500000  0.157109  1
  Co  Co7  1  0.000000  0.500000  0.987223  1
  Co  Co8  1  0.500000  0.000000  0.013929  1
  Co  Co9  1  0.500000  0.298993  0.431339  1
  Co  Co10  1  0.500000  0.701007  0.431339  1
  Co  Co11  1  0.000000  0.205085  0.569393  1
  Co  Co12  1  0.000000  0.794915  0.569393  1
  Co  Co13  1  0.500000  0.876038  0.709262  1
  Co  Co14  1  0.500000  0.123962  0.709262  1
  Co  Co15  1  0.000000  0.621766  0.291502  1
  Co  Co16  1  0.000000  0.378234  0.291502  1
  Co  Co17  1  0.500000  0.332936  0.992075  1
  Co  Co18  1  0.500000  0.667064  0.992075  1
  Co  Co19  1  0.000000  0.167265  0.006473  1
  Co  Co20  1  0.000000  0.832735  0.006473  1
  Co  Co21  1  0.000000  0.000000  0.840182  1
  Co  Co22  1  0.500000  0.500000  0.702082  1
  Co  Co23  1  0.000000  0.000000  0.294671  1
  P  P24  1  0.500000  0.315042  0.618392  1
  P  P25  1  0.500000  0.684958  0.618392  1
  P  P26  1  0.000000  0.188227  0.380984  1
  P  P27  1  0.000000  0.811773  0.380984  1
  P  P28  1  0.500000  0.500000  0.879030  1
  P  P29  1  0.000000  0.000000  0.118618  1
  P  P30  1  0.500000  0.845793  0.890020  1
  P  P31  1  0.500000  0.154207  0.890020  1
  P  P32  1  0.000000  0.656289  0.109308  1
  P  P33  1  0.000000  0.343711  0.109308  1
  P  P34  1  0.500000  0.500000  0.352113  1
  P  P35  1  0.000000  0.000000  0.654989  1
