# generated using pymatgen
data_Hf8ZrCoMo4
_symmetry_space_group_name_H-M   'P 1'
_cell_length_a   8.71291500
_cell_length_b   8.69355994
_cell_length_c   8.44811400
_cell_angle_alpha   90.00000000
_cell_angle_beta   90.00000000
_cell_angle_gamma   120.07366360
_symmetry_Int_Tables_number   1
_chemical_formula_structural   Hf8ZrCoMo4
_chemical_formula_sum   'Hf16 Zr2 Co2 Mo8'
_cell_volume   553.76904934
_cell_formula_units_Z   2
loop_
 _symmetry_equiv_pos_site_id
 _symmetry_equiv_pos_as_xyz
  1  'x, y, z'
loop_
 _atom_site_type_symbol
 _atom_site_label
 _atom_site_symmetry_multiplicity
 _atom_site_fract_x
 _atom_site_fract_y
 _atom_site_fract_z
 _atom_site_occupancy
  Hf  Hf0  1  0.200215  0.797487  0.059146  1
  Hf  Hf1  1  0.597272  0.797487  0.059146  1
  Hf  Hf2  1  0.798360  0.596720  0.558728  1
  Hf  Hf3  1  0.201640  0.403280  0.058728  1
  Hf  Hf4  1  0.799785  0.202513  0.559146  1
  Hf  Hf5  1  0.402728  0.202513  0.559146  1
  Hf  Hf6  1  0.798360  0.596720  0.941272  1
  Hf  Hf7  1  0.799785  0.202513  0.940854  1
  Hf  Hf8  1  0.402728  0.202513  0.940854  1
  Hf  Hf9  1  0.597272  0.797487  0.440854  1
  Hf  Hf10  1  0.200215  0.797487  0.440854  1
  Hf  Hf11  1  0.201640  0.403280  0.441272  1
  Hf  Hf12  1  0.915996  0.458518  0.250000  1
  Hf  Hf13  1  0.542521  0.458518  0.250000  1
  Hf  Hf14  1  0.457479  0.541482  0.750000  1
  Hf  Hf15  1  0.084004  0.541482  0.750000  1
  Zr  Zr16  1  0.542998  0.085997  0.250000  1
  Zr  Zr17  1  0.457002  0.914003  0.750000  1
  Co  Co18  1  0.667014  0.334027  0.750000  1
  Co  Co19  1  0.332986  0.665973  0.250000  1
  Mo  Mo20  1  0.000000  0.000000  0.000000  1
  Mo  Mo21  1  0.000000  0.000000  0.500000  1
  Mo  Mo22  1  0.887578  0.775156  0.250000  1
  Mo  Mo23  1  0.112422  0.224844  0.750000  1
  Mo  Mo24  1  0.223318  0.112240  0.250000  1
  Mo  Mo25  1  0.888922  0.112240  0.250000  1
  Mo  Mo26  1  0.111078  0.887760  0.750000  1
  Mo  Mo27  1  0.776682  0.887760  0.750000  1
