# generated using pymatgen
data_BeNb4Co4As3
_symmetry_space_group_name_H-M   'P 1'
_cell_length_a   3.68010700
_cell_length_b   6.26241047
_cell_length_c   7.13901252
_cell_angle_alpha   90.04389197
_cell_angle_beta   90.00000000
_cell_angle_gamma   90.00000000
_symmetry_Int_Tables_number   1
_chemical_formula_structural   BeNb4Co4As3
_chemical_formula_sum   'Be1 Nb4 Co4 As3'
_cell_volume   164.52806567
_cell_formula_units_Z   1
loop_
 _symmetry_equiv_pos_site_id
 _symmetry_equiv_pos_as_xyz
  1  'x, y, z'
loop_
 _atom_site_type_symbol
 _atom_site_label
 _atom_site_symmetry_multiplicity
 _atom_site_fract_x
 _atom_site_fract_y
 _atom_site_fract_z
 _atom_site_occupancy
  Be  Be0  1  0.250000  0.275508  0.619248  1
  Nb  Nb1  1  0.250000  0.034277  0.333440  1
  Nb  Nb2  1  0.250000  0.522876  0.179383  1
  Nb  Nb3  1  0.750000  0.994507  0.672544  1
  Nb  Nb4  1  0.750000  0.464109  0.810162  1
  Co  Co5  1  0.250000  0.148918  0.929539  1
  Co  Co6  1  0.250000  0.632154  0.563523  1
  Co  Co7  1  0.750000  0.853129  0.062121  1
  Co  Co8  1  0.750000  0.352986  0.450064  1
  As  As9  1  0.250000  0.771476  0.874701  1
  As  As10  1  0.750000  0.725352  0.382901  1
  As  As11  1  0.750000  0.224708  0.122374  1
