# generated using pymatgen
data_Ti6Al3AuO2
_symmetry_space_group_name_H-M   'P 1'
_cell_length_a   6.94403537
_cell_length_b   6.93141568
_cell_length_c   6.94176600
_cell_angle_alpha   90.00000000
_cell_angle_beta   90.00000000
_cell_angle_gamma   90.45261815
_symmetry_Int_Tables_number   1
_chemical_formula_structural   Ti6Al3AuO2
_chemical_formula_sum   'Ti12 Al6 Au2 O4'
_cell_volume   334.11062548
_cell_formula_units_Z   2
loop_
 _symmetry_equiv_pos_site_id
 _symmetry_equiv_pos_as_xyz
  1  'x, y, z'
loop_
 _atom_site_type_symbol
 _atom_site_label
 _atom_site_symmetry_multiplicity
 _atom_site_fract_x
 _atom_site_fract_y
 _atom_site_fract_z
 _atom_site_occupancy
  Ti  Ti0  1  0.786487  0.959329  0.375671  1
  Ti  Ti1  1  0.713513  0.040671  0.875671  1
  Ti  Ti2  1  0.209680  0.457247  0.124615  1
  Ti  Ti3  1  0.290320  0.542753  0.624615  1
  Ti  Ti4  1  0.954975  0.380081  0.788636  1
  Ti  Ti5  1  0.038970  0.870863  0.712535  1
  Ti  Ti6  1  0.461030  0.129137  0.212535  1
  Ti  Ti7  1  0.545025  0.619919  0.288636  1
  Ti  Ti8  1  0.379685  0.785130  0.958326  1
  Ti  Ti9  1  0.871110  0.708485  0.040755  1
  Ti  Ti10  1  0.120315  0.214870  0.458326  1
  Ti  Ti11  1  0.628890  0.291515  0.540755  1
  Al  Al12  1  0.823214  0.320934  0.176831  1
  Al  Al13  1  0.676786  0.679066  0.676831  1
  Al  Al14  1  0.568750  0.425689  0.928053  1
  Al  Al15  1  0.425847  0.930987  0.571276  1
  Al  Al16  1  0.931250  0.574311  0.428053  1
  Al  Al17  1  0.074153  0.069013  0.071276  1
  Au  Au18  1  0.181944  0.821849  0.319068  1
  Au  Au19  1  0.318056  0.178151  0.819068  1
  O  O20  1  0.878581  0.122486  0.626864  1
  O  O21  1  0.621419  0.877514  0.126864  1
  O  O22  1  0.127473  0.625220  0.877372  1
  O  O23  1  0.372527  0.374780  0.377372  1
