# generated using pymatgen
data_TbCrClO4
_symmetry_space_group_name_H-M   'P 1'
_cell_length_a   6.18250301
_cell_length_b   6.18250300
_cell_length_c   6.69526560
_cell_angle_alpha   102.43010206
_cell_angle_beta   102.43010445
_cell_angle_gamma   71.43682435
_symmetry_Int_Tables_number   1
_chemical_formula_structural   TbCrClO4
_chemical_formula_sum   'Tb2 Cr2 Cl2 O8'
_cell_volume   233.91972120
_cell_formula_units_Z   2
loop_
 _symmetry_equiv_pos_site_id
 _symmetry_equiv_pos_as_xyz
  1  'x, y, z'
loop_
 _atom_site_type_symbol
 _atom_site_label
 _atom_site_symmetry_multiplicity
 _atom_site_fract_x
 _atom_site_fract_y
 _atom_site_fract_z
 _atom_site_occupancy
  Tb  Tb0  1  0.776180  0.776180  0.386435  1
  Tb  Tb1  1  0.223820  0.223820  0.613565  1
  Cr  Cr2  1  0.359988  0.359988  0.230989  1
  Cr  Cr3  1  0.640012  0.640012  0.769011  1
  Cl  Cl4  1  0.012991  0.012991  0.262706  1
  Cl  Cl5  1  0.987009  0.987009  0.737293  1
  O  O6  1  0.712410  0.712410  0.019051  1
  O  O7  1  0.528685  0.528685  0.274063  1
  O  O8  1  0.489176  0.125052  0.350853  1
  O  O9  1  0.125052  0.489176  0.350853  1
  O  O10  1  0.874948  0.510825  0.649149  1
  O  O11  1  0.510825  0.874948  0.649149  1
  O  O12  1  0.471315  0.471315  0.725937  1
  O  O13  1  0.287590  0.287590  0.980949  1
