# generated using pymatgen
data_Hf4Ti3NbP4
_symmetry_space_group_name_H-M   'P 1'
_cell_length_a   3.53270800
_cell_length_b   6.75071920
_cell_length_c   8.21227225
_cell_angle_alpha   89.97205122
_cell_angle_beta   90.00000000
_cell_angle_gamma   90.00000000
_symmetry_Int_Tables_number   1
_chemical_formula_structural   Hf4Ti3NbP4
_chemical_formula_sum   'Hf4 Ti3 Nb1 P4'
_cell_volume   195.84887086
_cell_formula_units_Z   1
loop_
 _symmetry_equiv_pos_site_id
 _symmetry_equiv_pos_as_xyz
  1  'x, y, z'
loop_
 _atom_site_type_symbol
 _atom_site_label
 _atom_site_symmetry_multiplicity
 _atom_site_fract_x
 _atom_site_fract_y
 _atom_site_fract_z
 _atom_site_occupancy
  Hf  Hf0  1  0.250000  0.033057  0.665916  1
  Hf  Hf1  1  0.250000  0.535191  0.830491  1
  Hf  Hf2  1  0.750000  0.464409  0.170455  1
  Hf  Hf3  1  0.750000  0.964453  0.332778  1
  Ti  Ti4  1  0.750000  0.863226  0.940961  1
  Ti  Ti5  1  0.250000  0.636987  0.440872  1
  Ti  Ti6  1  0.750000  0.364979  0.560374  1
  Nb  Nb7  1  0.250000  0.138885  0.058701  1
  P  P8  1  0.250000  0.264435  0.363658  1
  P  P9  1  0.250000  0.760694  0.142471  1
  P  P10  1  0.750000  0.736822  0.641297  1
  P  P11  1  0.750000  0.236862  0.852025  1
