# generated using pymatgen
data_Er8Ga12Pd3Au
_symmetry_space_group_name_H-M   'P 1'
_cell_length_a   7.02902400
_cell_length_b   8.87529704
_cell_length_c   8.87529700
_cell_angle_alpha   119.99999613
_cell_angle_beta   90.00000000
_cell_angle_gamma   90.00000000
_symmetry_Int_Tables_number   1
_chemical_formula_structural   Er8Ga12Pd3Au
_chemical_formula_sum   'Er8 Ga12 Pd3 Au1'
_cell_volume   479.50315245
_cell_formula_units_Z   1
loop_
 _symmetry_equiv_pos_site_id
 _symmetry_equiv_pos_as_xyz
  1  'x, y, z'
loop_
 _atom_site_type_symbol
 _atom_site_label
 _atom_site_symmetry_multiplicity
 _atom_site_fract_x
 _atom_site_fract_y
 _atom_site_fract_z
 _atom_site_occupancy
  Er  Er0  1  0.754426  0.000000  0.000000  1
  Er  Er1  1  0.249980  0.000000  0.000000  1
  Er  Er2  1  0.750926  0.481965  0.518035  1
  Er  Er3  1  0.247051  0.515320  0.484680  1
  Er  Er4  1  0.750926  0.036071  0.518035  1
  Er  Er5  1  0.247051  0.969359  0.484680  1
  Er  Er6  1  0.750926  0.481965  0.963929  1
  Er  Er7  1  0.247051  0.515320  0.030641  1
  Ga  Ga8  1  0.958979  0.832555  0.167445  1
  Ga  Ga9  1  0.040620  0.166631  0.833369  1
  Ga  Ga10  1  0.958979  0.334892  0.167445  1
  Ga  Ga11  1  0.455351  0.167363  0.832637  1
  Ga  Ga12  1  0.040620  0.666736  0.833369  1
  Ga  Ga13  1  0.543303  0.836695  0.163305  1
  Ga  Ga14  1  0.958979  0.832555  0.665108  1
  Ga  Ga15  1  0.455351  0.665274  0.832637  1
  Ga  Ga16  1  0.040620  0.166631  0.333264  1
  Ga  Ga17  1  0.543303  0.326610  0.163305  1
  Ga  Ga18  1  0.455351  0.167363  0.334726  1
  Ga  Ga19  1  0.543303  0.836695  0.673390  1
  Pd  Pd20  1  0.972801  0.666667  0.333333  1
  Pd  Pd21  1  0.028891  0.333333  0.666667  1
  Pd  Pd22  1  0.470373  0.333333  0.666667  1
  Au  Au23  1  0.534836  0.666667  0.333333  1
