# generated using pymatgen
data_Y11In9(NiAu)2
_symmetry_space_group_name_H-M   'P 1'
_cell_length_a   13.14548132
_cell_length_b   13.17619666
_cell_length_c   3.65951400
_cell_angle_alpha   90.00000000
_cell_angle_beta   90.00000000
_cell_angle_gamma   110.73772726
_symmetry_Int_Tables_number   1
_chemical_formula_structural   Y11In9(NiAu)2
_chemical_formula_sum   'Y11 In9 Ni2 Au2'
_cell_volume   592.78828994
_cell_formula_units_Z   1
loop_
 _symmetry_equiv_pos_site_id
 _symmetry_equiv_pos_as_xyz
  1  'x, y, z'
loop_
 _atom_site_type_symbol
 _atom_site_label
 _atom_site_symmetry_multiplicity
 _atom_site_fract_x
 _atom_site_fract_y
 _atom_site_fract_z
 _atom_site_occupancy
  Y  Y0  1  0.067941  0.416992  0.000000  1
  Y  Y1  1  0.932059  0.583008  0.000000  1
  Y  Y2  1  0.419705  0.075798  0.000000  1
  Y  Y3  1  0.580295  0.924202  0.000000  1
  Y  Y4  1  0.619050  0.360810  0.000000  1
  Y  Y5  1  0.380950  0.639190  0.000000  1
  Y  Y6  1  0.840502  0.157156  0.000000  1
  Y  Y7  1  0.159498  0.842844  0.000000  1
  Y  Y8  1  0.000000  0.000000  0.000000  1
  Y  Y9  1  0.316584  0.302313  0.000000  1
  Y  Y10  1  0.683416  0.697687  0.000000  1
  In  In11  1  0.841686  0.365222  0.500000  1
  In  In12  1  0.158314  0.634778  0.500000  1
  In  In13  1  0.368329  0.844685  0.500000  1
  In  In14  1  0.631671  0.155315  0.500000  1
  In  In15  1  0.070904  0.215566  0.500000  1
  In  In16  1  0.929096  0.784434  0.500000  1
  In  In17  1  0.218642  0.072718  0.500000  1
  In  In18  1  0.781358  0.927282  0.500000  1
  In  In19  1  0.500000  0.500000  0.500000  1
  Ni  Ni20  1  0.451312  0.244607  0.500000  1
  Ni  Ni21  1  0.548688  0.755393  0.500000  1
  Au  Au22  1  0.253617  0.452565  0.500000  1
  Au  Au23  1  0.746383  0.547435  0.500000  1
