# generated using pymatgen
data_Tm10Tl3Fe
_symmetry_space_group_name_H-M   'P 1'
_cell_length_a   9.58701700
_cell_length_b   9.58701652
_cell_length_c   9.55202200
_cell_angle_alpha   90.00000000
_cell_angle_beta   90.00000000
_cell_angle_gamma   119.99999821
_symmetry_Int_Tables_number   1
_chemical_formula_structural   Tm10Tl3Fe
_chemical_formula_sum   'Tm20 Tl6 Fe2'
_cell_volume   760.31389361
_cell_formula_units_Z   2
loop_
 _symmetry_equiv_pos_site_id
 _symmetry_equiv_pos_as_xyz
  1  'x, y, z'
loop_
 _atom_site_type_symbol
 _atom_site_label
 _atom_site_symmetry_multiplicity
 _atom_site_fract_x
 _atom_site_fract_y
 _atom_site_fract_z
 _atom_site_occupancy
  Tm  Tm0  1  0.000000  0.000000  0.500000  1
  Tm  Tm1  1  0.000000  0.000000  0.000000  1
  Tm  Tm2  1  0.539418  0.460582  0.250000  1
  Tm  Tm3  1  0.539418  0.078836  0.250000  1
  Tm  Tm4  1  0.921164  0.460582  0.250000  1
  Tm  Tm5  1  0.460582  0.539418  0.750000  1
  Tm  Tm6  1  0.460582  0.921164  0.750000  1
  Tm  Tm7  1  0.078836  0.539418  0.750000  1
  Tm  Tm8  1  0.213127  0.786873  0.434401  1
  Tm  Tm9  1  0.213127  0.426253  0.434401  1
  Tm  Tm10  1  0.573747  0.786873  0.434401  1
  Tm  Tm11  1  0.786873  0.213127  0.565599  1
  Tm  Tm12  1  0.786873  0.573747  0.565599  1
  Tm  Tm13  1  0.426253  0.213127  0.565599  1
  Tm  Tm14  1  0.786873  0.213127  0.934401  1
  Tm  Tm15  1  0.786873  0.573747  0.934401  1
  Tm  Tm16  1  0.426253  0.213127  0.934401  1
  Tm  Tm17  1  0.213127  0.786873  0.065599  1
  Tm  Tm18  1  0.213127  0.426253  0.065599  1
  Tm  Tm19  1  0.573747  0.786873  0.065599  1
  Tl  Tl20  1  0.881221  0.118779  0.250000  1
  Tl  Tl21  1  0.881221  0.762441  0.250000  1
  Tl  Tl22  1  0.237559  0.118779  0.250000  1
  Tl  Tl23  1  0.118779  0.881221  0.750000  1
  Tl  Tl24  1  0.118779  0.237559  0.750000  1
  Tl  Tl25  1  0.762441  0.881221  0.750000  1
  Fe  Fe26  1  0.333333  0.666667  0.250000  1
  Fe  Fe27  1  0.666667  0.333333  0.750000  1
