# generated using pymatgen
data_CaSm5GdOsBr12
_symmetry_space_group_name_H-M   'P 1'
_cell_length_a   9.43551478
_cell_length_b   9.35009681
_cell_length_c   9.37551280
_cell_angle_alpha   106.79633524
_cell_angle_beta   107.08890475
_cell_angle_gamma   106.88799056
_symmetry_Int_Tables_number   1
_chemical_formula_structural   CaSm5GdOsBr12
_chemical_formula_sum   'Ca1 Sm5 Gd1 Os1 Br12'
_cell_volume   690.25831412
_cell_formula_units_Z   1
loop_
 _symmetry_equiv_pos_site_id
 _symmetry_equiv_pos_as_xyz
  1  'x, y, z'
loop_
 _atom_site_type_symbol
 _atom_site_label
 _atom_site_symmetry_multiplicity
 _atom_site_fract_x
 _atom_site_fract_y
 _atom_site_fract_z
 _atom_site_occupancy
  Ca  Ca0  1  0.499992  0.499725  0.499673  1
  Sm  Sm1  1  0.026190  0.313619  0.103976  1
  Sm  Sm2  1  0.103394  0.026925  0.313514  1
  Sm  Sm3  1  0.897846  0.973381  0.686572  1
  Sm  Sm4  1  0.974619  0.686488  0.895876  1
  Sm  Sm5  1  0.679710  0.894756  0.974558  1
  Gd  Gd6  1  0.318886  0.104985  0.025456  1
  Os  Os7  1  0.999831  0.999801  0.999926  1
  Br  Br8  1  0.680678  0.223538  0.070465  1
  Br  Br9  1  0.380131  0.457464  0.161225  1
  Br  Br10  1  0.069837  0.682311  0.222652  1
  Br  Br11  1  0.777328  0.930106  0.318239  1
  Br  Br12  1  0.456601  0.160042  0.379092  1
  Br  Br13  1  0.161358  0.381394  0.457550  1
  Br  Br14  1  0.838621  0.618697  0.542416  1
  Br  Br15  1  0.544049  0.840426  0.621055  1
  Br  Br16  1  0.222754  0.069854  0.681896  1
  Br  Br17  1  0.929949  0.317587  0.777337  1
  Br  Br18  1  0.620404  0.542138  0.838856  1
  Br  Br19  1  0.317825  0.776767  0.929671  1
