# generated using pymatgen
data_K(VBr3)2
_symmetry_space_group_name_H-M   'P 1'
_cell_length_a   8.71804788
_cell_length_b   8.48011718
_cell_length_c   8.27842673
_cell_angle_alpha   130.26283079
_cell_angle_beta   113.98717907
_cell_angle_gamma   42.56453470
_symmetry_Int_Tables_number   1
_chemical_formula_structural   K(VBr3)2
_chemical_formula_sum   'K1 V2 Br6'
_cell_volume   313.03293384
_cell_formula_units_Z   1
loop_
 _symmetry_equiv_pos_site_id
 _symmetry_equiv_pos_as_xyz
  1  'x, y, z'
loop_
 _atom_site_type_symbol
 _atom_site_label
 _atom_site_symmetry_multiplicity
 _atom_site_fract_x
 _atom_site_fract_y
 _atom_site_fract_z
 _atom_site_occupancy
  K  K0  1  0.129365  0.068560  0.103176  1
  V  V1  1  0.136234  0.573084  0.119495  1
  V  V2  1  0.634075  0.075308  0.119546  1
  Br  Br3  1  0.904316  0.104190  0.398827  1
  Br  Br4  1  0.501792  0.465549  0.118060  1
  Br  Br5  1  0.366452  0.042252  0.838051  1
  Br  Br6  1  0.287055  0.466648  0.406532  1
  Br  Br7  1  0.768161  0.686804  0.125551  1
  Br  Br8  1  0.982834  0.681103  0.832280  1
