# generated using pymatgen
data_K2BaPrB24
_symmetry_space_group_name_H-M   'P 1'
_cell_length_a   7.30266340
_cell_length_b   7.30266356
_cell_length_c   5.96611100
_cell_angle_alpha   90.00000000
_cell_angle_beta   90.00000000
_cell_angle_gamma   109.41731125
_symmetry_Int_Tables_number   1
_chemical_formula_structural   K2BaPrB24
_chemical_formula_sum   'K2 Ba1 Pr1 B24'
_cell_volume   300.06953082
_cell_formula_units_Z   1
loop_
 _symmetry_equiv_pos_site_id
 _symmetry_equiv_pos_as_xyz
  1  'x, y, z'
loop_
 _atom_site_type_symbol
 _atom_site_label
 _atom_site_symmetry_multiplicity
 _atom_site_fract_x
 _atom_site_fract_y
 _atom_site_fract_z
 _atom_site_occupancy
  K  K0  1  0.750259  0.249741  0.500000  1
  K  K1  1  0.249741  0.750259  0.500000  1
  Ba  Ba2  1  0.000000  0.000000  0.000000  1
  Pr  Pr3  1  0.500000  0.500000  0.000000  1
  B  B4  1  0.177010  0.327314  0.647667  1
  B  B5  1  0.925078  0.573122  0.149896  1
  B  B6  1  0.672686  0.822990  0.647668  1
  B  B7  1  0.426877  0.074922  0.149897  1
  B  B8  1  0.177010  0.327314  0.352333  1
  B  B9  1  0.925078  0.573122  0.850104  1
  B  B10  1  0.672686  0.822990  0.352332  1
  B  B11  1  0.426877  0.074922  0.850103  1
  B  B12  1  0.400231  0.400231  0.500000  1
  B  B13  1  0.148887  0.649203  0.000000  1
  B  B14  1  0.897774  0.897774  0.500000  1
  B  B15  1  0.649203  0.148887  0.000000  1
  B  B16  1  0.327314  0.177010  0.647668  1
  B  B17  1  0.074922  0.426878  0.149896  1
  B  B18  1  0.822990  0.672686  0.647667  1
  B  B19  1  0.573123  0.925078  0.149897  1
  B  B20  1  0.102226  0.102226  0.500000  1
  B  B21  1  0.851113  0.350797  0.000000  1
  B  B22  1  0.599769  0.599769  0.500000  1
  B  B23  1  0.350797  0.851113  0.000000  1
  B  B24  1  0.327314  0.177010  0.352332  1
  B  B25  1  0.074922  0.426878  0.850104  1
  B  B26  1  0.822990  0.672686  0.352333  1
  B  B27  1  0.573123  0.925078  0.850103  1
