# generated using pymatgen
data_Ba12SiGe(AsI4)2
_symmetry_space_group_name_H-M   'P 1'
_cell_length_a   16.40744790
_cell_length_b   15.65010445
_cell_length_c   8.68375208
_cell_angle_alpha   79.15747775
_cell_angle_beta   69.52312699
_cell_angle_gamma   31.12051530
_symmetry_Int_Tables_number   1
_chemical_formula_structural   Ba12SiGe(AsI4)2
_chemical_formula_sum   'Ba12 Si1 Ge1 As2 I8'
_cell_volume   1050.68012089
_cell_formula_units_Z   1
loop_
 _symmetry_equiv_pos_site_id
 _symmetry_equiv_pos_as_xyz
  1  'x, y, z'
loop_
 _atom_site_type_symbol
 _atom_site_label
 _atom_site_symmetry_multiplicity
 _atom_site_fract_x
 _atom_site_fract_y
 _atom_site_fract_z
 _atom_site_occupancy
  Ba  Ba0  1  0.377830  0.941561  0.588865  1
  Ba  Ba1  1  0.586790  0.093500  0.376300  1
  Ba  Ba2  1  0.309159  0.871227  0.156512  1
  Ba  Ba3  1  0.941561  0.377830  0.091745  1
  Ba  Ba4  1  0.461723  0.039352  0.038489  1
  Ba  Ba5  1  0.871227  0.309159  0.663102  1
  Ba  Ba6  1  0.093500  0.586790  0.943410  1
  Ba  Ba7  1  0.658518  0.159787  0.874208  1
  Ba  Ba8  1  0.787789  0.212696  0.211241  1
  Ba  Ba9  1  0.212696  0.787789  0.788274  1
  Ba  Ba10  1  0.159787  0.658518  0.307487  1
  Ba  Ba11  1  0.039352  0.461723  0.460437  1
  Si  Si12  1  0.333906  0.333906  0.166094  1
  Ge  Ge13  1  0.084222  0.084222  0.915778  1
  As  As14  1  0.916330  0.916330  0.083670  1
  As  As15  1  0.165384  0.165384  0.334616  1
  I  I16  1  0.671745  0.671745  0.828255  1
  I  I17  1  0.746360  0.746360  0.253640  1
  I  I18  1  0.253068  0.253068  0.746932  1
  I  I19  1  0.578268  0.578268  0.421732  1
  I  I20  1  0.996771  0.996771  0.503229  1
  I  I21  1  0.828372  0.828372  0.671628  1
  I  I22  1  0.421967  0.421967  0.578033  1
  I  I23  1  0.503676  0.503676  0.996324  1
