# generated using pymatgen
data_NiRuI18
_symmetry_space_group_name_H-M   'P 1'
_cell_length_a   9.87588734
_cell_length_b   9.87588579
_cell_length_c   9.87588469
_cell_angle_alpha   92.20386595
_cell_angle_beta   92.20385951
_cell_angle_gamma   92.20386219
_symmetry_Int_Tables_number   1
_chemical_formula_structural   NiRuI18
_chemical_formula_sum   'Ni1 Ru1 I18'
_cell_volume   961.03209584
_cell_formula_units_Z   1
loop_
 _symmetry_equiv_pos_site_id
 _symmetry_equiv_pos_as_xyz
  1  'x, y, z'
loop_
 _atom_site_type_symbol
 _atom_site_label
 _atom_site_symmetry_multiplicity
 _atom_site_fract_x
 _atom_site_fract_y
 _atom_site_fract_z
 _atom_site_occupancy
  Ni  Ni0  1  0.000000  0.000000  0.000000  1
  Ru  Ru1  1  0.500000  0.500000  0.500000  1
  I  I2  1  0.268263  0.999500  0.025182  1
  I  I3  1  0.025182  0.268263  0.999500  1
  I  I4  1  0.999500  0.025182  0.268263  1
  I  I5  1  0.731737  0.000500  0.974818  1
  I  I6  1  0.974818  0.731737  0.000500  1
  I  I7  1  0.000500  0.974818  0.731737  1
  I  I8  1  0.627380  0.243480  0.115960  1
  I  I9  1  0.115960  0.627380  0.243480  1
  I  I10  1  0.243480  0.115960  0.627380  1
  I  I11  1  0.372620  0.756520  0.884040  1
  I  I12  1  0.884040  0.372620  0.756520  1
  I  I13  1  0.756520  0.884040  0.372620  1
  I  I14  1  0.490067  0.227408  0.510878  1
  I  I15  1  0.510878  0.490067  0.227408  1
  I  I16  1  0.227408  0.510878  0.490067  1
  I  I17  1  0.509933  0.772592  0.489122  1
  I  I18  1  0.489122  0.509933  0.772592  1
  I  I19  1  0.772592  0.489122  0.509933  1
