# generated using pymatgen
data_Lu3Ga5Rh
_symmetry_space_group_name_H-M   'P 1'
_cell_length_a   6.85669300
_cell_length_b   6.85669297
_cell_length_c   4.22170500
_cell_angle_alpha   90.00000000
_cell_angle_beta   90.00000000
_cell_angle_gamma   120.00000497
_symmetry_Int_Tables_number   1
_chemical_formula_structural   Lu3Ga5Rh
_chemical_formula_sum   'Lu3 Ga5 Rh1'
_cell_volume   171.88892704
_cell_formula_units_Z   1
loop_
 _symmetry_equiv_pos_site_id
 _symmetry_equiv_pos_as_xyz
  1  'x, y, z'
loop_
 _atom_site_type_symbol
 _atom_site_label
 _atom_site_symmetry_multiplicity
 _atom_site_fract_x
 _atom_site_fract_y
 _atom_site_fract_z
 _atom_site_occupancy
  Lu  Lu0  1  0.589868  0.000000  0.500000  1
  Lu  Lu1  1  0.410132  0.410132  0.500000  1
  Lu  Lu2  1  0.000000  0.589868  0.500000  1
  Ga  Ga3  1  0.239172  0.000000  0.000000  1
  Ga  Ga4  1  0.000000  0.239172  0.000000  1
  Ga  Ga5  1  0.666667  0.333333  0.000000  1
  Ga  Ga6  1  0.333333  0.666667  0.000000  1
  Ga  Ga7  1  0.760828  0.760828  0.000000  1
  Rh  Rh8  1  0.000000  0.000000  0.500000  1
