# generated using pymatgen
data_Hf4(Pd3Pt)3
_symmetry_space_group_name_H-M   'P 1'
_cell_length_a   5.67761300
_cell_length_b   5.68212944
_cell_length_c   9.30444235
_cell_angle_alpha   89.64275870
_cell_angle_beta   90.00000000
_cell_angle_gamma   119.97370424
_symmetry_Int_Tables_number   1
_chemical_formula_structural   Hf4(Pd3Pt)3
_chemical_formula_sum   'Hf4 Pd9 Pt3'
_cell_volume   260.01694793
_cell_formula_units_Z   1
loop_
 _symmetry_equiv_pos_site_id
 _symmetry_equiv_pos_as_xyz
  1  'x, y, z'
loop_
 _atom_site_type_symbol
 _atom_site_label
 _atom_site_symmetry_multiplicity
 _atom_site_fract_x
 _atom_site_fract_y
 _atom_site_fract_z
 _atom_site_occupancy
  Hf  Hf0  1  0.666655  0.333309  0.749629  1
  Hf  Hf1  1  0.333345  0.666691  0.250371  1
  Hf  Hf2  1  0.000000  0.000000  0.500000  1
  Hf  Hf3  1  0.000000  0.000000  0.000000  1
  Pd  Pd4  1  0.168429  0.336858  0.750156  1
  Pd  Pd5  1  0.831410  0.168645  0.249096  1
  Pd  Pd6  1  0.337235  0.168645  0.249096  1
  Pd  Pd7  1  0.662765  0.831355  0.750904  1
  Pd  Pd8  1  0.000000  0.500000  0.000000  1
  Pd  Pd9  1  0.500000  0.500000  0.000000  1
  Pd  Pd10  1  0.500000  0.000000  0.500000  1
  Pd  Pd11  1  0.831571  0.663142  0.249844  1
  Pd  Pd12  1  0.168590  0.831355  0.750904  1
  Pt  Pt13  1  0.500000  0.000000  0.000000  1
  Pt  Pt14  1  0.500000  0.500000  0.500000  1
  Pt  Pt15  1  0.000000  0.500000  0.500000  1
