# generated using pymatgen
data_Yb4ScRe4(B8W)3
_symmetry_space_group_name_H-M   'P 1'
_cell_length_a   3.52199000
_cell_length_b   8.88859948
_cell_length_c   11.24740362
_cell_angle_alpha   90.03795034
_cell_angle_beta   90.00000000
_cell_angle_gamma   90.00000000
_symmetry_Int_Tables_number   1
_chemical_formula_structural   Yb4ScRe4(B8W)3
_chemical_formula_sum   'Yb4 Sc1 Re4 B24 W3'
_cell_volume   352.10617476
_cell_formula_units_Z   1
loop_
 _symmetry_equiv_pos_site_id
 _symmetry_equiv_pos_as_xyz
  1  'x, y, z'
loop_
 _atom_site_type_symbol
 _atom_site_label
 _atom_site_symmetry_multiplicity
 _atom_site_fract_x
 _atom_site_fract_y
 _atom_site_fract_z
 _atom_site_occupancy
  Yb  Yb0  1  0.000000  0.322267  0.414389  1
  Yb  Yb1  1  0.000000  0.677604  0.584935  1
  Yb  Yb2  1  0.000000  0.823866  0.085815  1
  Yb  Yb3  1  0.000000  0.177712  0.914986  1
  Sc  Sc4  1  0.000000  0.552986  0.873248  1
  Re  Re5  1  0.000000  0.645790  0.317493  1
  Re  Re6  1  0.000000  0.349325  0.680634  1
  Re  Re7  1  0.000000  0.146509  0.186108  1
  Re  Re8  1  0.000000  0.860638  0.812634  1
  B  B9  1  0.500000  0.554719  0.433475  1
  B  B10  1  0.500000  0.443965  0.566193  1
  B  B11  1  0.500000  0.055998  0.067159  1
  B  B12  1  0.500000  0.947560  0.932384  1
  B  B13  1  0.500000  0.756792  0.417922  1
  B  B14  1  0.500000  0.241645  0.580219  1
  B  B15  1  0.500000  0.257115  0.084029  1
  B  B16  1  0.500000  0.747159  0.916352  1
  B  B17  1  0.500000  0.800251  0.261711  1
  B  B18  1  0.500000  0.199850  0.735779  1
  B  B19  1  0.500000  0.299616  0.239463  1
  B  B20  1  0.500000  0.701704  0.762004  1
  B  B21  1  0.500000  0.630298  0.179764  1
  B  B22  1  0.500000  0.366767  0.818548  1
  B  B23  1  0.500000  0.130075  0.321523  1
  B  B24  1  0.500000  0.869462  0.678896  1
  B  B25  1  0.500000  0.981813  0.213410  1
  B  B26  1  0.500000  0.019155  0.784863  1
  B  B27  1  0.500000  0.483030  0.287503  1
  B  B28  1  0.500000  0.514494  0.713106  1
  B  B29  1  0.500000  0.596708  0.028574  1
  B  B30  1  0.500000  0.401040  0.978372  1
  B  B31  1  0.500000  0.096190  0.473708  1
  B  B32  1  0.500000  0.901703  0.524464  1
  W  W33  1  0.000000  0.945661  0.375669  1
  W  W34  1  0.000000  0.053656  0.627468  1
  W  W35  1  0.000000  0.446874  0.127199  1
