# generated using pymatgen
data_Cs4Li2ErInSb4
_symmetry_space_group_name_H-M   'P 1'
_cell_length_a   11.50461928
_cell_length_b   11.50461797
_cell_length_c   7.21262900
_cell_angle_alpha   90.00000000
_cell_angle_beta   90.00000000
_cell_angle_gamma   103.31040231
_symmetry_Int_Tables_number   1
_chemical_formula_structural   Cs4Li2ErInSb4
_chemical_formula_sum   'Cs8 Li4 Er2 In2 Sb8'
_cell_volume   928.99220996
_cell_formula_units_Z   2
loop_
 _symmetry_equiv_pos_site_id
 _symmetry_equiv_pos_as_xyz
  1  'x, y, z'
loop_
 _atom_site_type_symbol
 _atom_site_label
 _atom_site_symmetry_multiplicity
 _atom_site_fract_x
 _atom_site_fract_y
 _atom_site_fract_z
 _atom_site_occupancy
  Cs  Cs0  1  0.572557  0.927443  0.750000  1
  Cs  Cs1  1  0.927443  0.572557  0.250000  1
  Cs  Cs2  1  0.423272  0.076728  0.250000  1
  Cs  Cs3  1  0.076728  0.423272  0.750000  1
  Cs  Cs4  1  0.670181  0.323034  0.775121  1
  Cs  Cs5  1  0.829819  0.176966  0.275121  1
  Cs  Cs6  1  0.323034  0.670181  0.224879  1
  Cs  Cs7  1  0.176966  0.829819  0.724879  1
  Li  Li8  1  0.619226  0.619226  0.000000  1
  Li  Li9  1  0.880774  0.880774  0.500000  1
  Li  Li10  1  0.377443  0.377443  0.000000  1
  Li  Li11  1  0.122557  0.122557  0.500000  1
  Er  Er12  1  0.873897  0.873897  0.000000  1
  Er  Er13  1  0.626103  0.626103  0.500000  1
  In  In14  1  0.130735  0.130735  0.000000  1
  In  In15  1  0.369265  0.369265  0.500000  1
  Sb  Sb16  1  0.340463  0.159537  0.750000  1
  Sb  Sb17  1  0.159537  0.340463  0.250000  1
  Sb  Sb18  1  0.660640  0.839360  0.250000  1
  Sb  Sb19  1  0.839360  0.660640  0.750000  1
  Sb  Sb20  1  0.913526  0.093585  0.764090  1
  Sb  Sb21  1  0.586474  0.406415  0.264090  1
  Sb  Sb22  1  0.093585  0.913526  0.235910  1
  Sb  Sb23  1  0.406415  0.586474  0.735910  1
