# generated using pymatgen
data_BaSr11(SiI2)4
_symmetry_space_group_name_H-M   'P 1'
_cell_length_a   15.88353221
_cell_length_b   15.14164212
_cell_length_c   8.41194187
_cell_angle_alpha   79.02784300
_cell_angle_beta   69.45542439
_cell_angle_gamma   31.34680298
_symmetry_Int_Tables_number   1
_chemical_formula_structural   BaSr11(SiI2)4
_chemical_formula_sum   'Ba1 Sr11 Si4 I8'
_cell_volume   960.34734836
_cell_formula_units_Z   1
loop_
 _symmetry_equiv_pos_site_id
 _symmetry_equiv_pos_as_xyz
  1  'x, y, z'
loop_
 _atom_site_type_symbol
 _atom_site_label
 _atom_site_symmetry_multiplicity
 _atom_site_fract_x
 _atom_site_fract_y
 _atom_site_fract_z
 _atom_site_occupancy
  Ba  Ba0  1  0.039795  0.460205  0.460205  1
  Sr  Sr1  1  0.363210  0.949805  0.588661  1
  Sr  Sr2  1  0.590235  0.096292  0.361039  1
  Sr  Sr3  1  0.299032  0.884184  0.152780  1
  Sr  Sr4  1  0.952435  0.361039  0.096292  1
  Sr  Sr5  1  0.450693  0.049307  0.049307  1
  Sr  Sr6  1  0.888046  0.296260  0.659978  1
  Sr  Sr7  1  0.098325  0.588661  0.949805  1
  Sr  Sr8  1  0.664002  0.152780  0.884184  1
  Sr  Sr9  1  0.800481  0.199519  0.199519  1
  Sr  Sr10  1  0.199770  0.800230  0.800230  1
  Sr  Sr11  1  0.155715  0.659978  0.296260  1
  Si  Si12  1  0.083692  0.084093  0.915358  1
  Si  Si13  1  0.916857  0.915358  0.084093  1
  Si  Si14  1  0.167939  0.161433  0.332586  1
  Si  Si15  1  0.338042  0.332586  0.161433  1
  I  I16  1  0.665456  0.676368  0.834539  1
  I  I17  1  0.739898  0.749442  0.248994  1
  I  I18  1  0.261666  0.248994  0.749442  1
  I  I19  1  0.577912  0.576200  0.423119  1
  I  I20  1  0.994831  0.994523  0.505084  1
  I  I21  1  0.823637  0.834539  0.676368  1
  I  I22  1  0.422769  0.423119  0.576200  1
  I  I23  1  0.505563  0.505084  0.994523  1
