# generated using pymatgen
data_Tb8Yb3Pr8ScSi16
_symmetry_space_group_name_H-M   'P 1'
_cell_length_a   7.48885412
_cell_length_b   7.86222166
_cell_length_c   14.95135400
_cell_angle_alpha   90.00000000
_cell_angle_beta   90.00000000
_cell_angle_gamma   89.93456528
_symmetry_Int_Tables_number   1
_chemical_formula_structural   Tb8Yb3Pr8ScSi16
_chemical_formula_sum   'Tb8 Yb3 Pr8 Sc1 Si16'
_cell_volume   880.32066248
_cell_formula_units_Z   1
loop_
 _symmetry_equiv_pos_site_id
 _symmetry_equiv_pos_as_xyz
  1  'x, y, z'
loop_
 _atom_site_type_symbol
 _atom_site_label
 _atom_site_symmetry_multiplicity
 _atom_site_fract_x
 _atom_site_fract_y
 _atom_site_fract_z
 _atom_site_occupancy
  Tb  Tb0  1  0.322565  0.181525  0.624828  1
  Tb  Tb1  1  0.677350  0.817614  0.377302  1
  Tb  Tb2  1  0.177007  0.681920  0.377944  1
  Tb  Tb3  1  0.821815  0.318261  0.875218  1
  Tb  Tb4  1  0.821815  0.318261  0.624782  1
  Tb  Tb5  1  0.322565  0.181525  0.875172  1
  Tb  Tb6  1  0.177007  0.681920  0.122056  1
  Tb  Tb7  1  0.677350  0.817614  0.122698  1
  Yb  Yb8  1  0.652640  0.987470  0.750000  1
  Yb  Yb9  1  0.847570  0.487960  0.250000  1
  Yb  Yb10  1  0.346258  0.012558  0.250000  1
  Pr  Pr11  1  0.025723  0.181879  0.401592  1
  Pr  Pr12  1  0.526358  0.318327  0.401110  1
  Pr  Pr13  1  0.476154  0.681246  0.899094  1
  Pr  Pr14  1  0.476154  0.681246  0.600906  1
  Pr  Pr15  1  0.975230  0.819801  0.599823  1
  Pr  Pr16  1  0.975230  0.819801  0.900177  1
  Pr  Pr17  1  0.526358  0.318327  0.098890  1
  Pr  Pr18  1  0.025723  0.181879  0.098408  1
  Sc  Sc19  1  0.152469  0.511638  0.750000  1
  Si  Si20  1  0.261490  0.874051  0.750000  1
  Si  Si21  1  0.468143  0.606793  0.250000  1
  Si  Si22  1  0.032229  0.110544  0.750000  1
  Si  Si23  1  0.520082  0.401123  0.750000  1
  Si  Si24  1  0.145925  0.470045  0.541335  1
  Si  Si25  1  0.968211  0.892200  0.250000  1
  Si  Si26  1  0.735071  0.111885  0.250000  1
  Si  Si27  1  0.853031  0.531936  0.034130  1
  Si  Si28  1  0.352232  0.966377  0.034190  1
  Si  Si29  1  0.145925  0.470045  0.958665  1
  Si  Si30  1  0.647155  0.033478  0.535410  1
  Si  Si31  1  0.352232  0.966377  0.465810  1
  Si  Si32  1  0.853031  0.531936  0.465870  1
  Si  Si33  1  0.780207  0.610461  0.750000  1
  Si  Si34  1  0.234538  0.388497  0.250000  1
  Si  Si35  1  0.647155  0.033478  0.964590  1
