# generated using pymatgen
data_Gd3Al3GePd2
_symmetry_space_group_name_H-M   'P 1'
_cell_length_a   7.07949900
_cell_length_b   7.07949877
_cell_length_c   4.20519900
_cell_angle_alpha   90.00000000
_cell_angle_beta   90.00000000
_cell_angle_gamma   119.99999641
_symmetry_Int_Tables_number   1
_chemical_formula_structural   Gd3Al3GePd2
_chemical_formula_sum   'Gd3 Al3 Ge1 Pd2'
_cell_volume   182.52494871
_cell_formula_units_Z   1
loop_
 _symmetry_equiv_pos_site_id
 _symmetry_equiv_pos_as_xyz
  1  'x, y, z'
loop_
 _atom_site_type_symbol
 _atom_site_label
 _atom_site_symmetry_multiplicity
 _atom_site_fract_x
 _atom_site_fract_y
 _atom_site_fract_z
 _atom_site_occupancy
  Gd  Gd0  1  0.997033  0.580235  0.500000  1
  Gd  Gd1  1  0.419765  0.416798  0.500000  1
  Gd  Gd2  1  0.583202  0.002967  0.500000  1
  Al  Al3  1  0.770853  0.757605  0.000000  1
  Al  Al4  1  0.242395  0.013249  0.000000  1
  Al  Al5  1  0.986751  0.229147  0.000000  1
  Ge  Ge6  1  0.333333  0.666667  0.000000  1
  Pd  Pd7  1  0.666667  0.333333  0.000000  1
  Pd  Pd8  1  0.000000  0.000000  0.500000  1
