# generated using pymatgen
data_Zr6Nb4ZnSi4GeN2
_symmetry_space_group_name_H-M   'P 1'
_cell_length_a   7.84082200
_cell_length_b   7.85142624
_cell_length_c   5.45373000
_cell_angle_alpha   90.00000000
_cell_angle_beta   90.00000000
_cell_angle_gamma   119.95533214
_symmetry_Int_Tables_number   1
_chemical_formula_structural   Zr6Nb4ZnSi4GeN2
_chemical_formula_sum   'Zr6 Nb4 Zn1 Si4 Ge1 N2'
_cell_volume   290.89061909
_cell_formula_units_Z   1
loop_
 _symmetry_equiv_pos_site_id
 _symmetry_equiv_pos_as_xyz
  1  'x, y, z'
loop_
 _atom_site_type_symbol
 _atom_site_label
 _atom_site_symmetry_multiplicity
 _atom_site_fract_x
 _atom_site_fract_y
 _atom_site_fract_z
 _atom_site_occupancy
  Zr  Zr0  1  0.236832  0.000000  0.750000  1
  Zr  Zr1  1  0.765615  0.000000  0.250000  1
  Zr  Zr2  1  0.003116  0.237928  0.750000  1
  Zr  Zr3  1  0.997261  0.761761  0.250000  1
  Zr  Zr4  1  0.765186  0.762072  0.750000  1
  Zr  Zr5  1  0.235501  0.238239  0.250000  1
  Nb  Nb6  1  0.329180  0.660475  0.499778  1
  Nb  Nb7  1  0.668706  0.339525  0.499778  1
  Nb  Nb8  1  0.668706  0.339525  0.000222  1
  Nb  Nb9  1  0.329180  0.660475  0.000222  1
  Zn  Zn10  1  0.592117  0.000000  0.750000  1
  Si  Si11  1  0.000304  0.590784  0.750000  1
  Si  Si12  1  0.997081  0.406378  0.250000  1
  Si  Si13  1  0.409520  0.409216  0.750000  1
  Si  Si14  1  0.590703  0.593622  0.250000  1
  Ge  Ge15  1  0.411210  0.000000  0.250000  1
  N  N16  1  0.999892  0.000000  0.500529  1
  N  N17  1  0.999892  0.000000  0.999471  1
