# generated using pymatgen
data_Hf2Zr4Al16CoNi6
_symmetry_space_group_name_H-M   'P 1'
_cell_length_a   8.51731187
_cell_length_b   8.51751209
_cell_length_c   8.53009300
_cell_angle_alpha   59.94980806
_cell_angle_beta   59.95117470
_cell_angle_gamma   60.10666129
_symmetry_Int_Tables_number   1
_chemical_formula_structural   Hf2Zr4Al16CoNi6
_chemical_formula_sum   'Hf2 Zr4 Al16 Co1 Ni6'
_cell_volume   437.59969618
_cell_formula_units_Z   1
loop_
 _symmetry_equiv_pos_site_id
 _symmetry_equiv_pos_as_xyz
  1  'x, y, z'
loop_
 _atom_site_type_symbol
 _atom_site_label
 _atom_site_symmetry_multiplicity
 _atom_site_fract_x
 _atom_site_fract_y
 _atom_site_fract_z
 _atom_site_occupancy
  Hf  Hf0  1  0.689460  0.310545  0.690039  1
  Hf  Hf1  1  0.310538  0.689463  0.690047  1
  Zr  Zr2  1  0.689001  0.689003  0.311652  1
  Zr  Zr3  1  0.307275  0.692729  0.307930  1
  Zr  Zr4  1  0.692737  0.307268  0.307923  1
  Zr  Zr5  1  0.311007  0.311005  0.689648  1
  Al  Al6  1  0.881728  0.881734  0.354209  1
  Al  Al7  1  0.882116  0.353639  0.881569  1
  Al  Al8  1  0.353638  0.882115  0.881565  1
  Al  Al9  1  0.882448  0.882439  0.881963  1
  Al  Al10  1  0.117551  0.117552  0.646854  1
  Al  Al11  1  0.117878  0.646359  0.117321  1
  Al  Al12  1  0.646364  0.117879  0.117325  1
  Al  Al13  1  0.118261  0.118274  0.117679  1
  Al  Al14  1  0.666620  0.666625  0.999877  1
  Al  Al15  1  0.666918  0.000391  0.666663  1
  Al  Al16  1  0.000387  0.666927  0.666674  1
  Al  Al17  1  0.666104  0.666129  0.666983  1
  Al  Al18  1  0.333890  0.333888  0.999221  1
  Al  Al19  1  0.333091  0.999606  0.334002  1
  Al  Al20  1  0.999604  0.333083  0.333993  1
  Al  Al21  1  0.333390  0.333354  0.333128  1
  Co  Co22  1  0.999998  0.999999  0.000844  1
  Ni  Ni23  1  0.999995  0.000009  0.502226  1
  Ni  Ni24  1  0.499040  0.999033  0.501409  1
  Ni  Ni25  1  0.999021  0.499037  0.501410  1
  Ni  Ni26  1  0.500009  0.499995  0.998819  1
  Ni  Ni27  1  0.000939  0.500982  0.999513  1
  Ni  Ni28  1  0.500993  0.000936  0.999513  1
