# generated using pymatgen
data_HfMg4Nb7N12
_symmetry_space_group_name_H-M   'P 1'
_cell_length_a   5.29510100
_cell_length_b   5.29510213
_cell_length_c   10.53842500
_cell_angle_alpha   90.00000000
_cell_angle_beta   90.00000000
_cell_angle_gamma   119.99999918
_symmetry_Int_Tables_number   1
_chemical_formula_structural   HfMg4Nb7N12
_chemical_formula_sum   'Hf1 Mg4 Nb7 N12'
_cell_volume   255.89095431
_cell_formula_units_Z   1
loop_
 _symmetry_equiv_pos_site_id
 _symmetry_equiv_pos_as_xyz
  1  'x, y, z'
loop_
 _atom_site_type_symbol
 _atom_site_label
 _atom_site_symmetry_multiplicity
 _atom_site_fract_x
 _atom_site_fract_y
 _atom_site_fract_z
 _atom_site_occupancy
  Hf  Hf0  1  0.000000  0.000000  0.000000  1
  Mg  Mg1  1  0.333333  0.666667  0.000000  1
  Mg  Mg2  1  0.333333  0.666667  0.500000  1
  Mg  Mg3  1  0.666667  0.333333  0.500000  1
  Mg  Mg4  1  0.666667  0.333333  0.000000  1
  Nb  Nb5  1  0.000000  0.337550  0.251859  1
  Nb  Nb6  1  0.662450  0.000000  0.748141  1
  Nb  Nb7  1  0.337550  0.337550  0.748141  1
  Nb  Nb8  1  0.000000  0.000000  0.500000  1
  Nb  Nb9  1  0.662450  0.662450  0.251859  1
  Nb  Nb10  1  0.337550  0.000000  0.251859  1
  Nb  Nb11  1  0.000000  0.662450  0.748141  1
  N  N12  1  0.669372  0.669372  0.620186  1
  N  N13  1  0.668008  0.668008  0.876020  1
  N  N14  1  0.331992  0.331992  0.123980  1
  N  N15  1  0.330628  0.330628  0.379814  1
  N  N16  1  0.331992  0.000000  0.876020  1
  N  N17  1  0.330628  0.000000  0.620186  1
  N  N18  1  0.000000  0.669372  0.379814  1
  N  N19  1  0.000000  0.668008  0.123980  1
  N  N20  1  0.668008  0.000000  0.123980  1
  N  N21  1  0.669372  0.000000  0.379814  1
  N  N22  1  0.000000  0.331992  0.876020  1
  N  N23  1  0.000000  0.330628  0.620186  1
