# generated using pymatgen
data_LiLu3(Co4As3)2
_symmetry_space_group_name_H-M   'P 1'
_cell_length_a   3.78053700
_cell_length_b   10.92200000
_cell_length_c   12.62721500
_cell_angle_alpha   90.00000000
_cell_angle_beta   90.00000000
_cell_angle_gamma   90.00000000
_symmetry_Int_Tables_number   1
_chemical_formula_structural   LiLu3(Co4As3)2
_chemical_formula_sum   'Li2 Lu6 Co16 As12'
_cell_volume   521.39065168
_cell_formula_units_Z   2
loop_
 _symmetry_equiv_pos_site_id
 _symmetry_equiv_pos_as_xyz
  1  'x, y, z'
loop_
 _atom_site_type_symbol
 _atom_site_label
 _atom_site_symmetry_multiplicity
 _atom_site_fract_x
 _atom_site_fract_y
 _atom_site_fract_z
 _atom_site_occupancy
  Li  Li0  1  0.500000  0.500000  0.154400  1
  Li  Li1  1  0.000000  0.000000  0.845600  1
  Lu  Lu2  1  0.000000  0.500000  0.523750  1
  Lu  Lu3  1  0.500000  0.000000  0.476250  1
  Lu  Lu4  1  0.500000  0.821955  0.205812  1
  Lu  Lu5  1  0.500000  0.178045  0.205812  1
  Lu  Lu6  1  0.000000  0.678045  0.794188  1
  Lu  Lu7  1  0.000000  0.321955  0.794188  1
  Co  Co8  1  0.500000  0.500000  0.704108  1
  Co  Co9  1  0.000000  0.000000  0.295892  1
  Co  Co10  1  0.000000  0.500000  0.987717  1
  Co  Co11  1  0.500000  0.000000  0.012283  1
  Co  Co12  1  0.500000  0.331524  0.998438  1
  Co  Co13  1  0.500000  0.668476  0.998438  1
  Co  Co14  1  0.000000  0.168476  0.001562  1
  Co  Co15  1  0.000000  0.831524  0.001562  1
  Co  Co16  1  0.500000  0.296892  0.431843  1
  Co  Co17  1  0.500000  0.703108  0.431843  1
  Co  Co18  1  0.000000  0.203108  0.568157  1
  Co  Co19  1  0.000000  0.796892  0.568157  1
  Co  Co20  1  0.500000  0.877135  0.702018  1
  Co  Co21  1  0.500000  0.122865  0.702018  1
  Co  Co22  1  0.000000  0.622865  0.297982  1
  Co  Co23  1  0.000000  0.377135  0.297982  1
  As  As24  1  0.500000  0.500000  0.883398  1
  As  As25  1  0.000000  0.000000  0.116602  1
  As  As26  1  0.500000  0.500000  0.349720  1
  As  As27  1  0.000000  0.000000  0.650280  1
  As  As28  1  0.500000  0.315213  0.616834  1
  As  As29  1  0.500000  0.684787  0.616834  1
  As  As30  1  0.000000  0.184787  0.383166  1
  As  As31  1  0.000000  0.815213  0.383166  1
  As  As32  1  0.500000  0.842600  0.888558  1
  As  As33  1  0.500000  0.157400  0.888558  1
  As  As34  1  0.000000  0.657400  0.111442  1
  As  As35  1  0.000000  0.342600  0.111442  1
