# generated using pymatgen
data_Ti2Cr2GaC2N
_symmetry_space_group_name_H-M   'P 1'
_cell_length_a   2.95593900
_cell_length_b   2.95593852
_cell_length_c   22.54180600
_cell_angle_alpha   90.00000000
_cell_angle_beta   90.00000000
_cell_angle_gamma   119.99999419
_symmetry_Int_Tables_number   1
_chemical_formula_structural   Ti2Cr2GaC2N
_chemical_formula_sum   'Ti4 Cr4 Ga2 C4 N2'
_cell_volume   170.57297708
_cell_formula_units_Z   2
loop_
 _symmetry_equiv_pos_site_id
 _symmetry_equiv_pos_as_xyz
  1  'x, y, z'
loop_
 _atom_site_type_symbol
 _atom_site_label
 _atom_site_symmetry_multiplicity
 _atom_site_fract_x
 _atom_site_fract_y
 _atom_site_fract_z
 _atom_site_occupancy
  Ti  Ti0  1  0.333333  0.666667  0.443208  1
  Ti  Ti1  1  0.666667  0.333333  0.556792  1
  Ti  Ti2  1  0.666667  0.333333  0.943208  1
  Ti  Ti3  1  0.333333  0.666667  0.056792  1
  Cr  Cr4  1  0.000000  0.000000  0.342188  1
  Cr  Cr5  1  0.000000  0.000000  0.657812  1
  Cr  Cr6  1  0.000000  0.000000  0.842188  1
  Cr  Cr7  1  0.000000  0.000000  0.157812  1
  Ga  Ga8  1  0.333333  0.666667  0.250000  1
  Ga  Ga9  1  0.666667  0.333333  0.750000  1
  C  C10  1  0.666667  0.333333  0.386064  1
  C  C11  1  0.333333  0.666667  0.613936  1
  C  C12  1  0.333333  0.666667  0.886064  1
  C  C13  1  0.666667  0.333333  0.113936  1
  N  N14  1  0.000000  0.000000  0.500000  1
  N  N15  1  0.000000  0.000000  0.000000  1
