# generated using pymatgen
data_Dy4Ho8TlCuNi4
_symmetry_space_group_name_H-M   'P 1'
_cell_length_a   8.30267588
_cell_length_b   8.30267560
_cell_length_c   8.30267700
_cell_angle_alpha   112.38093272
_cell_angle_beta   109.46204499
_cell_angle_gamma   106.62192375
_symmetry_Int_Tables_number   1
_chemical_formula_structural   Dy4Ho8TlCuNi4
_chemical_formula_sum   'Dy4 Ho8 Tl1 Cu1 Ni4'
_cell_volume   439.47458811
_cell_formula_units_Z   1
loop_
 _symmetry_equiv_pos_site_id
 _symmetry_equiv_pos_as_xyz
  1  'x, y, z'
loop_
 _atom_site_type_symbol
 _atom_site_label
 _atom_site_symmetry_multiplicity
 _atom_site_fract_x
 _atom_site_fract_y
 _atom_site_fract_z
 _atom_site_occupancy
  Dy  Dy0  1  0.180586  0.207744  0.388331  1
  Dy  Dy1  1  0.819414  0.207744  0.027156  1
  Dy  Dy2  1  0.180586  0.792256  0.972844  1
  Dy  Dy3  1  0.819414  0.792256  0.611669  1
  Ho  Ho4  1  0.027364  0.720591  0.306771  1
  Ho  Ho5  1  0.972636  0.279409  0.693229  1
  Ho  Ho6  1  0.586180  0.279409  0.306771  1
  Ho  Ho7  1  0.413820  0.720591  0.693229  1
  Ho  Ho8  1  0.676118  0.868340  0.192221  1
  Ho  Ho9  1  0.323882  0.516102  0.192221  1
  Ho  Ho10  1  0.323882  0.131660  0.807779  1
  Ho  Ho11  1  0.676118  0.483898  0.807779  1
  Tl  Tl12  1  0.500000  0.000000  0.500000  1
  Cu  Cu13  1  0.000000  0.500000  0.500000  1
  Ni  Ni14  1  0.643317  0.500000  0.143317  1
  Ni  Ni15  1  0.356683  0.500000  0.856683  1
  Ni  Ni16  1  0.874511  0.874511  0.000000  1
  Ni  Ni17  1  0.125489  0.125489  0.000000  1
