# generated using pymatgen
data_ErAgH6Ru
_symmetry_space_group_name_H-M   'P 1'
_cell_length_a   4.87302263
_cell_length_b   4.87302205
_cell_length_c   4.87302100
_cell_angle_alpha   59.99998678
_cell_angle_beta   59.99999073
_cell_angle_gamma   59.99998203
_symmetry_Int_Tables_number   1
_chemical_formula_structural   ErAgH6Ru
_chemical_formula_sum   'Er1 Ag1 H6 Ru1'
_cell_volume   81.82385895
_cell_formula_units_Z   1
loop_
 _symmetry_equiv_pos_site_id
 _symmetry_equiv_pos_as_xyz
  1  'x, y, z'
loop_
 _atom_site_type_symbol
 _atom_site_label
 _atom_site_symmetry_multiplicity
 _atom_site_fract_x
 _atom_site_fract_y
 _atom_site_fract_z
 _atom_site_occupancy
  Er  Er0  1  0.250000  0.250000  0.250000  1
  Ag  Ag1  1  0.750000  0.750000  0.750000  1
  H  H2  1  0.752814  0.752814  0.247186  1
  H  H3  1  0.247186  0.752814  0.247186  1
  H  H4  1  0.752814  0.247186  0.247186  1
  H  H5  1  0.247186  0.247186  0.752814  1
  H  H6  1  0.752814  0.247186  0.752814  1
  H  H7  1  0.247186  0.752814  0.752814  1
  Ru  Ru8  1  0.000000  0.000000  0.000000  1
