# generated using pymatgen
data_Ta16Fe3CoTe16
_symmetry_space_group_name_H-M   'P 1'
_cell_length_a   4.84742500
_cell_length_b   11.18726064
_cell_length_c   19.51218502
_cell_angle_alpha   90.01716632
_cell_angle_beta   90.00000000
_cell_angle_gamma   90.00000000
_symmetry_Int_Tables_number   1
_chemical_formula_structural   Ta16Fe3CoTe16
_chemical_formula_sum   'Ta16 Fe3 Co1 Te16'
_cell_volume   1058.13417371
_cell_formula_units_Z   1
loop_
 _symmetry_equiv_pos_site_id
 _symmetry_equiv_pos_as_xyz
  1  'x, y, z'
loop_
 _atom_site_type_symbol
 _atom_site_label
 _atom_site_symmetry_multiplicity
 _atom_site_fract_x
 _atom_site_fract_y
 _atom_site_fract_z
 _atom_site_occupancy
  Ta  Ta0  1  0.499817  0.561067  0.387566  1
  Ta  Ta1  1  0.499817  0.438933  0.612434  1
  Ta  Ta2  1  0.499001  0.061341  0.112501  1
  Ta  Ta3  1  0.499001  0.938659  0.887499  1
  Ta  Ta4  1  0.499904  0.696139  0.535139  1
  Ta  Ta5  1  0.499904  0.303861  0.464861  1
  Ta  Ta6  1  0.498656  0.196355  0.964846  1
  Ta  Ta7  1  0.498656  0.803645  0.035154  1
  Ta  Ta8  1  0.000104  0.681900  0.445224  1
  Ta  Ta9  1  0.000104  0.318100  0.554776  1
  Ta  Ta10  1  0.001206  0.182258  0.054779  1
  Ta  Ta11  1  0.001206  0.817742  0.945221  1
  Ta  Ta12  1  0.000137  0.404588  0.395696  1
  Ta  Ta13  1  0.000137  0.595412  0.604304  1
  Ta  Ta14  1  0.000983  0.904666  0.104414  1
  Ta  Ta15  1  0.000983  0.095334  0.895586  1
  Fe  Fe16  1  0.249784  0.500000  0.500000  1
  Fe  Fe17  1  0.750074  0.000000  0.000000  1
  Fe  Fe18  1  0.750225  0.500000  0.500000  1
  Co  Co19  1  0.249938  0.000000  0.000000  1
  Te  Te20  1  0.999706  0.839422  0.560719  1
  Te  Te21  1  0.999706  0.160578  0.439281  1
  Te  Te22  1  0.999759  0.339428  0.939112  1
  Te  Te23  1  0.999759  0.660572  0.060888  1
  Te  Te24  1  0.499926  0.334925  0.319426  1
  Te  Te25  1  0.499926  0.665075  0.680574  1
  Te  Te26  1  0.500297  0.835308  0.180552  1
  Te  Te27  1  0.500297  0.164692  0.819448  1
  Te  Te28  1  0.500119  0.814805  0.405326  1
  Te  Te29  1  0.500119  0.185195  0.594674  1
  Te  Te30  1  0.500239  0.315122  0.094695  1
  Te  Te31  1  0.500239  0.684878  0.905305  1
  Te  Te32  1  0.000321  0.605604  0.305355  1
  Te  Te33  1  0.000321  0.394396  0.694645  1
  Te  Te34  1  0.999815  0.105967  0.194572  1
  Te  Te35  1  0.999815  0.894033  0.805428  1
