# generated using pymatgen
data_Yb2OsO6
_symmetry_space_group_name_H-M   'P 1'
_cell_length_a   9.06825600
_cell_length_b   9.06825644
_cell_length_c   5.21534700
_cell_angle_alpha   90.00000000
_cell_angle_beta   90.00000000
_cell_angle_gamma   120.00000567
_symmetry_Int_Tables_number   1
_chemical_formula_structural   Yb2OsO6
_chemical_formula_sum   'Yb6 Os3 O18'
_cell_volume   371.41666084
_cell_formula_units_Z   3
loop_
 _symmetry_equiv_pos_site_id
 _symmetry_equiv_pos_as_xyz
  1  'x, y, z'
loop_
 _atom_site_type_symbol
 _atom_site_label
 _atom_site_symmetry_multiplicity
 _atom_site_fract_x
 _atom_site_fract_y
 _atom_site_fract_z
 _atom_site_occupancy
  Yb  Yb0  1  0.715131  0.715131  0.500000  1
  Yb  Yb1  1  0.000000  0.284869  0.500000  1
  Yb  Yb2  1  0.284869  0.000000  0.500000  1
  Yb  Yb3  1  0.377159  0.377159  0.000000  1
  Yb  Yb4  1  0.000000  0.622841  0.000000  1
  Yb  Yb5  1  0.622841  0.000000  0.000000  1
  Os  Os6  1  0.666667  0.333333  0.505762  1
  Os  Os7  1  0.333333  0.666667  0.494238  1
  Os  Os8  1  0.000000  0.000000  0.000000  1
  O  O9  1  0.757004  0.229111  0.713747  1
  O  O10  1  0.770889  0.527892  0.713747  1
  O  O11  1  0.472108  0.242996  0.713747  1
  O  O12  1  0.527892  0.770889  0.286253  1
  O  O13  1  0.242996  0.472108  0.286253  1
  O  O14  1  0.229111  0.757004  0.286253  1
  O  O15  1  0.592343  0.452340  0.298598  1
  O  O16  1  0.547660  0.140003  0.298598  1
  O  O17  1  0.859997  0.407657  0.298598  1
  O  O18  1  0.073123  0.880807  0.791718  1
  O  O19  1  0.119193  0.192315  0.791718  1
  O  O20  1  0.807685  0.926877  0.791718  1
  O  O21  1  0.192315  0.119193  0.208282  1
  O  O22  1  0.926877  0.807685  0.208282  1
  O  O23  1  0.880807  0.073123  0.208282  1
  O  O24  1  0.452340  0.592343  0.701402  1
  O  O25  1  0.407657  0.859997  0.701402  1
  O  O26  1  0.140003  0.547660  0.701402  1
