# generated using pymatgen
data_Ce12Si12Ir3Ru
_symmetry_space_group_name_H-M   'P 1'
_cell_length_a   4.33684100
_cell_length_b   10.43888011
_cell_length_c   12.82835212
_cell_angle_alpha   90.01624043
_cell_angle_beta   90.00000000
_cell_angle_gamma   90.00000000
_symmetry_Int_Tables_number   1
_chemical_formula_structural   Ce12Si12Ir3Ru
_chemical_formula_sum   'Ce12 Si12 Ir3 Ru1'
_cell_volume   580.76209692
_cell_formula_units_Z   1
loop_
 _symmetry_equiv_pos_site_id
 _symmetry_equiv_pos_as_xyz
  1  'x, y, z'
loop_
 _atom_site_type_symbol
 _atom_site_label
 _atom_site_symmetry_multiplicity
 _atom_site_fract_x
 _atom_site_fract_y
 _atom_site_fract_z
 _atom_site_occupancy
  Ce  Ce0  1  0.250000  0.901642  0.027526  1
  Ce  Ce1  1  0.250000  0.595477  0.528935  1
  Ce  Ce2  1  0.750000  0.097115  0.972328  1
  Ce  Ce3  1  0.750000  0.403633  0.472569  1
  Ce  Ce4  1  0.250000  0.914371  0.594867  1
  Ce  Ce5  1  0.250000  0.585723  0.094774  1
  Ce  Ce6  1  0.750000  0.084937  0.405175  1
  Ce  Ce7  1  0.750000  0.415535  0.906029  1
  Ce  Ce8  1  0.250000  0.663151  0.805966  1
  Ce  Ce9  1  0.250000  0.835446  0.306516  1
  Ce  Ce10  1  0.750000  0.336190  0.194019  1
  Ce  Ce11  1  0.750000  0.167162  0.692694  1
  Si  Si12  1  0.250000  0.997505  0.811312  1
  Si  Si13  1  0.250000  0.502995  0.311282  1
  Si  Si14  1  0.750000  0.002570  0.188787  1
  Si  Si15  1  0.750000  0.495724  0.689176  1
  Si  Si16  1  0.250000  0.237283  0.842918  1
  Si  Si17  1  0.250000  0.264313  0.342951  1
  Si  Si18  1  0.750000  0.764366  0.157148  1
  Si  Si19  1  0.750000  0.735470  0.657077  1
  Si  Si20  1  0.250000  0.217640  0.539003  1
  Si  Si21  1  0.250000  0.283124  0.040497  1
  Si  Si22  1  0.750000  0.782681  0.459766  1
  Si  Si23  1  0.750000  0.716793  0.959236  1
  Ir  Ir24  1  0.250000  0.118156  0.187643  1
  Ir  Ir25  1  0.750000  0.617961  0.311989  1
  Ir  Ir26  1  0.750000  0.881972  0.812507  1
  Ru  Ru27  1  0.250000  0.381062  0.687309  1
