# generated using pymatgen
data_KCdInAu4
_symmetry_space_group_name_H-M   'P 1'
_cell_length_a   7.57894092
_cell_length_b   7.57894106
_cell_length_c   7.57894172
_cell_angle_alpha   108.12916014
_cell_angle_beta   108.45134383
_cell_angle_gamma   111.86003715
_symmetry_Int_Tables_number   1
_chemical_formula_structural   KCdInAu4
_chemical_formula_sum   'K2 Cd2 In2 Au8'
_cell_volume   334.68118417
_cell_formula_units_Z   2
loop_
 _symmetry_equiv_pos_site_id
 _symmetry_equiv_pos_as_xyz
  1  'x, y, z'
loop_
 _atom_site_type_symbol
 _atom_site_label
 _atom_site_symmetry_multiplicity
 _atom_site_fract_x
 _atom_site_fract_y
 _atom_site_fract_z
 _atom_site_occupancy
  K  K0  1  0.750171  0.750000  0.000171  1
  K  K1  1  0.250171  0.250000  0.000171  1
  Cd  Cd2  1  0.852344  0.352896  0.205239  1
  Cd  Cd3  1  0.352344  0.147104  0.499448  1
  In  In4  1  0.646214  0.853195  0.499409  1
  In  In5  1  0.146214  0.646805  0.793019  1
  Au  Au6  1  0.685593  0.485092  0.501024  1
  Au  Au7  1  0.485338  0.985262  0.799673  1
  Au  Au8  1  0.985338  0.185665  0.500076  1
  Au  Au9  1  0.185593  0.684569  0.200499  1
  Au  Au10  1  0.515931  0.014908  0.200499  1
  Au  Au11  1  0.015931  0.815431  0.501024  1
  Au  Au12  1  0.314410  0.514738  0.500076  1
  Au  Au13  1  0.814410  0.314335  0.799673  1
