# generated using pymatgen
data_CaPrAlRh3
_symmetry_space_group_name_H-M   'P 1'
_cell_length_a   5.19212986
_cell_length_b   5.19212972
_cell_length_c   5.19212887
_cell_angle_alpha   66.55553897
_cell_angle_beta   66.55553700
_cell_angle_gamma   66.55553660
_symmetry_Int_Tables_number   1
_chemical_formula_structural   CaPrAlRh3
_chemical_formula_sum   'Ca1 Pr1 Al1 Rh3'
_cell_volume   112.94144730
_cell_formula_units_Z   1
loop_
 _symmetry_equiv_pos_site_id
 _symmetry_equiv_pos_as_xyz
  1  'x, y, z'
loop_
 _atom_site_type_symbol
 _atom_site_label
 _atom_site_symmetry_multiplicity
 _atom_site_fract_x
 _atom_site_fract_y
 _atom_site_fract_z
 _atom_site_occupancy
  Ca  Ca0  1  0.629553  0.629553  0.629553  1
  Pr  Pr1  1  0.370427  0.370427  0.370427  1
  Al  Al2  1  0.999584  0.999584  0.999584  1
  Rh  Rh3  1  0.999674  0.999674  0.501087  1
  Rh  Rh4  1  0.501087  0.999674  0.999674  1
  Rh  Rh5  1  0.999674  0.501087  0.999674  1
