# generated using pymatgen
data_Er5Lu2Sc9(In3Co)2
_symmetry_space_group_name_H-M   'P 1'
_cell_length_a   9.87673853
_cell_length_b   9.87673918
_cell_length_c   6.82721917
_cell_angle_alpha   89.92279907
_cell_angle_beta   90.07719782
_cell_angle_gamma   120.10471894
_symmetry_Int_Tables_number   1
_chemical_formula_structural   Er5Lu2Sc9(In3Co)2
_chemical_formula_sum   'Er5 Lu2 Sc9 In6 Co2'
_cell_volume   576.15833714
_cell_formula_units_Z   1
loop_
 _symmetry_equiv_pos_site_id
 _symmetry_equiv_pos_as_xyz
  1  'x, y, z'
loop_
 _atom_site_type_symbol
 _atom_site_label
 _atom_site_symmetry_multiplicity
 _atom_site_fract_x
 _atom_site_fract_y
 _atom_site_fract_z
 _atom_site_occupancy
  Er  Er0  1  0.532474  0.065028  0.517924  1
  Er  Er1  1  0.934972  0.467526  0.517924  1
  Er  Er2  1  0.531659  0.468341  0.518398  1
  Er  Er3  1  0.467362  0.934614  0.018465  1
  Er  Er4  1  0.065386  0.532638  0.018465  1
  Lu  Lu5  1  0.999834  0.000166  0.510735  1
  Lu  Lu6  1  0.999928  0.000072  0.011082  1
  Sc  Sc7  1  0.465432  0.534568  0.018398  1
  Sc  Sc8  1  0.182684  0.360471  0.731577  1
  Sc  Sc9  1  0.639529  0.817316  0.731577  1
  Sc  Sc10  1  0.179513  0.820487  0.727786  1
  Sc  Sc11  1  0.817665  0.640133  0.225522  1
  Sc  Sc12  1  0.359867  0.182335  0.225522  1
  Sc  Sc13  1  0.821011  0.178989  0.226973  1
  Sc  Sc14  1  0.665393  0.334607  0.918697  1
  Sc  Sc15  1  0.334044  0.665956  0.417333  1
  In  In16  1  0.837315  0.674509  0.775643  1
  In  In17  1  0.325491  0.162685  0.775643  1
  In  In18  1  0.837321  0.162679  0.775455  1
  In  In19  1  0.165773  0.328007  0.272922  1
  In  In20  1  0.671993  0.834227  0.272922  1
  In  In21  1  0.162545  0.837455  0.276017  1
  Co  Co22  1  0.667109  0.332891  0.283741  1
  Co  Co23  1  0.335699  0.664301  0.786961  1
