# generated using pymatgen
data_CaLu4Tl5
_symmetry_space_group_name_H-M   'P 1'
_cell_length_a   3.68900500
_cell_length_b   3.68900500
_cell_length_c   19.74600800
_cell_angle_alpha   90.00000000
_cell_angle_beta   90.00000000
_cell_angle_gamma   90.00000000
_symmetry_Int_Tables_number   1
_chemical_formula_structural   CaLu4Tl5
_chemical_formula_sum   'Ca1 Lu4 Tl5'
_cell_volume   268.71864217
_cell_formula_units_Z   1
loop_
 _symmetry_equiv_pos_site_id
 _symmetry_equiv_pos_as_xyz
  1  'x, y, z'
loop_
 _atom_site_type_symbol
 _atom_site_label
 _atom_site_symmetry_multiplicity
 _atom_site_fract_x
 _atom_site_fract_y
 _atom_site_fract_z
 _atom_site_occupancy
  Ca  Ca0  1  0.000000  0.000000  0.000000  1
  Lu  Lu1  1  0.000000  0.000000  0.206750  1
  Lu  Lu2  1  0.000000  0.000000  0.401972  1
  Lu  Lu3  1  0.000000  0.000000  0.598028  1
  Lu  Lu4  1  0.000000  0.000000  0.793250  1
  Tl  Tl5  1  0.500000  0.500000  0.107361  1
  Tl  Tl6  1  0.500000  0.500000  0.304937  1
  Tl  Tl7  1  0.500000  0.500000  0.500000  1
  Tl  Tl8  1  0.500000  0.500000  0.695063  1
  Tl  Tl9  1  0.500000  0.500000  0.892639  1
