# generated using pymatgen
data_Sm8TaPd19Pt5
_symmetry_space_group_name_H-M   'P 1'
_cell_length_a   8.47101200
_cell_length_b   8.47101200
_cell_length_c   8.43988100
_cell_angle_alpha   90.00000000
_cell_angle_beta   90.00000000
_cell_angle_gamma   90.00000000
_symmetry_Int_Tables_number   1
_chemical_formula_structural   Sm8TaPd19Pt5
_chemical_formula_sum   'Sm8 Ta1 Pd19 Pt5'
_cell_volume   605.62935472
_cell_formula_units_Z   1
loop_
 _symmetry_equiv_pos_site_id
 _symmetry_equiv_pos_as_xyz
  1  'x, y, z'
loop_
 _atom_site_type_symbol
 _atom_site_label
 _atom_site_symmetry_multiplicity
 _atom_site_fract_x
 _atom_site_fract_y
 _atom_site_fract_z
 _atom_site_occupancy
  Sm  Sm0  1  0.250264  0.250264  0.249745  1
  Sm  Sm1  1  0.748440  0.748440  0.749614  1
  Sm  Sm2  1  0.749736  0.749736  0.249745  1
  Sm  Sm3  1  0.748440  0.251560  0.749614  1
  Sm  Sm4  1  0.251560  0.251560  0.749614  1
  Sm  Sm5  1  0.250264  0.749736  0.249745  1
  Sm  Sm6  1  0.251560  0.748440  0.749614  1
  Sm  Sm7  1  0.749736  0.250264  0.249745  1
  Ta  Ta8  1  0.000000  0.000000  0.007708  1
  Pd  Pd9  1  0.265321  0.500000  0.000029  1
  Pd  Pd10  1  0.734679  0.500000  0.000029  1
  Pd  Pd11  1  0.000000  0.266179  0.500484  1
  Pd  Pd12  1  0.500000  0.265321  0.000029  1
  Pd  Pd13  1  0.000000  0.733821  0.500484  1
  Pd  Pd14  1  0.500000  0.734679  0.000029  1
  Pd  Pd15  1  0.500000  0.000000  0.264150  1
  Pd  Pd16  1  0.266179  0.000000  0.500484  1
  Pd  Pd17  1  0.500000  0.000000  0.733375  1
  Pd  Pd18  1  0.733821  0.000000  0.500484  1
  Pd  Pd19  1  0.000000  0.500000  0.264150  1
  Pd  Pd20  1  0.000000  0.500000  0.733375  1
  Pd  Pd21  1  0.255073  0.500000  0.499417  1
  Pd  Pd22  1  0.744927  0.500000  0.499417  1
  Pd  Pd23  1  0.500000  0.255073  0.499417  1
  Pd  Pd24  1  0.500000  0.744927  0.499417  1
  Pd  Pd25  1  0.500000  0.500000  0.254629  1
  Pd  Pd26  1  0.500000  0.500000  0.745279  1
  Pd  Pd27  1  0.000000  0.000000  0.696777  1
  Pt  Pt28  1  0.304653  0.000000  0.998079  1
  Pt  Pt29  1  0.695347  0.000000  0.998079  1
  Pt  Pt30  1  0.000000  0.304653  0.998079  1
  Pt  Pt31  1  0.000000  0.695347  0.998079  1
  Pt  Pt32  1  0.000000  0.000000  0.311084  1
