# generated using pymatgen
data_Ti24SiAs4Se3
_symmetry_space_group_name_H-M   'P 1'
_cell_length_a   10.14366967
_cell_length_b   10.16442973
_cell_length_c   5.10366935
_cell_angle_alpha   89.65762159
_cell_angle_beta   90.18334789
_cell_angle_gamma   89.95830155
_symmetry_Int_Tables_number   1
_chemical_formula_structural   Ti24SiAs4Se3
_chemical_formula_sum   'Ti24 Si1 As4 Se3'
_cell_volume   526.19964011
_cell_formula_units_Z   1
loop_
 _symmetry_equiv_pos_site_id
 _symmetry_equiv_pos_as_xyz
  1  'x, y, z'
loop_
 _atom_site_type_symbol
 _atom_site_label
 _atom_site_symmetry_multiplicity
 _atom_site_fract_x
 _atom_site_fract_y
 _atom_site_fract_z
 _atom_site_occupancy
  Ti  Ti0  1  0.215282  0.682901  0.993224  1
  Ti  Ti1  1  0.784133  0.317999  0.991295  1
  Ti  Ti2  1  0.183679  0.284201  0.496506  1
  Ti  Ti3  1  0.816745  0.715309  0.492800  1
  Ti  Ti4  1  0.284772  0.816911  0.505467  1
  Ti  Ti5  1  0.713218  0.182714  0.508923  1
  Ti  Ti6  1  0.317809  0.215771  0.001939  1
  Ti  Ti7  1  0.682978  0.785101  0.007419  1
  Ti  Ti8  1  0.641077  0.526397  0.713635  1
  Ti  Ti9  1  0.359439  0.472183  0.714947  1
  Ti  Ti10  1  0.027410  0.858235  0.211563  1
  Ti  Ti11  1  0.972248  0.142901  0.214437  1
  Ti  Ti12  1  0.857888  0.971629  0.787759  1
  Ti  Ti13  1  0.142538  0.025905  0.786812  1
  Ti  Ti14  1  0.472875  0.642116  0.287937  1
  Ti  Ti15  1  0.527779  0.356664  0.284209  1
  Ti  Ti16  1  0.103532  0.581786  0.465070  1
  Ti  Ti17  1  0.896433  0.417798  0.467742  1
  Ti  Ti18  1  0.080965  0.397068  0.958524  1
  Ti  Ti19  1  0.918052  0.603555  0.962180  1
  Ti  Ti20  1  0.395540  0.918184  0.036013  1
  Ti  Ti21  1  0.603893  0.083318  0.030236  1
  Ti  Ti22  1  0.419274  0.104986  0.543470  1
  Ti  Ti23  1  0.582229  0.895885  0.537820  1
  Si  Si24  1  0.540554  0.295109  0.787242  1
  As  As25  1  0.959818  0.205408  0.711907  1
  As  As26  1  0.793612  0.960782  0.288525  1
  As  As27  1  0.206560  0.041122  0.289062  1
  As  As28  1  0.460036  0.706186  0.789513  1
  Se  Se29  1  0.707329  0.539659  0.211780  1
  Se  Se30  1  0.292568  0.459359  0.211670  1
  Se  Se31  1  0.039736  0.792858  0.710376  1
