# generated using pymatgen
data_La2Sb5
_symmetry_space_group_name_H-M   'P 1'
_cell_length_a   4.34030500
_cell_length_b   13.78208339
_cell_length_c   15.65250933
_cell_angle_alpha   77.30682701
_cell_angle_beta   90.00000000
_cell_angle_gamma   90.00000000
_symmetry_Int_Tables_number   1
_chemical_formula_structural   La2Sb5
_chemical_formula_sum   'La8 Sb20'
_cell_volume   913.42607511
_cell_formula_units_Z   4
loop_
 _symmetry_equiv_pos_site_id
 _symmetry_equiv_pos_as_xyz
  1  'x, y, z'
loop_
 _atom_site_type_symbol
 _atom_site_label
 _atom_site_symmetry_multiplicity
 _atom_site_fract_x
 _atom_site_fract_y
 _atom_site_fract_z
 _atom_site_occupancy
  La  La0  1  0.250000  0.667816  0.577799  1
  La  La1  1  0.750000  0.332184  0.422201  1
  La  La2  1  0.250000  0.393999  0.773221  1
  La  La3  1  0.750000  0.606001  0.226779  1
  La  La4  1  0.250000  0.948493  0.368425  1
  La  La5  1  0.750000  0.051507  0.631575  1
  La  La6  1  0.250000  0.666610  0.854351  1
  La  La7  1  0.750000  0.333390  0.145649  1
  Sb  Sb8  1  0.250000  0.423810  0.556977  1
  Sb  Sb9  1  0.750000  0.576190  0.443023  1
  Sb  Sb10  1  0.250000  0.712376  0.056300  1
  Sb  Sb11  1  0.750000  0.287624  0.943700  1
  Sb  Sb12  1  0.250000  0.420121  0.975227  1
  Sb  Sb13  1  0.750000  0.579879  0.024773  1
  Sb  Sb14  1  0.250000  0.862246  0.673517  1
  Sb  Sb15  1  0.750000  0.137754  0.326483  1
  Sb  Sb16  1  0.250000  0.145479  0.188004  1
  Sb  Sb17  1  0.750000  0.854521  0.811996  1
  Sb  Sb18  1  0.250000  0.703944  0.356986  1
  Sb  Sb19  1  0.750000  0.296056  0.643014  1
  Sb  Sb20  1  0.250000  0.143487  0.772075  1
  Sb  Sb21  1  0.750000  0.856513  0.227925  1
  Sb  Sb22  1  0.250000  0.423253  0.264507  1
  Sb  Sb23  1  0.750000  0.576747  0.735493  1
  Sb  Sb24  1  0.250000  0.144846  0.473983  1
  Sb  Sb25  1  0.750000  0.855154  0.526017  1
  Sb  Sb26  1  0.250000  0.966379  0.124179  1
  Sb  Sb27  1  0.750000  0.033621  0.875821  1
