# generated using pymatgen
data_Tl(TcO4)2
_symmetry_space_group_name_H-M   'P 1'
_cell_length_a   11.15905900
_cell_length_b   11.15905875
_cell_length_c   5.01341200
_cell_angle_alpha   90.00000000
_cell_angle_beta   90.00000000
_cell_angle_gamma   120.00000370
_symmetry_Int_Tables_number   1
_chemical_formula_structural   Tl(TcO4)2
_chemical_formula_sum   'Tl3 Tc6 O24'
_cell_volume   540.65366279
_cell_formula_units_Z   3
loop_
 _symmetry_equiv_pos_site_id
 _symmetry_equiv_pos_as_xyz
  1  'x, y, z'
loop_
 _atom_site_type_symbol
 _atom_site_label
 _atom_site_symmetry_multiplicity
 _atom_site_fract_x
 _atom_site_fract_y
 _atom_site_fract_z
 _atom_site_occupancy
  Tl  Tl0  1  0.000000  0.000000  0.040066  1
  Tl  Tl1  1  0.333333  0.666667  0.390891  1
  Tl  Tl2  1  0.666667  0.333333  0.390891  1
  Tc  Tc3  1  0.379261  0.000000  0.996305  1
  Tc  Tc4  1  0.000000  0.379261  0.996305  1
  Tc  Tc5  1  0.620739  0.620739  0.996305  1
  Tc  Tc6  1  0.312546  0.312546  0.478029  1
  Tc  Tc7  1  0.000000  0.687454  0.478029  1
  Tc  Tc8  1  0.687454  0.000000  0.478029  1
  O  O9  1  0.631728  0.631728  0.654715  1
  O  O10  1  0.000000  0.368272  0.654715  1
  O  O11  1  0.368272  0.000000  0.654715  1
  O  O12  1  0.168560  0.168560  0.600448  1
  O  O13  1  0.000000  0.831440  0.600448  1
  O  O14  1  0.831440  0.000000  0.600448  1
  O  O15  1  0.312344  0.464376  0.584463  1
  O  O16  1  0.535624  0.847967  0.584463  1
  O  O17  1  0.152033  0.687656  0.584463  1
  O  O18  1  0.237291  0.000000  0.131829  1
  O  O19  1  0.000000  0.237291  0.131829  1
  O  O20  1  0.762709  0.762709  0.131829  1
  O  O21  1  0.531267  0.150757  0.096523  1
  O  O22  1  0.849243  0.380510  0.096523  1
  O  O23  1  0.619490  0.468733  0.096523  1
  O  O24  1  0.150757  0.531267  0.096523  1
  O  O25  1  0.380510  0.849243  0.096523  1
  O  O26  1  0.468733  0.619490  0.096523  1
  O  O27  1  0.696657  0.000000  0.136117  1
  O  O28  1  0.000000  0.696657  0.136117  1
  O  O29  1  0.303343  0.303343  0.136117  1
  O  O30  1  0.687656  0.152033  0.584463  1
  O  O31  1  0.847967  0.535624  0.584463  1
  O  O32  1  0.464376  0.312344  0.584463  1
