# generated using pymatgen
data_Nb3Ga2CuIr3
_symmetry_space_group_name_H-M   'P 1'
_cell_length_a   7.47036000
_cell_length_b   7.44820894
_cell_length_c   2.91333500
_cell_angle_alpha   90.00000000
_cell_angle_beta   90.00000000
_cell_angle_gamma   120.09842839
_symmetry_Int_Tables_number   1
_chemical_formula_structural   Nb3Ga2CuIr3
_chemical_formula_sum   'Nb3 Ga2 Cu1 Ir3'
_cell_volume   140.24353141
_cell_formula_units_Z   1
loop_
 _symmetry_equiv_pos_site_id
 _symmetry_equiv_pos_as_xyz
  1  'x, y, z'
loop_
 _atom_site_type_symbol
 _atom_site_label
 _atom_site_symmetry_multiplicity
 _atom_site_fract_x
 _atom_site_fract_y
 _atom_site_fract_z
 _atom_site_occupancy
  Nb  Nb0  1  0.379565  0.000000  0.500001  1
  Nb  Nb1  1  0.988279  0.354190  0.500001  1
  Nb  Nb2  1  0.634089  0.645810  0.500001  1
  Ga  Ga3  1  0.295641  0.294216  0.000000  1
  Ga  Ga4  1  0.001426  0.705785  0.000000  1
  Cu  Cu5  1  0.702975  0.000000  0.000000  1
  Ir  Ir6  1  0.666104  0.339247  0.000000  1
  Ir  Ir7  1  0.326858  0.660754  0.000000  1
  Ir  Ir8  1  0.005063  0.000000  0.500001  1
