# generated using pymatgen
data_Th6CoPd6Ru
_symmetry_space_group_name_H-M   'P 1'
_cell_length_a   8.04197697
_cell_length_b   8.04197833
_cell_length_c   8.04197512
_cell_angle_alpha   114.13415319
_cell_angle_beta   114.13416568
_cell_angle_gamma   114.13415580
_symmetry_Int_Tables_number   1
_chemical_formula_structural   Th6CoPd6Ru
_chemical_formula_sum   'Th6 Co1 Pd6 Ru1'
_cell_volume   312.82072591
_cell_formula_units_Z   1
loop_
 _symmetry_equiv_pos_site_id
 _symmetry_equiv_pos_as_xyz
  1  'x, y, z'
loop_
 _atom_site_type_symbol
 _atom_site_label
 _atom_site_symmetry_multiplicity
 _atom_site_fract_x
 _atom_site_fract_y
 _atom_site_fract_z
 _atom_site_occupancy
  Th  Th0  1  0.392491  0.038294  0.275431  1
  Th  Th1  1  0.038294  0.275431  0.392491  1
  Th  Th2  1  0.275431  0.392491  0.038294  1
  Th  Th3  1  0.607509  0.961706  0.724569  1
  Th  Th4  1  0.961706  0.724569  0.607509  1
  Th  Th5  1  0.724569  0.607509  0.961706  1
  Co  Co6  1  0.000000  0.000000  0.000000  1
  Pd  Pd7  1  0.234708  0.070854  0.575855  1
  Pd  Pd8  1  0.070854  0.575855  0.234708  1
  Pd  Pd9  1  0.575855  0.234708  0.070854  1
  Pd  Pd10  1  0.765292  0.929146  0.424145  1
  Pd  Pd11  1  0.929146  0.424145  0.765292  1
  Pd  Pd12  1  0.424145  0.765292  0.929146  1
  Ru  Ru13  1  0.500000  0.500000  0.500000  1
