# generated using pymatgen
data_Y5ErAl24Pd3Ru5
_symmetry_space_group_name_H-M   'P 1'
_cell_length_a   8.84026570
_cell_length_b   8.82224812
_cell_length_c   9.55957648
_cell_angle_alpha   90.15803439
_cell_angle_beta   89.93766466
_cell_angle_gamma   119.53737766
_symmetry_Int_Tables_number   1
_chemical_formula_structural   Y5ErAl24Pd3Ru5
_chemical_formula_sum   'Y5 Er1 Al24 Pd3 Ru5'
_cell_volume   648.66120579
_cell_formula_units_Z   1
loop_
 _symmetry_equiv_pos_site_id
 _symmetry_equiv_pos_as_xyz
  1  'x, y, z'
loop_
 _atom_site_type_symbol
 _atom_site_label
 _atom_site_symmetry_multiplicity
 _atom_site_fract_x
 _atom_site_fract_y
 _atom_site_fract_z
 _atom_site_occupancy
  Y  Y0  1  0.188246  0.385331  0.252076  1
  Y  Y1  1  0.811746  0.614293  0.747940  1
  Y  Y2  1  0.616786  0.810807  0.250133  1
  Y  Y3  1  0.383469  0.189190  0.749923  1
  Y  Y4  1  0.191686  0.806301  0.250436  1
  Er  Er5  1  0.807899  0.194835  0.749202  1
  Al  Al6  1  0.327504  0.664022  0.026194  1
  Al  Al7  1  0.672370  0.335424  0.972899  1
  Al  Al8  1  0.669522  0.330009  0.526269  1
  Al  Al9  1  0.330698  0.669794  0.474471  1
  Al  Al10  1  0.157549  0.325300  0.577082  1
  Al  Al11  1  0.841987  0.674272  0.423458  1
  Al  Al12  1  0.675623  0.843362  0.576192  1
  Al  Al13  1  0.842282  0.675120  0.077183  1
  Al  Al14  1  0.324878  0.157270  0.424391  1
  Al  Al15  1  0.157106  0.324385  0.922221  1
  Al  Al16  1  0.164243  0.836567  0.577380  1
  Al  Al17  1  0.322982  0.162608  0.078880  1
  Al  Al18  1  0.835838  0.163422  0.423301  1
  Al  Al19  1  0.677435  0.838061  0.920586  1
  Al  Al20  1  0.842227  0.168369  0.078702  1
  Al  Al21  1  0.157667  0.831472  0.920541  1
  Al  Al22  1  0.562145  0.125053  0.253393  1
  Al  Al23  1  0.438631  0.875458  0.746846  1
  Al  Al24  1  0.877071  0.439528  0.249846  1
  Al  Al25  1  0.122565  0.559803  0.750151  1
  Al  Al26  1  0.563758  0.437028  0.249720  1
  Al  Al27  1  0.436330  0.562941  0.750178  1
  Al  Al28  1  0.997328  0.001115  0.250292  1
  Al  Al29  1  0.001894  0.999697  0.749793  1
  Pd  Pd30  1  0.500317  0.000148  0.999843  1
  Pd  Pd31  1  0.500091  0.499941  0.999908  1
  Pd  Pd32  1  0.499994  0.500006  0.500139  1
  Ru  Ru33  1  0.999686  0.499475  0.999640  1
  Ru  Ru34  1  0.500563  0.000332  0.500345  1
  Ru  Ru35  1  0.999715  0.499376  0.500404  1
  Ru  Ru36  1  0.000075  0.999916  0.000043  1
  Ru  Ru37  1  0.000094  0.999969  0.499999  1
