# generated using pymatgen
data_TbDy3Al13Ga5Ir6
_symmetry_space_group_name_H-M   'P 1'
_cell_length_a   7.52847309
_cell_length_b   7.52866597
_cell_length_c   9.56436600
_cell_angle_alpha   90.00000000
_cell_angle_beta   90.00000000
_cell_angle_gamma   119.58345020
_symmetry_Int_Tables_number   1
_chemical_formula_structural   TbDy3Al13Ga5Ir6
_chemical_formula_sum   'Tb1 Dy3 Al13 Ga5 Ir6'
_cell_volume   471.43238228
_cell_formula_units_Z   1
loop_
 _symmetry_equiv_pos_site_id
 _symmetry_equiv_pos_as_xyz
  1  'x, y, z'
loop_
 _atom_site_type_symbol
 _atom_site_label
 _atom_site_symmetry_multiplicity
 _atom_site_fract_x
 _atom_site_fract_y
 _atom_site_fract_z
 _atom_site_occupancy
  Tb  Tb0  1  0.994930  0.669749  0.750000  1
  Dy  Dy1  1  0.001535  0.327313  0.250000  1
  Dy  Dy2  1  0.669778  0.995954  0.750000  1
  Dy  Dy3  1  0.330465  0.006402  0.250000  1
  Al  Al4  1  0.002084  0.334702  0.572402  1
  Al  Al5  1  0.999199  0.665454  0.427114  1
  Al  Al6  1  0.999199  0.665454  0.072886  1
  Al  Al7  1  0.334826  0.001787  0.927732  1
  Al  Al8  1  0.002084  0.334702  0.927598  1
  Al  Al9  1  0.664907  0.998114  0.073102  1
  Al  Al10  1  0.664907  0.998114  0.426898  1
  Al  Al11  1  0.334826  0.001787  0.572268  1
  Al  Al12  1  0.333722  0.334151  0.055757  1
  Al  Al13  1  0.665932  0.666086  0.947001  1
  Al  Al14  1  0.665932  0.666086  0.552999  1
  Al  Al15  1  0.333722  0.334151  0.444243  1
  Al  Al16  1  0.451655  0.661577  0.250000  1
  Ga  Ga17  1  0.128347  0.128480  0.750000  1
  Ga  Ga18  1  0.870397  0.869831  0.250000  1
  Ga  Ga19  1  0.338704  0.546915  0.750000  1
  Ga  Ga20  1  0.661703  0.454271  0.250000  1
  Ga  Ga21  1  0.546974  0.339053  0.750000  1
  Ir  Ir22  1  0.672283  0.327918  0.500247  1
  Ir  Ir23  1  0.329408  0.671770  0.497622  1
  Ir  Ir24  1  0.329408  0.671770  0.002378  1
  Ir  Ir25  1  0.672283  0.327918  0.999753  1
  Ir  Ir26  1  0.000396  0.000246  0.500026  1
  Ir  Ir27  1  0.000396  0.000246  0.999974  1
