# generated using pymatgen
data_Ca4In2SbRuO12
_symmetry_space_group_name_H-M   'P 1'
_cell_length_a   5.76023195
_cell_length_b   5.55574678
_cell_length_c   9.72287970
_cell_angle_alpha   55.12149900
_cell_angle_beta   89.74256763
_cell_angle_gamma   90.05513115
_symmetry_Int_Tables_number   1
_chemical_formula_structural   Ca4In2SbRuO12
_chemical_formula_sum   'Ca4 In2 Sb1 Ru1 O12'
_cell_volume   255.25651684
_cell_formula_units_Z   1
loop_
 _symmetry_equiv_pos_site_id
 _symmetry_equiv_pos_as_xyz
  1  'x, y, z'
loop_
 _atom_site_type_symbol
 _atom_site_label
 _atom_site_symmetry_multiplicity
 _atom_site_fract_x
 _atom_site_fract_y
 _atom_site_fract_z
 _atom_site_occupancy
  Ca  Ca0  1  0.445629  0.259112  0.756417  1
  Ca  Ca1  1  0.554371  0.740888  0.243583  1
  Ca  Ca2  1  0.059545  0.267439  0.247539  1
  Ca  Ca3  1  0.940455  0.732561  0.752461  1
  In  In4  1  0.500000  0.000000  0.500000  1
  In  In5  1  0.000000  0.000000  0.000000  1
  Sb  Sb6  1  0.000000  0.500000  0.500000  1
  Ru  Ru7  1  0.500000  0.500000  0.000000  1
  O  O8  1  0.956106  0.848851  0.260693  1
  O  O9  1  0.289515  0.378910  0.437374  1
  O  O10  1  0.311788  0.739753  0.051424  1
  O  O11  1  0.213620  0.377292  0.940529  1
  O  O12  1  0.043894  0.151149  0.739307  1
  O  O13  1  0.542782  0.844094  0.763454  1
  O  O14  1  0.187865  0.740049  0.554243  1
  O  O15  1  0.812135  0.259951  0.445757  1
  O  O16  1  0.786380  0.622708  0.059471  1
  O  O17  1  0.710485  0.621090  0.562626  1
  O  O18  1  0.688212  0.260247  0.948576  1
  O  O19  1  0.457218  0.155906  0.236546  1
