# generated using pymatgen
data_InSnF7
_symmetry_space_group_name_H-M   'P 1'
_cell_length_a   5.50982600
_cell_length_b   8.75903025
_cell_length_c   11.82434970
_cell_angle_alpha   63.04840393
_cell_angle_beta   90.00000000
_cell_angle_gamma   90.00000000
_symmetry_Int_Tables_number   1
_chemical_formula_structural   InSnF7
_chemical_formula_sum   'In4 Sn4 F28'
_cell_volume   508.67314144
_cell_formula_units_Z   4
loop_
 _symmetry_equiv_pos_site_id
 _symmetry_equiv_pos_as_xyz
  1  'x, y, z'
loop_
 _atom_site_type_symbol
 _atom_site_label
 _atom_site_symmetry_multiplicity
 _atom_site_fract_x
 _atom_site_fract_y
 _atom_site_fract_z
 _atom_site_occupancy
  In  In0  1  0.258208  0.817165  0.263620  1
  In  In1  1  0.741792  0.182835  0.736380  1
  In  In2  1  0.758208  0.182835  0.236380  1
  In  In3  1  0.241792  0.817165  0.763620  1
  Sn  Sn4  1  0.759018  0.727611  0.042575  1
  Sn  Sn5  1  0.240982  0.272389  0.957425  1
  Sn  Sn6  1  0.259018  0.272389  0.457425  1
  Sn  Sn7  1  0.740982  0.727611  0.542575  1
  F  F8  1  0.950694  0.704828  0.414143  1
  F  F9  1  0.049306  0.295172  0.585857  1
  F  F10  1  0.450694  0.295172  0.085857  1
  F  F11  1  0.549306  0.704828  0.914143  1
  F  F12  1  0.469495  0.727882  0.145449  1
  F  F13  1  0.530505  0.272118  0.854551  1
  F  F14  1  0.969495  0.272118  0.354551  1
  F  F15  1  0.030505  0.727882  0.645449  1
  F  F16  1  0.961767  0.743487  0.178870  1
  F  F17  1  0.038233  0.256513  0.821130  1
  F  F18  1  0.461767  0.256513  0.321130  1
  F  F19  1  0.538233  0.743487  0.678870  1
  F  F20  1  0.777420  0.474392  0.143202  1
  F  F21  1  0.222580  0.525608  0.856798  1
  F  F22  1  0.277420  0.525608  0.356798  1
  F  F23  1  0.722580  0.474392  0.643202  1
  F  F24  1  0.933400  0.276995  0.048444  1
  F  F25  1  0.066600  0.723005  0.951556  1
  F  F26  1  0.433400  0.723005  0.451556  1
  F  F27  1  0.566600  0.276995  0.548444  1
  F  F28  1  0.738240  0.981205  0.447534  1
  F  F29  1  0.261760  0.018795  0.552466  1
  F  F30  1  0.238240  0.018795  0.052466  1
  F  F31  1  0.761760  0.981205  0.947534  1
  F  F32  1  0.585332  0.969455  0.231452  1
  F  F33  1  0.414668  0.030545  0.768548  1
  F  F34  1  0.085332  0.030545  0.268548  1
  F  F35  1  0.914668  0.969455  0.731452  1
