# generated using pymatgen
data_Er7Tm(B6Ir)4
_symmetry_space_group_name_H-M   'P 1'
_cell_length_a   3.61841700
_cell_length_b   9.14191513
_cell_length_c   11.48071500
_cell_angle_alpha   89.98981657
_cell_angle_beta   90.00000000
_cell_angle_gamma   90.00000000
_symmetry_Int_Tables_number   1
_chemical_formula_structural   Er7Tm(B6Ir)4
_chemical_formula_sum   'Er7 Tm1 B24 Ir4'
_cell_volume   379.77356336
_cell_formula_units_Z   1
loop_
 _symmetry_equiv_pos_site_id
 _symmetry_equiv_pos_as_xyz
  1  'x, y, z'
loop_
 _atom_site_type_symbol
 _atom_site_label
 _atom_site_symmetry_multiplicity
 _atom_site_fract_x
 _atom_site_fract_y
 _atom_site_fract_z
 _atom_site_occupancy
  Er  Er0  1  0.500000  0.322012  0.413114  1
  Er  Er1  1  0.500000  0.677975  0.586670  1
  Er  Er2  1  0.500000  0.177813  0.913180  1
  Er  Er3  1  0.500000  0.822178  0.086944  1
  Er  Er4  1  0.500000  0.444589  0.125655  1
  Er  Er5  1  0.500000  0.555351  0.874494  1
  Er  Er6  1  0.500000  0.055351  0.625341  1
  Tm  Tm7  1  0.500000  0.944615  0.374458  1
  B  B8  1  0.000000  0.109866  0.469725  1
  B  B9  1  0.000000  0.889906  0.529717  1
  B  B10  1  0.000000  0.389279  0.969872  1
  B  B11  1  0.000000  0.610719  0.030238  1
  B  B12  1  0.000000  0.132418  0.316115  1
  B  B13  1  0.000000  0.867283  0.683916  1
  B  B14  1  0.000000  0.367179  0.815932  1
  B  B15  1  0.000000  0.632881  0.184146  1
  B  B16  1  0.000000  0.053384  0.066099  1
  B  B17  1  0.000000  0.946518  0.934038  1
  B  B18  1  0.000000  0.446544  0.565903  1
  B  B19  1  0.000000  0.553652  0.433980  1
  B  B20  1  0.000000  0.482205  0.287136  1
  B  B21  1  0.000000  0.517838  0.712919  1
  B  B22  1  0.000000  0.017856  0.786989  1
  B  B23  1  0.000000  0.981962  0.213250  1
  B  B24  1  0.000000  0.249720  0.079280  1
  B  B25  1  0.000000  0.750237  0.920814  1
  B  B26  1  0.000000  0.250103  0.579074  1
  B  B27  1  0.000000  0.750279  0.420743  1
  B  B28  1  0.000000  0.293997  0.235078  1
  B  B29  1  0.000000  0.705897  0.764964  1
  B  B30  1  0.000000  0.205834  0.734892  1
  B  B31  1  0.000000  0.794469  0.265238  1
  Ir  Ir32  1  0.500000  0.138626  0.179029  1
  Ir  Ir33  1  0.500000  0.861053  0.821125  1
  Ir  Ir34  1  0.500000  0.360994  0.678730  1
  Ir  Ir35  1  0.500000  0.639417  0.321202  1
