# generated using pymatgen
data_Li4Nd3Pb4
_symmetry_space_group_name_H-M   'P 1'
_cell_length_a   4.78051572
_cell_length_b   7.33660972
_cell_length_c   8.98422546
_cell_angle_alpha   114.09840427
_cell_angle_beta   105.42938550
_cell_angle_gamma   90.00000451
_symmetry_Int_Tables_number   1
_chemical_formula_structural   Li4Nd3Pb4
_chemical_formula_sum   'Li4 Nd3 Pb4'
_cell_volume   275.15150806
_cell_formula_units_Z   1
loop_
 _symmetry_equiv_pos_site_id
 _symmetry_equiv_pos_as_xyz
  1  'x, y, z'
loop_
 _atom_site_type_symbol
 _atom_site_label
 _atom_site_symmetry_multiplicity
 _atom_site_fract_x
 _atom_site_fract_y
 _atom_site_fract_z
 _atom_site_occupancy
  Li  Li0  1  0.672153  0.980881  0.344307  1
  Li  Li1  1  0.327847  0.019119  0.655693  1
  Li  Li2  1  0.327847  0.636574  0.655693  1
  Li  Li3  1  0.672153  0.363426  0.344307  1
  Nd  Nd4  1  0.000000  0.000000  0.000000  1
  Nd  Nd5  1  0.130227  0.630227  0.260454  1
  Nd  Nd6  1  0.869773  0.369773  0.739546  1
  Pb  Pb7  1  0.500000  0.703529  0.000000  1
  Pb  Pb8  1  0.500000  0.296471  0.000000  1
  Pb  Pb9  1  0.786802  0.786802  0.573604  1
  Pb  Pb10  1  0.213198  0.213198  0.426396  1
