# generated using pymatgen
data_Ho3Hf(SbRh5)2
_symmetry_space_group_name_H-M   'P 1'
_cell_length_a   4.22664800
_cell_length_b   5.72465103
_cell_length_c   11.26347402
_cell_angle_alpha   89.66841964
_cell_angle_beta   90.00000000
_cell_angle_gamma   90.00000000
_symmetry_Int_Tables_number   1
_chemical_formula_structural   Ho3Hf(SbRh5)2
_chemical_formula_sum   'Ho3 Hf1 Sb2 Rh10'
_cell_volume   272.52740929
_cell_formula_units_Z   1
loop_
 _symmetry_equiv_pos_site_id
 _symmetry_equiv_pos_as_xyz
  1  'x, y, z'
loop_
 _atom_site_type_symbol
 _atom_site_label
 _atom_site_symmetry_multiplicity
 _atom_site_fract_x
 _atom_site_fract_y
 _atom_site_fract_z
 _atom_site_occupancy
  Ho  Ho0  1  0.500000  0.179035  0.642150  1
  Ho  Ho1  1  0.500000  0.823395  0.358231  1
  Ho  Ho2  1  0.500000  0.677514  0.859086  1
  Hf  Hf3  1  0.500000  0.328063  0.143725  1
  Sb  Sb4  1  0.000000  0.498894  0.498762  1
  Sb  Sb5  1  0.000000  0.998287  0.001137  1
  Rh  Rh6  1  0.500000  0.192680  0.896528  1
  Rh  Rh7  1  0.500000  0.803116  0.110384  1
  Rh  Rh8  1  0.500000  0.691498  0.610491  1
  Rh  Rh9  1  0.500000  0.308951  0.382510  1
  Rh  Rh10  1  0.000000  0.435225  0.748469  1
  Rh  Rh11  1  0.000000  0.562272  0.249386  1
  Rh  Rh12  1  0.000000  0.000908  0.498887  1
  Rh  Rh13  1  0.000000  0.488633  0.005741  1
  Rh  Rh14  1  0.000000  0.075201  0.239928  1
  Rh  Rh15  1  0.000000  0.936328  0.754585  1
