# generated using pymatgen
data_Cs4AcNpBr10
_symmetry_space_group_name_H-M   'P 1'
_cell_length_a   9.18222703
_cell_length_b   9.77780200
_cell_length_c   14.78509464
_cell_angle_alpha   90.00000000
_cell_angle_beta   90.96620131
_cell_angle_gamma   90.00000000
_symmetry_Int_Tables_number   1
_chemical_formula_structural   Cs4AcNpBr10
_chemical_formula_sum   'Cs8 Ac2 Np2 Br20'
_cell_volume   1327.24659485
_cell_formula_units_Z   2
loop_
 _symmetry_equiv_pos_site_id
 _symmetry_equiv_pos_as_xyz
  1  'x, y, z'
loop_
 _atom_site_type_symbol
 _atom_site_label
 _atom_site_symmetry_multiplicity
 _atom_site_fract_x
 _atom_site_fract_y
 _atom_site_fract_z
 _atom_site_occupancy
  Cs  Cs0  1  0.945199  0.004029  0.825125  1
  Cs  Cs1  1  0.054801  0.995971  0.174875  1
  Cs  Cs2  1  0.443508  0.994916  0.666954  1
  Cs  Cs3  1  0.054801  0.504029  0.174875  1
  Cs  Cs4  1  0.556492  0.005084  0.333046  1
  Cs  Cs5  1  0.945199  0.495971  0.825125  1
  Cs  Cs6  1  0.556492  0.494916  0.333046  1
  Cs  Cs7  1  0.443508  0.505084  0.666954  1
  Ac  Ac8  1  0.429893  0.250000  0.995348  1
  Ac  Ac9  1  0.570107  0.750000  0.004652  1
  Np  Np10  1  0.940012  0.750000  0.500848  1
  Np  Np11  1  0.059988  0.250000  0.499152  1
  Br  Br12  1  0.114034  0.750000  0.668316  1
  Br  Br13  1  0.885966  0.250000  0.331684  1
  Br  Br14  1  0.617293  0.250000  0.824952  1
  Br  Br15  1  0.382707  0.750000  0.175048  1
  Br  Br16  1  0.846351  0.039806  0.566449  1
  Br  Br17  1  0.153649  0.960194  0.433551  1
  Br  Br18  1  0.338092  0.957480  0.925531  1
  Br  Br19  1  0.153649  0.539806  0.433551  1
  Br  Br20  1  0.661908  0.042520  0.074469  1
  Br  Br21  1  0.846351  0.460194  0.566449  1
  Br  Br22  1  0.661908  0.457480  0.074469  1
  Br  Br23  1  0.338092  0.542520  0.925531  1
  Br  Br24  1  0.615743  0.750000  0.513505  1
  Br  Br25  1  0.384257  0.250000  0.486495  1
  Br  Br26  1  0.093238  0.250000  0.988605  1
  Br  Br27  1  0.906762  0.750000  0.011395  1
  Br  Br28  1  0.651967  0.750000  0.804236  1
  Br  Br29  1  0.348033  0.250000  0.195764  1
  Br  Br30  1  0.149694  0.250000  0.690186  1
  Br  Br31  1  0.850306  0.750000  0.309814  1
