# generated using pymatgen
data_Ho2Lu3SiPb3
_symmetry_space_group_name_H-M   'P 1'
_cell_length_a   9.20105290
_cell_length_b   9.20105165
_cell_length_c   6.44724300
_cell_angle_alpha   90.00000000
_cell_angle_beta   90.00000000
_cell_angle_gamma   120.10551297
_symmetry_Int_Tables_number   1
_chemical_formula_structural   Ho2Lu3SiPb3
_chemical_formula_sum   'Ho4 Lu6 Si2 Pb6'
_cell_volume   472.19016228
_cell_formula_units_Z   2
loop_
 _symmetry_equiv_pos_site_id
 _symmetry_equiv_pos_as_xyz
  1  'x, y, z'
loop_
 _atom_site_type_symbol
 _atom_site_label
 _atom_site_symmetry_multiplicity
 _atom_site_fract_x
 _atom_site_fract_y
 _atom_site_fract_z
 _atom_site_occupancy
  Ho  Ho0  1  0.249919  0.000249  0.750000  1
  Ho  Ho1  1  0.750081  0.999751  0.250000  1
  Ho  Ho2  1  0.000249  0.249919  0.750000  1
  Ho  Ho3  1  0.999751  0.750081  0.250000  1
  Lu  Lu4  1  0.751367  0.751367  0.750000  1
  Lu  Lu5  1  0.248633  0.248633  0.250000  1
  Lu  Lu6  1  0.333425  0.666575  0.500000  1
  Lu  Lu7  1  0.666575  0.333425  0.500000  1
  Lu  Lu8  1  0.666575  0.333425  0.000000  1
  Lu  Lu9  1  0.333425  0.666575  0.000000  1
  Si  Si10  1  0.000000  0.000000  0.500000  1
  Si  Si11  1  0.000000  0.000000  0.000000  1
  Pb  Pb12  1  0.605612  0.999027  0.750000  1
  Pb  Pb13  1  0.394388  0.000973  0.250000  1
  Pb  Pb14  1  0.999027  0.605612  0.750000  1
  Pb  Pb15  1  0.000973  0.394388  0.250000  1
  Pb  Pb16  1  0.396443  0.396443  0.750000  1
  Pb  Pb17  1  0.603557  0.603557  0.250000  1
