# generated using pymatgen
data_ScGa7(RuRh)4
_symmetry_space_group_name_H-M   'P 1'
_cell_length_a   6.12190400
_cell_length_b   4.32758500
_cell_length_c   8.59667800
_cell_angle_alpha   90.00000000
_cell_angle_beta   89.99930444
_cell_angle_gamma   90.00000000
_symmetry_Int_Tables_number   1
_chemical_formula_structural   ScGa7(RuRh)4
_chemical_formula_sum   'Sc1 Ga7 Ru4 Rh4'
_cell_volume   227.75230537
_cell_formula_units_Z   1
loop_
 _symmetry_equiv_pos_site_id
 _symmetry_equiv_pos_as_xyz
  1  'x, y, z'
loop_
 _atom_site_type_symbol
 _atom_site_label
 _atom_site_symmetry_multiplicity
 _atom_site_fract_x
 _atom_site_fract_y
 _atom_site_fract_z
 _atom_site_occupancy
  Sc  Sc0  1  0.499485  0.750000  0.125003  1
  Ga  Ga1  1  0.000021  0.750000  0.125015  1
  Ga  Ga2  1  0.500243  0.250001  0.369693  1
  Ga  Ga3  1  0.000322  0.250001  0.378727  1
  Ga  Ga4  1  0.998942  0.750000  0.625012  1
  Ga  Ga5  1  0.500689  0.750000  0.625023  1
  Ga  Ga6  1  0.000142  0.250001  0.871251  1
  Ga  Ga7  1  0.500034  0.250001  0.880276  1
  Ru  Ru8  1  0.765875  0.250001  0.124994  1
  Ru  Ru9  1  0.242658  0.750000  0.382319  1
  Ru  Ru10  1  0.748600  0.250001  0.624988  1
  Ru  Ru11  1  0.242437  0.750000  0.867717  1
  Rh  Rh12  1  0.239353  0.250001  0.124996  1
  Rh  Rh13  1  0.753733  0.750000  0.380702  1
  Rh  Rh14  1  0.253962  0.250001  0.624991  1
  Rh  Rh15  1  0.753503  0.750000  0.869294  1
