# generated using pymatgen
data_Lu4Si6IrRh
_symmetry_space_group_name_H-M   'P 1'
_cell_length_a   8.11063800
_cell_length_b   8.11063839
_cell_length_c   7.69229800
_cell_angle_alpha   90.00000000
_cell_angle_beta   90.00000000
_cell_angle_gamma   119.99999841
_symmetry_Int_Tables_number   1
_chemical_formula_structural   Lu4Si6IrRh
_chemical_formula_sum   'Lu8 Si12 Ir2 Rh2'
_cell_volume   438.22464333
_cell_formula_units_Z   2
loop_
 _symmetry_equiv_pos_site_id
 _symmetry_equiv_pos_as_xyz
  1  'x, y, z'
loop_
 _atom_site_type_symbol
 _atom_site_label
 _atom_site_symmetry_multiplicity
 _atom_site_fract_x
 _atom_site_fract_y
 _atom_site_fract_z
 _atom_site_occupancy
  Lu  Lu0  1  0.980300  0.490151  0.249657  1
  Lu  Lu1  1  0.509849  0.490151  0.249657  1
  Lu  Lu2  1  0.490151  0.980300  0.750343  1
  Lu  Lu3  1  0.019700  0.509849  0.750343  1
  Lu  Lu4  1  0.490151  0.509849  0.750343  1
  Lu  Lu5  1  0.509849  0.019700  0.249657  1
  Lu  Lu6  1  0.000000  0.000000  0.748334  1
  Lu  Lu7  1  0.000000  0.000000  0.251666  1
  Si  Si8  1  0.166849  0.833151  0.500213  1
  Si  Si9  1  0.166849  0.333697  0.500213  1
  Si  Si10  1  0.666303  0.833151  0.500213  1
  Si  Si11  1  0.332636  0.166318  0.998859  1
  Si  Si12  1  0.833151  0.666303  0.499787  1
  Si  Si13  1  0.833682  0.166318  0.998859  1
  Si  Si14  1  0.833682  0.667364  0.998859  1
  Si  Si15  1  0.166318  0.332636  0.001141  1
  Si  Si16  1  0.667364  0.833682  0.001141  1
  Si  Si17  1  0.333697  0.166849  0.499787  1
  Si  Si18  1  0.833151  0.166849  0.499787  1
  Si  Si19  1  0.166318  0.833682  0.001141  1
  Ir  Ir20  1  0.333333  0.666667  0.032229  1
  Ir  Ir21  1  0.666667  0.333333  0.967771  1
  Rh  Rh22  1  0.666667  0.333333  0.538314  1
  Rh  Rh23  1  0.333333  0.666667  0.461686  1
