# generated using pymatgen
data_CaZrFeSbO7
_symmetry_space_group_name_H-M   'P 1'
_cell_length_a   7.35680392
_cell_length_b   7.37095846
_cell_length_c   11.68660118
_cell_angle_alpha   81.07865612
_cell_angle_beta   81.05226928
_cell_angle_gamma   60.51252780
_symmetry_Int_Tables_number   1
_chemical_formula_structural   CaZrFeSbO7
_chemical_formula_sum   'Ca4 Zr4 Fe4 Sb4 O28'
_cell_volume   542.64531683
_cell_formula_units_Z   4
loop_
 _symmetry_equiv_pos_site_id
 _symmetry_equiv_pos_as_xyz
  1  'x, y, z'
loop_
 _atom_site_type_symbol
 _atom_site_label
 _atom_site_symmetry_multiplicity
 _atom_site_fract_x
 _atom_site_fract_y
 _atom_site_fract_z
 _atom_site_occupancy
  Ca  Ca0  1  0.252674  0.503467  0.999802  1
  Ca  Ca1  1  0.496578  0.747555  0.498502  1
  Ca  Ca2  1  0.747326  0.496533  0.000198  1
  Ca  Ca3  1  0.503422  0.252445  0.501498  1
  Zr  Zr4  1  0.988634  0.239427  0.526287  1
  Zr  Zr5  1  0.760905  0.011300  0.973905  1
  Zr  Zr6  1  0.011366  0.760573  0.473713  1
  Zr  Zr7  1  0.239095  0.988700  0.026095  1
  Fe  Fe8  1  0.871172  0.129677  0.250262  1
  Fe  Fe9  1  0.128828  0.870323  0.749738  1
  Fe  Fe10  1  0.441080  0.551159  0.249644  1
  Fe  Fe11  1  0.558920  0.448841  0.750356  1
  Sb  Sb12  1  0.130447  0.369453  0.752946  1
  Sb  Sb13  1  0.629837  0.869729  0.746880  1
  Sb  Sb14  1  0.869553  0.630547  0.247054  1
  Sb  Sb15  1  0.370163  0.130271  0.253120  1
  O  O16  1  0.537285  0.883307  0.917195  1
  O  O17  1  0.116037  0.462354  0.582888  1
  O  O18  1  0.462715  0.116693  0.082805  1
  O  O19  1  0.883963  0.537646  0.417112  1
  O  O20  1  0.242373  0.554520  0.781412  1
  O  O21  1  0.443008  0.761289  0.717724  1
  O  O22  1  0.757627  0.445480  0.218588  1
  O  O23  1  0.556992  0.238711  0.282276  1
  O  O24  1  0.054011  0.169669  0.706489  1
  O  O25  1  0.831496  0.941583  0.794253  1
  O  O26  1  0.945989  0.830331  0.293511  1
  O  O27  1  0.168504  0.058417  0.205747  1
  O  O28  1  0.333002  0.605516  0.405021  1
  O  O29  1  0.392317  0.668183  0.094877  1
  O  O30  1  0.666998  0.394484  0.594979  1
  O  O31  1  0.607683  0.331817  0.905123  1
  O  O32  1  0.884776  0.121317  0.078880  1
  O  O33  1  0.878179  0.115421  0.421649  1
  O  O34  1  0.115224  0.878683  0.921120  1
  O  O35  1  0.121821  0.884579  0.578351  1
  O  O36  1  0.126553  0.287863  0.924880  1
  O  O37  1  0.713503  0.871863  0.575194  1
  O  O38  1  0.873447  0.712137  0.075120  1
  O  O39  1  0.286497  0.128137  0.424806  1
  O  O40  1  0.178921  0.438922  0.212534  1
  O  O41  1  0.563590  0.825467  0.289187  1
  O  O42  1  0.821079  0.561078  0.787466  1
  O  O43  1  0.436410  0.174533  0.710813  1
