# generated using pymatgen
data_Hg(PtCl5)2
_symmetry_space_group_name_H-M   'P 1'
_cell_length_a   9.78184566
_cell_length_b   9.78184547
_cell_length_c   13.39534489
_cell_angle_alpha   85.92767660
_cell_angle_beta   85.92767782
_cell_angle_gamma   140.03718246
_symmetry_Int_Tables_number   1
_chemical_formula_structural   Hg(PtCl5)2
_chemical_formula_sum   'Hg2 Pt4 Cl20'
_cell_volume   805.26689261
_cell_formula_units_Z   2
loop_
 _symmetry_equiv_pos_site_id
 _symmetry_equiv_pos_as_xyz
  1  'x, y, z'
loop_
 _atom_site_type_symbol
 _atom_site_label
 _atom_site_symmetry_multiplicity
 _atom_site_fract_x
 _atom_site_fract_y
 _atom_site_fract_z
 _atom_site_occupancy
  Hg  Hg0  1  0.552755  0.447245  0.250000  1
  Hg  Hg1  1  0.447245  0.552755  0.750000  1
  Pt  Pt2  1  0.949449  0.050551  0.250000  1
  Pt  Pt3  1  0.050551  0.949449  0.750000  1
  Pt  Pt4  1  0.756504  0.243496  0.250000  1
  Pt  Pt5  1  0.243496  0.756504  0.750000  1
  Cl  Cl6  1  0.046224  0.752977  0.651592  1
  Cl  Cl7  1  0.247023  0.953776  0.848408  1
  Cl  Cl8  1  0.953776  0.247023  0.348408  1
  Cl  Cl9  1  0.752977  0.046224  0.151592  1
  Cl  Cl10  1  0.719891  0.623734  0.855186  1
  Cl  Cl11  1  0.376266  0.280109  0.644814  1
  Cl  Cl12  1  0.280109  0.376266  0.144814  1
  Cl  Cl13  1  0.623734  0.719891  0.355186  1
  Cl  Cl14  1  0.919467  0.428386  0.857542  1
  Cl  Cl15  1  0.571614  0.080533  0.642458  1
  Cl  Cl16  1  0.080533  0.571614  0.142458  1
  Cl  Cl17  1  0.428386  0.919467  0.357542  1
  Cl  Cl18  1  0.862274  0.937372  0.645666  1
  Cl  Cl19  1  0.062628  0.137726  0.854334  1
  Cl  Cl20  1  0.137726  0.062628  0.354334  1
  Cl  Cl21  1  0.937372  0.862274  0.145666  1
  Cl  Cl22  1  0.228460  0.565880  0.647911  1
  Cl  Cl23  1  0.434120  0.771540  0.852089  1
  Cl  Cl24  1  0.771540  0.434120  0.352089  1
  Cl  Cl25  1  0.565880  0.228460  0.147911  1
