# generated using pymatgen
data_Y3Tm2InBi2
_symmetry_space_group_name_H-M   'P 1'
_cell_length_a   6.50822600
_cell_length_b   9.04248516
_cell_length_c   9.04089300
_cell_angle_alpha   120.00582717
_cell_angle_beta   89.99989436
_cell_angle_gamma   90.00020490
_symmetry_Int_Tables_number   1
_chemical_formula_structural   Y3Tm2InBi2
_chemical_formula_sum   'Y6 Tm4 In2 Bi4'
_cell_volume   460.75163753
_cell_formula_units_Z   2
loop_
 _symmetry_equiv_pos_site_id
 _symmetry_equiv_pos_as_xyz
  1  'x, y, z'
loop_
 _atom_site_type_symbol
 _atom_site_label
 _atom_site_symmetry_multiplicity
 _atom_site_fract_x
 _atom_site_fract_y
 _atom_site_fract_z
 _atom_site_occupancy
  Y  Y0  1  0.750048  0.238983  0.999996  1
  Y  Y1  1  0.749967  0.762816  0.760985  1
  Y  Y2  1  0.749967  0.001851  0.239015  1
  Y  Y3  1  0.249971  0.763966  0.999993  1
  Y  Y4  1  0.250036  0.235679  0.243907  1
  Y  Y5  1  0.250036  0.991772  0.756095  1
  Tm  Tm6  1  0.495682  0.331565  0.660072  1
  Tm  Tm7  1  0.495668  0.671499  0.339937  1
  Tm  Tm8  1  0.004323  0.671503  0.339950  1
  Tm  Tm9  1  0.004309  0.331554  0.660058  1
  In  In10  1  0.250015  0.602355  0.604266  1
  In  In11  1  0.250018  0.998080  0.395722  1
  Bi  Bi12  1  0.749992  0.605156  0.999997  1
  Bi  Bi13  1  0.749993  0.398135  0.394833  1
  Bi  Bi14  1  0.749993  0.003310  0.605172  1
  Bi  Bi15  1  0.249981  0.391775  0.000000  1
