# generated using pymatgen
data_Nd2Tm6Cd2IrPt
_symmetry_space_group_name_H-M   'P 1'
_cell_length_a   9.64536173
_cell_length_b   9.62081480
_cell_length_c   9.60923920
_cell_angle_alpha   60.20879615
_cell_angle_beta   59.95507643
_cell_angle_gamma   60.20815869
_symmetry_Int_Tables_number   1
_chemical_formula_structural   Nd2Tm6Cd2IrPt
_chemical_formula_sum   'Nd4 Tm12 Cd4 Ir2 Pt2'
_cell_volume   632.29122257
_cell_formula_units_Z   2
loop_
 _symmetry_equiv_pos_site_id
 _symmetry_equiv_pos_as_xyz
  1  'x, y, z'
loop_
 _atom_site_type_symbol
 _atom_site_label
 _atom_site_symmetry_multiplicity
 _atom_site_fract_x
 _atom_site_fract_y
 _atom_site_fract_z
 _atom_site_occupancy
  Nd  Nd0  1  0.565620  0.935796  0.563930  1
  Nd  Nd1  1  0.935796  0.565620  0.934654  1
  Nd  Nd2  1  0.564440  0.564440  0.935560  1
  Nd  Nd3  1  0.935762  0.935762  0.564238  1
  Tm  Tm4  1  0.353263  0.346866  0.343923  1
  Tm  Tm5  1  0.346866  0.353263  0.955946  1
  Tm  Tm6  1  0.353612  0.946545  0.352985  1
  Tm  Tm7  1  0.946545  0.353612  0.346857  1
  Tm  Tm8  1  0.809553  0.187688  0.186134  1
  Tm  Tm9  1  0.187688  0.809553  0.816626  1
  Tm  Tm10  1  0.189150  0.808534  0.189423  1
  Tm  Tm11  1  0.808534  0.189150  0.812893  1
  Tm  Tm12  1  0.189865  0.189865  0.810135  1
  Tm  Tm13  1  0.812672  0.812672  0.187328  1
  Tm  Tm14  1  0.948004  0.554677  0.551127  1
  Tm  Tm15  1  0.554677  0.948004  0.946191  1
  Cd  Cd16  1  0.584203  0.577904  0.578391  1
  Cd  Cd17  1  0.577904  0.584203  0.259502  1
  Cd  Cd18  1  0.578354  0.259148  0.583252  1
  Cd  Cd19  1  0.259148  0.578354  0.579246  1
  Ir  Ir20  1  0.138377  0.573816  0.148678  1
  Ir  Ir21  1  0.573816  0.138377  0.139129  1
  Pt  Pt22  1  0.146000  0.140148  0.141629  1
  Pt  Pt23  1  0.140148  0.146000  0.572222  1
