# generated using pymatgen
data_Eu16Mg4IrRu3
_symmetry_space_group_name_H-M   'P 1'
_cell_length_a   10.26941640
_cell_length_b   10.26530886
_cell_length_c   10.26530900
_cell_angle_alpha   60.00000278
_cell_angle_beta   60.01323304
_cell_angle_gamma   60.01323635
_symmetry_Int_Tables_number   1
_chemical_formula_structural   Eu16Mg4IrRu3
_chemical_formula_sum   'Eu16 Mg4 Ir1 Ru3'
_cell_volume   765.35279236
_cell_formula_units_Z   1
loop_
 _symmetry_equiv_pos_site_id
 _symmetry_equiv_pos_as_xyz
  1  'x, y, z'
loop_
 _atom_site_type_symbol
 _atom_site_label
 _atom_site_symmetry_multiplicity
 _atom_site_fract_x
 _atom_site_fract_y
 _atom_site_fract_z
 _atom_site_occupancy
  Eu  Eu0  1  0.449412  0.050688  0.449213  1
  Eu  Eu1  1  0.811281  0.811846  0.188437  1
  Eu  Eu2  1  0.050773  0.449336  0.050554  1
  Eu  Eu3  1  0.187015  0.811162  0.190660  1
  Eu  Eu4  1  0.811281  0.188437  0.188437  1
  Eu  Eu5  1  0.050773  0.050554  0.449336  1
  Eu  Eu6  1  0.658736  0.658007  0.658007  1
  Eu  Eu7  1  0.658736  0.025249  0.658007  1
  Eu  Eu8  1  0.187015  0.811162  0.811162  1
  Eu  Eu9  1  0.025185  0.658271  0.658271  1
  Eu  Eu10  1  0.050773  0.449336  0.449336  1
  Eu  Eu11  1  0.187015  0.190660  0.811162  1
  Eu  Eu12  1  0.658736  0.658007  0.025249  1
  Eu  Eu13  1  0.449412  0.050688  0.050688  1
  Eu  Eu14  1  0.811281  0.188437  0.811846  1
  Eu  Eu15  1  0.449412  0.449213  0.050688  1
  Mg  Mg16  1  0.731834  0.422722  0.422722  1
  Mg  Mg17  1  0.422968  0.422826  0.422826  1
  Mg  Mg18  1  0.422968  0.731380  0.422826  1
  Mg  Mg19  1  0.422968  0.422826  0.731380  1
  Ir  Ir20  1  0.410033  0.863322  0.863322  1
  Ru  Ru21  1  0.864130  0.865082  0.865082  1
  Ru  Ru22  1  0.864130  0.405706  0.865082  1
  Ru  Ru23  1  0.864130  0.865082  0.405706  1
