# generated using pymatgen
data_Y6Tm4GaSb5
_symmetry_space_group_name_H-M   'P 1'
_cell_length_a   6.34252800
_cell_length_b   8.86496162
_cell_length_c   8.85880523
_cell_angle_alpha   120.02299797
_cell_angle_beta   90.00010972
_cell_angle_gamma   89.99978661
_symmetry_Int_Tables_number   1
_chemical_formula_structural   Y6Tm4GaSb5
_chemical_formula_sum   'Y6 Tm4 Ga1 Sb5'
_cell_volume   431.26513205
_cell_formula_units_Z   1
loop_
 _symmetry_equiv_pos_site_id
 _symmetry_equiv_pos_as_xyz
  1  'x, y, z'
loop_
 _atom_site_type_symbol
 _atom_site_label
 _atom_site_symmetry_multiplicity
 _atom_site_fract_x
 _atom_site_fract_y
 _atom_site_fract_z
 _atom_site_occupancy
  Y  Y0  1  0.749998  0.250291  0.000000  1
  Y  Y1  1  0.750004  0.752049  0.762746  1
  Y  Y2  1  0.750004  0.989303  0.237254  1
  Y  Y3  1  0.249989  0.754520  0.000000  1
  Y  Y4  1  0.249998  0.245950  0.245363  1
  Y  Y5  1  0.249998  0.000586  0.754637  1
  Tm  Tm6  1  0.501386  0.340113  0.675016  1
  Tm  Tm7  1  0.501386  0.665098  0.324984  1
  Tm  Tm8  1  0.998614  0.665096  0.324978  1
  Tm  Tm9  1  0.998614  0.340118  0.675022  1
  Ga  Ga10  1  0.750019  0.605398  0.000000  1
  Sb  Sb11  1  0.750002  0.388746  0.390909  1
  Sb  Sb12  1  0.750002  0.997835  0.609091  1
  Sb  Sb13  1  0.249993  0.391816  0.000000  1
  Sb  Sb14  1  0.249998  0.610052  0.607024  1
  Sb  Sb15  1  0.249998  0.003029  0.392976  1
