# generated using pymatgen
data_K6TmScF12
_symmetry_space_group_name_H-M   'P 1'
_cell_length_a   6.54016650
_cell_length_b   6.31025061
_cell_length_c   10.98193905
_cell_angle_alpha   55.31011627
_cell_angle_beta   89.80407271
_cell_angle_gamma   90.03578735
_symmetry_Int_Tables_number   1
_chemical_formula_structural   K6TmScF12
_chemical_formula_sum   'K6 Tm1 Sc1 F12'
_cell_volume   372.65828278
_cell_formula_units_Z   1
loop_
 _symmetry_equiv_pos_site_id
 _symmetry_equiv_pos_as_xyz
  1  'x, y, z'
loop_
 _atom_site_type_symbol
 _atom_site_label
 _atom_site_symmetry_multiplicity
 _atom_site_fract_x
 _atom_site_fract_y
 _atom_site_fract_z
 _atom_site_occupancy
  K  K0  1  0.500000  0.500000  0.000000  1
  K  K1  1  0.000000  0.500000  0.500000  1
  K  K2  1  0.052141  0.738626  0.747572  1
  K  K3  1  0.947859  0.261374  0.252428  1
  K  K4  1  0.549434  0.273153  0.740497  1
  K  K5  1  0.450566  0.726847  0.259503  1
  Tm  Tm6  1  0.000000  0.000000  0.000000  1
  Sc  Sc7  1  0.500000  0.000000  0.500000  1
  F  F8  1  0.758638  0.776910  0.561723  1
  F  F9  1  0.241362  0.223090  0.438277  1
  F  F10  1  0.272477  0.233724  0.931983  1
  F  F11  1  0.727523  0.766276  0.068017  1
  F  F12  1  0.451527  0.889118  0.712815  1
  F  F13  1  0.548473  0.110882  0.287185  1
  F  F14  1  0.948045  0.116378  0.776387  1
  F  F15  1  0.051955  0.883622  0.223613  1
  F  F16  1  0.329270  0.691227  0.544491  1
  F  F17  1  0.670730  0.308773  0.455509  1
  F  F18  1  0.826579  0.327772  0.951039  1
  F  F19  1  0.173421  0.672228  0.048961  1
