# generated using pymatgen
data_Tb4Nd16(Ir3Ru)3
_symmetry_space_group_name_H-M   'P 1'
_cell_length_a   11.18224400
_cell_length_b   11.18224400
_cell_length_c   6.56262100
_cell_angle_alpha   90.00000000
_cell_angle_beta   90.00000000
_cell_angle_gamma   90.00000000
_symmetry_Int_Tables_number   1
_chemical_formula_structural   Tb4Nd16(Ir3Ru)3
_chemical_formula_sum   'Tb4 Nd16 Ir9 Ru3'
_cell_volume   820.60706715
_cell_formula_units_Z   1
loop_
 _symmetry_equiv_pos_site_id
 _symmetry_equiv_pos_as_xyz
  1  'x, y, z'
loop_
 _atom_site_type_symbol
 _atom_site_label
 _atom_site_symmetry_multiplicity
 _atom_site_fract_x
 _atom_site_fract_y
 _atom_site_fract_z
 _atom_site_occupancy
  Tb  Tb0  1  0.000000  0.000000  0.499255  1
  Tb  Tb1  1  0.000000  0.000000  0.999335  1
  Tb  Tb2  1  0.500000  0.500000  0.999335  1
  Tb  Tb3  1  0.500000  0.500000  0.499255  1
  Nd  Nd4  1  0.292128  0.086730  0.381064  1
  Nd  Nd5  1  0.292208  0.913481  0.881468  1
  Nd  Nd6  1  0.707792  0.086519  0.881468  1
  Nd  Nd7  1  0.707872  0.913270  0.381064  1
  Nd  Nd8  1  0.586519  0.792208  0.881468  1
  Nd  Nd9  1  0.586730  0.207872  0.381064  1
  Nd  Nd10  1  0.413270  0.792128  0.381064  1
  Nd  Nd11  1  0.413481  0.207792  0.881468  1
  Nd  Nd12  1  0.209566  0.412482  0.620450  1
  Nd  Nd13  1  0.209407  0.587502  0.117745  1
  Nd  Nd14  1  0.790593  0.412498  0.117745  1
  Nd  Nd15  1  0.790434  0.587518  0.620450  1
  Nd  Nd16  1  0.912498  0.709407  0.117745  1
  Nd  Nd17  1  0.912482  0.290434  0.620450  1
  Nd  Nd18  1  0.087518  0.709566  0.620450  1
  Nd  Nd19  1  0.087502  0.290593  0.117745  1
  Ir  Ir20  1  0.851342  0.149608  0.250175  1
  Ir  Ir21  1  0.850962  0.850208  0.749781  1
  Ir  Ir22  1  0.149038  0.149792  0.749781  1
  Ir  Ir23  1  0.148658  0.850392  0.250175  1
  Ir  Ir24  1  0.649792  0.350962  0.749781  1
  Ir  Ir25  1  0.649608  0.648658  0.250175  1
  Ir  Ir26  1  0.350392  0.351342  0.250175  1
  Ir  Ir27  1  0.350208  0.649038  0.749781  1
  Ir  Ir28  1  0.000000  0.500000  0.380471  1
  Ru  Ru29  1  0.500000  0.000000  0.119368  1
  Ru  Ru30  1  0.500000  0.000000  0.618791  1
  Ru  Ru31  1  0.000000  0.500000  0.881457  1
