# generated using pymatgen
data_Lu8Ti8V3Si16Mo
_symmetry_space_group_name_H-M   'P 1'
_cell_length_a   6.71567607
_cell_length_b   6.89869716
_cell_length_c   13.13745400
_cell_angle_alpha   90.00000000
_cell_angle_beta   90.00000000
_cell_angle_gamma   90.04653796
_symmetry_Int_Tables_number   1
_chemical_formula_structural   Lu8Ti8V3Si16Mo
_chemical_formula_sum   'Lu8 Ti8 V3 Si16 Mo1'
_cell_volume   608.65036364
_cell_formula_units_Z   1
loop_
 _symmetry_equiv_pos_site_id
 _symmetry_equiv_pos_as_xyz
  1  'x, y, z'
loop_
 _atom_site_type_symbol
 _atom_site_label
 _atom_site_symmetry_multiplicity
 _atom_site_fract_x
 _atom_site_fract_y
 _atom_site_fract_z
 _atom_site_occupancy
  Lu  Lu0  1  0.502288  0.328132  0.096399  1
  Lu  Lu1  1  0.001149  0.173235  0.403540  1
  Lu  Lu2  1  0.498032  0.672348  0.596838  1
  Lu  Lu3  1  0.998349  0.827788  0.903309  1
  Lu  Lu4  1  0.498032  0.672348  0.903162  1
  Lu  Lu5  1  0.998349  0.827788  0.596691  1
  Lu  Lu6  1  0.502288  0.328132  0.403601  1
  Lu  Lu7  1  0.001149  0.173235  0.096460  1
  Ti  Ti8  1  0.834737  0.325688  0.627325  1
  Ti  Ti9  1  0.334257  0.174102  0.873123  1
  Ti  Ti10  1  0.165057  0.673370  0.126574  1
  Ti  Ti11  1  0.666527  0.825868  0.373703  1
  Ti  Ti12  1  0.165057  0.673370  0.373426  1
  Ti  Ti13  1  0.666527  0.825868  0.126297  1
  Ti  Ti14  1  0.834737  0.325688  0.872675  1
  Ti  Ti15  1  0.334257  0.174102  0.626877  1
  V  V16  1  0.663226  0.012059  0.750000  1
  V  V17  1  0.162552  0.488278  0.750000  1
  V  V18  1  0.336750  0.987763  0.250000  1
  Si  Si19  1  0.660726  0.037642  0.542944  1
  Si  Si20  1  0.161390  0.462343  0.956952  1
  Si  Si21  1  0.338714  0.962178  0.042268  1
  Si  Si22  1  0.838514  0.538378  0.458724  1
  Si  Si23  1  0.338714  0.962178  0.457732  1
  Si  Si24  1  0.838514  0.538378  0.041276  1
  Si  Si25  1  0.660726  0.037642  0.957056  1
  Si  Si26  1  0.161390  0.462343  0.543048  1
  Si  Si27  1  0.535534  0.376351  0.750000  1
  Si  Si28  1  0.036516  0.124053  0.750000  1
  Si  Si29  1  0.462176  0.624915  0.250000  1
  Si  Si30  1  0.965160  0.878767  0.250000  1
  Si  Si31  1  0.799846  0.628481  0.750000  1
  Si  Si32  1  0.299421  0.871864  0.750000  1
  Si  Si33  1  0.203413  0.368910  0.250000  1
  Si  Si34  1  0.699027  0.126822  0.250000  1
  Mo  Mo35  1  0.836903  0.509598  0.250000  1
