# generated using pymatgen
data_RbNa2CaReN4
_symmetry_space_group_name_H-M   'P 1'
_cell_length_a   6.07092587
_cell_length_b   6.12114106
_cell_length_c   9.37154350
_cell_angle_alpha   71.14815510
_cell_angle_beta   81.86770897
_cell_angle_gamma   68.96098703
_symmetry_Int_Tables_number   1
_chemical_formula_structural   RbNa2CaReN4
_chemical_formula_sum   'Rb2 Na4 Ca2 Re2 N8'
_cell_volume   307.47599631
_cell_formula_units_Z   2
loop_
 _symmetry_equiv_pos_site_id
 _symmetry_equiv_pos_as_xyz
  1  'x, y, z'
loop_
 _atom_site_type_symbol
 _atom_site_label
 _atom_site_symmetry_multiplicity
 _atom_site_fract_x
 _atom_site_fract_y
 _atom_site_fract_z
 _atom_site_occupancy
  Rb  Rb0  1  0.738850  0.655928  0.144112  1
  Rb  Rb1  1  0.261150  0.344072  0.855888  1
  Na  Na2  1  0.756859  0.247831  0.981224  1
  Na  Na3  1  0.243141  0.752169  0.018776  1
  Na  Na4  1  0.742107  0.469472  0.571283  1
  Na  Na5  1  0.257893  0.530528  0.428717  1
  Ca  Ca6  1  0.242839  0.937873  0.626520  1
  Ca  Ca7  1  0.757161  0.062127  0.373480  1
  Re  Re8  1  0.743034  0.876061  0.723183  1
  Re  Re9  1  0.256966  0.123939  0.276817  1
  N  N10  1  0.960525  0.737224  0.592190  1
  N  N11  1  0.039475  0.262776  0.407810  1
  N  N12  1  0.911902  0.940505  0.845000  1
  N  N13  1  0.088098  0.059495  0.155000  1
  N  N14  1  0.564571  0.678004  0.821773  1
  N  N15  1  0.435429  0.321996  0.178227  1
  N  N16  1  0.461762  0.841513  0.396548  1
  N  N17  1  0.538238  0.158487  0.603452  1
