# generated using pymatgen
data_Er8TiRe9(Si8Ru)2
_symmetry_space_group_name_H-M   'P 1'
_cell_length_a   6.71983528
_cell_length_b   6.72275705
_cell_length_c   12.91512550
_cell_angle_alpha   90.06682054
_cell_angle_beta   89.97051333
_cell_angle_gamma   89.62634471
_symmetry_Int_Tables_number   1
_chemical_formula_structural   Er8TiRe9(Si8Ru)2
_chemical_formula_sum   'Er8 Ti1 Re9 Si16 Ru2'
_cell_volume   583.43850210
_cell_formula_units_Z   1
loop_
 _symmetry_equiv_pos_site_id
 _symmetry_equiv_pos_as_xyz
  1  'x, y, z'
loop_
 _atom_site_type_symbol
 _atom_site_label
 _atom_site_symmetry_multiplicity
 _atom_site_fract_x
 _atom_site_fract_y
 _atom_site_fract_z
 _atom_site_occupancy
  Er  Er0  1  0.336900  0.990272  0.467387  1
  Er  Er1  1  0.510000  0.832525  0.717867  1
  Er  Er2  1  0.486102  0.165626  0.216549  1
  Er  Er3  1  0.833520  0.513116  0.282249  1
  Er  Er4  1  0.168340  0.489695  0.783017  1
  Er  Er5  1  0.661222  0.007668  0.970592  1
  Er  Er6  1  0.992452  0.337248  0.530782  1
  Er  Er7  1  0.010385  0.660887  0.030886  1
  Ti  Ti8  1  0.844060  0.157338  0.751076  1
  Re  Re9  1  0.339215  0.336273  0.998453  1
  Re  Re10  1  0.182786  0.987492  0.863781  1
  Re  Re11  1  0.511314  0.694022  0.117399  1
  Re  Re12  1  0.500561  0.306789  0.618178  1
  Re  Re13  1  0.695817  0.498346  0.880860  1
  Re  Re14  1  0.309601  0.490618  0.383070  1
  Re  Re15  1  0.805263  0.015973  0.363663  1
  Re  Re16  1  0.982280  0.195902  0.137815  1
  Re  Re17  1  0.010621  0.816052  0.635450  1
  Si  Si18  1  0.206507  0.117992  0.680618  1
  Si  Si19  1  0.388410  0.694296  0.931337  1
  Si  Si20  1  0.610963  0.304994  0.432415  1
  Si  Si21  1  0.694650  0.390230  0.068518  1
  Si  Si22  1  0.304928  0.612469  0.567562  1
  Si  Si23  1  0.802458  0.889521  0.181457  1
  Si  Si24  1  0.111080  0.197807  0.319148  1
  Si  Si25  1  0.881514  0.793718  0.819196  1
  Si  Si26  1  0.263451  0.987871  0.056347  1
  Si  Si27  1  0.510745  0.776313  0.305611  1
  Si  Si28  1  0.480734  0.216394  0.811337  1
  Si  Si29  1  0.783798  0.518291  0.690198  1
  Si  Si30  1  0.224057  0.488294  0.192987  1
  Si  Si31  1  0.729306  0.013187  0.553889  1
  Si  Si32  1  0.986242  0.268600  0.946148  1
  Si  Si33  1  0.011760  0.733860  0.443867  1
  Ru  Ru34  1  0.161865  0.838223  0.248624  1
  Ru  Ru35  1  0.667094  0.662101  0.501669  1
