# generated using pymatgen
data_ErTm(Th2In5)2
_symmetry_space_group_name_H-M   'P 1'
_cell_length_a   6.57829778
_cell_length_b   6.57829757
_cell_length_c   10.32066700
_cell_angle_alpha   90.00000000
_cell_angle_beta   90.00000000
_cell_angle_gamma   102.33446783
_symmetry_Int_Tables_number   1
_chemical_formula_structural   ErTm(Th2In5)2
_chemical_formula_sum   'Er1 Tm1 Th4 In10'
_cell_volume   436.30740577
_cell_formula_units_Z   1
loop_
 _symmetry_equiv_pos_site_id
 _symmetry_equiv_pos_as_xyz
  1  'x, y, z'
loop_
 _atom_site_type_symbol
 _atom_site_label
 _atom_site_symmetry_multiplicity
 _atom_site_fract_x
 _atom_site_fract_y
 _atom_site_fract_z
 _atom_site_occupancy
  Er  Er0  1  0.130460  0.130460  0.750000  1
  Tm  Tm1  1  0.869382  0.869382  0.250000  1
  Th  Th2  1  0.705925  0.294044  0.000038  1
  Th  Th3  1  0.705925  0.294044  0.499962  1
  Th  Th4  1  0.294044  0.705925  0.000038  1
  Th  Th5  1  0.294044  0.705925  0.499962  1
  In  In6  1  0.509851  0.509851  0.750000  1
  In  In7  1  0.490325  0.490325  0.250000  1
  In  In8  1  0.811625  0.811625  0.545782  1
  In  In9  1  0.188317  0.188317  0.453947  1
  In  In10  1  0.811625  0.811625  0.954218  1
  In  In11  1  0.188317  0.188317  0.046053  1
  In  In12  1  0.992444  0.566959  0.750000  1
  In  In13  1  0.433300  0.007455  0.250000  1
  In  In14  1  0.007455  0.433300  0.250000  1
  In  In15  1  0.566959  0.992444  0.750000  1
