# generated using pymatgen
data_Tb10In8Pt3Au
_symmetry_space_group_name_H-M   'P 1'
_cell_length_a   3.67355800
_cell_length_b   8.18232138
_cell_length_c   18.36024488
_cell_angle_alpha   90.11871724
_cell_angle_beta   90.00000000
_cell_angle_gamma   90.00000000
_symmetry_Int_Tables_number   1
_chemical_formula_structural   Tb10In8Pt3Au
_chemical_formula_sum   'Tb10 In8 Pt3 Au1'
_cell_volume   551.87531847
_cell_formula_units_Z   1
loop_
 _symmetry_equiv_pos_site_id
 _symmetry_equiv_pos_as_xyz
  1  'x, y, z'
loop_
 _atom_site_type_symbol
 _atom_site_label
 _atom_site_symmetry_multiplicity
 _atom_site_fract_x
 _atom_site_fract_y
 _atom_site_fract_z
 _atom_site_occupancy
  Tb  Tb0  1  0.000000  0.120273  0.419897  1
  Tb  Tb1  1  0.000000  0.883588  0.586037  1
  Tb  Tb2  1  0.000000  0.384156  0.914379  1
  Tb  Tb3  1  0.000000  0.616432  0.083768  1
  Tb  Tb4  1  0.000000  0.251987  0.216705  1
  Tb  Tb5  1  0.000000  0.755967  0.780232  1
  Tb  Tb6  1  0.000000  0.256573  0.720181  1
  Tb  Tb7  1  0.000000  0.730754  0.279819  1
  Tb  Tb8  1  0.000000  0.999484  0.999235  1
  Tb  Tb9  1  0.000000  0.499314  0.500468  1
  In  In10  1  0.500000  0.422030  0.352194  1
  In  In11  1  0.500000  0.575898  0.648878  1
  In  In12  1  0.500000  0.076133  0.851090  1
  In  In13  1  0.500000  0.921875  0.147733  1
  In  In14  1  0.500000  0.291679  0.065821  1
  In  In15  1  0.500000  0.708321  0.932650  1
  In  In16  1  0.500000  0.208623  0.567967  1
  In  In17  1  0.500000  0.791387  0.433876  1
  Pt  Pt18  1  0.500000  0.974397  0.697040  1
  Pt  Pt19  1  0.500000  0.475043  0.803396  1
  Pt  Pt20  1  0.500000  0.527388  0.196286  1
  Au  Au21  1  0.500000  0.028697  0.302351  1
