# generated using pymatgen
data_Na3Cd2PdO6
_symmetry_space_group_name_H-M   'P 1'
_cell_length_a   5.74376924
_cell_length_b   5.74376927
_cell_length_c   5.74190456
_cell_angle_alpha   80.20553939
_cell_angle_beta   80.20554344
_cell_angle_gamma   119.93552523
_symmetry_Int_Tables_number   1
_chemical_formula_structural   Na3Cd2PdO6
_chemical_formula_sum   'Na3 Cd2 Pd1 O6'
_cell_volume   154.38456863
_cell_formula_units_Z   1
loop_
 _symmetry_equiv_pos_site_id
 _symmetry_equiv_pos_as_xyz
  1  'x, y, z'
loop_
 _atom_site_type_symbol
 _atom_site_label
 _atom_site_symmetry_multiplicity
 _atom_site_fract_x
 _atom_site_fract_y
 _atom_site_fract_z
 _atom_site_occupancy
  Na  Na0  1  0.500000  0.500000  0.000000  1
  Na  Na1  1  0.835316  0.164684  0.000000  1
  Na  Na2  1  0.164684  0.835316  0.000000  1
  Cd  Cd3  1  0.667197  0.332803  0.500000  1
  Cd  Cd4  1  0.332803  0.667197  0.500000  1
  Pd  Pd5  1  0.000000  0.000000  0.500000  1
  O  O6  1  0.633138  0.928791  0.715968  1
  O  O7  1  0.366862  0.071209  0.284032  1
  O  O8  1  0.775606  0.775606  0.290499  1
  O  O9  1  0.928791  0.633138  0.715968  1
  O  O10  1  0.071209  0.366862  0.284032  1
  O  O11  1  0.224394  0.224394  0.709501  1
