# generated using pymatgen
data_Pr19Sm(GaSi5)2
_symmetry_space_group_name_H-M   'P 1'
_cell_length_a   7.82058600
_cell_length_b   7.82058600
_cell_length_c   14.49566800
_cell_angle_alpha   90.00000000
_cell_angle_beta   90.00000000
_cell_angle_gamma   90.00000000
_symmetry_Int_Tables_number   1
_chemical_formula_structural   Pr19Sm(GaSi5)2
_chemical_formula_sum   'Pr19 Sm1 Ga2 Si10'
_cell_volume   886.57774616
_cell_formula_units_Z   1
loop_
 _symmetry_equiv_pos_site_id
 _symmetry_equiv_pos_as_xyz
  1  'x, y, z'
loop_
 _atom_site_type_symbol
 _atom_site_label
 _atom_site_symmetry_multiplicity
 _atom_site_fract_x
 _atom_site_fract_y
 _atom_site_fract_z
 _atom_site_occupancy
  Pr  Pr0  1  0.814348  0.827124  0.605145  1
  Pr  Pr1  1  0.185366  0.829865  0.109843  1
  Pr  Pr2  1  0.172475  0.813608  0.394812  1
  Pr  Pr3  1  0.827525  0.186392  0.394812  1
  Pr  Pr4  1  0.686392  0.672475  0.394812  1
  Pr  Pr5  1  0.672876  0.314348  0.605145  1
  Pr  Pr6  1  0.327124  0.685652  0.605145  1
  Pr  Pr7  1  0.000000  0.500000  0.227728  1
  Pr  Pr8  1  0.670135  0.685366  0.109843  1
  Pr  Pr9  1  0.685467  0.330501  0.890087  1
  Pr  Pr10  1  0.830501  0.814533  0.890087  1
  Pr  Pr11  1  0.313608  0.327525  0.394812  1
  Pr  Pr12  1  0.185652  0.172876  0.605145  1
  Pr  Pr13  1  0.814634  0.170135  0.109843  1
  Pr  Pr14  1  0.314533  0.669499  0.890087  1
  Pr  Pr15  1  0.329865  0.314634  0.109843  1
  Pr  Pr16  1  0.500000  0.000000  0.270469  1
  Pr  Pr17  1  0.169499  0.185467  0.890087  1
  Pr  Pr18  1  0.500000  0.000000  0.771906  1
  Sm  Sm19  1  0.000000  0.500000  0.730893  1
  Ga  Ga20  1  0.500000  0.000000  0.995248  1
  Ga  Ga21  1  0.000000  0.500000  0.004098  1
  Si  Si22  1  0.613593  0.386666  0.253081  1
  Si  Si23  1  0.113037  0.884494  0.746369  1
  Si  Si24  1  0.384494  0.386963  0.746369  1
  Si  Si25  1  0.386407  0.613334  0.253081  1
  Si  Si26  1  0.886666  0.886407  0.253081  1
  Si  Si27  1  0.615506  0.613037  0.746369  1
  Si  Si28  1  0.000000  0.500000  0.510366  1
  Si  Si29  1  0.886963  0.115506  0.746369  1
  Si  Si30  1  0.500000  0.000000  0.491943  1
  Si  Si31  1  0.113334  0.113593  0.253081  1
