# generated using pymatgen
data_Tb8Hf11ZrGe16
_symmetry_space_group_name_H-M   'P 1'
_cell_length_a   7.40838307
_cell_length_b   7.40835240
_cell_length_c   13.59759907
_cell_angle_alpha   89.99984321
_cell_angle_beta   89.99961797
_cell_angle_gamma   89.97551469
_symmetry_Int_Tables_number   1
_chemical_formula_structural   Tb8Hf11ZrGe16
_chemical_formula_sum   'Tb8 Hf11 Zr1 Ge16'
_cell_volume   746.28936894
_cell_formula_units_Z   1
loop_
 _symmetry_equiv_pos_site_id
 _symmetry_equiv_pos_as_xyz
  1  'x, y, z'
loop_
 _atom_site_type_symbol
 _atom_site_label
 _atom_site_symmetry_multiplicity
 _atom_site_fract_x
 _atom_site_fract_y
 _atom_site_fract_z
 _atom_site_occupancy
  Tb  Tb0  1  0.996976  0.341882  0.217696  1
  Tb  Tb1  1  0.002709  0.658337  0.717726  1
  Tb  Tb2  1  0.158300  0.497050  0.467851  1
  Tb  Tb3  1  0.502577  0.842362  0.032121  1
  Tb  Tb4  1  0.842355  0.502578  0.967912  1
  Tb  Tb5  1  0.497046  0.158313  0.532109  1
  Tb  Tb6  1  0.341866  0.996987  0.782329  1
  Tb  Tb7  1  0.658318  0.002717  0.282256  1
  Hf  Hf8  1  0.827258  0.827264  0.499990  1
  Hf  Hf9  1  0.327078  0.673221  0.250295  1
  Hf  Hf10  1  0.673213  0.327075  0.749709  1
  Hf  Hf11  1  0.156082  0.996073  0.375640  1
  Hf  Hf12  1  0.844170  0.003284  0.875244  1
  Hf  Hf13  1  0.503049  0.656417  0.625428  1
  Hf  Hf14  1  0.343758  0.496217  0.874754  1
  Hf  Hf15  1  0.496233  0.343750  0.125273  1
  Hf  Hf16  1  0.656426  0.503034  0.374547  1
  Hf  Hf17  1  0.996085  0.156078  0.624344  1
  Hf  Hf18  1  0.003293  0.844171  0.124768  1
  Zr  Zr19  1  0.172852  0.172861  0.000012  1
  Ge  Ge20  1  0.366403  0.301187  0.322265  1
  Ge  Ge21  1  0.633360  0.698699  0.822338  1
  Ge  Ge22  1  0.198896  0.866487  0.572373  1
  Ge  Ge23  1  0.133222  0.799676  0.927676  1
  Ge  Ge24  1  0.799660  0.133204  0.072366  1
  Ge  Ge25  1  0.866510  0.198908  0.427582  1
  Ge  Ge26  1  0.301190  0.366406  0.677718  1
  Ge  Ge27  1  0.698696  0.633363  0.177680  1
  Ge  Ge28  1  0.296245  0.037768  0.182504  1
  Ge  Ge29  1  0.703919  0.961862  0.681374  1
  Ge  Ge30  1  0.462412  0.795809  0.431560  1
  Ge  Ge31  1  0.204468  0.539918  0.068817  1
  Ge  Ge32  1  0.539942  0.204468  0.931216  1
  Ge  Ge33  1  0.795810  0.462394  0.568402  1
  Ge  Ge34  1  0.037772  0.296254  0.817516  1
  Ge  Ge35  1  0.961849  0.703930  0.318610  1
