# generated using pymatgen
data_Y6Zn5Pt12
_symmetry_space_group_name_H-M   'P 1'
_cell_length_a   8.27662825
_cell_length_b   8.26979613
_cell_length_c   8.26979700
_cell_angle_alpha   109.42090008
_cell_angle_beta   109.47964947
_cell_angle_gamma   109.47963753
_symmetry_Int_Tables_number   1
_chemical_formula_structural   Y6Zn5Pt12
_chemical_formula_sum   'Y6 Zn5 Pt12'
_cell_volume   435.91356511
_cell_formula_units_Z   1
loop_
 _symmetry_equiv_pos_site_id
 _symmetry_equiv_pos_as_xyz
  1  'x, y, z'
loop_
 _atom_site_type_symbol
 _atom_site_label
 _atom_site_symmetry_multiplicity
 _atom_site_fract_x
 _atom_site_fract_y
 _atom_site_fract_z
 _atom_site_occupancy
  Y  Y0  1  0.708595  0.699653  0.008941  1
  Y  Y1  1  0.300950  0.000507  0.300443  1
  Y  Y2  1  0.989687  0.289555  0.289555  1
  Y  Y3  1  0.300950  0.300443  0.000507  1
  Y  Y4  1  0.708595  0.008941  0.699653  1
  Y  Y5  1  0.989688  0.700134  0.700134  1
  Zn  Zn6  1  0.003886  0.001943  0.501942  1
  Zn  Zn7  1  0.003886  0.501942  0.001943  1
  Zn  Zn8  1  0.500892  0.002592  0.002592  1
  Zn  Zn9  1  0.500893  0.498300  0.498300  1
  Zn  Zn10  1  0.339287  0.669643  0.669643  1
  Pt  Pt11  1  0.330876  0.339861  0.660649  1
  Pt  Pt12  1  0.668127  0.997841  0.327888  1
  Pt  Pt13  1  0.996876  0.665127  0.331749  1
  Pt  Pt14  1  0.668127  0.327888  0.997841  1
  Pt  Pt15  1  0.330876  0.660649  0.339861  1
  Pt  Pt16  1  0.996876  0.331749  0.665127  1
  Pt  Pt17  1  0.330877  0.670228  0.991016  1
  Pt  Pt18  1  0.330877  0.991016  0.670228  1
  Pt  Pt19  1  0.665638  0.332819  0.332819  1
  Pt  Pt20  1  0.668127  0.670285  0.340240  1
  Pt  Pt21  1  0.668127  0.340240  0.670285  1
  Pt  Pt22  1  0.997287  0.998644  0.998644  1
