# generated using pymatgen
data_YLu3MnB12Ru
_symmetry_space_group_name_H-M   'P 1'
_cell_length_a   3.56043000
_cell_length_b   9.03086445
_cell_length_c   11.40866100
_cell_angle_alpha   89.98199816
_cell_angle_beta   90.00000000
_cell_angle_gamma   90.00000000
_symmetry_Int_Tables_number   1
_chemical_formula_structural   YLu3MnB12Ru
_chemical_formula_sum   'Y2 Lu6 Mn2 B24 Ru2'
_cell_volume   366.83133784
_cell_formula_units_Z   2
loop_
 _symmetry_equiv_pos_site_id
 _symmetry_equiv_pos_as_xyz
  1  'x, y, z'
loop_
 _atom_site_type_symbol
 _atom_site_label
 _atom_site_symmetry_multiplicity
 _atom_site_fract_x
 _atom_site_fract_y
 _atom_site_fract_z
 _atom_site_occupancy
  Y  Y0  1  0.000000  0.325440  0.416189  1
  Y  Y1  1  0.000000  0.674560  0.583811  1
  Lu  Lu2  1  0.000000  0.819502  0.087260  1
  Lu  Lu3  1  0.000000  0.180498  0.912740  1
  Lu  Lu4  1  0.000000  0.939759  0.370247  1
  Lu  Lu5  1  0.000000  0.060241  0.629753  1
  Lu  Lu6  1  0.000000  0.445084  0.130679  1
  Lu  Lu7  1  0.000000  0.554916  0.869321  1
  Mn  Mn8  1  0.000000  0.638779  0.318863  1
  Mn  Mn9  1  0.000000  0.361221  0.681137  1
  B  B10  1  0.500000  0.554453  0.431295  1
  B  B11  1  0.500000  0.445547  0.568705  1
  B  B12  1  0.500000  0.053128  0.066003  1
  B  B13  1  0.500000  0.946872  0.933997  1
  B  B14  1  0.500000  0.747530  0.416369  1
  B  B15  1  0.500000  0.252470  0.583631  1
  B  B16  1  0.500000  0.249662  0.080176  1
  B  B17  1  0.500000  0.750338  0.919824  1
  B  B18  1  0.500000  0.790220  0.264376  1
  B  B19  1  0.500000  0.209780  0.735624  1
  B  B20  1  0.500000  0.291677  0.234402  1
  B  B21  1  0.500000  0.708323  0.765598  1
  B  B22  1  0.500000  0.630991  0.185095  1
  B  B23  1  0.500000  0.369009  0.814905  1
  B  B24  1  0.500000  0.129435  0.314874  1
  B  B25  1  0.500000  0.870565  0.685126  1
  B  B26  1  0.500000  0.980276  0.211835  1
  B  B27  1  0.500000  0.019724  0.788165  1
  B  B28  1  0.500000  0.484877  0.287427  1
  B  B29  1  0.500000  0.515123  0.712573  1
  B  B30  1  0.500000  0.602862  0.028320  1
  B  B31  1  0.500000  0.397138  0.971680  1
  B  B32  1  0.500000  0.100800  0.472244  1
  B  B33  1  0.500000  0.899200  0.527756  1
  Ru  Ru34  1  0.000000  0.137307  0.178508  1
  Ru  Ru35  1  0.000000  0.862693  0.821492  1
