# generated using pymatgen
data_Tb12Co4SnRh
_symmetry_space_group_name_H-M   'P 1'
_cell_length_a   8.32897013
_cell_length_b   8.32897015
_cell_length_c   8.32896972
_cell_angle_alpha   111.33293238
_cell_angle_beta   110.28676684
_cell_angle_gamma   106.82767992
_symmetry_Int_Tables_number   1
_chemical_formula_structural   Tb12Co4SnRh
_chemical_formula_sum   'Tb12 Co4 Sn1 Rh1'
_cell_volume   444.04202173
_cell_formula_units_Z   1
loop_
 _symmetry_equiv_pos_site_id
 _symmetry_equiv_pos_as_xyz
  1  'x, y, z'
loop_
 _atom_site_type_symbol
 _atom_site_label
 _atom_site_symmetry_multiplicity
 _atom_site_fract_x
 _atom_site_fract_y
 _atom_site_fract_z
 _atom_site_occupancy
  Tb  Tb0  1  0.410702  0.219535  0.191168  1
  Tb  Tb1  1  0.589298  0.780465  0.808832  1
  Tb  Tb2  1  0.028367  0.219535  0.808832  1
  Tb  Tb3  1  0.971633  0.780465  0.191168  1
  Tb  Tb4  1  0.182177  0.286491  0.468668  1
  Tb  Tb5  1  0.817823  0.713509  0.531332  1
  Tb  Tb6  1  0.182177  0.713509  0.895685  1
  Tb  Tb7  1  0.817823  0.286491  0.104315  1
  Tb  Tb8  1  0.321730  0.634168  0.312439  1
  Tb  Tb9  1  0.678270  0.365832  0.687561  1
  Tb  Tb10  1  0.321730  0.009291  0.687561  1
  Tb  Tb11  1  0.678270  0.990709  0.312439  1
  Co  Co12  1  0.352059  0.000000  0.352059  1
  Co  Co13  1  0.647941  0.000000  0.647941  1
  Co  Co14  1  0.112728  0.612728  0.500000  1
  Co  Co15  1  0.887272  0.387272  0.500000  1
  Sn  Sn16  1  0.500000  0.500000  0.000000  1
  Rh  Rh17  1  0.000000  0.000000  0.000000  1
