# generated using pymatgen
data_Pr7Y13(SnBi)8
_symmetry_space_group_name_H-M   'P 1'
_cell_length_a   8.30431040
_cell_length_b   8.34343071
_cell_length_c   15.75626200
_cell_angle_alpha   90.00078286
_cell_angle_beta   90.21116727
_cell_angle_gamma   89.94593909
_symmetry_Int_Tables_number   1
_chemical_formula_structural   Pr7Y13(SnBi)8
_chemical_formula_sum   'Pr7 Y13 Sn8 Bi8'
_cell_volume   1091.68737689
_cell_formula_units_Z   1
loop_
 _symmetry_equiv_pos_site_id
 _symmetry_equiv_pos_as_xyz
  1  'x, y, z'
loop_
 _atom_site_type_symbol
 _atom_site_label
 _atom_site_symmetry_multiplicity
 _atom_site_fract_x
 _atom_site_fract_y
 _atom_site_fract_z
 _atom_site_occupancy
  Pr  Pr0  1  0.026139  0.179068  0.603541  1
  Pr  Pr1  1  0.474243  0.678810  0.397546  1
  Pr  Pr2  1  0.972319  0.821845  0.102327  1
  Pr  Pr3  1  0.473350  0.677750  0.102793  1
  Pr  Pr4  1  0.974625  0.821435  0.397665  1
  Pr  Pr5  1  0.525215  0.321447  0.601807  1
  Pr  Pr6  1  0.026353  0.178095  0.897603  1
  Y  Y7  1  0.364573  0.839458  0.873912  1
  Y  Y8  1  0.863064  0.659231  0.627079  1
  Y  Y9  1  0.635705  0.159710  0.373329  1
  Y  Y10  1  0.133678  0.339943  0.126437  1
  Y  Y11  1  0.633844  0.160207  0.126075  1
  Y  Y12  1  0.136207  0.340471  0.373398  1
  Y  Y13  1  0.364508  0.840768  0.627807  1
  Y  Y14  1  0.865477  0.660171  0.873652  1
  Y  Y15  1  0.530301  0.324997  0.893742  1
  Y  Y16  1  0.194440  0.498303  0.750123  1
  Y  Y17  1  0.694842  0.002661  0.750396  1
  Y  Y18  1  0.805456  0.501706  0.249637  1
  Y  Y19  1  0.305068  0.997614  0.250085  1
  Sn  Sn20  1  0.560133  0.624181  0.751033  1
  Sn  Sn21  1  0.060309  0.874313  0.750509  1
  Sn  Sn22  1  0.439298  0.374052  0.249683  1
  Sn  Sn23  1  0.939132  0.125824  0.249803  1
  Sn  Sn24  1  0.335375  0.146659  0.752352  1
  Sn  Sn25  1  0.830436  0.355921  0.750835  1
  Sn  Sn26  1  0.668184  0.856110  0.249891  1
  Sn  Sn27  1  0.167651  0.643905  0.249807  1
  Bi  Bi28  1  0.290050  0.037781  0.042947  1
  Bi  Bi29  1  0.791169  0.461132  0.457192  1
  Bi  Bi30  1  0.709067  0.961538  0.543150  1
  Bi  Bi31  1  0.215238  0.532177  0.956185  1
  Bi  Bi32  1  0.707253  0.964482  0.956538  1
  Bi  Bi33  1  0.208308  0.539837  0.542990  1
  Bi  Bi34  1  0.291217  0.039020  0.457870  1
  Bi  Bi35  1  0.787772  0.459380  0.040254  1
