# generated using pymatgen
data_Hf3Cr(Ni4P3)2
_symmetry_space_group_name_H-M   'P 1'
_cell_length_a   12.04742355
_cell_length_b   12.01945902
_cell_length_c   3.63197900
_cell_angle_alpha   90.00000000
_cell_angle_beta   90.00000000
_cell_angle_gamma   119.92325169
_symmetry_Int_Tables_number   1
_chemical_formula_structural   Hf3Cr(Ni4P3)2
_chemical_formula_sum   'Hf6 Cr2 Ni16 P12'
_cell_volume   455.81478734
_cell_formula_units_Z   2
loop_
 _symmetry_equiv_pos_site_id
 _symmetry_equiv_pos_as_xyz
  1  'x, y, z'
loop_
 _atom_site_type_symbol
 _atom_site_label
 _atom_site_symmetry_multiplicity
 _atom_site_fract_x
 _atom_site_fract_y
 _atom_site_fract_z
 _atom_site_occupancy
  Hf  Hf0  1  0.819625  0.819203  0.500000  1
  Hf  Hf1  1  0.000000  0.174687  0.500000  1
  Hf  Hf2  1  0.336198  0.668234  0.000000  1
  Hf  Hf3  1  0.663802  0.332036  0.000000  1
  Hf  Hf4  1  0.000000  0.553855  0.000000  1
  Hf  Hf5  1  0.180375  0.999579  0.500000  1
  Cr  Cr6  1  0.447781  0.448980  0.000000  1
  Cr  Cr7  1  0.552219  0.001200  0.000000  1
  Ni  Ni8  1  0.625481  0.818810  0.000000  1
  Ni  Ni9  1  0.374519  0.193329  0.000000  1
  Ni  Ni10  1  0.000000  0.723315  0.500000  1
  Ni  Ni11  1  0.279431  0.279380  0.500000  1
  Ni  Ni12  1  0.869524  0.348879  0.500000  1
  Ni  Ni13  1  0.720569  0.999948  0.500000  1
  Ni  Ni14  1  0.815180  0.629282  0.000000  1
  Ni  Ni15  1  0.184820  0.814102  0.000000  1
  Ni  Ni16  1  0.358176  0.876342  0.500000  1
  Ni  Ni17  1  0.130476  0.479353  0.500000  1
  Ni  Ni18  1  0.641824  0.518166  0.500000  1
  Ni  Ni19  1  0.000000  0.999835  0.000000  1
  Ni  Ni20  1  0.516757  0.648078  0.500000  1
  Ni  Ni21  1  0.483243  0.131321  0.500000  1
  Ni  Ni22  1  0.196374  0.374321  0.000000  1
  Ni  Ni23  1  0.803626  0.177947  0.000000  1
  P  P24  1  0.000000  0.344820  0.000000  1
  P  P25  1  0.824809  0.512082  0.500000  1
  P  P26  1  0.678132  0.161931  0.500000  1
  P  P27  1  0.177687  0.175176  0.000000  1
  P  P28  1  0.637137  0.640466  0.000000  1
  P  P29  1  0.822313  0.997489  0.000000  1
  P  P30  1  0.517886  0.838862  0.500000  1
  P  P31  1  0.175191  0.687272  0.500000  1
  P  P32  1  0.362863  0.003330  0.000000  1
  P  P33  1  0.482114  0.320977  0.500000  1
  P  P34  1  0.000000  0.823617  0.000000  1
  P  P35  1  0.321868  0.483796  0.500000  1
