# generated using pymatgen
data_Cs2VOF5
_symmetry_space_group_name_H-M   'P 1'
_cell_length_a   6.53999311
_cell_length_b   6.53999324
_cell_length_c   9.02445773
_cell_angle_alpha   89.83319908
_cell_angle_beta   89.83320039
_cell_angle_gamma   88.70516644
_symmetry_Int_Tables_number   1
_chemical_formula_structural   Cs2VOF5
_chemical_formula_sum   'Cs4 V2 O2 F10'
_cell_volume   385.88793061
_cell_formula_units_Z   2
loop_
 _symmetry_equiv_pos_site_id
 _symmetry_equiv_pos_as_xyz
  1  'x, y, z'
loop_
 _atom_site_type_symbol
 _atom_site_label
 _atom_site_symmetry_multiplicity
 _atom_site_fract_x
 _atom_site_fract_y
 _atom_site_fract_z
 _atom_site_occupancy
  Cs  Cs0  1  0.271264  0.271283  0.000969  1
  Cs  Cs1  1  0.728717  0.728736  0.499031  1
  Cs  Cs2  1  0.728736  0.728717  0.999031  1
  Cs  Cs3  1  0.271283  0.271264  0.500969  1
  V  V4  1  0.777231  0.222769  0.250000  1
  V  V5  1  0.222769  0.777231  0.750000  1
  O  O6  1  0.957143  0.042857  0.250000  1
  O  O7  1  0.042857  0.957143  0.750000  1
  F  F8  1  0.769121  0.255040  0.043536  1
  F  F9  1  0.744960  0.230879  0.456464  1
  F  F10  1  0.230879  0.744960  0.956464  1
  F  F11  1  0.255040  0.769121  0.543536  1
  F  F12  1  0.556051  0.443949  0.250000  1
  F  F13  1  0.443949  0.556051  0.750000  1
  F  F14  1  0.556557  0.044595  0.238517  1
  F  F15  1  0.955405  0.443443  0.261483  1
  F  F16  1  0.443443  0.955405  0.761483  1
  F  F17  1  0.044595  0.556557  0.738517  1
