# generated using pymatgen
data_TbHo4(In2Rh)2
_symmetry_space_group_name_H-M   'P 1'
_cell_length_a   3.62337700
_cell_length_b   8.01124800
_cell_length_c   18.29012000
_cell_angle_alpha   90.00000000
_cell_angle_beta   90.00000000
_cell_angle_gamma   90.00000000
_symmetry_Int_Tables_number   1
_chemical_formula_structural   TbHo4(In2Rh)2
_chemical_formula_sum   'Tb2 Ho8 In8 Rh4'
_cell_volume   530.92142854
_cell_formula_units_Z   2
loop_
 _symmetry_equiv_pos_site_id
 _symmetry_equiv_pos_as_xyz
  1  'x, y, z'
loop_
 _atom_site_type_symbol
 _atom_site_label
 _atom_site_symmetry_multiplicity
 _atom_site_fract_x
 _atom_site_fract_y
 _atom_site_fract_z
 _atom_site_occupancy
  Tb  Tb0  1  0.000000  0.000000  0.000000  1
  Tb  Tb1  1  0.000000  0.500000  0.500000  1
  Ho  Ho2  1  0.000000  0.116355  0.411373  1
  Ho  Ho3  1  0.000000  0.883645  0.588627  1
  Ho  Ho4  1  0.000000  0.383645  0.911373  1
  Ho  Ho5  1  0.000000  0.616355  0.088627  1
  Ho  Ho6  1  0.000000  0.244738  0.220830  1
  Ho  Ho7  1  0.000000  0.755262  0.779170  1
  Ho  Ho8  1  0.000000  0.255262  0.720830  1
  Ho  Ho9  1  0.000000  0.744738  0.279170  1
  In  In10  1  0.500000  0.425651  0.349502  1
  In  In11  1  0.500000  0.574349  0.650498  1
  In  In12  1  0.500000  0.074349  0.849502  1
  In  In13  1  0.500000  0.925651  0.150498  1
  In  In14  1  0.500000  0.293971  0.067963  1
  In  In15  1  0.500000  0.706029  0.932037  1
  In  In16  1  0.500000  0.206029  0.567963  1
  In  In17  1  0.500000  0.793971  0.432037  1
  Rh  Rh18  1  0.500000  0.023232  0.304740  1
  Rh  Rh19  1  0.500000  0.976768  0.695260  1
  Rh  Rh20  1  0.500000  0.476768  0.804740  1
  Rh  Rh21  1  0.500000  0.523232  0.195260  1
