# generated using pymatgen
data_Er2Si2Tc2C
_symmetry_space_group_name_H-M   'P 1'
_cell_length_a   5.92732935
_cell_length_b   5.92732878
_cell_length_c   6.89698252
_cell_angle_alpha   126.76994813
_cell_angle_beta   126.76994156
_cell_angle_gamma   39.22236468
_symmetry_Int_Tables_number   1
_chemical_formula_structural   Er2Si2Tc2C
_chemical_formula_sum   'Er2 Si2 Tc2 C1'
_cell_volume   118.30746692
_cell_formula_units_Z   1
loop_
 _symmetry_equiv_pos_site_id
 _symmetry_equiv_pos_as_xyz
  1  'x, y, z'
loop_
 _atom_site_type_symbol
 _atom_site_label
 _atom_site_symmetry_multiplicity
 _atom_site_fract_x
 _atom_site_fract_y
 _atom_site_fract_z
 _atom_site_occupancy
  Er  Er0  1  0.429923  0.429923  0.157722  1
  Er  Er1  1  0.570077  0.570077  0.842278  1
  Si  Si2  1  0.857524  0.857524  0.399886  1
  Si  Si3  1  0.142477  0.142477  0.600115  1
  Tc  Tc4  1  0.206782  0.206782  0.317578  1
  Tc  Tc5  1  0.793218  0.793218  0.682422  1
  C  C6  1  0.000000  0.000000  0.000000  1
