# generated using pymatgen
data_Ca3Cd2HgPd3
_symmetry_space_group_name_H-M   'P 1'
_cell_length_a   7.70481858
_cell_length_b   7.70481908
_cell_length_c   4.05166500
_cell_angle_alpha   90.00000000
_cell_angle_beta   90.00000000
_cell_angle_gamma   120.63763717
_symmetry_Int_Tables_number   1
_chemical_formula_structural   Ca3Cd2HgPd3
_chemical_formula_sum   'Ca3 Cd2 Hg1 Pd3'
_cell_volume   206.94863068
_cell_formula_units_Z   1
loop_
 _symmetry_equiv_pos_site_id
 _symmetry_equiv_pos_as_xyz
  1  'x, y, z'
loop_
 _atom_site_type_symbol
 _atom_site_label
 _atom_site_symmetry_multiplicity
 _atom_site_fract_x
 _atom_site_fract_y
 _atom_site_fract_z
 _atom_site_occupancy
  Ca  Ca0  1  0.405927  0.405927  0.500000  1
  Ca  Ca1  1  0.597943  0.998977  0.500000  1
  Ca  Ca2  1  0.998977  0.597943  0.500000  1
  Cd  Cd3  1  0.257814  0.999333  0.000000  1
  Cd  Cd4  1  0.999333  0.257814  0.000000  1
  Hg  Hg5  1  0.739518  0.739518  0.000000  1
  Pd  Pd6  1  0.665865  0.329147  0.000000  1
  Pd  Pd7  1  0.329147  0.665865  0.000000  1
  Pd  Pd8  1  0.005475  0.005475  0.500000  1
