# generated using pymatgen
data_TaRe3(TcAs7)2
_symmetry_space_group_name_H-M   'P 1'
_cell_length_a   7.68605985
_cell_length_b   7.68614958
_cell_length_c   7.68256826
_cell_angle_alpha   109.99280727
_cell_angle_beta   109.17607246
_cell_angle_gamma   109.26541079
_symmetry_Int_Tables_number   1
_chemical_formula_structural   TaRe3(TcAs7)2
_chemical_formula_sum   'Ta1 Re3 Tc2 As14'
_cell_volume   349.27424691
_cell_formula_units_Z   1
loop_
 _symmetry_equiv_pos_site_id
 _symmetry_equiv_pos_as_xyz
  1  'x, y, z'
loop_
 _atom_site_type_symbol
 _atom_site_label
 _atom_site_symmetry_multiplicity
 _atom_site_fract_x
 _atom_site_fract_y
 _atom_site_fract_z
 _atom_site_occupancy
  Ta  Ta0  1  0.999911  0.658313  0.658222  1
  Re  Re1  1  0.340497  0.340369  0.999475  1
  Re  Re2  1  0.659121  0.658993  0.999490  1
  Re  Re3  1  0.659228  0.999742  0.658973  1
  Tc  Tc4  1  0.341090  0.999608  0.340701  1
  Tc  Tc5  1  0.999914  0.334342  0.334258  1
  As  As6  1  0.746957  0.500259  0.247221  1
  As  As7  1  0.499832  0.748693  0.248526  1
  As  As8  1  0.499929  0.248604  0.748533  1
  As  As9  1  0.747301  0.247472  0.500237  1
  As  As10  1  0.252765  0.752938  0.500240  1
  As  As11  1  0.252357  0.500323  0.752682  1
  As  As12  1  0.000546  0.001033  0.331659  1
  As  As13  1  0.669201  0.001102  0.001182  1
  As  As14  1  0.000516  0.669729  0.003629  1
  As  As15  1  0.330622  0.331113  0.331655  1
  As  As16  1  0.000077  0.331982  0.001184  1
  As  As17  1  0.666422  0.669435  0.669252  1
  As  As18  1  0.333899  0.003117  0.003631  1
  As  As19  1  0.999813  0.002836  0.669250  1
