# generated using pymatgen
data_K16HfSnSb8
_symmetry_space_group_name_H-M   'P 1'
_cell_length_a   11.62238777
_cell_length_b   11.62238783
_cell_length_c   11.62238800
_cell_angle_alpha   59.99999951
_cell_angle_beta   59.99999936
_cell_angle_gamma   60.00000136
_symmetry_Int_Tables_number   1
_chemical_formula_structural   K16HfSnSb8
_chemical_formula_sum   'K16 Hf1 Sn1 Sb8'
_cell_volume   1110.12299139
_cell_formula_units_Z   1
loop_
 _symmetry_equiv_pos_site_id
 _symmetry_equiv_pos_as_xyz
  1  'x, y, z'
loop_
 _atom_site_type_symbol
 _atom_site_label
 _atom_site_symmetry_multiplicity
 _atom_site_fract_x
 _atom_site_fract_y
 _atom_site_fract_z
 _atom_site_occupancy
  K  K0  1  0.621990  0.134029  0.621990  1
  K  K1  1  0.621990  0.621990  0.134029  1
  K  K2  1  0.134029  0.621990  0.621990  1
  K  K3  1  0.621990  0.621990  0.621990  1
  K  K4  1  0.020515  0.020515  0.479485  1
  K  K5  1  0.780217  0.219783  0.219783  1
  K  K6  1  0.219783  0.780217  0.780217  1
  K  K7  1  0.780217  0.780217  0.219783  1
  K  K8  1  0.780217  0.219783  0.780217  1
  K  K9  1  0.219783  0.780217  0.219783  1
  K  K10  1  0.479485  0.020515  0.479485  1
  K  K11  1  0.479485  0.020515  0.020515  1
  K  K12  1  0.020515  0.479485  0.479485  1
  K  K13  1  0.020515  0.479485  0.020515  1
  K  K14  1  0.219783  0.219783  0.780217  1
  K  K15  1  0.479485  0.479485  0.020515  1
  Hf  Hf16  1  0.750000  0.750000  0.750000  1
  Sn  Sn17  1  0.500000  0.500000  0.500000  1
  Sb  Sb18  1  0.396469  0.810593  0.396469  1
  Sb  Sb19  1  0.850700  0.850700  0.447899  1
  Sb  Sb20  1  0.447899  0.850700  0.850700  1
  Sb  Sb21  1  0.850700  0.850700  0.850700  1
  Sb  Sb22  1  0.810593  0.396469  0.396469  1
  Sb  Sb23  1  0.396469  0.396469  0.396469  1
  Sb  Sb24  1  0.396469  0.396469  0.810593  1
  Sb  Sb25  1  0.850700  0.447899  0.850700  1
