# generated using pymatgen
data_YbDy2Y4Co6Sn23
_symmetry_space_group_name_H-M   'P 1'
_cell_length_a   9.73774900
_cell_length_b   9.73775047
_cell_length_c   9.96804700
_cell_angle_alpha   89.99966728
_cell_angle_beta   90.00033144
_cell_angle_gamma   119.99997983
_symmetry_Int_Tables_number   1
_chemical_formula_structural   YbDy2Y4Co6Sn23
_chemical_formula_sum   'Yb1 Dy2 Y4 Co6 Sn23'
_cell_volume   818.57412909
_cell_formula_units_Z   1
loop_
 _symmetry_equiv_pos_site_id
 _symmetry_equiv_pos_as_xyz
  1  'x, y, z'
loop_
 _atom_site_type_symbol
 _atom_site_label
 _atom_site_symmetry_multiplicity
 _atom_site_fract_x
 _atom_site_fract_y
 _atom_site_fract_z
 _atom_site_occupancy
  Yb  Yb0  1  0.999999  0.000001  0.999999  1
  Dy  Dy1  1  0.043249  0.521625  0.305980  1
  Dy  Dy2  1  0.478375  0.956751  0.305980  1
  Y  Y3  1  0.478333  0.521667  0.306010  1
  Y  Y4  1  0.956675  0.478337  0.693982  1
  Y  Y5  1  0.521663  0.043325  0.693982  1
  Y  Y6  1  0.521666  0.478334  0.693988  1
  Co  Co7  1  0.167939  0.832061  0.801951  1
  Co  Co8  1  0.664116  0.832058  0.801955  1
  Co  Co9  1  0.167942  0.335884  0.801955  1
  Co  Co10  1  0.832029  0.167971  0.198078  1
  Co  Co11  1  0.335920  0.167901  0.198061  1
  Co  Co12  1  0.832099  0.664080  0.198061  1
  Sn  Sn13  1  0.999998  0.000002  0.499993  1
  Sn  Sn14  1  0.116978  0.883022  0.273898  1
  Sn  Sn15  1  0.766075  0.883054  0.273901  1
  Sn  Sn16  1  0.116946  0.233925  0.273901  1
  Sn  Sn17  1  0.883058  0.116942  0.726119  1
  Sn  Sn18  1  0.233884  0.116936  0.726111  1
  Sn  Sn19  1  0.883064  0.766116  0.726111  1
  Sn  Sn20  1  0.345361  0.999989  0.000025  1
  Sn  Sn21  1  0.654654  0.654654  0.000008  1
  Sn  Sn22  1  0.000014  0.345381  0.000028  1
  Sn  Sn23  1  0.345346  0.345346  0.000008  1
  Sn  Sn24  1  0.000011  0.654639  0.000025  1
  Sn  Sn25  1  0.654619  0.999986  0.000028  1
  Sn  Sn26  1  0.781235  0.562387  0.451144  1
  Sn  Sn27  1  0.781186  0.218814  0.451133  1
  Sn  Sn28  1  0.437613  0.218765  0.451144  1
  Sn  Sn29  1  0.218782  0.437630  0.548798  1
  Sn  Sn30  1  0.218821  0.781179  0.548773  1
  Sn  Sn31  1  0.562370  0.781218  0.548798  1
  Sn  Sn32  1  0.666684  0.333316  0.183972  1
  Sn  Sn33  1  0.333329  0.666671  0.816035  1
  Sn  Sn34  1  0.666664  0.333336  0.883640  1
  Sn  Sn35  1  0.333304  0.666696  0.116427  1
