# generated using pymatgen
data_Eu(AgO2)2
_symmetry_space_group_name_H-M   'P 1'
_cell_length_a   6.75641741
_cell_length_b   6.75641780
_cell_length_c   6.75641801
_cell_angle_alpha   126.02973180
_cell_angle_beta   126.02973702
_cell_angle_gamma   79.83927868
_symmetry_Int_Tables_number   1
_chemical_formula_structural   Eu(AgO2)2
_chemical_formula_sum   'Eu2 Ag4 O8'
_cell_volume   194.81611347
_cell_formula_units_Z   2
loop_
 _symmetry_equiv_pos_site_id
 _symmetry_equiv_pos_as_xyz
  1  'x, y, z'
loop_
 _atom_site_type_symbol
 _atom_site_label
 _atom_site_symmetry_multiplicity
 _atom_site_fract_x
 _atom_site_fract_y
 _atom_site_fract_z
 _atom_site_occupancy
  Eu  Eu0  1  0.750000  0.250000  0.500000  1
  Eu  Eu1  1  0.000000  0.000000  0.000000  1
  Ag  Ag2  1  0.375000  0.125000  0.750000  1
  Ag  Ag3  1  0.375000  0.625000  0.250000  1
  Ag  Ag4  1  0.875000  0.625000  0.250000  1
  Ag  Ag5  1  0.375000  0.625000  0.750000  1
  O  O6  1  0.043075  0.998235  0.646838  1
  O  O7  1  0.603762  0.956925  0.955160  1
  O  O8  1  0.001765  0.648603  0.044840  1
  O  O9  1  0.398603  0.853762  0.146838  1
  O  O10  1  0.748235  0.601397  0.455160  1
  O  O11  1  0.146238  0.293075  0.544840  1
  O  O12  1  0.351397  0.396238  0.353162  1
  O  O13  1  0.706925  0.251765  0.853162  1
