# generated using pymatgen
data_Er9TmIr3Os
_symmetry_space_group_name_H-M   'P 1'
_cell_length_a   6.43276764
_cell_length_b   7.20987579
_cell_length_c   8.35146669
_cell_angle_alpha   96.42946127
_cell_angle_beta   112.37685387
_cell_angle_gamma   89.97717004
_symmetry_Int_Tables_number   1
_chemical_formula_structural   Er9TmIr3Os
_chemical_formula_sum   'Er9 Tm1 Ir3 Os1'
_cell_volume   355.54117834
_cell_formula_units_Z   1
loop_
 _symmetry_equiv_pos_site_id
 _symmetry_equiv_pos_as_xyz
  1  'x, y, z'
loop_
 _atom_site_type_symbol
 _atom_site_label
 _atom_site_symmetry_multiplicity
 _atom_site_fract_x
 _atom_site_fract_y
 _atom_site_fract_z
 _atom_site_occupancy
  Er  Er0  1  0.970122  0.917287  0.182370  1
  Er  Er1  1  0.789362  0.581865  0.821686  1
  Er  Er2  1  0.029687  0.082015  0.818907  1
  Er  Er3  1  0.211150  0.418492  0.182814  1
  Er  Er4  1  0.656084  0.816997  0.440206  1
  Er  Er5  1  0.210533  0.681522  0.556758  1
  Er  Er6  1  0.346211  0.181756  0.558949  1
  Er  Er7  1  0.786923  0.319339  0.440163  1
  Er  Er8  1  0.427167  0.749530  0.000359  1
  Tm  Tm9  1  0.574857  0.251405  0.000922  1
  Ir  Ir10  1  0.607635  0.927498  0.780878  1
  Ir  Ir11  1  0.173600  0.425350  0.781765  1
  Ir  Ir12  1  0.390991  0.073648  0.218329  1
  Os  Os13  1  0.825679  0.573297  0.215893  1
