# generated using pymatgen
data_Yb2Er2Ir3RuO14
_symmetry_space_group_name_H-M   'P 1'
_cell_length_a   7.20124428
_cell_length_b   7.20124484
_cell_length_c   7.20551192
_cell_angle_alpha   60.07816849
_cell_angle_beta   60.07816653
_cell_angle_gamma   59.90610192
_symmetry_Int_Tables_number   1
_chemical_formula_structural   Yb2Er2Ir3RuO14
_chemical_formula_sum   'Yb2 Er2 Ir3 Ru1 O14'
_cell_volume   264.34263277
_cell_formula_units_Z   1
loop_
 _symmetry_equiv_pos_site_id
 _symmetry_equiv_pos_as_xyz
  1  'x, y, z'
loop_
 _atom_site_type_symbol
 _atom_site_label
 _atom_site_symmetry_multiplicity
 _atom_site_fract_x
 _atom_site_fract_y
 _atom_site_fract_z
 _atom_site_occupancy
  Yb  Yb0  1  0.125000  0.625000  0.125000  1
  Yb  Yb1  1  0.625000  0.125000  0.125000  1
  Er  Er2  1  0.125000  0.125000  0.625000  1
  Er  Er3  1  0.125000  0.125000  0.125000  1
  Ir  Ir4  1  0.625000  0.125000  0.625000  1
  Ir  Ir5  1  0.125000  0.625000  0.625000  1
  Ir  Ir6  1  0.625000  0.625000  0.625000  1
  Ru  Ru7  1  0.625000  0.625000  0.125000  1
  O  O8  1  0.243220  0.243220  0.256488  1
  O  O9  1  0.006780  0.006780  0.993512  1
  O  O10  1  0.537485  0.958125  0.547548  1
  O  O11  1  0.294491  0.709112  0.295970  1
  O  O12  1  0.548133  0.548133  0.951704  1
  O  O13  1  0.958125  0.537485  0.547548  1
  O  O14  1  0.540888  0.955509  0.954030  1
  O  O15  1  0.959946  0.959946  0.540053  1
  O  O16  1  0.955509  0.540888  0.954030  1
  O  O17  1  0.709112  0.294491  0.295970  1
  O  O18  1  0.291875  0.712515  0.702452  1
  O  O19  1  0.712515  0.291875  0.702452  1
  O  O20  1  0.290054  0.290054  0.709947  1
  O  O21  1  0.701867  0.701867  0.298296  1
