# generated using pymatgen
data_NdEr3(ScPt)4
_symmetry_space_group_name_H-M   'P 1'
_cell_length_a   4.64822600
_cell_length_b   6.98666177
_cell_length_c   8.40300772
_cell_angle_alpha   89.97397868
_cell_angle_beta   90.00000000
_cell_angle_gamma   90.00000000
_symmetry_Int_Tables_number   1
_chemical_formula_structural   NdEr3(ScPt)4
_chemical_formula_sum   'Nd1 Er3 Sc4 Pt4'
_cell_volume   272.89254592
_cell_formula_units_Z   1
loop_
 _symmetry_equiv_pos_site_id
 _symmetry_equiv_pos_as_xyz
  1  'x, y, z'
loop_
 _atom_site_type_symbol
 _atom_site_label
 _atom_site_symmetry_multiplicity
 _atom_site_fract_x
 _atom_site_fract_y
 _atom_site_fract_z
 _atom_site_occupancy
  Nd  Nd0  1  0.750000  0.515054  0.822436  1
  Er  Er1  1  0.250000  0.982490  0.323239  1
  Er  Er2  1  0.750000  0.016415  0.673102  1
  Er  Er3  1  0.250000  0.483074  0.179140  1
  Sc  Sc4  1  0.750000  0.642467  0.423956  1
  Sc  Sc5  1  0.250000  0.356642  0.568346  1
  Sc  Sc6  1  0.750000  0.140315  0.076071  1
  Sc  Sc7  1  0.250000  0.861206  0.926725  1
  Pt  Pt8  1  0.250000  0.240162  0.907934  1
  Pt  Pt9  1  0.750000  0.758569  0.102645  1
  Pt  Pt10  1  0.250000  0.747431  0.593986  1
  Pt  Pt11  1  0.750000  0.256173  0.402419  1
