# generated using pymatgen
data_Ca3ThRe15Si8Mo
_symmetry_space_group_name_H-M   'P 1'
_cell_length_a   4.18881700
_cell_length_b   7.27968603
_cell_length_c   15.56847651
_cell_angle_alpha   90.38588789
_cell_angle_beta   90.00000000
_cell_angle_gamma   90.00000000
_symmetry_Int_Tables_number   1
_chemical_formula_structural   Ca3ThRe15Si8Mo
_chemical_formula_sum   'Ca3 Th1 Re15 Si8 Mo1'
_cell_volume   474.72303084
_cell_formula_units_Z   1
loop_
 _symmetry_equiv_pos_site_id
 _symmetry_equiv_pos_as_xyz
  1  'x, y, z'
loop_
 _atom_site_type_symbol
 _atom_site_label
 _atom_site_symmetry_multiplicity
 _atom_site_fract_x
 _atom_site_fract_y
 _atom_site_fract_z
 _atom_site_occupancy
  Ca  Ca0  1  0.000000  0.583320  0.119038  1
  Ca  Ca1  1  0.000000  0.419384  0.881858  1
  Ca  Ca2  1  0.500000  0.081550  0.379481  1
  Th  Th3  1  0.500000  0.918336  0.618146  1
  Re  Re4  1  0.000000  0.861769  0.946653  1
  Re  Re5  1  0.500000  0.641112  0.448910  1
  Re  Re6  1  0.500000  0.364004  0.551432  1
  Re  Re7  1  0.000000  0.733561  0.319920  1
  Re  Re8  1  0.000000  0.264847  0.678541  1
  Re  Re9  1  0.500000  0.234475  0.180457  1
  Re  Re10  1  0.500000  0.763455  0.820466  1
  Re  Re11  1  0.000000  0.438874  0.418241  1
  Re  Re12  1  0.000000  0.570087  0.580853  1
  Re  Re13  1  0.500000  0.934948  0.082459  1
  Re  Re14  1  0.500000  0.062164  0.918323  1
  Re  Re15  1  0.000000  0.991215  0.207398  1
  Re  Re16  1  0.000000  0.007282  0.792476  1
  Re  Re17  1  0.500000  0.493653  0.293935  1
  Re  Re18  1  0.500000  0.503510  0.706212  1
  Si  Si19  1  0.000000  0.832811  0.473787  1
  Si  Si20  1  0.000000  0.172205  0.522564  1
  Si  Si21  1  0.500000  0.329766  0.023922  1
  Si  Si22  1  0.500000  0.670830  0.976053  1
  Si  Si23  1  0.000000  0.291899  0.274771  1
  Si  Si24  1  0.000000  0.698617  0.728855  1
  Si  Si25  1  0.500000  0.791115  0.224817  1
  Si  Si26  1  0.500000  0.208788  0.777255  1
  Mo  Mo27  1  0.000000  0.136423  0.053175  1
