# generated using pymatgen
data_Ho10Ga3Sn2Ir
_symmetry_space_group_name_H-M   'P 1'
_cell_length_a   8.65113861
_cell_length_b   8.65113741
_cell_length_c   8.71744110
_cell_angle_alpha   125.65702464
_cell_angle_beta   125.65702607
_cell_angle_gamma   79.93303057
_symmetry_Int_Tables_number   1
_chemical_formula_structural   Ho10Ga3Sn2Ir
_chemical_formula_sum   'Ho10 Ga3 Sn2 Ir1'
_cell_volume   417.05834341
_cell_formula_units_Z   1
loop_
 _symmetry_equiv_pos_site_id
 _symmetry_equiv_pos_as_xyz
  1  'x, y, z'
loop_
 _atom_site_type_symbol
 _atom_site_label
 _atom_site_symmetry_multiplicity
 _atom_site_fract_x
 _atom_site_fract_y
 _atom_site_fract_z
 _atom_site_occupancy
  Ho  Ho0  1  0.002691  0.004166  0.006858  1
  Ho  Ho1  1  0.495834  0.497309  0.993142  1
  Ho  Ho2  1  0.016146  0.505521  0.806288  1
  Ho  Ho3  1  0.709858  0.199232  0.193712  1
  Ho  Ho4  1  0.517746  0.697903  0.500000  1
  Ho  Ho5  1  0.190644  0.036238  0.500000  1
  Ho  Ho6  1  0.994479  0.483854  0.193712  1
  Ho  Ho7  1  0.300768  0.790142  0.806288  1
  Ho  Ho8  1  0.463762  0.309356  0.500000  1
  Ho  Ho9  1  0.802097  0.982254  0.500000  1
  Ga  Ga10  1  0.365226  0.859599  0.224824  1
  Ga  Ga11  1  0.640401  0.134774  0.775176  1
  Ga  Ga12  1  0.866081  0.633919  0.500000  1
  Sn  Sn13  1  0.754500  0.745500  0.000000  1
  Sn  Sn14  1  0.254500  0.245500  0.000000  1
  Ir  Ir15  1  0.125269  0.374731  0.500000  1
