# generated using pymatgen
data_Y2Ho6Si8Pd5Pt3
_symmetry_space_group_name_H-M   'P 1'
_cell_length_a   4.31074400
_cell_length_b   7.48177789
_cell_length_c   14.01753004
_cell_angle_alpha   90.02375867
_cell_angle_beta   90.00000000
_cell_angle_gamma   90.00000000
_symmetry_Int_Tables_number   1
_chemical_formula_structural   Y2Ho6Si8Pd5Pt3
_chemical_formula_sum   'Y2 Ho6 Si8 Pd5 Pt3'
_cell_volume   452.09374848
_cell_formula_units_Z   1
loop_
 _symmetry_equiv_pos_site_id
 _symmetry_equiv_pos_as_xyz
  1  'x, y, z'
loop_
 _atom_site_type_symbol
 _atom_site_label
 _atom_site_symmetry_multiplicity
 _atom_site_fract_x
 _atom_site_fract_y
 _atom_site_fract_z
 _atom_site_occupancy
  Y  Y0  1  0.500000  0.702462  0.500263  1
  Y  Y1  1  0.000000  0.298783  0.000050  1
  Ho  Ho2  1  0.500000  0.793236  0.750103  1
  Ho  Ho3  1  0.000000  0.206765  0.750072  1
  Ho  Ho4  1  0.500000  0.791940  0.250416  1
  Ho  Ho5  1  0.000000  0.206709  0.250031  1
  Ho  Ho6  1  0.500000  0.708993  0.999794  1
  Ho  Ho7  1  0.000000  0.291155  0.499950  1
  Si  Si8  1  0.500000  0.406660  0.643622  1
  Si  Si9  1  0.000000  0.593320  0.856245  1
  Si  Si10  1  0.500000  0.406831  0.356224  1
  Si  Si11  1  0.000000  0.591702  0.144613  1
  Si  Si12  1  0.500000  0.091672  0.093656  1
  Si  Si13  1  0.000000  0.910544  0.406930  1
  Si  Si14  1  0.500000  0.089042  0.908596  1
  Si  Si15  1  0.000000  0.910724  0.592739  1
  Pd  Pd16  1  0.000000  0.922937  0.107043  1
  Pd  Pd17  1  0.500000  0.421763  0.156835  1
  Pd  Pd18  1  0.000000  0.579229  0.342669  1
  Pd  Pd19  1  0.500000  0.421258  0.843239  1
  Pd  Pd20  1  0.000000  0.578540  0.657222  1
  Pt  Pt21  1  0.500000  0.075694  0.609177  1
  Pt  Pt22  1  0.000000  0.924355  0.890228  1
  Pt  Pt23  1  0.500000  0.075686  0.390284  1
