# generated using pymatgen
data_Er2Ni6B2PdPt
_symmetry_space_group_name_H-M   'P 1'
_cell_length_a   5.03847600
_cell_length_b   5.03847618
_cell_length_c   7.19096100
_cell_angle_alpha   90.00000000
_cell_angle_beta   90.00000000
_cell_angle_gamma   119.99998567
_symmetry_Int_Tables_number   1
_chemical_formula_structural   Er2Ni6B2PdPt
_chemical_formula_sum   'Er2 Ni6 B2 Pd1 Pt1'
_cell_volume   158.09423444
_cell_formula_units_Z   1
loop_
 _symmetry_equiv_pos_site_id
 _symmetry_equiv_pos_as_xyz
  1  'x, y, z'
loop_
 _atom_site_type_symbol
 _atom_site_label
 _atom_site_symmetry_multiplicity
 _atom_site_fract_x
 _atom_site_fract_y
 _atom_site_fract_z
 _atom_site_occupancy
  Er  Er0  1  0.000000  0.000000  0.500000  1
  Er  Er1  1  0.000000  0.000000  0.000000  1
  Ni  Ni2  1  0.499644  0.999289  0.305048  1
  Ni  Ni3  1  0.499644  0.500356  0.305048  1
  Ni  Ni4  1  0.000711  0.500356  0.305048  1
  Ni  Ni5  1  0.499644  0.999289  0.694952  1
  Ni  Ni6  1  0.499644  0.500356  0.694952  1
  Ni  Ni7  1  0.000711  0.500356  0.694952  1
  B  B8  1  0.666667  0.333333  0.500000  1
  B  B9  1  0.333333  0.666667  0.500000  1
  Pd  Pd10  1  0.666667  0.333333  0.000000  1
  Pt  Pt11  1  0.333333  0.666667  0.000000  1
