# generated using pymatgen
data_Y10Al3NiTe4
_symmetry_space_group_name_H-M   'P 1'
_cell_length_a   7.99269325
_cell_length_b   7.99269356
_cell_length_c   15.07158900
_cell_angle_alpha   90.00000000
_cell_angle_beta   90.00000000
_cell_angle_gamma   150.17196950
_symmetry_Int_Tables_number   1
_chemical_formula_structural   Y10Al3NiTe4
_chemical_formula_sum   'Y10 Al3 Ni1 Te4'
_cell_volume   478.90543297
_cell_formula_units_Z   1
loop_
 _symmetry_equiv_pos_site_id
 _symmetry_equiv_pos_as_xyz
  1  'x, y, z'
loop_
 _atom_site_type_symbol
 _atom_site_label
 _atom_site_symmetry_multiplicity
 _atom_site_fract_x
 _atom_site_fract_y
 _atom_site_fract_z
 _atom_site_occupancy
  Y  Y0  1  0.964734  0.035266  0.112811  1
  Y  Y1  1  0.035396  0.964604  0.885413  1
  Y  Y2  1  0.035396  0.964604  0.614587  1
  Y  Y3  1  0.964734  0.035266  0.387189  1
  Y  Y4  1  0.746458  0.253542  0.625447  1
  Y  Y5  1  0.251454  0.748546  0.387472  1
  Y  Y6  1  0.251454  0.748546  0.112528  1
  Y  Y7  1  0.746458  0.253542  0.874553  1
  Y  Y8  1  0.608651  0.391349  0.250000  1
  Y  Y9  1  0.389849  0.610151  0.750000  1
  Al  Al10  1  0.412528  0.587472  0.250000  1
  Al  Al11  1  0.591810  0.408190  0.750000  1
  Al  Al12  1  0.807975  0.192025  0.250000  1
  Ni  Ni13  1  0.190836  0.809164  0.750000  1
  Te  Te14  1  0.613980  0.386020  0.037972  1
  Te  Te15  1  0.387153  0.612847  0.960521  1
  Te  Te16  1  0.387153  0.612847  0.539479  1
  Te  Te17  1  0.613980  0.386020  0.462028  1
