# generated using pymatgen
data_Er2Al9ZnRu2
_symmetry_space_group_name_H-M   'P 1'
_cell_length_a   7.59896591
_cell_length_b   7.59896615
_cell_length_c   9.45232700
_cell_angle_alpha   90.00000000
_cell_angle_beta   90.00000000
_cell_angle_gamma   119.39162258
_symmetry_Int_Tables_number   1
_chemical_formula_structural   Er2Al9ZnRu2
_chemical_formula_sum   'Er4 Al18 Zn2 Ru4'
_cell_volume   475.56323131
_cell_formula_units_Z   2
loop_
 _symmetry_equiv_pos_site_id
 _symmetry_equiv_pos_as_xyz
  1  'x, y, z'
loop_
 _atom_site_type_symbol
 _atom_site_label
 _atom_site_symmetry_multiplicity
 _atom_site_fract_x
 _atom_site_fract_y
 _atom_site_fract_z
 _atom_site_occupancy
  Er  Er0  1  0.996535  0.678801  0.250000  1
  Er  Er1  1  0.003465  0.321199  0.750000  1
  Er  Er2  1  0.678801  0.996535  0.250000  1
  Er  Er3  1  0.321199  0.003465  0.750000  1
  Al  Al4  1  0.140647  0.140647  0.250000  1
  Al  Al5  1  0.859353  0.859353  0.750000  1
  Al  Al6  1  0.000987  0.347788  0.076909  1
  Al  Al7  1  0.999013  0.652212  0.923091  1
  Al  Al8  1  0.999013  0.652212  0.576909  1
  Al  Al9  1  0.347788  0.000987  0.423091  1
  Al  Al10  1  0.000987  0.347788  0.423091  1
  Al  Al11  1  0.652212  0.999013  0.576909  1
  Al  Al12  1  0.652212  0.999013  0.923091  1
  Al  Al13  1  0.347788  0.000987  0.076909  1
  Al  Al14  1  0.343401  0.343401  0.554391  1
  Al  Al15  1  0.656599  0.656599  0.445609  1
  Al  Al16  1  0.656599  0.656599  0.054391  1
  Al  Al17  1  0.343401  0.343401  0.945609  1
  Al  Al18  1  0.336647  0.555105  0.250000  1
  Al  Al19  1  0.663353  0.444895  0.750000  1
  Al  Al20  1  0.555105  0.336647  0.250000  1
  Al  Al21  1  0.444895  0.663353  0.750000  1
  Zn  Zn22  1  0.000000  0.000000  0.000000  1
  Zn  Zn23  1  0.000000  0.000000  0.500000  1
  Ru  Ru24  1  0.671956  0.328044  0.000000  1
  Ru  Ru25  1  0.328044  0.671956  0.000000  1
  Ru  Ru26  1  0.328044  0.671956  0.500000  1
  Ru  Ru27  1  0.671956  0.328044  0.500000  1
