# generated using pymatgen
data_NaFeNi4P3
_symmetry_space_group_name_H-M   'P 1'
_cell_length_a   3.63537300
_cell_length_b   10.32934800
_cell_length_c   11.82748000
_cell_angle_alpha   90.00000000
_cell_angle_beta   90.00000000
_cell_angle_gamma   90.00000000
_symmetry_Int_Tables_number   1
_chemical_formula_structural   NaFeNi4P3
_chemical_formula_sum   'Na4 Fe4 Ni16 P12'
_cell_volume   444.13408974
_cell_formula_units_Z   4
loop_
 _symmetry_equiv_pos_site_id
 _symmetry_equiv_pos_as_xyz
  1  'x, y, z'
loop_
 _atom_site_type_symbol
 _atom_site_label
 _atom_site_symmetry_multiplicity
 _atom_site_fract_x
 _atom_site_fract_y
 _atom_site_fract_z
 _atom_site_occupancy
  Na  Na0  1  0.250000  0.581316  0.706271  1
  Na  Na1  1  0.250000  0.918684  0.206271  1
  Na  Na2  1  0.750000  0.418684  0.293729  1
  Na  Na3  1  0.750000  0.081316  0.793729  1
  Fe  Fe4  1  0.250000  0.463826  0.930474  1
  Fe  Fe5  1  0.250000  0.036174  0.430474  1
  Fe  Fe6  1  0.750000  0.536174  0.069526  1
  Fe  Fe7  1  0.750000  0.963826  0.569526  1
  Ni  Ni8  1  0.250000  0.713389  0.993419  1
  Ni  Ni9  1  0.250000  0.786611  0.493419  1
  Ni  Ni10  1  0.750000  0.286611  0.006581  1
  Ni  Ni11  1  0.750000  0.213389  0.506581  1
  Ni  Ni12  1  0.250000  0.407759  0.484591  1
  Ni  Ni13  1  0.250000  0.092241  0.984591  1
  Ni  Ni14  1  0.750000  0.592241  0.515409  1
  Ni  Ni15  1  0.750000  0.907759  0.015409  1
  Ni  Ni16  1  0.250000  0.219681  0.174905  1
  Ni  Ni17  1  0.250000  0.280319  0.674905  1
  Ni  Ni18  1  0.750000  0.780319  0.825095  1
  Ni  Ni19  1  0.750000  0.719681  0.325095  1
  Ni  Ni20  1  0.250000  0.877812  0.701630  1
  Ni  Ni21  1  0.250000  0.622188  0.201630  1
  Ni  Ni22  1  0.750000  0.122188  0.298370  1
  Ni  Ni23  1  0.750000  0.377812  0.798370  1
  P  P24  1  0.250000  0.422812  0.110584  1
  P  P25  1  0.250000  0.077188  0.610584  1
  P  P26  1  0.750000  0.577188  0.889416  1
  P  P27  1  0.750000  0.922812  0.389416  1
  P  P28  1  0.250000  0.267203  0.867990  1
  P  P29  1  0.250000  0.232797  0.367990  1
  P  P30  1  0.750000  0.732797  0.132010  1
  P  P31  1  0.750000  0.767203  0.632010  1
  P  P32  1  0.250000  0.602166  0.392904  1
  P  P33  1  0.250000  0.897834  0.892904  1
  P  P34  1  0.750000  0.397834  0.607096  1
  P  P35  1  0.750000  0.102166  0.107096  1
