# generated using pymatgen
data_Tb2Y6Si12Ir3Pd
_symmetry_space_group_name_H-M   'P 1'
_cell_length_a   8.18610300
_cell_length_b   8.18610225
_cell_length_c   7.97484000
_cell_angle_alpha   90.00000000
_cell_angle_beta   90.00000000
_cell_angle_gamma   120.00000708
_symmetry_Int_Tables_number   1
_chemical_formula_structural   Tb2Y6Si12Ir3Pd
_chemical_formula_sum   'Tb2 Y6 Si12 Ir3 Pd1'
_cell_volume   462.81449145
_cell_formula_units_Z   1
loop_
 _symmetry_equiv_pos_site_id
 _symmetry_equiv_pos_as_xyz
  1  'x, y, z'
loop_
 _atom_site_type_symbol
 _atom_site_label
 _atom_site_symmetry_multiplicity
 _atom_site_fract_x
 _atom_site_fract_y
 _atom_site_fract_z
 _atom_site_occupancy
  Tb  Tb0  1  0.000000  0.000000  0.252053  1
  Tb  Tb1  1  0.000000  0.000000  0.750568  1
  Y  Y2  1  0.511316  0.022629  0.247038  1
  Y  Y3  1  0.491762  0.983526  0.752077  1
  Y  Y4  1  0.977371  0.488684  0.247038  1
  Y  Y5  1  0.016474  0.508238  0.752077  1
  Y  Y6  1  0.511316  0.488684  0.247038  1
  Y  Y7  1  0.491762  0.508238  0.752077  1
  Si  Si8  1  0.166893  0.333787  0.003145  1
  Si  Si9  1  0.833552  0.667105  0.997842  1
  Si  Si10  1  0.666213  0.833107  0.003145  1
  Si  Si11  1  0.832472  0.664943  0.499650  1
  Si  Si12  1  0.332895  0.166448  0.997842  1
  Si  Si13  1  0.164831  0.329662  0.501882  1
  Si  Si14  1  0.166893  0.833107  0.003145  1
  Si  Si15  1  0.335057  0.167528  0.499650  1
  Si  Si16  1  0.833552  0.166448  0.997842  1
  Si  Si17  1  0.670338  0.835169  0.501882  1
  Si  Si18  1  0.832472  0.167528  0.499650  1
  Si  Si19  1  0.164831  0.835169  0.501882  1
  Ir  Ir20  1  0.333333  0.666667  0.027001  1
  Ir  Ir21  1  0.666667  0.333333  0.966911  1
  Ir  Ir22  1  0.666667  0.333333  0.537070  1
  Pd  Pd23  1  0.333333  0.666667  0.461494  1
