# generated using pymatgen
data_HfZr3ScSn3
_symmetry_space_group_name_H-M   'P 1'
_cell_length_a   8.52426213
_cell_length_b   8.51095808
_cell_length_c   5.84004103
_cell_angle_alpha   90.01225326
_cell_angle_beta   89.99388471
_cell_angle_gamma   119.94836554
_symmetry_Int_Tables_number   1
_chemical_formula_structural   HfZr3ScSn3
_chemical_formula_sum   'Hf2 Zr6 Sc2 Sn6'
_cell_volume   367.11953773
_cell_formula_units_Z   2
loop_
 _symmetry_equiv_pos_site_id
 _symmetry_equiv_pos_as_xyz
  1  'x, y, z'
loop_
 _atom_site_type_symbol
 _atom_site_label
 _atom_site_symmetry_multiplicity
 _atom_site_fract_x
 _atom_site_fract_y
 _atom_site_fract_z
 _atom_site_occupancy
  Hf  Hf0  1  0.331718  0.664137  0.500006  1
  Hf  Hf1  1  0.668282  0.332418  0.500006  1
  Zr  Zr2  1  0.000000  0.247088  0.750463  1
  Zr  Zr3  1  0.242355  0.242833  0.249280  1
  Zr  Zr4  1  0.757645  0.000477  0.249280  1
  Zr  Zr5  1  0.000000  0.757056  0.249421  1
  Zr  Zr6  1  0.667914  0.332632  0.000442  1
  Zr  Zr7  1  0.332086  0.664719  0.000442  1
  Sc  Sc8  1  0.755186  0.756339  0.750543  1
  Sc  Sc9  1  0.244814  0.001153  0.750543  1
  Sn  Sn10  1  0.393555  0.391591  0.747947  1
  Sn  Sn11  1  0.606445  0.998036  0.747947  1
  Sn  Sn12  1  0.000000  0.610746  0.748220  1
  Sn  Sn13  1  0.607843  0.607744  0.251796  1
  Sn  Sn14  1  0.392157  0.999901  0.251796  1
  Sn  Sn15  1  0.000000  0.393132  0.251867  1
