# generated using pymatgen
data_Y2Ga10OsRu2
_symmetry_space_group_name_H-M   'P 1'
_cell_length_a   8.88936500
_cell_length_b   8.88936500
_cell_length_c   6.44560600
_cell_angle_alpha   90.00000000
_cell_angle_beta   90.00000000
_cell_angle_gamma   90.00000000
_symmetry_Int_Tables_number   1
_chemical_formula_structural   Y2Ga10OsRu2
_chemical_formula_sum   'Y4 Ga20 Os2 Ru4'
_cell_volume   509.33700773
_cell_formula_units_Z   2
loop_
 _symmetry_equiv_pos_site_id
 _symmetry_equiv_pos_as_xyz
  1  'x, y, z'
loop_
 _atom_site_type_symbol
 _atom_site_label
 _atom_site_symmetry_multiplicity
 _atom_site_fract_x
 _atom_site_fract_y
 _atom_site_fract_z
 _atom_site_occupancy
  Y  Y0  1  0.683202  0.183202  0.000000  1
  Y  Y1  1  0.316798  0.816798  0.000000  1
  Y  Y2  1  0.816798  0.683202  0.000000  1
  Y  Y3  1  0.183202  0.316798  0.000000  1
  Ga  Ga4  1  0.938870  0.206527  0.294777  1
  Ga  Ga5  1  0.706527  0.438870  0.294777  1
  Ga  Ga6  1  0.500000  0.000000  0.288571  1
  Ga  Ga7  1  0.561130  0.706527  0.705223  1
  Ga  Ga8  1  0.293473  0.561130  0.705223  1
  Ga  Ga9  1  0.793473  0.938870  0.294777  1
  Ga  Ga10  1  0.938870  0.206527  0.705223  1
  Ga  Ga11  1  0.293473  0.561130  0.294777  1
  Ga  Ga12  1  0.061130  0.793473  0.294777  1
  Ga  Ga13  1  0.706527  0.438870  0.705223  1
  Ga  Ga14  1  0.438870  0.293473  0.705223  1
  Ga  Ga15  1  0.061130  0.793473  0.705223  1
  Ga  Ga16  1  0.206527  0.061130  0.705223  1
  Ga  Ga17  1  0.793473  0.938870  0.705223  1
  Ga  Ga18  1  0.206527  0.061130  0.294777  1
  Ga  Ga19  1  0.000000  0.500000  0.711429  1
  Ga  Ga20  1  0.000000  0.500000  0.288571  1
  Ga  Ga21  1  0.561130  0.706527  0.294777  1
  Ga  Ga22  1  0.438870  0.293473  0.294777  1
  Ga  Ga23  1  0.500000  0.000000  0.711429  1
  Os  Os24  1  0.000000  0.000000  0.000000  1
  Os  Os25  1  0.500000  0.500000  0.000000  1
  Ru  Ru26  1  0.678351  0.178351  0.500000  1
  Ru  Ru27  1  0.821649  0.678351  0.500000  1
  Ru  Ru28  1  0.178351  0.321649  0.500000  1
  Ru  Ru29  1  0.321649  0.821649  0.500000  1
