# generated using pymatgen
data_TbNb8CoSe16
_symmetry_space_group_name_H-M   'P 1'
_cell_length_a   6.99631600
_cell_length_b   6.99630814
_cell_length_c   13.54368800
_cell_angle_alpha   89.99999902
_cell_angle_beta   89.99997912
_cell_angle_gamma   120.00011595
_symmetry_Int_Tables_number   1
_chemical_formula_structural   TbNb8CoSe16
_chemical_formula_sum   'Tb1 Nb8 Co1 Se16'
_cell_volume   574.12361463
_cell_formula_units_Z   1
loop_
 _symmetry_equiv_pos_site_id
 _symmetry_equiv_pos_as_xyz
  1  'x, y, z'
loop_
 _atom_site_type_symbol
 _atom_site_label
 _atom_site_symmetry_multiplicity
 _atom_site_fract_x
 _atom_site_fract_y
 _atom_site_fract_z
 _atom_site_occupancy
  Tb  Tb0  1  0.000000  0.000000  0.500000  1
  Nb  Nb1  1  0.000000  0.000000  0.231805  1
  Nb  Nb2  1  0.000000  0.000000  0.768195  1
  Nb  Nb3  1  0.506904  0.013806  0.230065  1
  Nb  Nb4  1  0.986195  0.493097  0.230065  1
  Nb  Nb5  1  0.506903  0.493097  0.230065  1
  Nb  Nb6  1  0.493096  0.986194  0.769935  1
  Nb  Nb7  1  0.013805  0.506903  0.769935  1
  Nb  Nb8  1  0.493097  0.506903  0.769935  1
  Co  Co9  1  0.000000  0.000000  0.000000  1
  Se  Se10  1  0.333332  0.666667  0.896548  1
  Se  Se11  1  0.666668  0.333333  0.103452  1
  Se  Se12  1  0.666667  0.333334  0.359372  1
  Se  Se13  1  0.333333  0.666666  0.640628  1
  Se  Se14  1  0.169800  0.830201  0.354560  1
  Se  Se15  1  0.169800  0.339599  0.354558  1
  Se  Se16  1  0.660401  0.830201  0.354560  1
  Se  Se17  1  0.830200  0.169799  0.645440  1
  Se  Se18  1  0.830200  0.660401  0.645442  1
  Se  Se19  1  0.339599  0.169799  0.645440  1
  Se  Se20  1  0.832778  0.167226  0.891069  1
  Se  Se21  1  0.832773  0.665552  0.891070  1
  Se  Se22  1  0.334447  0.167225  0.891069  1
  Se  Se23  1  0.167222  0.832774  0.108931  1
  Se  Se24  1  0.167227  0.334448  0.108930  1
  Se  Se25  1  0.665553  0.832775  0.108931  1
