# generated using pymatgen
data_Nd4Er4B24OsRu3
_symmetry_space_group_name_H-M   'P 1'
_cell_length_a   3.70220700
_cell_length_b   9.20886667
_cell_length_c   11.63615504
_cell_angle_alpha   90.02948604
_cell_angle_beta   90.00000000
_cell_angle_gamma   90.00000000
_symmetry_Int_Tables_number   1
_chemical_formula_structural   Nd4Er4B24OsRu3
_chemical_formula_sum   'Nd4 Er4 B24 Os1 Ru3'
_cell_volume   396.71290158
_cell_formula_units_Z   1
loop_
 _symmetry_equiv_pos_site_id
 _symmetry_equiv_pos_as_xyz
  1  'x, y, z'
loop_
 _atom_site_type_symbol
 _atom_site_label
 _atom_site_symmetry_multiplicity
 _atom_site_fract_x
 _atom_site_fract_y
 _atom_site_fract_z
 _atom_site_occupancy
  Nd  Nd0  1  0.000000  0.322943  0.414533  1
  Nd  Nd1  1  0.000000  0.677496  0.585749  1
  Nd  Nd2  1  0.000000  0.822576  0.085520  1
  Nd  Nd3  1  0.000000  0.177314  0.914484  1
  Er  Er4  1  0.000000  0.944072  0.371704  1
  Er  Er5  1  0.000000  0.056110  0.627555  1
  Er  Er6  1  0.000000  0.443946  0.128329  1
  Er  Er7  1  0.000000  0.555395  0.872188  1
  B  B8  1  0.500000  0.556466  0.430432  1
  B  B9  1  0.500000  0.443745  0.569589  1
  B  B10  1  0.500000  0.056341  0.069633  1
  B  B11  1  0.500000  0.943857  0.930494  1
  B  B12  1  0.500000  0.750033  0.417240  1
  B  B13  1  0.500000  0.250246  0.582649  1
  B  B14  1  0.500000  0.249980  0.082834  1
  B  B15  1  0.500000  0.749996  0.917180  1
  B  B16  1  0.500000  0.790753  0.266600  1
  B  B17  1  0.500000  0.209122  0.733270  1
  B  B18  1  0.500000  0.290765  0.233448  1
  B  B19  1  0.500000  0.708927  0.766561  1
  B  B20  1  0.500000  0.630541  0.184994  1
  B  B21  1  0.500000  0.369232  0.815059  1
  B  B22  1  0.500000  0.130628  0.315071  1
  B  B23  1  0.500000  0.869415  0.685036  1
  B  B24  1  0.500000  0.985758  0.214112  1
  B  B25  1  0.500000  0.014563  0.785830  1
  B  B26  1  0.500000  0.485766  0.285980  1
  B  B27  1  0.500000  0.514211  0.714140  1
  B  B28  1  0.500000  0.601812  0.027988  1
  B  B29  1  0.500000  0.397706  0.972257  1
  B  B30  1  0.500000  0.102338  0.471878  1
  B  B31  1  0.500000  0.898037  0.527689  1
  Os  Os32  1  0.000000  0.860442  0.819306  1
  Ru  Ru33  1  0.000000  0.639592  0.319311  1
  Ru  Ru34  1  0.000000  0.360392  0.680792  1
  Ru  Ru35  1  0.000000  0.139486  0.180562  1
