# generated using pymatgen
data_Dy7Y(LuGa5)4
_symmetry_space_group_name_H-M   'P 1'
_cell_length_a   6.05102700
_cell_length_b   9.56892701
_cell_length_c   11.53274400
_cell_angle_alpha   89.99823741
_cell_angle_beta   89.99886104
_cell_angle_gamma   90.00346322
_symmetry_Int_Tables_number   1
_chemical_formula_structural   Dy7Y(LuGa5)4
_chemical_formula_sum   'Dy7 Y1 Lu4 Ga20'
_cell_volume   667.76704671
_cell_formula_units_Z   1
loop_
 _symmetry_equiv_pos_site_id
 _symmetry_equiv_pos_as_xyz
  1  'x, y, z'
loop_
 _atom_site_type_symbol
 _atom_site_label
 _atom_site_symmetry_multiplicity
 _atom_site_fract_x
 _atom_site_fract_y
 _atom_site_fract_z
 _atom_site_occupancy
  Dy  Dy0  1  0.609298  0.993477  0.851071  1
  Dy  Dy1  1  0.109254  0.006531  0.648946  1
  Dy  Dy2  1  0.390712  0.493469  0.148922  1
  Dy  Dy3  1  0.109299  0.493453  0.648981  1
  Dy  Dy4  1  0.390716  0.006536  0.148948  1
  Dy  Dy5  1  0.890738  0.993431  0.351051  1
  Dy  Dy6  1  0.609290  0.506545  0.851065  1
  Y  Y7  1  0.890652  0.506547  0.351028  1
  Lu  Lu8  1  0.849713  0.750015  0.074384  1
  Lu  Lu9  1  0.650291  0.750027  0.574401  1
  Lu  Lu10  1  0.150326  0.249992  0.925620  1
  Lu  Lu11  1  0.349775  0.249946  0.425635  1
  Ga  Ga12  1  0.876335  0.053132  0.089505  1
  Ga  Ga13  1  0.623608  0.446860  0.589628  1
  Ga  Ga14  1  0.123654  0.553118  0.910473  1
  Ga  Ga15  1  0.376364  0.946859  0.410470  1
  Ga  Ga16  1  0.123653  0.946873  0.910458  1
  Ga  Ga17  1  0.376401  0.553175  0.410524  1
  Ga  Ga18  1  0.876345  0.446839  0.089383  1
  Ga  Ga19  1  0.623637  0.053124  0.589529  1
  Ga  Ga20  1  0.167111  0.750128  0.254003  1
  Ga  Ga21  1  0.333049  0.750012  0.754062  1
  Ga  Ga22  1  0.833048  0.250014  0.745940  1
  Ga  Ga23  1  0.666848  0.249863  0.245874  1
  Ga  Ga24  1  0.379121  0.750017  0.001337  1
  Ga  Ga25  1  0.120968  0.750062  0.501424  1
  Ga  Ga26  1  0.620866  0.249991  0.998660  1
  Ga  Ga27  1  0.879159  0.249853  0.498760  1
  Ga  Ga28  1  0.603934  0.750177  0.298562  1
  Ga  Ga29  1  0.895811  0.750008  0.798622  1
  Ga  Ga30  1  0.395795  0.249990  0.701390  1
  Ga  Ga31  1  0.104230  0.249934  0.201340  1
