# generated using pymatgen
data_Tb5Y7Tc4
_symmetry_space_group_name_H-M   'P 1'
_cell_length_a   6.31606318
_cell_length_b   7.43193758
_cell_length_c   9.25902017
_cell_angle_alpha   89.98359431
_cell_angle_beta   89.99915234
_cell_angle_gamma   90.02732295
_symmetry_Int_Tables_number   1
_chemical_formula_structural   Tb5Y7Tc4
_chemical_formula_sum   'Tb5 Y7 Tc4'
_cell_volume   434.62377791
_cell_formula_units_Z   1
loop_
 _symmetry_equiv_pos_site_id
 _symmetry_equiv_pos_as_xyz
  1  'x, y, z'
loop_
 _atom_site_type_symbol
 _atom_site_label
 _atom_site_symmetry_multiplicity
 _atom_site_fract_x
 _atom_site_fract_y
 _atom_site_fract_z
 _atom_site_occupancy
  Tb  Tb0  1  0.164899  0.174989  0.064197  1
  Tb  Tb1  1  0.869327  0.543111  0.250035  1
  Tb  Tb2  1  0.629887  0.042753  0.250042  1
  Tb  Tb3  1  0.130324  0.456904  0.750267  1
  Tb  Tb4  1  0.370152  0.956772  0.750328  1
  Y  Y5  1  0.336256  0.675030  0.063860  1
  Y  Y6  1  0.164270  0.174961  0.436617  1
  Y  Y7  1  0.664314  0.324792  0.563905  1
  Y  Y8  1  0.836047  0.825010  0.936004  1
  Y  Y9  1  0.664451  0.324602  0.936200  1
  Y  Y10  1  0.835523  0.825373  0.563869  1
  Y  Y11  1  0.335246  0.674942  0.436266  1
  Tc  Tc12  1  0.035116  0.885229  0.248879  1
  Tc  Tc13  1  0.464161  0.384110  0.249842  1
  Tc  Tc14  1  0.965576  0.115753  0.749679  1
  Tc  Tc15  1  0.534454  0.615668  0.750009  1
