# generated using pymatgen
data_Er3Mg4PaIr4
_symmetry_space_group_name_H-M   'P 1'
_cell_length_a   4.07190900
_cell_length_b   7.01468827
_cell_length_c   8.58208325
_cell_angle_alpha   90.97415361
_cell_angle_beta   90.00000000
_cell_angle_gamma   90.00000000
_symmetry_Int_Tables_number   1
_chemical_formula_structural   Er3Mg4PaIr4
_chemical_formula_sum   'Er3 Mg4 Pa1 Ir4'
_cell_volume   245.09609276
_cell_formula_units_Z   1
loop_
 _symmetry_equiv_pos_site_id
 _symmetry_equiv_pos_as_xyz
  1  'x, y, z'
loop_
 _atom_site_type_symbol
 _atom_site_label
 _atom_site_symmetry_multiplicity
 _atom_site_fract_x
 _atom_site_fract_y
 _atom_site_fract_z
 _atom_site_occupancy
  Er  Er0  1  0.250000  0.465752  0.172288  1
  Er  Er1  1  0.750000  0.035198  0.678992  1
  Er  Er2  1  0.750000  0.537723  0.823678  1
  Mg  Mg3  1  0.250000  0.359273  0.565638  1
  Mg  Mg4  1  0.250000  0.865907  0.935935  1
  Mg  Mg5  1  0.750000  0.624915  0.439169  1
  Mg  Mg6  1  0.750000  0.145432  0.056833  1
  Pa  Pa7  1  0.250000  0.961314  0.321776  1
  Ir  Ir8  1  0.250000  0.259657  0.874200  1
  Ir  Ir9  1  0.250000  0.755448  0.614375  1
  Ir  Ir10  1  0.750000  0.763318  0.142437  1
  Ir  Ir11  1  0.750000  0.226062  0.374677  1
