# generated using pymatgen
data_Y5Lu3Hg4
_symmetry_space_group_name_H-M   'P 1'
_cell_length_a   5.05237800
_cell_length_b   7.13100037
_cell_length_c   9.12739404
_cell_angle_alpha   89.85431543
_cell_angle_beta   90.00000000
_cell_angle_gamma   90.00000000
_symmetry_Int_Tables_number   1
_chemical_formula_structural   Y5Lu3Hg4
_chemical_formula_sum   'Y5 Lu3 Hg4'
_cell_volume   328.84533864
_cell_formula_units_Z   1
loop_
 _symmetry_equiv_pos_site_id
 _symmetry_equiv_pos_as_xyz
  1  'x, y, z'
loop_
 _atom_site_type_symbol
 _atom_site_label
 _atom_site_symmetry_multiplicity
 _atom_site_fract_x
 _atom_site_fract_y
 _atom_site_fract_z
 _atom_site_occupancy
  Y  Y0  1  0.750000  0.666123  0.424922  1
  Y  Y1  1  0.250000  0.985948  0.308315  1
  Y  Y2  1  0.250000  0.482512  0.188767  1
  Y  Y3  1  0.750000  0.017105  0.692699  1
  Y  Y4  1  0.750000  0.516133  0.809241  1
  Lu  Lu5  1  0.250000  0.837834  0.927010  1
  Lu  Lu6  1  0.250000  0.333563  0.574864  1
  Lu  Lu7  1  0.750000  0.164019  0.073978  1
  Hg  Hg8  1  0.250000  0.255677  0.897992  1
  Hg  Hg9  1  0.250000  0.755394  0.607115  1
  Hg  Hg10  1  0.750000  0.746187  0.098077  1
  Hg  Hg11  1  0.750000  0.239506  0.397021  1
