# generated using pymatgen
data_ZnBi2Rh4PbO14
_symmetry_space_group_name_H-M   'P 1'
_cell_length_a   7.37007733
_cell_length_b   7.13750191
_cell_length_c   7.30689190
_cell_angle_alpha   58.82356627
_cell_angle_beta   59.71353369
_cell_angle_gamma   58.91611582
_symmetry_Int_Tables_number   1
_chemical_formula_structural   ZnBi2Rh4PbO14
_chemical_formula_sum   'Zn1 Bi2 Rh4 Pb1 O14'
_cell_volume   266.49301414
_cell_formula_units_Z   1
loop_
 _symmetry_equiv_pos_site_id
 _symmetry_equiv_pos_as_xyz
  1  'x, y, z'
loop_
 _atom_site_type_symbol
 _atom_site_label
 _atom_site_symmetry_multiplicity
 _atom_site_fract_x
 _atom_site_fract_y
 _atom_site_fract_z
 _atom_site_occupancy
  Zn  Zn0  1  0.125000  0.625000  0.125000  1
  Bi  Bi1  1  0.125000  0.125000  0.125000  1
  Bi  Bi2  1  0.625000  0.125000  0.125000  1
  Rh  Rh3  1  0.625000  0.625000  0.625000  1
  Rh  Rh4  1  0.625000  0.625000  0.125000  1
  Rh  Rh5  1  0.125000  0.625000  0.625000  1
  Rh  Rh6  1  0.625000  0.125000  0.625000  1
  Pb  Pb7  1  0.125000  0.125000  0.625000  1
  O  O8  1  0.242689  0.282322  0.232302  1
  O  O9  1  0.293774  0.707145  0.292921  1
  O  O10  1  0.957902  0.963006  0.538560  1
  O  O11  1  0.540532  0.963006  0.538560  1
  O  O12  1  0.706161  0.707145  0.292921  1
  O  O13  1  0.958049  0.541204  0.542697  1
  O  O14  1  0.709468  0.286994  0.711440  1
  O  O15  1  0.292098  0.286994  0.711440  1
  O  O16  1  0.710941  0.286982  0.291135  1
  O  O17  1  0.291951  0.708796  0.707303  1
  O  O18  1  0.956226  0.542855  0.957079  1
  O  O19  1  0.543839  0.542855  0.957079  1
  O  O20  1  0.007311  0.967678  0.017698  1
  O  O21  1  0.539059  0.963018  0.958865  1
