# generated using pymatgen
data_La3Tm3TcBi2
_symmetry_space_group_name_H-M   'P 1'
_cell_length_a   8.49130600
_cell_length_b   8.49130675
_cell_length_c   4.41926000
_cell_angle_alpha   90.00000000
_cell_angle_beta   90.00000000
_cell_angle_gamma   120.00000486
_symmetry_Int_Tables_number   1
_chemical_formula_structural   La3Tm3TcBi2
_chemical_formula_sum   'La3 Tm3 Tc1 Bi2'
_cell_volume   275.94922955
_cell_formula_units_Z   1
loop_
 _symmetry_equiv_pos_site_id
 _symmetry_equiv_pos_as_xyz
  1  'x, y, z'
loop_
 _atom_site_type_symbol
 _atom_site_label
 _atom_site_symmetry_multiplicity
 _atom_site_fract_x
 _atom_site_fract_y
 _atom_site_fract_z
 _atom_site_occupancy
  La  La0  1  0.608495  0.000000  0.000000  1
  La  La1  1  0.000000  0.608495  0.000000  1
  La  La2  1  0.391505  0.391505  0.000000  1
  Tm  Tm3  1  0.223758  0.000000  0.500000  1
  Tm  Tm4  1  0.000000  0.223758  0.500000  1
  Tm  Tm5  1  0.776242  0.776242  0.500000  1
  Tc  Tc6  1  0.000000  0.000000  0.000000  1
  Bi  Bi7  1  0.333333  0.666667  0.500000  1
  Bi  Bi8  1  0.666667  0.333333  0.500000  1
