# generated using pymatgen
data_Ho12Th4Mg4MnIr3
_symmetry_space_group_name_H-M   'P 1'
_cell_length_a   9.76082998
_cell_length_b   9.76082928
_cell_length_c   9.76082918
_cell_angle_alpha   59.68813777
_cell_angle_beta   59.68813732
_cell_angle_gamma   59.68813897
_symmetry_Int_Tables_number   1
_chemical_formula_structural   Ho12Th4Mg4MnIr3
_chemical_formula_sum   'Ho12 Th4 Mg4 Mn1 Ir3'
_cell_volume   652.91628455
_cell_formula_units_Z   1
loop_
 _symmetry_equiv_pos_site_id
 _symmetry_equiv_pos_as_xyz
  1  'x, y, z'
loop_
 _atom_site_type_symbol
 _atom_site_label
 _atom_site_symmetry_multiplicity
 _atom_site_fract_x
 _atom_site_fract_y
 _atom_site_fract_z
 _atom_site_occupancy
  Ho  Ho0  1  0.818030  0.186376  0.186376  1
  Ho  Ho1  1  0.186912  0.812266  0.812266  1
  Ho  Ho2  1  0.186376  0.818030  0.186376  1
  Ho  Ho3  1  0.812266  0.186912  0.812266  1
  Ho  Ho4  1  0.186376  0.186376  0.818030  1
  Ho  Ho5  1  0.812266  0.812266  0.186912  1
  Ho  Ho6  1  0.935412  0.564345  0.564345  1
  Ho  Ho7  1  0.562491  0.934609  0.934609  1
  Ho  Ho8  1  0.564345  0.935412  0.564345  1
  Ho  Ho9  1  0.934609  0.562491  0.934609  1
  Ho  Ho10  1  0.564345  0.564345  0.935412  1
  Ho  Ho11  1  0.934609  0.934609  0.562491  1
  Th  Th12  1  0.348772  0.348772  0.348772  1
  Th  Th13  1  0.342025  0.342025  0.962170  1
  Th  Th14  1  0.342025  0.962170  0.342025  1
  Th  Th15  1  0.962170  0.342025  0.342025  1
  Mg  Mg16  1  0.579410  0.579410  0.579410  1
  Mg  Mg17  1  0.580273  0.580273  0.257796  1
  Mg  Mg18  1  0.580273  0.257796  0.580273  1
  Mg  Mg19  1  0.257796  0.580273  0.580273  1
  Mn  Mn20  1  0.146823  0.146823  0.146823  1
  Ir  Ir21  1  0.144266  0.144266  0.573866  1
  Ir  Ir22  1  0.144266  0.573866  0.144266  1
  Ir  Ir23  1  0.573866  0.144266  0.144266  1
