# generated using pymatgen
data_SbAs2RuF16
_symmetry_space_group_name_H-M   'P 1'
_cell_length_a   8.30415300
_cell_length_b   5.73138204
_cell_length_c   6.96382203
_cell_angle_alpha   84.66102918
_cell_angle_beta   90.00000000
_cell_angle_gamma   90.00000000
_symmetry_Int_Tables_number   1
_chemical_formula_structural   SbAs2RuF16
_chemical_formula_sum   'Sb1 As2 Ru1 F16'
_cell_volume   330.00015213
_cell_formula_units_Z   1
loop_
 _symmetry_equiv_pos_site_id
 _symmetry_equiv_pos_as_xyz
  1  'x, y, z'
loop_
 _atom_site_type_symbol
 _atom_site_label
 _atom_site_symmetry_multiplicity
 _atom_site_fract_x
 _atom_site_fract_y
 _atom_site_fract_z
 _atom_site_occupancy
  Sb  Sb0  1  0.750000  0.202640  0.217745  1
  As  As1  1  0.250000  0.502929  0.299071  1
  As  As2  1  0.750000  0.502055  0.700176  1
  Ru  Ru3  1  0.250000  0.789153  0.783525  1
  F  F4  1  0.476903  0.776250  0.785020  1
  F  F5  1  0.978727  0.228356  0.214899  1
  F  F6  1  0.521273  0.228356  0.214899  1
  F  F7  1  0.023097  0.776250  0.785020  1
  F  F8  1  0.250000  0.014000  0.958354  1
  F  F9  1  0.750000  0.980522  0.034189  1
  F  F10  1  0.092805  0.706708  0.290797  1
  F  F11  1  0.592873  0.298823  0.708350  1
  F  F12  1  0.907127  0.298823  0.708350  1
  F  F13  1  0.407195  0.706708  0.290797  1
  F  F14  1  0.250000  0.533759  0.001556  1
  F  F15  1  0.750000  0.464291  0.002425  1
  F  F16  1  0.250000  0.534079  0.611825  1
  F  F17  1  0.750000  0.464656  0.384528  1
  F  F18  1  0.250000  0.013656  0.573394  1
  F  F19  1  0.750000  0.977988  0.435078  1
