# generated using pymatgen
data_TbHo2Pa(ReB6)2
_symmetry_space_group_name_H-M   'P 1'
_cell_length_a   3.70368900
_cell_length_b   9.17466892
_cell_length_c   11.54544005
_cell_angle_alpha   90.33391479
_cell_angle_beta   90.00000000
_cell_angle_gamma   90.00000000
_symmetry_Int_Tables_number   1
_chemical_formula_structural   TbHo2Pa(ReB6)2
_chemical_formula_sum   'Tb2 Ho4 Pa2 Re4 B24'
_cell_volume   392.30878010
_cell_formula_units_Z   2
loop_
 _symmetry_equiv_pos_site_id
 _symmetry_equiv_pos_as_xyz
  1  'x, y, z'
loop_
 _atom_site_type_symbol
 _atom_site_label
 _atom_site_symmetry_multiplicity
 _atom_site_fract_x
 _atom_site_fract_y
 _atom_site_fract_z
 _atom_site_occupancy
  Tb  Tb0  1  0.000000  0.823975  0.085588  1
  Tb  Tb1  1  0.000000  0.176025  0.914412  1
  Ho  Ho2  1  0.000000  0.944710  0.372514  1
  Ho  Ho3  1  0.000000  0.055290  0.627486  1
  Ho  Ho4  1  0.000000  0.443779  0.126626  1
  Ho  Ho5  1  0.000000  0.556221  0.873374  1
  Pa  Pa6  1  0.000000  0.321565  0.413157  1
  Pa  Pa7  1  0.000000  0.678435  0.586843  1
  Re  Re8  1  0.000000  0.635170  0.324790  1
  Re  Re9  1  0.000000  0.364830  0.675210  1
  Re  Re10  1  0.000000  0.140685  0.181956  1
  Re  Re11  1  0.000000  0.859315  0.818044  1
  B  B12  1  0.500000  0.553573  0.432962  1
  B  B13  1  0.500000  0.446427  0.567038  1
  B  B14  1  0.500000  0.053620  0.067507  1
  B  B15  1  0.500000  0.946380  0.932493  1
  B  B16  1  0.500000  0.748352  0.419466  1
  B  B17  1  0.500000  0.251648  0.580534  1
  B  B18  1  0.500000  0.248042  0.080487  1
  B  B19  1  0.500000  0.751958  0.919513  1
  B  B20  1  0.500000  0.791353  0.265667  1
  B  B21  1  0.500000  0.208647  0.734333  1
  B  B22  1  0.500000  0.292060  0.233907  1
  B  B23  1  0.500000  0.707940  0.766093  1
  B  B24  1  0.500000  0.631251  0.185543  1
  B  B25  1  0.500000  0.368749  0.814457  1
  B  B26  1  0.500000  0.132096  0.314117  1
  B  B27  1  0.500000  0.867904  0.685883  1
  B  B28  1  0.500000  0.982520  0.212269  1
  B  B29  1  0.500000  0.017480  0.787731  1
  B  B30  1  0.500000  0.482963  0.286720  1
  B  B31  1  0.500000  0.517037  0.713280  1
  B  B32  1  0.500000  0.604696  0.029306  1
  B  B33  1  0.500000  0.395304  0.970694  1
  B  B34  1  0.500000  0.110271  0.469516  1
  B  B35  1  0.500000  0.889729  0.530484  1
