# generated using pymatgen
data_Tb3ScAu5
_symmetry_space_group_name_H-M   'P 1'
_cell_length_a   7.94795865
_cell_length_b   7.94795900
_cell_length_c   7.94795863
_cell_angle_alpha   66.20364689
_cell_angle_beta   66.20364817
_cell_angle_gamma   66.20363578
_symmetry_Int_Tables_number   1
_chemical_formula_structural   Tb3ScAu5
_chemical_formula_sum   'Tb6 Sc2 Au10'
_cell_volume   402.58966839
_cell_formula_units_Z   2
loop_
 _symmetry_equiv_pos_site_id
 _symmetry_equiv_pos_as_xyz
  1  'x, y, z'
loop_
 _atom_site_type_symbol
 _atom_site_label
 _atom_site_symmetry_multiplicity
 _atom_site_fract_x
 _atom_site_fract_y
 _atom_site_fract_z
 _atom_site_occupancy
  Tb  Tb0  1  0.891443  0.188982  0.618426  1
  Tb  Tb1  1  0.618426  0.891443  0.188982  1
  Tb  Tb2  1  0.188982  0.618426  0.891443  1
  Tb  Tb3  1  0.108557  0.811018  0.381574  1
  Tb  Tb4  1  0.381574  0.108557  0.811018  1
  Tb  Tb5  1  0.811018  0.381574  0.108557  1
  Sc  Sc6  1  0.658439  0.658439  0.658439  1
  Sc  Sc7  1  0.341561  0.341561  0.341561  1
  Au  Au8  1  0.000000  0.000000  0.000000  1
  Au  Au9  1  0.500000  0.500000  0.500000  1
  Au  Au10  1  0.806351  0.806351  0.806351  1
  Au  Au11  1  0.193649  0.193649  0.193649  1
  Au  Au12  1  0.937847  0.551350  0.317929  1
  Au  Au13  1  0.317929  0.937847  0.551350  1
  Au  Au14  1  0.551350  0.317929  0.937847  1
  Au  Au15  1  0.062153  0.448650  0.682071  1
  Au  Au16  1  0.682071  0.062153  0.448650  1
  Au  Au17  1  0.448650  0.682071  0.062153  1
