# generated using pymatgen
data_Zr3Re2SiTcGe2
_symmetry_space_group_name_H-M   'P 1'
_cell_length_a   7.07590700
_cell_length_b   7.07251511
_cell_length_c   3.44712100
_cell_angle_alpha   90.00000000
_cell_angle_beta   90.00000000
_cell_angle_gamma   120.01587056
_symmetry_Int_Tables_number   1
_chemical_formula_structural   Zr3Re2SiTcGe2
_chemical_formula_sum   'Zr3 Re2 Si1 Tc1 Ge2'
_cell_volume   149.37354384
_cell_formula_units_Z   1
loop_
 _symmetry_equiv_pos_site_id
 _symmetry_equiv_pos_as_xyz
  1  'x, y, z'
loop_
 _atom_site_type_symbol
 _atom_site_label
 _atom_site_symmetry_multiplicity
 _atom_site_fract_x
 _atom_site_fract_y
 _atom_site_fract_z
 _atom_site_occupancy
  Zr  Zr0  1  0.400116  0.000000  0.500000  1
  Zr  Zr1  1  0.000683  0.401421  0.500000  1
  Zr  Zr2  1  0.599263  0.598579  0.500000  1
  Re  Re3  1  0.000441  0.750005  0.000000  1
  Re  Re4  1  0.250436  0.249995  0.000000  1
  Si  Si5  1  0.997837  0.000000  0.500000  1
  Tc  Tc6  1  0.750156  0.000000  0.000000  1
  Ge  Ge7  1  0.334014  0.666962  0.000000  1
  Ge  Ge8  1  0.667053  0.333038  0.000000  1
