# generated using pymatgen
data_Tb2Y10Tc3Pd
_symmetry_space_group_name_H-M   'P 1'
_cell_length_a   6.33467503
_cell_length_b   7.44992842
_cell_length_c   9.27319700
_cell_angle_alpha   90.00000000
_cell_angle_beta   90.00000000
_cell_angle_gamma   90.12197105
_symmetry_Int_Tables_number   1
_chemical_formula_structural   Tb2Y10Tc3Pd
_chemical_formula_sum   'Tb2 Y10 Tc3 Pd1'
_cell_volume   437.62783991
_cell_formula_units_Z   1
loop_
 _symmetry_equiv_pos_site_id
 _symmetry_equiv_pos_as_xyz
  1  'x, y, z'
loop_
 _atom_site_type_symbol
 _atom_site_label
 _atom_site_symmetry_multiplicity
 _atom_site_fract_x
 _atom_site_fract_y
 _atom_site_fract_z
 _atom_site_occupancy
  Tb  Tb0  1  0.370068  0.955665  0.750000  1
  Tb  Tb1  1  0.124406  0.460596  0.750000  1
  Y  Y2  1  0.627741  0.045423  0.250000  1
  Y  Y3  1  0.868211  0.534259  0.250000  1
  Y  Y4  1  0.166204  0.183656  0.058503  1
  Y  Y5  1  0.830149  0.824124  0.931210  1
  Y  Y6  1  0.664756  0.321948  0.935041  1
  Y  Y7  1  0.830149  0.824124  0.568790  1
  Y  Y8  1  0.340527  0.670904  0.059535  1
  Y  Y9  1  0.166204  0.183656  0.441497  1
  Y  Y10  1  0.340527  0.670904  0.440465  1
  Y  Y11  1  0.664756  0.321948  0.564959  1
  Tc  Tc12  1  0.455594  0.384495  0.250000  1
  Tc  Tc13  1  0.534312  0.616166  0.750000  1
  Tc  Tc14  1  0.967334  0.115076  0.750000  1
  Pd  Pd15  1  0.049061  0.887054  0.250000  1
