# generated using pymatgen
data_Er11Tm(C2I11)2
_symmetry_space_group_name_H-M   'P 1'
_cell_length_a   9.50161499
_cell_length_b   10.80914239
_cell_length_c   15.09016119
_cell_angle_alpha   90.75508877
_cell_angle_beta   104.23401203
_cell_angle_gamma   109.89752622
_symmetry_Int_Tables_number   1
_chemical_formula_structural   Er11Tm(C2I11)2
_chemical_formula_sum   'Er11 Tm1 C4 I22'
_cell_volume   1404.56501362
_cell_formula_units_Z   1
loop_
 _symmetry_equiv_pos_site_id
 _symmetry_equiv_pos_as_xyz
  1  'x, y, z'
loop_
 _atom_site_type_symbol
 _atom_site_label
 _atom_site_symmetry_multiplicity
 _atom_site_fract_x
 _atom_site_fract_y
 _atom_site_fract_z
 _atom_site_occupancy
  Er  Er0  1  0.385540  0.479217  0.119761  1
  Er  Er1  1  0.614296  0.520629  0.880168  1
  Er  Er2  1  0.428820  0.780461  0.266345  1
  Er  Er3  1  0.571068  0.219570  0.733663  1
  Er  Er4  1  0.626451  0.585040  0.357590  1
  Er  Er5  1  0.373551  0.414938  0.642445  1
  Er  Er6  1  0.830496  0.649796  0.201042  1
  Er  Er7  1  0.169549  0.350136  0.798915  1
  Er  Er8  1  0.629520  0.839501  0.106603  1
  Er  Er9  1  0.370470  0.160517  0.893356  1
  Er  Er10  1  0.860580  0.945660  0.347684  1
  Tm  Tm11  1  0.140088  0.054814  0.652621  1
  C  C12  1  0.431150  0.344726  0.797588  1
  C  C13  1  0.568479  0.654917  0.202230  1
  C  C14  1  0.314406  0.231442  0.739925  1
  C  C15  1  0.685610  0.768552  0.260067  1
  I  I16  1  0.387892  0.312580  0.271992  1
  I  I17  1  0.612091  0.687400  0.728012  1
  I  I18  1  0.124682  0.558468  0.150384  1
  I  I19  1  0.875288  0.441501  0.849599  1
  I  I20  1  0.626864  0.378271  0.061859  1
  I  I21  1  0.373116  0.621716  0.938128  1
  I  I22  1  0.121576  0.206297  0.482232  1
  I  I23  1  0.878754  0.793709  0.518312  1
  I  I24  1  0.617463  0.033819  0.391190  1
  I  I25  1  0.381874  0.966312  0.608855  1
  I  I26  1  0.126607  0.869200  0.305655  1
  I  I27  1  0.873830  0.130568  0.694224  1
  I  I28  1  0.131506  0.526085  0.653669  1
  I  I29  1  0.868493  0.473908  0.346338  1
  I  I30  1  0.614239  0.365820  0.566865  1
  I  I31  1  0.385759  0.634169  0.433140  1
  I  I32  1  0.140543  0.222742  0.977284  1
  I  I33  1  0.859439  0.777236  0.022694  1
  I  I34  1  0.624219  0.059244  0.896019  1
  I  I35  1  0.375764  0.940758  0.103958  1
  I  I36  1  0.129055  0.894963  0.814465  1
  I  I37  1  0.870871  0.105321  0.185121  1
