# generated using pymatgen
data_Tb6TaP12Rh17
_symmetry_space_group_name_H-M   'P 1'
_cell_length_a   3.94966300
_cell_length_b   11.19709400
_cell_length_c   12.80167700
_cell_angle_alpha   90.00000000
_cell_angle_beta   90.00000000
_cell_angle_gamma   90.00000000
_symmetry_Int_Tables_number   1
_chemical_formula_structural   Tb6TaP12Rh17
_chemical_formula_sum   'Tb6 Ta1 P12 Rh17'
_cell_volume   566.15093776
_cell_formula_units_Z   1
loop_
 _symmetry_equiv_pos_site_id
 _symmetry_equiv_pos_as_xyz
  1  'x, y, z'
loop_
 _atom_site_type_symbol
 _atom_site_label
 _atom_site_symmetry_multiplicity
 _atom_site_fract_x
 _atom_site_fract_y
 _atom_site_fract_z
 _atom_site_occupancy
  Tb  Tb0  1  0.000000  0.500000  0.520629  1
  Tb  Tb1  1  0.500000  0.000000  0.477904  1
  Tb  Tb2  1  0.500000  0.815878  0.206139  1
  Tb  Tb3  1  0.500000  0.184122  0.206139  1
  Tb  Tb4  1  0.000000  0.682501  0.797772  1
  Tb  Tb5  1  0.000000  0.317499  0.797772  1
  Ta  Ta6  1  0.500000  0.500000  0.156778  1
  P  P7  1  0.500000  0.500000  0.875493  1
  P  P8  1  0.000000  0.000000  0.122013  1
  P  P9  1  0.500000  0.500000  0.350364  1
  P  P10  1  0.000000  0.000000  0.649721  1
  P  P11  1  0.500000  0.315251  0.618738  1
  P  P12  1  0.500000  0.684749  0.618738  1
  P  P13  1  0.000000  0.185798  0.383175  1
  P  P14  1  0.000000  0.814202  0.383175  1
  P  P15  1  0.500000  0.849577  0.889705  1
  P  P16  1  0.500000  0.150423  0.889705  1
  P  P17  1  0.000000  0.655692  0.109024  1
  P  P18  1  0.000000  0.344308  0.109024  1
  Rh  Rh19  1  0.000000  0.000000  0.831658  1
  Rh  Rh20  1  0.500000  0.500000  0.698421  1
  Rh  Rh21  1  0.000000  0.000000  0.300004  1
  Rh  Rh22  1  0.000000  0.500000  0.986443  1
  Rh  Rh23  1  0.500000  0.000000  0.020709  1
  Rh  Rh24  1  0.500000  0.331636  0.987117  1
  Rh  Rh25  1  0.500000  0.668364  0.987117  1
  Rh  Rh26  1  0.000000  0.166187  0.010125  1
  Rh  Rh27  1  0.000000  0.833813  0.010125  1
  Rh  Rh28  1  0.500000  0.291708  0.433266  1
  Rh  Rh29  1  0.500000  0.708292  0.433266  1
  Rh  Rh30  1  0.000000  0.202536  0.569844  1
  Rh  Rh31  1  0.000000  0.797464  0.569844  1
  Rh  Rh32  1  0.500000  0.873632  0.709134  1
  Rh  Rh33  1  0.500000  0.126368  0.709134  1
  Rh  Rh34  1  0.000000  0.626414  0.290893  1
  Rh  Rh35  1  0.000000  0.373586  0.290893  1
