# generated using pymatgen
data_Ho2Tm8In8IrPt3
_symmetry_space_group_name_H-M   'P 1'
_cell_length_a   3.60483200
_cell_length_b   8.07073304
_cell_length_c   18.08762575
_cell_angle_alpha   90.02204110
_cell_angle_beta   90.00000000
_cell_angle_gamma   90.00000000
_symmetry_Int_Tables_number   1
_chemical_formula_structural   Ho2Tm8In8IrPt3
_chemical_formula_sum   'Ho2 Tm8 In8 Ir1 Pt3'
_cell_volume   526.23477378
_cell_formula_units_Z   1
loop_
 _symmetry_equiv_pos_site_id
 _symmetry_equiv_pos_as_xyz
  1  'x, y, z'
loop_
 _atom_site_type_symbol
 _atom_site_label
 _atom_site_symmetry_multiplicity
 _atom_site_fract_x
 _atom_site_fract_y
 _atom_site_fract_z
 _atom_site_occupancy
  Ho  Ho0  1  0.000000  0.999910  0.000155  1
  Ho  Ho1  1  0.000000  0.500916  0.499329  1
  Tm  Tm2  1  0.000000  0.114670  0.412229  1
  Tm  Tm3  1  0.000000  0.884112  0.585585  1
  Tm  Tm4  1  0.000000  0.384134  0.914667  1
  Tm  Tm5  1  0.000000  0.616061  0.087004  1
  Tm  Tm6  1  0.000000  0.235503  0.222538  1
  Tm  Tm7  1  0.000000  0.758380  0.779006  1
  Tm  Tm8  1  0.000000  0.257726  0.721586  1
  Tm  Tm9  1  0.000000  0.749625  0.278146  1
  In  In10  1  0.500000  0.423149  0.351092  1
  In  In11  1  0.500000  0.576974  0.648481  1
  In  In12  1  0.500000  0.077283  0.851805  1
  In  In13  1  0.500000  0.926554  0.148479  1
  In  In14  1  0.500000  0.292591  0.067436  1
  In  In15  1  0.500000  0.707233  0.933551  1
  In  In16  1  0.500000  0.207875  0.566600  1
  In  In17  1  0.500000  0.793314  0.431665  1
  Ir  Ir18  1  0.500000  0.020150  0.303931  1
  Pt  Pt19  1  0.500000  0.976550  0.696142  1
  Pt  Pt20  1  0.500000  0.476791  0.804370  1
  Pt  Pt21  1  0.500000  0.520497  0.196204  1
