# generated using pymatgen
data_CaSm6SI12
_symmetry_space_group_name_H-M   'P 1'
_cell_length_a   9.89565514
_cell_length_b   9.89565475
_cell_length_c   9.89565500
_cell_angle_alpha   106.94788091
_cell_angle_beta   106.94788023
_cell_angle_gamma   106.94787937
_symmetry_Int_Tables_number   1
_chemical_formula_structural   CaSm6SI12
_chemical_formula_sum   'Ca1 Sm6 S1 I12'
_cell_volume   808.15542654
_cell_formula_units_Z   1
loop_
 _symmetry_equiv_pos_site_id
 _symmetry_equiv_pos_as_xyz
  1  'x, y, z'
loop_
 _atom_site_type_symbol
 _atom_site_label
 _atom_site_symmetry_multiplicity
 _atom_site_fract_x
 _atom_site_fract_y
 _atom_site_fract_z
 _atom_site_occupancy
  Ca  Ca0  1  0.500000  0.500000  0.500000  1
  Sm  Sm1  1  0.095680  0.295528  0.025005  1
  Sm  Sm2  1  0.025005  0.095680  0.295528  1
  Sm  Sm3  1  0.295528  0.025005  0.095680  1
  Sm  Sm4  1  0.904320  0.704472  0.974995  1
  Sm  Sm5  1  0.974995  0.904320  0.704472  1
  Sm  Sm6  1  0.704472  0.974995  0.904320  1
  S  S7  1  0.000000  0.000000  0.000000  1
  I  I8  1  0.453361  0.375395  0.149736  1
  I  I9  1  0.149736  0.453361  0.375395  1
  I  I10  1  0.375395  0.149736  0.453361  1
  I  I11  1  0.546639  0.624605  0.850264  1
  I  I12  1  0.850264  0.546639  0.624605  1
  I  I13  1  0.624605  0.850264  0.546639  1
  I  I14  1  0.776289  0.315981  0.926979  1
  I  I15  1  0.926979  0.776289  0.315981  1
  I  I16  1  0.315981  0.926979  0.776289  1
  I  I17  1  0.223711  0.684019  0.073021  1
  I  I18  1  0.073021  0.223711  0.684019  1
  I  I19  1  0.684019  0.073021  0.223711  1
