# generated using pymatgen
data_ErCoP3Ru4
_symmetry_space_group_name_H-M   'P 1'
_cell_length_a   3.85935400
_cell_length_b   10.63778700
_cell_length_c   12.31513400
_cell_angle_alpha   90.00000000
_cell_angle_beta   90.00000000
_cell_angle_gamma   90.00000000
_symmetry_Int_Tables_number   1
_chemical_formula_structural   ErCoP3Ru4
_chemical_formula_sum   'Er4 Co4 P12 Ru16'
_cell_volume   505.59765161
_cell_formula_units_Z   4
loop_
 _symmetry_equiv_pos_site_id
 _symmetry_equiv_pos_as_xyz
  1  'x, y, z'
loop_
 _atom_site_type_symbol
 _atom_site_label
 _atom_site_symmetry_multiplicity
 _atom_site_fract_x
 _atom_site_fract_y
 _atom_site_fract_z
 _atom_site_occupancy
  Er  Er0  1  0.250000  0.584582  0.707510  1
  Er  Er1  1  0.250000  0.915418  0.207510  1
  Er  Er2  1  0.750000  0.415418  0.292490  1
  Er  Er3  1  0.750000  0.084582  0.792490  1
  Co  Co4  1  0.250000  0.463350  0.937413  1
  Co  Co5  1  0.250000  0.036650  0.437413  1
  Co  Co6  1  0.750000  0.536650  0.062587  1
  Co  Co7  1  0.750000  0.963350  0.562587  1
  P  P8  1  0.250000  0.423166  0.109449  1
  P  P9  1  0.250000  0.076834  0.609449  1
  P  P10  1  0.750000  0.576834  0.890551  1
  P  P11  1  0.750000  0.923166  0.390551  1
  P  P12  1  0.250000  0.271287  0.868811  1
  P  P13  1  0.250000  0.228713  0.368811  1
  P  P14  1  0.750000  0.728713  0.131189  1
  P  P15  1  0.750000  0.771287  0.631189  1
  P  P16  1  0.250000  0.601250  0.391867  1
  P  P17  1  0.250000  0.898750  0.891867  1
  P  P18  1  0.750000  0.398750  0.608133  1
  P  P19  1  0.750000  0.101250  0.108133  1
  Ru  Ru20  1  0.250000  0.705959  0.985503  1
  Ru  Ru21  1  0.250000  0.794041  0.485503  1
  Ru  Ru22  1  0.750000  0.294041  0.014497  1
  Ru  Ru23  1  0.750000  0.205959  0.514497  1
  Ru  Ru24  1  0.250000  0.404888  0.484152  1
  Ru  Ru25  1  0.250000  0.095112  0.984152  1
  Ru  Ru26  1  0.750000  0.595112  0.515848  1
  Ru  Ru27  1  0.750000  0.904888  0.015848  1
  Ru  Ru28  1  0.250000  0.226386  0.176760  1
  Ru  Ru29  1  0.250000  0.273614  0.676760  1
  Ru  Ru30  1  0.750000  0.773614  0.823240  1
  Ru  Ru31  1  0.750000  0.726386  0.323240  1
  Ru  Ru32  1  0.250000  0.887632  0.698602  1
  Ru  Ru33  1  0.250000  0.612368  0.198602  1
  Ru  Ru34  1  0.750000  0.112368  0.301398  1
  Ru  Ru35  1  0.750000  0.387632  0.801398  1
