# generated using pymatgen
data_Ba8HoTm3(CoO5)4
_symmetry_space_group_name_H-M   'P 1'
_cell_length_a   6.13292902
_cell_length_b   7.92864526
_cell_length_c   12.44256422
_cell_angle_alpha   91.44718263
_cell_angle_beta   89.99481630
_cell_angle_gamma   89.99289512
_symmetry_Int_Tables_number   1
_chemical_formula_structural   Ba8HoTm3(CoO5)4
_chemical_formula_sum   'Ba8 Ho1 Tm3 Co4 O20'
_cell_volume   604.83687747
_cell_formula_units_Z   1
loop_
 _symmetry_equiv_pos_site_id
 _symmetry_equiv_pos_as_xyz
  1  'x, y, z'
loop_
 _atom_site_type_symbol
 _atom_site_label
 _atom_site_symmetry_multiplicity
 _atom_site_fract_x
 _atom_site_fract_y
 _atom_site_fract_z
 _atom_site_occupancy
  Ba  Ba0  1  0.757179  0.494152  0.361314  1
  Ba  Ba1  1  0.743436  0.993333  0.862802  1
  Ba  Ba2  1  0.242806  0.507023  0.638052  1
  Ba  Ba3  1  0.256609  0.005591  0.137839  1
  Ba  Ba4  1  0.753716  0.992359  0.382048  1
  Ba  Ba5  1  0.746937  0.493208  0.883623  1
  Ba  Ba6  1  0.246340  0.006736  0.617126  1
  Ba  Ba7  1  0.253305  0.507260  0.117168  1
  Ho  Ho8  1  0.748275  0.261732  0.629518  1
  Tm  Tm9  1  0.751556  0.761000  0.129674  1
  Tm  Tm10  1  0.251598  0.738688  0.370140  1
  Tm  Tm11  1  0.248289  0.238833  0.870887  1
  Co  Co12  1  0.741946  0.746045  0.591590  1
  Co  Co13  1  0.758205  0.245935  0.091902  1
  Co  Co14  1  0.258490  0.253735  0.406991  1
  Co  Co15  1  0.242133  0.753888  0.908302  1
  O  O16  1  0.755817  0.970570  0.634803  1
  O  O17  1  0.744643  0.471706  0.134120  1
  O  O18  1  0.244216  0.027962  0.365272  1
  O  O19  1  0.255258  0.528360  0.866017  1
  O  O20  1  0.739205  0.050509  0.167143  1
  O  O21  1  0.761520  0.553239  0.668978  1
  O  O22  1  0.260844  0.949080  0.832897  1
  O  O23  1  0.238859  0.449459  0.331864  1
  O  O24  1  0.535018  0.747247  0.267286  1
  O  O25  1  0.963702  0.247090  0.769531  1
  O  O26  1  0.460682  0.253039  0.732220  1
  O  O27  1  0.034660  0.752788  0.232683  1
  O  O28  1  0.527057  0.231961  0.987460  1
  O  O29  1  0.973297  0.731513  0.487146  1
  O  O30  1  0.473604  0.767897  0.012686  1
  O  O31  1  0.029538  0.268472  0.512066  1
  O  O32  1  0.029369  0.235187  0.016098  1
  O  O33  1  0.470983  0.734684  0.515191  1
  O  O34  1  0.971532  0.764904  0.985062  1
  O  O35  1  0.529376  0.264813  0.482501  1
