# generated using pymatgen
data_Ti2FeCo3(MoP2)2
_symmetry_space_group_name_H-M   'P 1'
_cell_length_a   3.57347600
_cell_length_b   6.01162821
_cell_length_c   6.81139973
_cell_angle_alpha   89.88082826
_cell_angle_beta   90.00000000
_cell_angle_gamma   90.00000000
_symmetry_Int_Tables_number   1
_chemical_formula_structural   Ti2FeCo3(MoP2)2
_chemical_formula_sum   'Ti2 Fe1 Co3 Mo2 P4'
_cell_volume   146.32495923
_cell_formula_units_Z   1
loop_
 _symmetry_equiv_pos_site_id
 _symmetry_equiv_pos_as_xyz
  1  'x, y, z'
loop_
 _atom_site_type_symbol
 _atom_site_label
 _atom_site_symmetry_multiplicity
 _atom_site_fract_x
 _atom_site_fract_y
 _atom_site_fract_z
 _atom_site_occupancy
  Ti  Ti0  1  0.750000  0.973869  0.173691  1
  Ti  Ti1  1  0.750000  0.477206  0.323929  1
  Fe  Fe2  1  0.250000  0.640767  0.063393  1
  Co  Co3  1  0.250000  0.143707  0.434920  1
  Co  Co4  1  0.750000  0.857427  0.559989  1
  Co  Co5  1  0.750000  0.355959  0.940155  1
  Mo  Mo6  1  0.250000  0.028848  0.830479  1
  Mo  Mo7  1  0.250000  0.527628  0.672095  1
  P  P8  1  0.250000  0.770561  0.378239  1
  P  P9  1  0.250000  0.271517  0.121053  1
  P  P10  1  0.750000  0.227091  0.624519  1
  P  P11  1  0.750000  0.725419  0.877537  1
