# generated using pymatgen
data_Tm3MnB7
_symmetry_space_group_name_H-M   'P 1'
_cell_length_a   7.94144658
_cell_length_b   7.94144669
_cell_length_c   9.21353400
_cell_angle_alpha   90.00000000
_cell_angle_beta   90.00000000
_cell_angle_gamma   155.27578290
_symmetry_Int_Tables_number   1
_chemical_formula_structural   Tm3MnB7
_chemical_formula_sum   'Tm6 Mn2 B14'
_cell_volume   243.03146758
_cell_formula_units_Z   2
loop_
 _symmetry_equiv_pos_site_id
 _symmetry_equiv_pos_as_xyz
  1  'x, y, z'
loop_
 _atom_site_type_symbol
 _atom_site_label
 _atom_site_symmetry_multiplicity
 _atom_site_fract_x
 _atom_site_fract_y
 _atom_site_fract_z
 _atom_site_occupancy
  Tm  Tm0  1  0.895732  0.104268  0.059395  1
  Tm  Tm1  1  0.104268  0.895732  0.559395  1
  Tm  Tm2  1  0.104268  0.895732  0.940605  1
  Tm  Tm3  1  0.895732  0.104268  0.440605  1
  Tm  Tm4  1  0.241151  0.758849  0.250000  1
  Tm  Tm5  1  0.758849  0.241151  0.750000  1
  Mn  Mn6  1  0.052424  0.947576  0.250000  1
  Mn  Mn7  1  0.947576  0.052424  0.750000  1
  B  B8  1  0.457166  0.542834  0.250000  1
  B  B9  1  0.542834  0.457166  0.750000  1
  B  B10  1  0.727760  0.272240  0.032836  1
  B  B11  1  0.272240  0.727760  0.532836  1
  B  B12  1  0.272240  0.727760  0.967164  1
  B  B13  1  0.727760  0.272240  0.467164  1
  B  B14  1  0.630232  0.369768  0.347225  1
  B  B15  1  0.369768  0.630232  0.847225  1
  B  B16  1  0.369768  0.630232  0.652775  1
  B  B17  1  0.630232  0.369768  0.152775  1
  B  B18  1  0.520764  0.479236  0.402446  1
  B  B19  1  0.479236  0.520764  0.902446  1
  B  B20  1  0.479236  0.520764  0.597554  1
  B  B21  1  0.520764  0.479236  0.097554  1
