# generated using pymatgen
data_Pr3Th5Zn8Ru5Rh3
_symmetry_space_group_name_H-M   'P 1'
_cell_length_a   3.96986200
_cell_length_b   7.41285370
_cell_length_c   16.61447153
_cell_angle_alpha   89.85496437
_cell_angle_beta   90.00000000
_cell_angle_gamma   90.00000000
_symmetry_Int_Tables_number   1
_chemical_formula_structural   Pr3Th5Zn8Ru5Rh3
_chemical_formula_sum   'Pr3 Th5 Zn8 Ru5 Rh3'
_cell_volume   488.92920491
_cell_formula_units_Z   1
loop_
 _symmetry_equiv_pos_site_id
 _symmetry_equiv_pos_as_xyz
  1  'x, y, z'
loop_
 _atom_site_type_symbol
 _atom_site_label
 _atom_site_symmetry_multiplicity
 _atom_site_fract_x
 _atom_site_fract_y
 _atom_site_fract_z
 _atom_site_occupancy
  Pr  Pr0  1  0.250000  0.557111  0.785773  1
  Pr  Pr1  1  0.750000  0.329265  0.440435  1
  Pr  Pr2  1  0.250000  0.670410  0.559437  1
  Th  Th3  1  0.750000  0.446016  0.216856  1
  Th  Th4  1  0.750000  0.952703  0.282715  1
  Th  Th5  1  0.750000  0.825337  0.061239  1
  Th  Th6  1  0.250000  0.054541  0.712961  1
  Th  Th7  1  0.250000  0.167331  0.941867  1
  Zn  Zn8  1  0.250000  0.004547  0.442211  1
  Zn  Zn9  1  0.750000  0.504728  0.940504  1
  Zn  Zn10  1  0.750000  0.001862  0.556452  1
  Zn  Zn11  1  0.250000  0.618619  0.349304  1
  Zn  Zn12  1  0.750000  0.386064  0.653479  1
  Zn  Zn13  1  0.750000  0.876668  0.850638  1
  Zn  Zn14  1  0.250000  0.492514  0.059039  1
  Zn  Zn15  1  0.250000  0.118928  0.148631  1
  Ru  Ru16  1  0.250000  0.242258  0.572782  1
  Ru  Ru17  1  0.750000  0.242056  0.058770  1
  Ru  Ru18  1  0.250000  0.237438  0.303926  1
  Ru  Ru19  1  0.250000  0.757851  0.942687  1
  Ru  Ru20  1  0.250000  0.731256  0.187620  1
  Rh  Rh21  1  0.750000  0.246429  0.815325  1
  Rh  Rh22  1  0.750000  0.774493  0.688089  1
  Rh  Rh23  1  0.750000  0.761577  0.429262  1
