# generated using pymatgen
data_CdBi6(SO8)2
_symmetry_space_group_name_H-M   'P 1'
_cell_length_a   5.82315808
_cell_length_b   8.23484171
_cell_length_c   9.24563467
_cell_angle_alpha   94.54054957
_cell_angle_beta   97.51811292
_cell_angle_gamma   106.51554447
_symmetry_Int_Tables_number   1
_chemical_formula_structural   CdBi6(SO8)2
_chemical_formula_sum   'Cd1 Bi6 S2 O16'
_cell_volume   418.23868872
_cell_formula_units_Z   1
loop_
 _symmetry_equiv_pos_site_id
 _symmetry_equiv_pos_as_xyz
  1  'x, y, z'
loop_
 _atom_site_type_symbol
 _atom_site_label
 _atom_site_symmetry_multiplicity
 _atom_site_fract_x
 _atom_site_fract_y
 _atom_site_fract_z
 _atom_site_occupancy
  Cd  Cd0  1  0.000000  0.500000  0.500000  1
  Bi  Bi1  1  0.685452  0.509358  0.798390  1
  Bi  Bi2  1  0.314548  0.490642  0.201610  1
  Bi  Bi3  1  0.643848  0.831124  0.532380  1
  Bi  Bi4  1  0.356152  0.168876  0.467620  1
  Bi  Bi5  1  0.307862  0.852728  0.816278  1
  Bi  Bi6  1  0.692138  0.147272  0.183722  1
  S  S7  1  0.139835  0.226982  0.845884  1
  S  S8  1  0.860165  0.773018  0.154116  1
  O  O9  1  0.983706  0.670818  0.701331  1
  O  O10  1  0.016294  0.329182  0.298669  1
  O  O11  1  0.501465  0.689333  0.720179  1
  O  O12  1  0.498535  0.310667  0.279821  1
  O  O13  1  0.018946  0.042171  0.790416  1
  O  O14  1  0.981054  0.957829  0.209584  1
  O  O15  1  0.663017  0.366101  0.589774  1
  O  O16  1  0.336983  0.633899  0.410226  1
  O  O17  1  0.367201  0.244493  0.950941  1
  O  O18  1  0.632799  0.755507  0.049059  1
  O  O19  1  0.411259  0.966273  0.624536  1
  O  O20  1  0.588741  0.033727  0.375464  1
  O  O21  1  0.212569  0.323934  0.719026  1
  O  O22  1  0.787431  0.676066  0.280974  1
  O  O23  1  0.973993  0.300164  0.921372  1
  O  O24  1  0.026007  0.699836  0.078628  1
