# generated using pymatgen
data_Ca3Y(SbPt)4
_symmetry_space_group_name_H-M   'P 1'
_cell_length_a   4.64288200
_cell_length_b   7.35362857
_cell_length_c   7.95585874
_cell_angle_alpha   90.07530297
_cell_angle_beta   90.00000000
_cell_angle_gamma   90.00000000
_symmetry_Int_Tables_number   1
_chemical_formula_structural   Ca3Y(SbPt)4
_chemical_formula_sum   'Ca3 Y1 Sb4 Pt4'
_cell_volume   271.62893087
_cell_formula_units_Z   1
loop_
 _symmetry_equiv_pos_site_id
 _symmetry_equiv_pos_as_xyz
  1  'x, y, z'
loop_
 _atom_site_type_symbol
 _atom_site_label
 _atom_site_symmetry_multiplicity
 _atom_site_fract_x
 _atom_site_fract_y
 _atom_site_fract_z
 _atom_site_occupancy
  Ca  Ca0  1  0.250000  0.006458  0.301703  1
  Ca  Ca1  1  0.750000  0.493036  0.800640  1
  Ca  Ca2  1  0.250000  0.507408  0.199512  1
  Y  Y3  1  0.750000  0.993199  0.698941  1
  Sb  Sb4  1  0.750000  0.310803  0.408361  1
  Sb  Sb5  1  0.250000  0.187159  0.909427  1
  Sb  Sb6  1  0.250000  0.684925  0.590804  1
  Sb  Sb7  1  0.750000  0.811721  0.090338  1
  Pt  Pt8  1  0.250000  0.807612  0.912228  1
  Pt  Pt9  1  0.250000  0.294835  0.585801  1
  Pt  Pt10  1  0.750000  0.706961  0.421653  1
  Pt  Pt11  1  0.750000  0.195883  0.080591  1
