# generated using pymatgen
data_DyHo3BOs2C3
_symmetry_space_group_name_H-M   'P 1'
_cell_length_a   5.12018200
_cell_length_b   6.54699557
_cell_length_c   9.80272638
_cell_angle_alpha   90.21747019
_cell_angle_beta   90.00000000
_cell_angle_gamma   90.00000000
_symmetry_Int_Tables_number   1
_chemical_formula_structural   DyHo3BOs2C3
_chemical_formula_sum   'Dy2 Ho6 B2 Os4 C6'
_cell_volume   328.60275326
_cell_formula_units_Z   2
loop_
 _symmetry_equiv_pos_site_id
 _symmetry_equiv_pos_as_xyz
  1  'x, y, z'
loop_
 _atom_site_type_symbol
 _atom_site_label
 _atom_site_symmetry_multiplicity
 _atom_site_fract_x
 _atom_site_fract_y
 _atom_site_fract_z
 _atom_site_occupancy
  Dy  Dy0  1  0.750000  0.973955  0.715678  1
  Dy  Dy1  1  0.250000  0.026045  0.284322  1
  Ho  Ho2  1  0.250000  0.679439  0.550150  1
  Ho  Ho3  1  0.750000  0.320561  0.449850  1
  Ho  Ho4  1  0.750000  0.825981  0.053027  1
  Ho  Ho5  1  0.250000  0.174019  0.946973  1
  Ho  Ho6  1  0.250000  0.522981  0.211880  1
  Ho  Ho7  1  0.750000  0.477019  0.788120  1
  B  B8  1  0.250000  0.452791  0.757497  1
  B  B9  1  0.750000  0.547209  0.242503  1
  Os  Os10  1  0.250000  0.727198  0.863403  1
  Os  Os11  1  0.750000  0.272802  0.136597  1
  Os  Os12  1  0.750000  0.786377  0.370595  1
  Os  Os13  1  0.250000  0.213623  0.629405  1
  C  C14  1  0.750000  0.043431  0.260282  1
  C  C15  1  0.250000  0.956569  0.739718  1
  C  C16  1  0.250000  0.822203  0.051234  1
  C  C17  1  0.750000  0.177797  0.948766  1
  C  C18  1  0.750000  0.674506  0.553074  1
  C  C19  1  0.250000  0.325494  0.446926  1
