# generated using pymatgen
data_CuAg3(TeO4)4
_symmetry_space_group_name_H-M   'P 1'
_cell_length_a   4.91640862
_cell_length_b   5.60077102
_cell_length_c   11.22748472
_cell_angle_alpha   91.53141561
_cell_angle_beta   87.05466169
_cell_angle_gamma   90.27701956
_symmetry_Int_Tables_number   1
_chemical_formula_structural   CuAg3(TeO4)4
_chemical_formula_sum   'Cu1 Ag3 Te4 O16'
_cell_volume   308.63588820
_cell_formula_units_Z   1
loop_
 _symmetry_equiv_pos_site_id
 _symmetry_equiv_pos_as_xyz
  1  'x, y, z'
loop_
 _atom_site_type_symbol
 _atom_site_label
 _atom_site_symmetry_multiplicity
 _atom_site_fract_x
 _atom_site_fract_y
 _atom_site_fract_z
 _atom_site_occupancy
  Cu  Cu0  1  0.000000  0.000000  0.000000  1
  Ag  Ag1  1  0.000000  0.000000  0.500000  1
  Ag  Ag2  1  0.500000  0.500000  0.500000  1
  Ag  Ag3  1  0.500000  0.500000  0.000000  1
  Te  Te4  1  0.448833  0.185479  0.753319  1
  Te  Te5  1  0.046572  0.306476  0.247160  1
  Te  Te6  1  0.953428  0.693524  0.752840  1
  Te  Te7  1  0.551167  0.814521  0.246681  1
  O  O8  1  0.272713  0.204174  0.913135  1
  O  O9  1  0.727287  0.795826  0.086865  1
  O  O10  1  0.632916  0.208599  0.598206  1
  O  O11  1  0.812300  0.701842  0.594845  1
  O  O12  1  0.780312  0.067097  0.315599  1
  O  O13  1  0.800155  0.565784  0.306446  1
  O  O14  1  0.314966  0.546774  0.181411  1
  O  O15  1  0.708083  0.958391  0.815580  1
  O  O16  1  0.685034  0.453226  0.818589  1
  O  O17  1  0.105792  0.725667  0.905645  1
  O  O18  1  0.219688  0.932903  0.684401  1
  O  O19  1  0.367084  0.791401  0.401794  1
  O  O20  1  0.199845  0.434216  0.693554  1
  O  O21  1  0.187700  0.298158  0.405155  1
  O  O22  1  0.894208  0.274333  0.094355  1
  O  O23  1  0.291917  0.041609  0.184420  1
