# generated using pymatgen
data_Nd3Dy5(AgRh)2
_symmetry_space_group_name_H-M   'P 1'
_cell_length_a   9.63811387
_cell_length_b   9.63811233
_cell_length_c   9.63811400
_cell_angle_alpha   60.00000114
_cell_angle_beta   60.00000643
_cell_angle_gamma   60.00000494
_symmetry_Int_Tables_number   1
_chemical_formula_structural   Nd3Dy5(AgRh)2
_chemical_formula_sum   'Nd6 Dy10 Ag4 Rh4'
_cell_volume   633.08371027
_cell_formula_units_Z   2
loop_
 _symmetry_equiv_pos_site_id
 _symmetry_equiv_pos_as_xyz
  1  'x, y, z'
loop_
 _atom_site_type_symbol
 _atom_site_label
 _atom_site_symmetry_multiplicity
 _atom_site_fract_x
 _atom_site_fract_y
 _atom_site_fract_z
 _atom_site_occupancy
  Nd  Nd0  1  0.188479  0.811521  0.811521  1
  Nd  Nd1  1  0.811521  0.188479  0.188479  1
  Nd  Nd2  1  0.811521  0.188479  0.811521  1
  Nd  Nd3  1  0.188479  0.811521  0.188479  1
  Nd  Nd4  1  0.811521  0.811521  0.188479  1
  Nd  Nd5  1  0.188479  0.188479  0.811521  1
  Dy  Dy6  1  0.601640  0.601640  0.601640  1
  Dy  Dy7  1  0.601640  0.601640  0.195079  1
  Dy  Dy8  1  0.601640  0.195079  0.601640  1
  Dy  Dy9  1  0.195079  0.601640  0.601640  1
  Dy  Dy10  1  0.063941  0.436059  0.436059  1
  Dy  Dy11  1  0.436059  0.063941  0.063941  1
  Dy  Dy12  1  0.436059  0.063941  0.436059  1
  Dy  Dy13  1  0.063941  0.436059  0.063941  1
  Dy  Dy14  1  0.436059  0.436059  0.063941  1
  Dy  Dy15  1  0.063941  0.063941  0.436059  1
  Ag  Ag16  1  0.830222  0.830222  0.830222  1
  Ag  Ag17  1  0.830222  0.830222  0.509335  1
  Ag  Ag18  1  0.830222  0.509335  0.830222  1
  Ag  Ag19  1  0.509335  0.830222  0.830222  1
  Rh  Rh20  1  0.393065  0.393065  0.393065  1
  Rh  Rh21  1  0.393065  0.393065  0.820804  1
  Rh  Rh22  1  0.393065  0.820804  0.393065  1
  Rh  Rh23  1  0.820804  0.393065  0.393065  1
