# generated using pymatgen
data_Y2Mg(Si3Pd10)2
_symmetry_space_group_name_H-M   'P 1'
_cell_length_a   8.68783131
_cell_length_b   8.68783056
_cell_length_c   8.68783200
_cell_angle_alpha   60.00000214
_cell_angle_beta   60.00000500
_cell_angle_gamma   60.00000047
_symmetry_Int_Tables_number   1
_chemical_formula_structural   Y2Mg(Si3Pd10)2
_chemical_formula_sum   'Y2 Mg1 Si6 Pd20'
_cell_volume   463.68085385
_cell_formula_units_Z   1
loop_
 _symmetry_equiv_pos_site_id
 _symmetry_equiv_pos_as_xyz
  1  'x, y, z'
loop_
 _atom_site_type_symbol
 _atom_site_label
 _atom_site_symmetry_multiplicity
 _atom_site_fract_x
 _atom_site_fract_y
 _atom_site_fract_z
 _atom_site_occupancy
  Y  Y0  1  0.250000  0.250000  0.250000  1
  Y  Y1  1  0.750000  0.750000  0.750000  1
  Mg  Mg2  1  0.000000  0.000000  0.000000  1
  Si  Si3  1  0.733506  0.266494  0.266494  1
  Si  Si4  1  0.266494  0.733506  0.733506  1
  Si  Si5  1  0.266494  0.733506  0.266494  1
  Si  Si6  1  0.733506  0.266494  0.733506  1
  Si  Si7  1  0.266494  0.266494  0.733506  1
  Si  Si8  1  0.733506  0.733506  0.266494  1
  Pd  Pd9  1  0.343389  0.000000  0.000000  1
  Pd  Pd10  1  0.656611  0.000000  0.000000  1
  Pd  Pd11  1  0.000000  0.343389  0.656611  1
  Pd  Pd12  1  0.000000  0.656611  0.343389  1
  Pd  Pd13  1  0.000000  0.343389  0.000000  1
  Pd  Pd14  1  0.656611  0.000000  0.343389  1
  Pd  Pd15  1  0.000000  0.656611  0.000000  1
  Pd  Pd16  1  0.343389  0.000000  0.656611  1
  Pd  Pd17  1  0.000000  0.000000  0.343389  1
  Pd  Pd18  1  0.000000  0.000000  0.656611  1
  Pd  Pd19  1  0.656611  0.343389  0.000000  1
  Pd  Pd20  1  0.343389  0.656611  0.000000  1
  Pd  Pd21  1  0.383416  0.383416  0.383416  1
  Pd  Pd22  1  0.616584  0.616584  0.616584  1
  Pd  Pd23  1  0.383416  0.383416  0.849753  1
  Pd  Pd24  1  0.383416  0.849753  0.383416  1
  Pd  Pd25  1  0.616584  0.616584  0.150247  1
  Pd  Pd26  1  0.616584  0.150247  0.616584  1
  Pd  Pd27  1  0.849753  0.383416  0.383416  1
  Pd  Pd28  1  0.150247  0.616584  0.616584  1
