# generated using pymatgen
data_Ho6ZrAl15Os7
_symmetry_space_group_name_H-M   'P 1'
_cell_length_a   8.99811742
_cell_length_b   8.99811823
_cell_length_c   8.99074171
_cell_angle_alpha   59.97285744
_cell_angle_beta   59.97285114
_cell_angle_gamma   60.00000251
_symmetry_Int_Tables_number   1
_chemical_formula_structural   Ho6ZrAl15Os7
_chemical_formula_sum   'Ho6 Zr1 Al15 Os7'
_cell_volume   514.52391721
_cell_formula_units_Z   1
loop_
 _symmetry_equiv_pos_site_id
 _symmetry_equiv_pos_as_xyz
  1  'x, y, z'
loop_
 _atom_site_type_symbol
 _atom_site_label
 _atom_site_symmetry_multiplicity
 _atom_site_fract_x
 _atom_site_fract_y
 _atom_site_fract_z
 _atom_site_occupancy
  Ho  Ho0  1  0.707535  0.707535  0.285945  1
  Ho  Ho1  1  0.298985  0.707535  0.285945  1
  Ho  Ho2  1  0.707535  0.298985  0.285945  1
  Ho  Ho3  1  0.286494  0.286494  0.715704  1
  Ho  Ho4  1  0.711307  0.286494  0.715704  1
  Ho  Ho5  1  0.286494  0.711307  0.715704  1
  Zr  Zr6  1  0.880869  0.880869  0.357392  1
  Al  Al7  1  0.878088  0.364469  0.879353  1
  Al  Al8  1  0.364469  0.878088  0.879353  1
  Al  Al9  1  0.878088  0.878088  0.879353  1
  Al  Al10  1  0.124160  0.124160  0.627520  1
  Al  Al11  1  0.120814  0.636285  0.122090  1
  Al  Al12  1  0.636285  0.120814  0.122090  1
  Al  Al13  1  0.120814  0.120814  0.122090  1
  Al  Al14  1  0.668873  0.668873  0.993381  1
  Al  Al15  1  0.664504  0.000700  0.670294  1
  Al  Al16  1  0.000700  0.664504  0.670294  1
  Al  Al17  1  0.664504  0.664504  0.670294  1
  Al  Al18  1  0.331772  0.331772  0.004685  1
  Al  Al19  1  0.333370  0.000275  0.332985  1
  Al  Al20  1  0.000275  0.333370  0.332985  1
  Al  Al21  1  0.333370  0.333370  0.332985  1
  Os  Os22  1  0.003825  0.003825  0.988524  1
  Os  Os23  1  0.000450  0.000450  0.502687  1
  Os  Os24  1  0.496411  0.000450  0.502687  1
  Os  Os25  1  0.000450  0.496411  0.502687  1
  Os  Os26  1  0.499379  0.499379  0.000440  1
  Os  Os27  1  0.000804  0.499379  0.000440  1
  Os  Os28  1  0.499379  0.000804  0.000440  1
