# generated using pymatgen
data_Na2Nd2P6N13
_symmetry_space_group_name_H-M   'P 1'
_cell_length_a   7.38573163
_cell_length_b   7.45254757
_cell_length_c   7.38572500
_cell_angle_alpha   109.22929906
_cell_angle_beta   109.59332775
_cell_angle_gamma   109.22934852
_symmetry_Int_Tables_number   1
_chemical_formula_structural   Na2Nd2P6N13
_chemical_formula_sum   'Na2 Nd2 P6 N13'
_cell_volume   314.33204118
_cell_formula_units_Z   1
loop_
 _symmetry_equiv_pos_site_id
 _symmetry_equiv_pos_as_xyz
  1  'x, y, z'
loop_
 _atom_site_type_symbol
 _atom_site_label
 _atom_site_symmetry_multiplicity
 _atom_site_fract_x
 _atom_site_fract_y
 _atom_site_fract_z
 _atom_site_occupancy
  Na  Na0  1  0.001563  0.685702  0.001564  1
  Na  Na1  1  0.315860  0.314298  0.315860  1
  Nd  Nd2  1  0.681204  0.000000  0.004896  1
  Nd  Nd3  1  0.004895  0.999999  0.681204  1
  P  P4  1  0.251253  0.748769  0.498589  1
  P  P5  1  0.749821  0.251232  0.502485  1
  P  P6  1  0.748189  0.500000  0.248190  1
  P  P7  1  0.248190  0.500000  0.748190  1
  P  P8  1  0.498590  0.748769  0.251253  1
  P  P9  1  0.502485  0.251231  0.749820  1
  N  N10  1  0.974062  0.000000  0.974062  1
  N  N11  1  0.713750  0.295760  0.294932  1
  N  N12  1  0.298465  0.725334  0.298465  1
  N  N13  1  0.306803  0.594441  0.593844  1
  N  N14  1  0.593845  0.594441  0.306804  1
  N  N15  1  0.417992  0.704239  0.999173  1
  N  N16  1  0.999173  0.704239  0.417991  1
  N  N17  1  0.573131  0.274667  0.573131  1
  N  N18  1  0.716167  0.000001  0.397866  1
  N  N19  1  0.397866  0.000000  0.716167  1
  N  N20  1  0.712361  0.405559  0.999403  1
  N  N21  1  0.294931  0.295760  0.713750  1
  N  N22  1  0.999404  0.405561  0.712362  1
