# generated using pymatgen
data_CeU7Se12
_symmetry_space_group_name_H-M   'P 1'
_cell_length_a   4.03755800
_cell_length_b   11.00255770
_cell_length_c   11.16890759
_cell_angle_alpha   90.11522781
_cell_angle_beta   90.00000000
_cell_angle_gamma   90.00000000
_symmetry_Int_Tables_number   1
_chemical_formula_structural   CeU7Se12
_chemical_formula_sum   'Ce1 U7 Se12'
_cell_volume   496.16057073
_cell_formula_units_Z   1
loop_
 _symmetry_equiv_pos_site_id
 _symmetry_equiv_pos_as_xyz
  1  'x, y, z'
loop_
 _atom_site_type_symbol
 _atom_site_label
 _atom_site_symmetry_multiplicity
 _atom_site_fract_x
 _atom_site_fract_y
 _atom_site_fract_z
 _atom_site_occupancy
  Ce  Ce0  1  0.750000  0.815567  0.486230  1
  U  U1  1  0.750000  0.491837  0.307140  1
  U  U2  1  0.250000  0.993227  0.190444  1
  U  U3  1  0.750000  0.005853  0.809765  1
  U  U4  1  0.250000  0.316137  0.011613  1
  U  U5  1  0.750000  0.682424  0.988298  1
  U  U6  1  0.250000  0.508079  0.692114  1
  U  U7  1  0.250000  0.186070  0.512996  1
  Se  Se8  1  0.250000  0.555086  0.124534  1
  Se  Se9  1  0.750000  0.372395  0.550399  1
  Se  Se10  1  0.250000  0.623712  0.448873  1
  Se  Se11  1  0.250000  0.296808  0.272899  1
  Se  Se12  1  0.250000  0.202834  0.774486  1
  Se  Se13  1  0.750000  0.128920  0.050153  1
  Se  Se14  1  0.750000  0.704393  0.728939  1
  Se  Se15  1  0.250000  0.870581  0.950579  1
  Se  Se16  1  0.750000  0.796318  0.223745  1
  Se  Se17  1  0.750000  0.059605  0.375083  1
  Se  Se18  1  0.750000  0.443177  0.874814  1
  Se  Se19  1  0.250000  0.946978  0.626895  1
