# generated using pymatgen
data_TiTcBC
_symmetry_space_group_name_H-M   'P 1'
_cell_length_a   8.78009406
_cell_length_b   8.78009482
_cell_length_c   3.05866200
_cell_angle_alpha   90.00000000
_cell_angle_beta   90.00000000
_cell_angle_gamma   159.81602882
_symmetry_Int_Tables_number   1
_chemical_formula_structural   TiTcBC
_chemical_formula_sum   'Ti2 Tc2 B2 C2'
_cell_volume   81.35679205
_cell_formula_units_Z   2
loop_
 _symmetry_equiv_pos_site_id
 _symmetry_equiv_pos_as_xyz
  1  'x, y, z'
loop_
 _atom_site_type_symbol
 _atom_site_label
 _atom_site_symmetry_multiplicity
 _atom_site_fract_x
 _atom_site_fract_y
 _atom_site_fract_z
 _atom_site_occupancy
  Ti  Ti0  1  0.309911  0.690090  0.250000  1
  Ti  Ti1  1  0.690090  0.309910  0.750000  1
  Tc  Tc2  1  0.070355  0.929645  0.250000  1
  Tc  Tc3  1  0.929645  0.070355  0.750000  1
  B  B4  1  0.530055  0.469945  0.750000  1
  B  B5  1  0.469945  0.530055  0.250000  1
  C  C6  1  0.810993  0.189007  0.750000  1
  C  C7  1  0.189007  0.810993  0.250000  1
