# generated using pymatgen
data_Ba6Ho3Sc(WO9)2
_symmetry_space_group_name_H-M   'P 1'
_cell_length_a   10.44868290
_cell_length_b   10.44868275
_cell_length_c   10.44868242
_cell_angle_alpha   146.43651170
_cell_angle_beta   131.80894339
_cell_angle_gamma   60.00512212
_symmetry_Int_Tables_number   1
_chemical_formula_structural   Ba6Ho3Sc(WO9)2
_chemical_formula_sum   'Ba6 Ho3 Sc1 W2 O18'
_cell_volume   465.78668125
_cell_formula_units_Z   1
loop_
 _symmetry_equiv_pos_site_id
 _symmetry_equiv_pos_as_xyz
  1  'x, y, z'
loop_
 _atom_site_type_symbol
 _atom_site_label
 _atom_site_symmetry_multiplicity
 _atom_site_fract_x
 _atom_site_fract_y
 _atom_site_fract_z
 _atom_site_occupancy
  Ba  Ba0  1  0.580003  0.840948  0.739054  1
  Ba  Ba1  1  0.268563  0.500000  0.768563  1
  Ba  Ba2  1  0.898105  0.159052  0.739054  1
  Ba  Ba3  1  0.101895  0.840948  0.260946  1
  Ba  Ba4  1  0.731437  0.500000  0.231437  1
  Ba  Ba5  1  0.419997  0.159052  0.260946  1
  Ho  Ho6  1  0.331415  0.331415  0.000000  1
  Ho  Ho7  1  0.000000  0.000000  0.000000  1
  Ho  Ho8  1  0.668585  0.668585  0.000000  1
  Sc  Sc9  1  0.500000  0.000000  0.500000  1
  W  W10  1  0.166008  0.666008  0.500000  1
  W  W11  1  0.833992  0.333992  0.500000  1
  O  O12  1  0.600586  0.331488  0.269097  1
  O  O13  1  0.253824  0.000000  0.253824  1
  O  O14  1  0.937609  0.668512  0.269097  1
  O  O15  1  0.910796  0.640664  0.729867  1
  O  O16  1  0.585373  0.330688  0.745314  1
  O  O17  1  0.241569  0.973030  0.731460  1
  O  O18  1  0.758431  0.489893  0.731460  1
  O  O19  1  0.414627  0.159942  0.745314  1
  O  O20  1  0.089204  0.819071  0.729867  1
  O  O21  1  0.062391  0.331488  0.730903  1
  O  O22  1  0.746176  0.000000  0.746176  1
  O  O23  1  0.399414  0.668512  0.730903  1
  O  O24  1  0.758431  0.026970  0.268540  1
  O  O25  1  0.414627  0.669312  0.254686  1
  O  O26  1  0.089204  0.359336  0.270133  1
  O  O27  1  0.910796  0.180929  0.270133  1
  O  O28  1  0.585373  0.840058  0.254686  1
  O  O29  1  0.241569  0.510107  0.268540  1
