# generated using pymatgen
data_Nd4ZnCd2Pd3
_symmetry_space_group_name_H-M   'P 1'
_cell_length_a   7.91326048
_cell_length_b   7.91326048
_cell_length_c   3.90136300
_cell_angle_alpha   90.00000000
_cell_angle_beta   90.00000000
_cell_angle_gamma   89.82257928
_symmetry_Int_Tables_number   1
_chemical_formula_structural   Nd4ZnCd2Pd3
_chemical_formula_sum   'Nd4 Zn1 Cd2 Pd3'
_cell_volume   244.30097621
_cell_formula_units_Z   1
loop_
 _symmetry_equiv_pos_site_id
 _symmetry_equiv_pos_as_xyz
  1  'x, y, z'
loop_
 _atom_site_type_symbol
 _atom_site_label
 _atom_site_symmetry_multiplicity
 _atom_site_fract_x
 _atom_site_fract_y
 _atom_site_fract_z
 _atom_site_occupancy
  Nd  Nd0  1  0.676987  0.176987  0.500000  1
  Nd  Nd1  1  0.336472  0.836472  0.500000  1
  Nd  Nd2  1  0.170165  0.313234  0.500000  1
  Nd  Nd3  1  0.813234  0.670165  0.500000  1
  Zn  Zn4  1  0.122109  0.622109  0.000000  1
  Cd  Cd5  1  0.998827  0.994317  0.000000  1
  Cd  Cd6  1  0.494317  0.498827  0.000000  1
  Pd  Pd7  1  0.881984  0.381984  0.000000  1
  Pd  Pd8  1  0.628746  0.877160  0.000000  1
  Pd  Pd9  1  0.377160  0.128746  0.000000  1
