# generated using pymatgen
data_Tb6Lu2GaPd24
_symmetry_space_group_name_H-M   'P 1'
_cell_length_a   8.36279700
_cell_length_b   8.36299004
_cell_length_c   8.36299000
_cell_angle_alpha   89.99457392
_cell_angle_beta   90.00000000
_cell_angle_gamma   90.00000000
_symmetry_Int_Tables_number   1
_chemical_formula_structural   Tb6Lu2GaPd24
_chemical_formula_sum   'Tb6 Lu2 Ga1 Pd24'
_cell_volume   584.89069161
_cell_formula_units_Z   1
loop_
 _symmetry_equiv_pos_site_id
 _symmetry_equiv_pos_as_xyz
  1  'x, y, z'
loop_
 _atom_site_type_symbol
 _atom_site_label
 _atom_site_symmetry_multiplicity
 _atom_site_fract_x
 _atom_site_fract_y
 _atom_site_fract_z
 _atom_site_occupancy
  Tb  Tb0  1  0.748121  0.251809  0.251808  1
  Tb  Tb1  1  0.748121  0.748191  0.748192  1
  Tb  Tb2  1  0.748509  0.748188  0.251813  1
  Tb  Tb3  1  0.748509  0.251812  0.748187  1
  Tb  Tb4  1  0.251903  0.748309  0.748309  1
  Tb  Tb5  1  0.251903  0.251691  0.251691  1
  Lu  Lu6  1  0.251755  0.251908  0.748091  1
  Lu  Lu7  1  0.251755  0.748092  0.251909  1
  Ga  Ga8  1  0.999720  0.000000  0.000000  1
  Pd  Pd9  1  0.497896  0.498203  0.747171  1
  Pd  Pd10  1  0.497897  0.252831  0.501797  1
  Pd  Pd11  1  0.252838  0.500000  0.500000  1
  Pd  Pd12  1  0.497896  0.501797  0.252829  1
  Pd  Pd13  1  0.497897  0.747169  0.498203  1
  Pd  Pd14  1  0.747207  0.500000  0.500000  1
  Pd  Pd15  1  0.001814  0.001505  0.708744  1
  Pd  Pd16  1  0.001815  0.291257  0.998494  1
  Pd  Pd17  1  0.290761  0.000000  0.000000  1
  Pd  Pd18  1  0.001814  0.998495  0.291256  1
  Pd  Pd19  1  0.001815  0.708743  0.001506  1
  Pd  Pd20  1  0.707956  0.000000  0.000000  1
  Pd  Pd21  1  0.002154  0.498775  0.739825  1
  Pd  Pd22  1  0.498216  0.260186  0.998115  1
  Pd  Pd23  1  0.260370  0.000000  0.500000  1
  Pd  Pd24  1  0.002154  0.260176  0.501226  1
  Pd  Pd25  1  0.498217  0.001886  0.739815  1
  Pd  Pd26  1  0.260370  0.500000  0.000000  1
  Pd  Pd27  1  0.002154  0.501225  0.260175  1
  Pd  Pd28  1  0.498216  0.739814  0.001885  1
  Pd  Pd29  1  0.002154  0.739824  0.498774  1
  Pd  Pd30  1  0.498217  0.998114  0.260185  1
  Pd  Pd31  1  0.739937  0.000000  0.500000  1
  Pd  Pd32  1  0.739936  0.500000  0.000000  1
