# generated using pymatgen
data_Dy4Fe9P12Rh11
_symmetry_space_group_name_H-M   'P 1'
_cell_length_a   3.80013100
_cell_length_b   10.50132680
_cell_length_c   12.25900207
_cell_angle_alpha   89.81725114
_cell_angle_beta   90.00000000
_cell_angle_gamma   90.00000000
_symmetry_Int_Tables_number   1
_chemical_formula_structural   Dy4Fe9P12Rh11
_chemical_formula_sum   'Dy4 Fe9 P12 Rh11'
_cell_volume   489.21036675
_cell_formula_units_Z   1
loop_
 _symmetry_equiv_pos_site_id
 _symmetry_equiv_pos_as_xyz
  1  'x, y, z'
loop_
 _atom_site_type_symbol
 _atom_site_label
 _atom_site_symmetry_multiplicity
 _atom_site_fract_x
 _atom_site_fract_y
 _atom_site_fract_z
 _atom_site_occupancy
  Dy  Dy0  1  0.250000  0.579425  0.708895  1
  Dy  Dy1  1  0.250000  0.917718  0.213715  1
  Dy  Dy2  1  0.750000  0.423124  0.290919  1
  Dy  Dy3  1  0.750000  0.078568  0.789218  1
  Fe  Fe4  1  0.750000  0.727316  0.328208  1
  Fe  Fe5  1  0.250000  0.874843  0.697123  1
  Fe  Fe6  1  0.250000  0.625575  0.198078  1
  Fe  Fe7  1  0.750000  0.120950  0.302030  1
  Fe  Fe8  1  0.750000  0.376014  0.801609  1
  Fe  Fe9  1  0.250000  0.459519  0.935314  1
  Fe  Fe10  1  0.250000  0.040128  0.434318  1
  Fe  Fe11  1  0.750000  0.541676  0.065775  1
  Fe  Fe12  1  0.750000  0.959630  0.564176  1
  P  P13  1  0.250000  0.440728  0.112333  1
  P  P14  1  0.250000  0.059607  0.610960  1
  P  P15  1  0.750000  0.559906  0.888365  1
  P  P16  1  0.750000  0.931453  0.387109  1
  P  P17  1  0.250000  0.272241  0.863384  1
  P  P18  1  0.250000  0.227447  0.364076  1
  P  P19  1  0.750000  0.726675  0.146301  1
  P  P20  1  0.750000  0.772947  0.636452  1
  P  P21  1  0.250000  0.609867  0.376805  1
  P  P22  1  0.250000  0.897520  0.881722  1
  P  P23  1  0.750000  0.400161  0.617420  1
  P  P24  1  0.750000  0.099767  0.119916  1
  Rh  Rh25  1  0.250000  0.711441  0.989962  1
  Rh  Rh26  1  0.250000  0.790812  0.485123  1
  Rh  Rh27  1  0.750000  0.287071  0.010278  1
  Rh  Rh28  1  0.750000  0.214074  0.507557  1
  Rh  Rh29  1  0.250000  0.411071  0.477805  1
  Rh  Rh30  1  0.250000  0.091241  0.979598  1
  Rh  Rh31  1  0.750000  0.596714  0.517789  1
  Rh  Rh32  1  0.750000  0.905091  0.023532  1
  Rh  Rh33  1  0.250000  0.231256  0.174446  1
  Rh  Rh34  1  0.250000  0.269306  0.672861  1
  Rh  Rh35  1  0.750000  0.769118  0.826828  1
