# generated using pymatgen
data_Pr4Zn4Ir3Pd
_symmetry_space_group_name_H-M   'P 1'
_cell_length_a   4.18719300
_cell_length_b   7.23762660
_cell_length_c   8.34010549
_cell_angle_alpha   89.94551826
_cell_angle_beta   90.00000000
_cell_angle_gamma   90.00000000
_symmetry_Int_Tables_number   1
_chemical_formula_structural   Pr4Zn4Ir3Pd
_chemical_formula_sum   'Pr4 Zn4 Ir3 Pd1'
_cell_volume   252.74961352
_cell_formula_units_Z   1
loop_
 _symmetry_equiv_pos_site_id
 _symmetry_equiv_pos_as_xyz
  1  'x, y, z'
loop_
 _atom_site_type_symbol
 _atom_site_label
 _atom_site_symmetry_multiplicity
 _atom_site_fract_x
 _atom_site_fract_y
 _atom_site_fract_z
 _atom_site_occupancy
  Pr  Pr0  1  0.250000  0.032001  0.318675  1
  Pr  Pr1  1  0.250000  0.546481  0.187912  1
  Pr  Pr2  1  0.750000  0.962565  0.689328  1
  Pr  Pr3  1  0.750000  0.468054  0.806596  1
  Zn  Zn4  1  0.250000  0.641206  0.565097  1
  Zn  Zn5  1  0.250000  0.138161  0.932447  1
  Zn  Zn6  1  0.750000  0.359979  0.438375  1
  Zn  Zn7  1  0.750000  0.855978  0.066098  1
  Ir  Ir8  1  0.250000  0.260836  0.617831  1
  Ir  Ir9  1  0.250000  0.763428  0.882563  1
  Ir  Ir10  1  0.750000  0.736449  0.380245  1
  Pd  Pd11  1  0.750000  0.234860  0.114833  1
