# generated using pymatgen
data_Ho3Ni8P6Pd
_symmetry_space_group_name_H-M   'P 1'
_cell_length_a   3.79663600
_cell_length_b   10.53992800
_cell_length_c   12.32442700
_cell_angle_alpha   90.00000000
_cell_angle_beta   90.00000000
_cell_angle_gamma   90.00000000
_symmetry_Int_Tables_number   1
_chemical_formula_structural   Ho3Ni8P6Pd
_chemical_formula_sum   'Ho6 Ni16 P12 Pd2'
_cell_volume   493.17759944
_cell_formula_units_Z   2
loop_
 _symmetry_equiv_pos_site_id
 _symmetry_equiv_pos_as_xyz
  1  'x, y, z'
loop_
 _atom_site_type_symbol
 _atom_site_label
 _atom_site_symmetry_multiplicity
 _atom_site_fract_x
 _atom_site_fract_y
 _atom_site_fract_z
 _atom_site_occupancy
  Ho  Ho0  1  0.751121  0.000000  0.475277  1
  Ho  Ho1  1  0.251121  0.500000  0.524723  1
  Ho  Ho2  1  0.251918  0.682080  0.793457  1
  Ho  Ho3  1  0.251918  0.317920  0.793457  1
  Ho  Ho4  1  0.751918  0.817920  0.206543  1
  Ho  Ho5  1  0.751918  0.182080  0.206543  1
  Ni  Ni6  1  0.752519  0.000000  0.014775  1
  Ni  Ni7  1  0.252519  0.500000  0.985225  1
  Ni  Ni8  1  0.251602  0.199297  0.569921  1
  Ni  Ni9  1  0.251602  0.800703  0.569921  1
  Ni  Ni10  1  0.751602  0.300703  0.430079  1
  Ni  Ni11  1  0.751602  0.699297  0.430079  1
  Ni  Ni12  1  0.250516  0.622829  0.291753  1
  Ni  Ni13  1  0.250516  0.377171  0.291753  1
  Ni  Ni14  1  0.750516  0.877171  0.708247  1
  Ni  Ni15  1  0.750516  0.122829  0.708247  1
  Ni  Ni16  1  0.253915  0.167495  0.006143  1
  Ni  Ni17  1  0.253915  0.832505  0.006143  1
  Ni  Ni18  1  0.753915  0.332505  0.993857  1
  Ni  Ni19  1  0.753915  0.667495  0.993857  1
  Ni  Ni20  1  0.250891  0.000000  0.299680  1
  Ni  Ni21  1  0.750891  0.500000  0.700320  1
  P  P22  1  0.251241  0.186548  0.385132  1
  P  P23  1  0.251241  0.813452  0.385132  1
  P  P24  1  0.751241  0.313452  0.614868  1
  P  P25  1  0.751241  0.686548  0.614868  1
  P  P26  1  0.252298  0.000000  0.123161  1
  P  P27  1  0.752298  0.500000  0.876839  1
  P  P28  1  0.252628  0.657458  0.106393  1
  P  P29  1  0.252628  0.342542  0.106393  1
  P  P30  1  0.752628  0.842542  0.893607  1
  P  P31  1  0.752628  0.157458  0.893607  1
  P  P32  1  0.250827  0.000000  0.646300  1
  P  P33  1  0.750827  0.500000  0.353700  1
  Pd  Pd34  1  0.251508  0.000000  0.840207  1
  Pd  Pd35  1  0.751508  0.500000  0.159793  1
