# generated using pymatgen
data_RbPaAgTe3
_symmetry_space_group_name_H-M   'P 1'
_cell_length_a   4.46108800
_cell_length_b   9.51275543
_cell_length_c   11.26270872
_cell_angle_alpha   68.41933904
_cell_angle_beta   90.00000000
_cell_angle_gamma   90.00000000
_symmetry_Int_Tables_number   1
_chemical_formula_structural   RbPaAgTe3
_chemical_formula_sum   'Rb2 Pa2 Ag2 Te6'
_cell_volume   444.45371630
_cell_formula_units_Z   2
loop_
 _symmetry_equiv_pos_site_id
 _symmetry_equiv_pos_as_xyz
  1  'x, y, z'
loop_
 _atom_site_type_symbol
 _atom_site_label
 _atom_site_symmetry_multiplicity
 _atom_site_fract_x
 _atom_site_fract_y
 _atom_site_fract_z
 _atom_site_occupancy
  Rb  Rb0  1  0.750000  0.753925  0.283607  1
  Rb  Rb1  1  0.250000  0.246075  0.716393  1
  Pa  Pa2  1  0.250000  0.690321  0.838381  1
  Pa  Pa3  1  0.750000  0.309679  0.161619  1
  Ag  Ag4  1  0.250000  0.079516  0.402732  1
  Ag  Ag5  1  0.750000  0.920484  0.597268  1
  Te  Te6  1  0.250000  0.752263  0.554871  1
  Te  Te7  1  0.750000  0.906687  0.853951  1
  Te  Te8  1  0.750000  0.450843  0.864228  1
  Te  Te9  1  0.750000  0.247737  0.445129  1
  Te  Te10  1  0.250000  0.549157  0.135772  1
  Te  Te11  1  0.250000  0.093313  0.146049  1
