# generated using pymatgen
data_Sr2LaCeAl6O14
_symmetry_space_group_name_H-M   'P 1'
_cell_length_a   7.95062259
_cell_length_b   7.95062321
_cell_length_c   5.26972800
_cell_angle_alpha   90.00134548
_cell_angle_beta   90.00135371
_cell_angle_gamma   89.95765479
_symmetry_Int_Tables_number   1
_chemical_formula_structural   Sr2LaCeAl6O14
_chemical_formula_sum   'Sr2 La1 Ce1 Al6 O14'
_cell_volume   333.11208684
_cell_formula_units_Z   1
loop_
 _symmetry_equiv_pos_site_id
 _symmetry_equiv_pos_as_xyz
  1  'x, y, z'
loop_
 _atom_site_type_symbol
 _atom_site_label
 _atom_site_symmetry_multiplicity
 _atom_site_fract_x
 _atom_site_fract_y
 _atom_site_fract_z
 _atom_site_occupancy
  Sr  Sr0  1  0.161949  0.838456  0.490623  1
  Sr  Sr1  1  0.838456  0.161949  0.490623  1
  La  La2  1  0.337223  0.337223  0.510306  1
  Ce  Ce3  1  0.664668  0.664668  0.512646  1
  Al  Al4  1  0.358254  0.642583  0.038086  1
  Al  Al5  1  0.855353  0.855353  0.962826  1
  Al  Al6  1  0.642583  0.358254  0.038086  1
  Al  Al7  1  0.143886  0.143886  0.962937  1
  Al  Al8  1  0.499920  0.999715  0.998898  1
  Al  Al9  1  0.999715  0.499920  0.998898  1
  O  O10  1  0.999532  0.999532  0.838299  1
  O  O11  1  0.500691  0.500691  0.185960  1
  O  O12  1  0.416552  0.834531  0.186251  1
  O  O13  1  0.907911  0.661643  0.806849  1
  O  O14  1  0.583949  0.165420  0.185033  1
  O  O15  1  0.090860  0.337995  0.808444  1
  O  O16  1  0.337995  0.090860  0.808444  1
  O  O17  1  0.834531  0.416552  0.186251  1
  O  O18  1  0.661643  0.907911  0.806849  1
  O  O19  1  0.165420  0.583949  0.185033  1
  O  O20  1  0.368812  0.632590  0.705131  1
  O  O21  1  0.846543  0.846543  0.294353  1
  O  O22  1  0.632590  0.368812  0.705131  1
  O  O23  1  0.150964  0.150964  0.294047  1
