# generated using pymatgen
data_BaMn12PbS14
_symmetry_space_group_name_H-M   'P 1'
_cell_length_a   8.92424676
_cell_length_b   8.92455039
_cell_length_c   8.92462400
_cell_angle_alpha   60.93495049
_cell_angle_beta   60.92867375
_cell_angle_gamma   60.92394979
_symmetry_Int_Tables_number   1
_chemical_formula_structural   BaMn12PbS14
_chemical_formula_sum   'Ba1 Mn12 Pb1 S14'
_cell_volume   513.13664114
_cell_formula_units_Z   1
loop_
 _symmetry_equiv_pos_site_id
 _symmetry_equiv_pos_as_xyz
  1  'x, y, z'
loop_
 _atom_site_type_symbol
 _atom_site_label
 _atom_site_symmetry_multiplicity
 _atom_site_fract_x
 _atom_site_fract_y
 _atom_site_fract_z
 _atom_site_occupancy
  Ba  Ba0  1  0.369132  0.376583  0.371281  1
  Mn  Mn1  1  0.317251  0.128693  0.993276  1
  Mn  Mn2  1  0.200277  0.882567  0.058926  1
  Mn  Mn3  1  0.883285  0.061980  0.203266  1
  Mn  Mn4  1  0.942896  0.803315  0.117546  1
  Mn  Mn5  1  0.803694  0.117581  0.941127  1
  Mn  Mn6  1  0.122659  0.938307  0.798401  1
  Mn  Mn7  1  0.987572  0.330030  0.125564  1
  Mn  Mn8  1  0.865712  0.020053  0.687337  1
  Mn  Mn9  1  0.128688  0.992499  0.315813  1
  Mn  Mn10  1  0.014682  0.694651  0.869456  1
  Mn  Mn11  1  0.689303  0.868020  0.016837  1
  Mn  Mn12  1  0.061906  0.201002  0.884403  1
  Pb  Pb13  1  0.576506  0.572926  0.577347  1
  S  S14  1  0.986904  0.232486  0.655945  1
  S  S15  1  0.236314  0.650741  0.981151  1
  S  S16  1  0.657087  0.980254  0.233224  1
  S  S17  1  0.026833  0.765184  0.344717  1
  S  S18  1  0.766349  0.345013  0.023768  1
  S  S19  1  0.347265  0.024707  0.769002  1
  S  S20  1  0.167938  0.415416  0.821109  1
  S  S21  1  0.409710  0.816802  0.174033  1
  S  S22  1  0.824248  0.173966  0.409992  1
  S  S23  1  0.822975  0.593008  0.198774  1
  S  S24  1  0.588014  0.192383  0.832194  1
  S  S25  1  0.197248  0.819008  0.588641  1
  S  S26  1  0.783969  0.779687  0.781653  1
  S  S27  1  0.221583  0.223137  0.225217  1
