# generated using pymatgen
data_Ho2Er6GePd24
_symmetry_space_group_name_H-M   'P 1'
_cell_length_a   8.31718501
_cell_length_b   8.31718501
_cell_length_c   8.31718501
_cell_angle_alpha   90.00443633
_cell_angle_beta   90.00443633
_cell_angle_gamma   90.00443633
_symmetry_Int_Tables_number   1
_chemical_formula_structural   Ho2Er6GePd24
_chemical_formula_sum   'Ho2 Er6 Ge1 Pd24'
_cell_volume   575.34598001
_cell_formula_units_Z   1
loop_
 _symmetry_equiv_pos_site_id
 _symmetry_equiv_pos_as_xyz
  1  'x, y, z'
loop_
 _atom_site_type_symbol
 _atom_site_label
 _atom_site_symmetry_multiplicity
 _atom_site_fract_x
 _atom_site_fract_y
 _atom_site_fract_z
 _atom_site_occupancy
  Ho  Ho0  1  0.253367  0.253367  0.253367  1
  Ho  Ho1  1  0.746633  0.746633  0.746633  1
  Er  Er2  1  0.746586  0.746586  0.253404  1
  Er  Er3  1  0.746586  0.253404  0.746586  1
  Er  Er4  1  0.253414  0.253414  0.746596  1
  Er  Er5  1  0.253414  0.746596  0.253414  1
  Er  Er6  1  0.253404  0.746586  0.746586  1
  Er  Er7  1  0.746596  0.253414  0.253414  1
  Ge  Ge8  1  0.000000  0.000000  0.000000  1
  Pd  Pd9  1  0.259775  0.500164  0.999822  1
  Pd  Pd10  1  0.740225  0.499836  0.000178  1
  Pd  Pd11  1  0.999822  0.259775  0.500164  1
  Pd  Pd12  1  0.500164  0.259775  0.999822  1
  Pd  Pd13  1  0.000178  0.740225  0.499836  1
  Pd  Pd14  1  0.499836  0.740225  0.000178  1
  Pd  Pd15  1  0.500164  0.999822  0.259775  1
  Pd  Pd16  1  0.259775  0.999822  0.500164  1
  Pd  Pd17  1  0.499836  0.000178  0.740225  1
  Pd  Pd18  1  0.740225  0.000178  0.499836  1
  Pd  Pd19  1  0.999822  0.500164  0.259775  1
  Pd  Pd20  1  0.000178  0.499836  0.740225  1
  Pd  Pd21  1  0.253197  0.500179  0.500179  1
  Pd  Pd22  1  0.746803  0.499821  0.499821  1
  Pd  Pd23  1  0.500179  0.253197  0.500179  1
  Pd  Pd24  1  0.499821  0.746803  0.499821  1
  Pd  Pd25  1  0.500179  0.500179  0.253197  1
  Pd  Pd26  1  0.499821  0.499821  0.746803  1
  Pd  Pd27  1  0.289133  0.999825  0.999825  1
  Pd  Pd28  1  0.710867  0.000175  0.000175  1
  Pd  Pd29  1  0.999825  0.289133  0.999825  1
  Pd  Pd30  1  0.000175  0.710867  0.000175  1
  Pd  Pd31  1  0.999825  0.999825  0.289133  1
  Pd  Pd32  1  0.000175  0.000175  0.710867  1
