# generated using pymatgen
data_Tb3DyGa12Co
_symmetry_space_group_name_H-M   'P 1'
_cell_length_a   7.44878852
_cell_length_b   7.44878741
_cell_length_c   7.44878880
_cell_angle_alpha   109.44370192
_cell_angle_beta   109.44370681
_cell_angle_gamma   109.44370353
_symmetry_Int_Tables_number   1
_chemical_formula_structural   Tb3DyGa12Co
_chemical_formula_sum   'Tb3 Dy1 Ga12 Co1'
_cell_volume   318.47595932
_cell_formula_units_Z   1
loop_
 _symmetry_equiv_pos_site_id
 _symmetry_equiv_pos_as_xyz
  1  'x, y, z'
loop_
 _atom_site_type_symbol
 _atom_site_label
 _atom_site_symmetry_multiplicity
 _atom_site_fract_x
 _atom_site_fract_y
 _atom_site_fract_z
 _atom_site_occupancy
  Tb  Tb0  1  0.000000  0.000000  0.500000  1
  Tb  Tb1  1  0.000000  0.500000  0.000000  1
  Tb  Tb2  1  0.500000  0.000000  0.000000  1
  Dy  Dy3  1  0.500000  0.500000  0.500000  1
  Ga  Ga4  1  0.749834  0.250166  0.500000  1
  Ga  Ga5  1  0.749834  0.500000  0.250166  1
  Ga  Ga6  1  0.500000  0.250166  0.749834  1
  Ga  Ga7  1  0.250166  0.500000  0.749834  1
  Ga  Ga8  1  0.250166  0.749834  0.500000  1
  Ga  Ga9  1  0.500000  0.749834  0.250166  1
  Ga  Ga10  1  0.716421  0.716421  0.999464  1
  Ga  Ga11  1  0.283579  0.000536  0.283579  1
  Ga  Ga12  1  0.000536  0.283579  0.283579  1
  Ga  Ga13  1  0.283579  0.283579  0.000536  1
  Ga  Ga14  1  0.716421  0.999464  0.716421  1
  Ga  Ga15  1  0.999464  0.716421  0.716421  1
  Co  Co16  1  0.000000  0.000000  0.000000  1
