# generated using pymatgen
data_K6ErScF12
_symmetry_space_group_name_H-M   'P 1'
_cell_length_a   6.56336806
_cell_length_b   6.30042214
_cell_length_c   10.94095531
_cell_angle_alpha   55.52653215
_cell_angle_beta   90.26437410
_cell_angle_gamma   89.97859917
_symmetry_Int_Tables_number   1
_chemical_formula_structural   K6ErScF12
_chemical_formula_sum   'K6 Er1 Sc1 F12'
_cell_volume   372.97184364
_cell_formula_units_Z   1
loop_
 _symmetry_equiv_pos_site_id
 _symmetry_equiv_pos_as_xyz
  1  'x, y, z'
loop_
 _atom_site_type_symbol
 _atom_site_label
 _atom_site_symmetry_multiplicity
 _atom_site_fract_x
 _atom_site_fract_y
 _atom_site_fract_z
 _atom_site_occupancy
  K  K0  1  0.946778  0.734361  0.748730  1
  K  K1  1  0.449524  0.279148  0.736843  1
  K  K2  1  0.053222  0.265639  0.251270  1
  K  K3  1  0.550476  0.720852  0.263157  1
  K  K4  1  0.000000  0.500000  0.500000  1
  K  K5  1  0.500000  0.500000  0.000000  1
  Er  Er6  1  0.000000  0.000000  0.000000  1
  Sc  Sc7  1  0.500000  0.000000  0.500000  1
  F  F8  1  0.940565  0.890396  0.223596  1
  F  F9  1  0.444838  0.103954  0.288300  1
  F  F10  1  0.059435  0.109604  0.776404  1
  F  F11  1  0.555162  0.896046  0.711700  1
  F  F12  1  0.730714  0.244008  0.923456  1
  F  F13  1  0.245777  0.769121  0.567487  1
  F  F14  1  0.269286  0.755992  0.076544  1
  F  F15  1  0.754223  0.230879  0.432513  1
  F  F16  1  0.326357  0.306308  0.456513  1
  F  F17  1  0.824282  0.671200  0.049383  1
  F  F18  1  0.673643  0.693692  0.543487  1
  F  F19  1  0.175718  0.328800  0.950617  1
