# generated using pymatgen
data_SrNd6NiI12
_symmetry_space_group_name_H-M   'P 1'
_cell_length_a   10.00880289
_cell_length_b   10.00880291
_cell_length_c   10.00880399
_cell_angle_alpha   106.41305147
_cell_angle_beta   106.41304981
_cell_angle_gamma   106.41305478
_symmetry_Int_Tables_number   1
_chemical_formula_structural   SrNd6NiI12
_chemical_formula_sum   'Sr1 Nd6 Ni1 I12'
_cell_volume   848.02543609
_cell_formula_units_Z   1
loop_
 _symmetry_equiv_pos_site_id
 _symmetry_equiv_pos_as_xyz
  1  'x, y, z'
loop_
 _atom_site_type_symbol
 _atom_site_label
 _atom_site_symmetry_multiplicity
 _atom_site_fract_x
 _atom_site_fract_y
 _atom_site_fract_z
 _atom_site_occupancy
  Sr  Sr0  1  0.500000  0.500000  0.500000  1
  Nd  Nd1  1  0.903183  0.977671  0.700785  1
  Nd  Nd2  1  0.700785  0.903183  0.977671  1
  Nd  Nd3  1  0.977671  0.700785  0.903183  1
  Nd  Nd4  1  0.096817  0.022329  0.299215  1
  Nd  Nd5  1  0.299215  0.096817  0.022329  1
  Nd  Nd6  1  0.022329  0.299215  0.096817  1
  Ni  Ni7  1  0.000000  0.000000  0.000000  1
  I  I8  1  0.926603  0.321952  0.775158  1
  I  I9  1  0.775158  0.926603  0.321952  1
  I  I10  1  0.321952  0.775158  0.926603  1
  I  I11  1  0.073397  0.678048  0.224842  1
  I  I12  1  0.224842  0.073397  0.678048  1
  I  I13  1  0.678048  0.224842  0.073397  1
  I  I14  1  0.545301  0.857151  0.626296  1
  I  I15  1  0.626296  0.545301  0.857151  1
  I  I16  1  0.857151  0.626296  0.545301  1
  I  I17  1  0.454699  0.142849  0.373704  1
  I  I18  1  0.373704  0.454699  0.142849  1
  I  I19  1  0.142849  0.373704  0.454699  1
