# generated using pymatgen
data_Er5Tm11Cd4Ir3Ru
_symmetry_space_group_name_H-M   'P 1'
_cell_length_a   9.54799357
_cell_length_b   9.54574720
_cell_length_c   9.54574826
_cell_angle_alpha   59.64164391
_cell_angle_beta   59.63782790
_cell_angle_gamma   59.63782608
_symmetry_Int_Tables_number   1
_chemical_formula_structural   Er5Tm11Cd4Ir3Ru
_chemical_formula_sum   'Er5 Tm11 Cd4 Ir3 Ru1'
_cell_volume   610.15579301
_cell_formula_units_Z   1
loop_
 _symmetry_equiv_pos_site_id
 _symmetry_equiv_pos_as_xyz
  1  'x, y, z'
loop_
 _atom_site_type_symbol
 _atom_site_label
 _atom_site_symmetry_multiplicity
 _atom_site_fract_x
 _atom_site_fract_y
 _atom_site_fract_z
 _atom_site_occupancy
  Er  Er0  1  0.809710  0.188462  0.188462  1
  Er  Er1  1  0.811621  0.188980  0.811464  1
  Er  Er2  1  0.188546  0.809670  0.188271  1
  Er  Er3  1  0.811621  0.811464  0.188980  1
  Er  Er4  1  0.188546  0.188271  0.809670  1
  Tm  Tm5  1  0.598918  0.598936  0.598936  1
  Tm  Tm6  1  0.598605  0.598678  0.205671  1
  Tm  Tm7  1  0.598605  0.205671  0.598678  1
  Tm  Tm8  1  0.205581  0.598698  0.598698  1
  Tm  Tm9  1  0.061889  0.438643  0.438643  1
  Tm  Tm10  1  0.438181  0.060210  0.060210  1
  Tm  Tm11  1  0.438558  0.061836  0.438795  1
  Tm  Tm12  1  0.060204  0.438376  0.060109  1
  Tm  Tm13  1  0.438558  0.438795  0.061836  1
  Tm  Tm14  1  0.060204  0.060109  0.438376  1
  Tm  Tm15  1  0.189283  0.811403  0.811403  1
  Cd  Cd16  1  0.830109  0.829947  0.829947  1
  Cd  Cd17  1  0.830761  0.830779  0.506592  1
  Cd  Cd18  1  0.830761  0.506592  0.830779  1
  Cd  Cd19  1  0.506414  0.830773  0.830773  1
  Ir  Ir20  1  0.392860  0.393142  0.826190  1
  Ir  Ir21  1  0.392860  0.826190  0.393142  1
  Ir  Ir22  1  0.826239  0.392936  0.392936  1
  Ru  Ru23  1  0.391365  0.391434  0.391434  1
