# generated using pymatgen
data_Lu3Cd2In3Os
_symmetry_space_group_name_H-M   'P 1'
_cell_length_a   8.20927300
_cell_length_b   8.20927328
_cell_length_c   3.60648400
_cell_angle_alpha   90.00000000
_cell_angle_beta   90.00000000
_cell_angle_gamma   120.00000290
_symmetry_Int_Tables_number   1
_chemical_formula_structural   Lu3Cd2In3Os
_chemical_formula_sum   'Lu3 Cd2 In3 Os1'
_cell_volume   210.48640006
_cell_formula_units_Z   1
loop_
 _symmetry_equiv_pos_site_id
 _symmetry_equiv_pos_as_xyz
  1  'x, y, z'
loop_
 _atom_site_type_symbol
 _atom_site_label
 _atom_site_symmetry_multiplicity
 _atom_site_fract_x
 _atom_site_fract_y
 _atom_site_fract_z
 _atom_site_occupancy
  Lu  Lu0  1  0.953828  0.367270  0.500000  1
  Lu  Lu1  1  0.632730  0.586558  0.500000  1
  Lu  Lu2  1  0.413442  0.046172  0.500000  1
  Cd  Cd3  1  0.333333  0.666667  0.000000  1
  Cd  Cd4  1  0.000000  0.000000  0.500000  1
  In  In5  1  0.287046  0.292804  0.000000  1
  In  In6  1  0.005759  0.712954  0.000000  1
  In  In7  1  0.707196  0.994241  0.000000  1
  Os  Os8  1  0.666667  0.333333  0.000000  1
