# generated using pymatgen
data_Zr12Zn5Si3(PtC)4
_symmetry_space_group_name_H-M   'P 1'
_cell_length_a   8.62972484
_cell_length_b   8.62972626
_cell_length_c   8.62972521
_cell_angle_alpha   59.97911818
_cell_angle_beta   59.97911538
_cell_angle_gamma   59.97911928
_symmetry_Int_Tables_number   1
_chemical_formula_structural   Zr12Zn5Si3(PtC)4
_chemical_formula_sum   'Zr12 Zn5 Si3 Pt4 C4'
_cell_volume   454.22417280
_cell_formula_units_Z   1
loop_
 _symmetry_equiv_pos_site_id
 _symmetry_equiv_pos_as_xyz
  1  'x, y, z'
loop_
 _atom_site_type_symbol
 _atom_site_label
 _atom_site_symmetry_multiplicity
 _atom_site_fract_x
 _atom_site_fract_y
 _atom_site_fract_z
 _atom_site_occupancy
  Zr  Zr0  1  0.442453  0.442453  0.056641  1
  Zr  Zr1  1  0.055181  0.445672  0.055181  1
  Zr  Zr2  1  0.445672  0.055181  0.055181  1
  Zr  Zr3  1  0.055181  0.055181  0.445672  1
  Zr  Zr4  1  0.442453  0.056641  0.442453  1
  Zr  Zr5  1  0.056641  0.442453  0.442453  1
  Zr  Zr6  1  0.806402  0.806402  0.198012  1
  Zr  Zr7  1  0.192336  0.807218  0.192336  1
  Zr  Zr8  1  0.807218  0.192336  0.192336  1
  Zr  Zr9  1  0.192336  0.192336  0.807218  1
  Zr  Zr10  1  0.806402  0.198012  0.806402  1
  Zr  Zr11  1  0.198012  0.806402  0.806402  1
  Zn  Zn12  1  0.837054  0.837054  0.837054  1
  Zn  Zn13  1  0.420833  0.420833  0.738301  1
  Zn  Zn14  1  0.420833  0.738301  0.420833  1
  Zn  Zn15  1  0.738301  0.420833  0.420833  1
  Zn  Zn16  1  0.419529  0.419529  0.419529  1
  Si  Si17  1  0.837899  0.837899  0.492829  1
  Si  Si18  1  0.837899  0.492829  0.837899  1
  Si  Si19  1  0.492829  0.837899  0.837899  1
  Pt  Pt20  1  0.627223  0.627223  0.104968  1
  Pt  Pt21  1  0.627223  0.104968  0.627223  1
  Pt  Pt22  1  0.104968  0.627223  0.627223  1
  Pt  Pt23  1  0.635626  0.635626  0.635626  1
  C  C24  1  0.124617  0.124617  0.624360  1
  C  C25  1  0.124617  0.624360  0.124617  1
  C  C26  1  0.624360  0.124617  0.124617  1
  C  C27  1  0.125904  0.125904  0.125904  1
