# generated using pymatgen
data_CaTmCo9Tc3As7
_symmetry_space_group_name_H-M   'P 1'
_cell_length_a   3.81609800
_cell_length_b   9.35736319
_cell_length_c   9.35736400
_cell_angle_alpha   120.00000287
_cell_angle_beta   90.00000000
_cell_angle_gamma   90.00000000
_symmetry_Int_Tables_number   1
_chemical_formula_structural   CaTmCo9Tc3As7
_chemical_formula_sum   'Ca1 Tm1 Co9 Tc3 As7'
_cell_volume   289.37242798
_cell_formula_units_Z   1
loop_
 _symmetry_equiv_pos_site_id
 _symmetry_equiv_pos_as_xyz
  1  'x, y, z'
loop_
 _atom_site_type_symbol
 _atom_site_label
 _atom_site_symmetry_multiplicity
 _atom_site_fract_x
 _atom_site_fract_y
 _atom_site_fract_z
 _atom_site_occupancy
  Ca  Ca0  1  0.500000  0.333333  0.666667  1
  Tm  Tm1  1  0.000000  0.666667  0.333333  1
  Co  Co2  1  0.000000  0.570083  0.943850  1
  Co  Co3  1  0.000000  0.373767  0.429917  1
  Co  Co4  1  0.000000  0.056150  0.626233  1
  Co  Co5  1  0.000000  0.875936  0.158205  1
  Co  Co6  1  0.000000  0.282269  0.124064  1
  Co  Co7  1  0.000000  0.841795  0.717731  1
  Co  Co8  1  0.500000  0.944567  0.379371  1
  Co  Co9  1  0.500000  0.434803  0.055433  1
  Co  Co10  1  0.500000  0.620629  0.565197  1
  Tc  Tc11  1  0.500000  0.783469  0.900761  1
  Tc  Tc12  1  0.500000  0.117292  0.216531  1
  Tc  Tc13  1  0.500000  0.099239  0.882708  1
  As  As14  1  0.000000  0.000000  0.000000  1
  As  As15  1  0.500000  0.705932  0.116455  1
  As  As16  1  0.500000  0.410524  0.294068  1
  As  As17  1  0.500000  0.883545  0.589476  1
  As  As18  1  0.000000  0.587208  0.702318  1
  As  As19  1  0.000000  0.115109  0.412792  1
  As  As20  1  0.000000  0.297682  0.884891  1
