# generated using pymatgen
data_Tm(ZrH5)3
_symmetry_space_group_name_H-M   'P 1'
_cell_length_a   7.09471438
_cell_length_b   7.10200097
_cell_length_c   7.12861983
_cell_angle_alpha   109.50690123
_cell_angle_beta   109.46560437
_cell_angle_gamma   109.26843459
_symmetry_Int_Tables_number   1
_chemical_formula_structural   Tm(ZrH5)3
_chemical_formula_sum   'Tm2 Zr6 H30'
_cell_volume   277.08939444
_cell_formula_units_Z   2
loop_
 _symmetry_equiv_pos_site_id
 _symmetry_equiv_pos_as_xyz
  1  'x, y, z'
loop_
 _atom_site_type_symbol
 _atom_site_label
 _atom_site_symmetry_multiplicity
 _atom_site_fract_x
 _atom_site_fract_y
 _atom_site_fract_z
 _atom_site_occupancy
  Tm  Tm0  1  0.910107  0.909214  0.908484  1
  Tm  Tm1  1  0.501623  0.000730  0.091516  1
  Zr  Zr2  1  0.001563  0.105672  0.502504  1
  Zr  Zr3  1  0.106411  0.500696  0.002556  1
  Zr  Zr4  1  0.999059  0.603169  0.497496  1
  Zr  Zr5  1  0.603855  0.498140  0.997444  1
  Zr  Zr6  1  0.499944  0.998968  0.594736  1
  Zr  Zr7  1  0.405208  0.404232  0.405264  1
  H  H8  1  0.663019  0.975057  0.395251  1
  H  H9  1  0.223107  0.307407  0.846897  1
  H  H10  1  0.189713  0.419180  0.535794  1
  H  H11  1  0.091809  0.285043  0.126200  1
  H  H12  1  0.279982  0.132349  0.102029  1
  H  H13  1  0.127347  0.098812  0.288429  1
  H  H14  1  0.465608  0.158843  0.873800  1
  H  H15  1  0.725005  0.343003  0.812475  1
  H  H16  1  0.626622  0.381396  0.253820  1
  H  H17  1  0.242236  0.625028  0.367830  1
  H  H18  1  0.757807  0.872157  0.137692  1
  H  H19  1  0.120115  0.734466  0.862308  1
  H  H20  1  0.374406  0.257198  0.632170  1
  H  H21  1  0.872802  0.127576  0.746180  1
  H  H22  1  0.767769  0.579808  0.604749  1
  H  H23  1  0.306471  0.836270  0.226280  1
  H  H24  1  0.379373  0.642937  0.970001  1
  H  H25  1  0.972575  0.381592  0.656656  1
  H  H26  1  0.527548  0.192024  0.425146  1
  H  H27  1  0.412531  0.530529  0.187525  1
  H  H28  1  0.856992  0.230823  0.322483  1
  H  H29  1  0.909371  0.672935  0.029999  1
  H  H30  1  0.815920  0.724936  0.343344  1
  H  H31  1  0.153920  0.883387  0.464206  1
  H  H32  1  0.677953  0.030320  0.897971  1
  H  H33  1  0.338918  0.810383  0.711571  1
  H  H34  1  0.876210  0.460509  0.153103  1
  H  H35  1  0.602401  0.766879  0.574854  1
  H  H36  1  0.580191  0.609990  0.773720  1
  H  H37  1  0.034510  0.908340  0.677517  1
