# generated using pymatgen
data_Er3Ti3Nb2(Co4P3)4
_symmetry_space_group_name_H-M   'P 1'
_cell_length_a   11.99372200
_cell_length_b   12.01391959
_cell_length_c   3.63667400
_cell_angle_alpha   90.00000000
_cell_angle_beta   90.00000000
_cell_angle_gamma   119.94440800
_symmetry_Int_Tables_number   1
_chemical_formula_structural   Er3Ti3Nb2(Co4P3)4
_chemical_formula_sum   'Er3 Ti3 Nb2 Co16 P12'
_cell_volume   454.06362692
_cell_formula_units_Z   1
loop_
 _symmetry_equiv_pos_site_id
 _symmetry_equiv_pos_as_xyz
  1  'x, y, z'
loop_
 _atom_site_type_symbol
 _atom_site_label
 _atom_site_symmetry_multiplicity
 _atom_site_fract_x
 _atom_site_fract_y
 _atom_site_fract_z
 _atom_site_occupancy
  Er  Er0  1  0.821380  0.000000  0.500000  1
  Er  Er1  1  0.333856  0.667770  0.000000  1
  Er  Er2  1  0.666086  0.332230  0.000000  1
  Ti  Ti3  1  0.440274  0.000000  0.000000  1
  Ti  Ti4  1  0.000264  0.443147  0.000000  1
  Ti  Ti5  1  0.557117  0.556853  0.000000  1
  Nb  Nb6  1  0.998946  0.816447  0.500000  1
  Nb  Nb7  1  0.182500  0.183553  0.500000  1
  Co  Co8  1  0.275834  0.000000  0.500000  1
  Co  Co9  1  0.005053  0.282257  0.500000  1
  Co  Co10  1  0.722797  0.717743  0.500000  1
  Co  Co11  1  0.627683  0.802363  0.000000  1
  Co  Co12  1  0.192220  0.823813  0.000000  1
  Co  Co13  1  0.176777  0.370357  0.000000  1
  Co  Co14  1  0.368407  0.176187  0.000000  1
  Co  Co15  1  0.806419  0.629643  0.000000  1
  Co  Co16  1  0.825320  0.197637  0.000000  1
  Co  Co17  1  0.518039  0.874551  0.500000  1
  Co  Co18  1  0.124187  0.647444  0.500000  1
  Co  Co19  1  0.353271  0.477963  0.500000  1
  Co  Co20  1  0.476743  0.352556  0.500000  1
  Co  Co21  1  0.875308  0.522037  0.500000  1
  Co  Co22  1  0.643488  0.125449  0.500000  1
  Co  Co23  1  0.004288  0.000000  0.000000  1
  P  P24  1  0.175279  0.000000  0.000000  1
  P  P25  1  0.003928  0.175624  0.000000  1
  P  P26  1  0.828304  0.824376  0.000000  1
  P  P27  1  0.521561  0.687595  0.500000  1
  P  P28  1  0.311474  0.833287  0.500000  1
  P  P29  1  0.168099  0.482243  0.500000  1
  P  P30  1  0.478188  0.166713  0.500000  1
  P  P31  1  0.685857  0.517757  0.500000  1
  P  P32  1  0.833967  0.312405  0.500000  1
  P  P33  1  0.644706  0.000000  0.000000  1
  P  P34  1  0.999918  0.647454  0.000000  1
  P  P35  1  0.352464  0.352546  0.000000  1
