# generated using pymatgen
data_Ac2Ce(MgPd)3
_symmetry_space_group_name_H-M   'P 1'
_cell_length_a   7.91396500
_cell_length_b   7.91396517
_cell_length_c   4.23417100
_cell_angle_alpha   90.00000000
_cell_angle_beta   90.00000000
_cell_angle_gamma   121.05934153
_symmetry_Int_Tables_number   1
_chemical_formula_structural   Ac2Ce(MgPd)3
_chemical_formula_sum   'Ac2 Ce1 Mg3 Pd3'
_cell_volume   227.17035860
_cell_formula_units_Z   1
loop_
 _symmetry_equiv_pos_site_id
 _symmetry_equiv_pos_as_xyz
  1  'x, y, z'
loop_
 _atom_site_type_symbol
 _atom_site_label
 _atom_site_symmetry_multiplicity
 _atom_site_fract_x
 _atom_site_fract_y
 _atom_site_fract_z
 _atom_site_occupancy
  Ac  Ac0  1  0.581289  0.998937  0.000000  1
  Ac  Ac1  1  0.998937  0.581289  0.000000  1
  Ce  Ce2  1  0.418203  0.418203  0.000000  1
  Mg  Mg3  1  0.235417  0.010896  0.500000  1
  Mg  Mg4  1  0.010896  0.235417  0.500000  1
  Mg  Mg5  1  0.760241  0.760241  0.500000  1
  Pd  Pd6  1  0.339383  0.649520  0.500000  1
  Pd  Pd7  1  0.649520  0.339383  0.500000  1
  Pd  Pd8  1  0.006113  0.006113  0.000000  1
