# generated using pymatgen
data_CuIr4PdO12
_symmetry_space_group_name_H-M   'P 1'
_cell_length_a   4.59936650
_cell_length_b   4.50946225
_cell_length_c   9.51580777
_cell_angle_alpha   89.99882903
_cell_angle_beta   90.00149623
_cell_angle_gamma   89.77014936
_symmetry_Int_Tables_number   1
_chemical_formula_structural   CuIr4PdO12
_chemical_formula_sum   'Cu1 Ir4 Pd1 O12'
_cell_volume   197.36263664
_cell_formula_units_Z   1
loop_
 _symmetry_equiv_pos_site_id
 _symmetry_equiv_pos_as_xyz
  1  'x, y, z'
loop_
 _atom_site_type_symbol
 _atom_site_label
 _atom_site_symmetry_multiplicity
 _atom_site_fract_x
 _atom_site_fract_y
 _atom_site_fract_z
 _atom_site_occupancy
  Cu  Cu0  1  0.000000  0.000000  0.000000  1
  Ir  Ir1  1  0.499968  0.500037  0.165128  1
  Ir  Ir2  1  0.000023  0.999969  0.669136  1
  Ir  Ir3  1  0.500032  0.499963  0.834872  1
  Ir  Ir4  1  0.999977  0.000031  0.330864  1
  Pd  Pd5  1  0.500000  0.500000  0.500000  1
  O  O6  1  0.684109  0.711053  0.671977  1
  O  O7  1  0.187537  0.792198  0.169293  1
  O  O8  1  0.315891  0.288947  0.328023  1
  O  O9  1  0.812463  0.207802  0.830707  1
  O  O10  1  0.187595  0.792100  0.830693  1
  O  O11  1  0.684029  0.711154  0.328023  1
  O  O12  1  0.812405  0.207900  0.169307  1
  O  O13  1  0.315971  0.288846  0.671977  1
  O  O14  1  0.172888  0.800993  0.499994  1
  O  O15  1  0.680915  0.698083  0.999998  1
  O  O16  1  0.827112  0.199007  0.500006  1
  O  O17  1  0.319085  0.301917  0.000002  1
