# generated using pymatgen
data_Hf2Zr3(Re2Tc)8
_symmetry_space_group_name_H-M   'P 1'
_cell_length_a   8.47437105
_cell_length_b   8.47041447
_cell_length_c   8.46929802
_cell_angle_alpha   109.50947374
_cell_angle_beta   109.48796959
_cell_angle_gamma   109.53431655
_symmetry_Int_Tables_number   1
_chemical_formula_structural   Hf2Zr3(Re2Tc)8
_chemical_formula_sum   'Hf2 Zr3 Re16 Tc8'
_cell_volume   467.30777936
_cell_formula_units_Z   1
loop_
 _symmetry_equiv_pos_site_id
 _symmetry_equiv_pos_as_xyz
  1  'x, y, z'
loop_
 _atom_site_type_symbol
 _atom_site_label
 _atom_site_symmetry_multiplicity
 _atom_site_fract_x
 _atom_site_fract_y
 _atom_site_fract_z
 _atom_site_occupancy
  Hf  Hf0  1  0.001475  0.999832  0.626718  1
  Hf  Hf1  1  0.372231  0.372386  0.372603  1
  Zr  Zr2  1  0.999495  0.999786  0.999518  1
  Zr  Zr3  1  0.625378  0.999819  0.999518  1
  Zr  Zr4  1  0.999561  0.625558  0.999965  1
  Re  Re5  1  0.676593  0.000928  0.396662  1
  Re  Re6  1  0.604236  0.603468  0.279113  1
  Re  Re7  1  0.279582  0.604392  0.603791  1
  Re  Re8  1  0.604299  0.278891  0.603662  1
  Re  Re9  1  0.376307  0.195415  0.000749  1
  Re  Re10  1  0.180201  0.805517  0.805095  1
  Re  Re11  1  0.375457  0.001075  0.195127  1
  Re  Re12  1  0.195121  0.376713  0.000879  1
  Re  Re13  1  0.001313  0.376985  0.195715  1
  Re  Re14  1  0.806257  0.180408  0.804900  1
  Re  Re15  1  0.805653  0.805723  0.181416  1
  Re  Re16  1  0.001104  0.195305  0.377363  1
  Re  Re17  1  0.194504  0.001213  0.377501  1
  Re  Re18  1  0.622253  0.622130  0.816044  1
  Re  Re19  1  0.815720  0.622373  0.621995  1
  Re  Re20  1  0.623278  0.816418  0.622002  1
  Tc  Tc21  1  0.396624  0.677681  0.000774  1
  Tc  Tc22  1  0.719643  0.322683  0.322490  1
  Tc  Tc23  1  0.396524  0.000970  0.677598  1
  Tc  Tc24  1  0.677152  0.396231  0.000630  1
  Tc  Tc25  1  0.001999  0.397181  0.677772  1
  Tc  Tc26  1  0.323787  0.720417  0.323282  1
  Tc  Tc27  1  0.323217  0.323093  0.720252  1
  Tc  Tc28  1  0.001037  0.677414  0.396868  1
