# generated using pymatgen
data_Pr6B2(CBr)3
_symmetry_space_group_name_H-M   'P 1'
_cell_length_a   8.64023734
_cell_length_b   3.87528900
_cell_length_c   10.29532090
_cell_angle_alpha   90.00000000
_cell_angle_beta   112.49567357
_cell_angle_gamma   90.00000000
_symmetry_Int_Tables_number   1
_chemical_formula_structural   Pr6B2(CBr)3
_chemical_formula_sum   'Pr6 B2 C3 Br3'
_cell_volume   318.49204118
_cell_formula_units_Z   1
loop_
 _symmetry_equiv_pos_site_id
 _symmetry_equiv_pos_as_xyz
  1  'x, y, z'
loop_
 _atom_site_type_symbol
 _atom_site_label
 _atom_site_symmetry_multiplicity
 _atom_site_fract_x
 _atom_site_fract_y
 _atom_site_fract_z
 _atom_site_occupancy
  Pr  Pr0  1  0.372982  0.500001  0.226274  1
  Pr  Pr1  1  0.627017  0.500001  0.773725  1
  Pr  Pr2  1  0.948535  0.500001  0.162980  1
  Pr  Pr3  1  0.051465  0.500001  0.837020  1
  Pr  Pr4  1  0.288402  0.000000  0.482453  1
  Pr  Pr5  1  0.711598  0.000000  0.517547  1
  B  B6  1  0.091234  0.000000  0.067033  1
  B  B7  1  0.908768  0.000000  0.932968  1
  C  C8  1  0.169602  0.000000  0.225832  1
  C  C9  1  0.830398  0.000000  0.774167  1
  C  C10  1  0.500000  0.500001  0.500000  1
  Br  Br11  1  0.650426  0.000000  0.186512  1
  Br  Br12  1  0.349575  0.000000  0.813489  1
  Br  Br13  1  0.000000  0.500001  0.500000  1
