# generated using pymatgen
data_Li2CuB4Ir4Pt
_symmetry_space_group_name_H-M   'P 1'
_cell_length_a   6.80124847
_cell_length_b   6.03897224
_cell_length_c   5.46595489
_cell_angle_alpha   72.67716241
_cell_angle_beta   58.00920265
_cell_angle_gamma   51.44166565
_symmetry_Int_Tables_number   1
_chemical_formula_structural   Li2CuB4Ir4Pt
_chemical_formula_sum   'Li2 Cu1 B4 Ir4 Pt1'
_cell_volume   148.71444170
_cell_formula_units_Z   1
loop_
 _symmetry_equiv_pos_site_id
 _symmetry_equiv_pos_as_xyz
  1  'x, y, z'
loop_
 _atom_site_type_symbol
 _atom_site_label
 _atom_site_symmetry_multiplicity
 _atom_site_fract_x
 _atom_site_fract_y
 _atom_site_fract_z
 _atom_site_occupancy
  Li  Li0  1  0.948935  0.747887  0.405155  1
  Li  Li1  1  0.501823  0.302835  0.357065  1
  Cu  Cu2  1  0.869047  0.378179  0.838153  1
  B  B3  1  0.047839  0.981574  0.568232  1
  B  B4  1  0.675809  0.829191  0.179419  1
  B  B5  1  0.430340  0.573533  0.918957  1
  B  B6  1  0.255154  0.208770  0.864204  1
  Ir  Ir7  1  0.099779  0.638730  0.869134  1
  Ir  Ir8  1  0.369150  0.857691  0.136757  1
  Ir  Ir9  1  0.614294  0.150519  0.854075  1
  Ir  Ir10  1  0.377528  0.899587  0.617799  1
  Pt  Pt11  1  0.865505  0.376301  0.335848  1
