# generated using pymatgen
data_Hf12Al7Cu5N4
_symmetry_space_group_name_H-M   'P 1'
_cell_length_a   8.48176219
_cell_length_b   8.45440623
_cell_length_c   8.48176100
_cell_angle_alpha   59.89289883
_cell_angle_beta   59.99999293
_cell_angle_gamma   59.89289893
_symmetry_Int_Tables_number   1
_chemical_formula_structural   Hf12Al7Cu5N4
_chemical_formula_sum   'Hf12 Al7 Cu5 N4'
_cell_volume   429.37352516
_cell_formula_units_Z   1
loop_
 _symmetry_equiv_pos_site_id
 _symmetry_equiv_pos_as_xyz
  1  'x, y, z'
loop_
 _atom_site_type_symbol
 _atom_site_label
 _atom_site_symmetry_multiplicity
 _atom_site_fract_x
 _atom_site_fract_y
 _atom_site_fract_z
 _atom_site_occupancy
  Hf  Hf0  1  0.812903  0.188065  0.186129  1
  Hf  Hf1  1  0.185675  0.814364  0.185675  1
  Hf  Hf2  1  0.814287  0.814364  0.185675  1
  Hf  Hf3  1  0.185675  0.814364  0.814287  1
  Hf  Hf4  1  0.812903  0.188065  0.812903  1
  Hf  Hf5  1  0.186129  0.188065  0.812903  1
  Hf  Hf6  1  0.435460  0.064534  0.064546  1
  Hf  Hf7  1  0.061980  0.437876  0.061980  1
  Hf  Hf8  1  0.438164  0.437876  0.061980  1
  Hf  Hf9  1  0.061980  0.437876  0.438164  1
  Hf  Hf10  1  0.435460  0.064534  0.435460  1
  Hf  Hf11  1  0.064546  0.064534  0.435460  1
  Al  Al12  1  0.418600  0.418677  0.744121  1
  Al  Al13  1  0.418600  0.418677  0.418600  1
  Al  Al14  1  0.744121  0.418677  0.418600  1
  Al  Al15  1  0.417941  0.746176  0.417941  1
  Al  Al16  1  0.832538  0.824244  0.510682  1
  Al  Al17  1  0.832538  0.824244  0.832538  1
  Al  Al18  1  0.510682  0.824244  0.832538  1
  Cu  Cu19  1  0.831667  0.505000  0.831667  1
  Cu  Cu20  1  0.622779  0.626073  0.128368  1
  Cu  Cu21  1  0.622779  0.626073  0.622779  1
  Cu  Cu22  1  0.128368  0.626073  0.622779  1
  Cu  Cu23  1  0.625523  0.123431  0.625523  1
  N  N24  1  0.123554  0.126650  0.626242  1
  N  N25  1  0.123554  0.126650  0.123554  1
  N  N26  1  0.626242  0.126650  0.123554  1
  N  N27  1  0.125352  0.623944  0.125352  1
