# generated using pymatgen
data_Nd3Y4Th(CdIr)2
_symmetry_space_group_name_H-M   'P 1'
_cell_length_a   9.81584199
_cell_length_b   9.81584313
_cell_length_c   9.83155900
_cell_angle_alpha   59.94701946
_cell_angle_beta   59.94701558
_cell_angle_gamma   60.19740942
_symmetry_Int_Tables_number   1
_chemical_formula_structural   Nd3Y4Th(CdIr)2
_chemical_formula_sum   'Nd6 Y8 Th2 Cd4 Ir4'
_cell_volume   670.28114333
_cell_formula_units_Z   2
loop_
 _symmetry_equiv_pos_site_id
 _symmetry_equiv_pos_as_xyz
  1  'x, y, z'
loop_
 _atom_site_type_symbol
 _atom_site_label
 _atom_site_symmetry_multiplicity
 _atom_site_fract_x
 _atom_site_fract_y
 _atom_site_fract_z
 _atom_site_occupancy
  Nd  Nd0  1  0.941279  0.560725  0.560882  1
  Nd  Nd1  1  0.560725  0.941279  0.937114  1
  Nd  Nd2  1  0.560725  0.941279  0.560882  1
  Nd  Nd3  1  0.941279  0.560725  0.937114  1
  Nd  Nd4  1  0.561560  0.561560  0.938440  1
  Nd  Nd5  1  0.942020  0.942020  0.557980  1
  Y  Y6  1  0.350338  0.950337  0.349662  1
  Y  Y7  1  0.950337  0.350338  0.349662  1
  Y  Y8  1  0.813110  0.187575  0.187787  1
  Y  Y9  1  0.187575  0.813110  0.811528  1
  Y  Y10  1  0.187575  0.813110  0.187787  1
  Y  Y11  1  0.813110  0.187575  0.811528  1
  Y  Y12  1  0.186022  0.186022  0.813978  1
  Y  Y13  1  0.812179  0.812179  0.187821  1
  Th  Th14  1  0.345278  0.345278  0.349220  1
  Th  Th15  1  0.345278  0.345278  0.960225  1
  Cd  Cd16  1  0.580075  0.580075  0.578191  1
  Cd  Cd17  1  0.580075  0.580075  0.261658  1
  Cd  Cd18  1  0.580926  0.258918  0.580077  1
  Cd  Cd19  1  0.258918  0.580926  0.580077  1
  Ir  Ir20  1  0.142542  0.142542  0.142633  1
  Ir  Ir21  1  0.142542  0.142542  0.572282  1
  Ir  Ir22  1  0.145462  0.571071  0.141734  1
  Ir  Ir23  1  0.571071  0.145462  0.141734  1
