# generated using pymatgen
data_Ho3Tm3ScCo17P12
_symmetry_space_group_name_H-M   'P 1'
_cell_length_a   3.69275900
_cell_length_b   10.54848402
_cell_length_c   12.22257402
_cell_angle_alpha   89.99385524
_cell_angle_beta   89.99999531
_cell_angle_gamma   90.00000000
_symmetry_Int_Tables_number   1
_chemical_formula_structural   Ho3Tm3ScCo17P12
_chemical_formula_sum   'Ho3 Tm3 Sc1 Co17 P12'
_cell_volume   476.10603644
_cell_formula_units_Z   1
loop_
 _symmetry_equiv_pos_site_id
 _symmetry_equiv_pos_as_xyz
  1  'x, y, z'
loop_
 _atom_site_type_symbol
 _atom_site_label
 _atom_site_symmetry_multiplicity
 _atom_site_fract_x
 _atom_site_fract_y
 _atom_site_fract_z
 _atom_site_occupancy
  Ho  Ho0  1  0.000000  0.499995  0.527789  1
  Ho  Ho1  1  0.500000  0.000043  0.477485  1
  Ho  Ho2  1  0.000000  0.317828  0.795497  1
  Tm  Tm3  1  0.500000  0.821926  0.207488  1
  Tm  Tm4  1  0.500000  0.178049  0.207454  1
  Tm  Tm5  1  0.000000  0.682249  0.795642  1
  Sc  Sc6  1  0.500000  0.500043  0.152837  1
  Co  Co7  1  0.000000  0.500314  0.984399  1
  Co  Co8  1  0.500000  0.999740  0.013745  1
  Co  Co9  1  0.500000  0.294627  0.433823  1
  Co  Co10  1  0.500000  0.705409  0.434017  1
  Co  Co11  1  0.000000  0.201833  0.570265  1
  Co  Co12  1  0.000000  0.798042  0.570645  1
  Co  Co13  1  0.500000  0.879646  0.708046  1
  Co  Co14  1  0.500000  0.119831  0.707737  1
  Co  Co15  1  0.000000  0.623333  0.295808  1
  Co  Co16  1  0.000000  0.376661  0.295743  1
  Co  Co17  1  0.500000  0.326675  0.989967  1
  Co  Co18  1  0.500000  0.673543  0.989598  1
  Co  Co19  1  0.000000  0.162199  0.002100  1
  Co  Co20  1  0.000000  0.837522  0.001833  1
  Co  Co21  1  0.000000  0.999980  0.837180  1
  Co  Co22  1  0.500000  0.500596  0.703542  1
  Co  Co23  1  0.999999  0.999937  0.295486  1
  P  P24  1  0.500000  0.309644  0.617780  1
  P  P25  1  0.500000  0.690371  0.618442  1
  P  P26  1  0.000000  0.188147  0.385263  1
  P  P27  1  0.000000  0.811771  0.385405  1
  P  P28  1  0.500000  0.500585  0.882639  1
  P  P29  1  0.000000  0.999900  0.116957  1
  P  P30  1  0.500000  0.851030  0.888503  1
  P  P31  1  0.500000  0.148410  0.888841  1
  P  P32  1  0.000000  0.664145  0.102652  1
  P  P33  1  0.000000  0.335929  0.102525  1
  P  P34  1  0.500000  0.500018  0.358412  1
  P  P35  1  0.000000  0.000028  0.654453  1
