# generated using pymatgen
data_SrLa(NbSe2)6
_symmetry_space_group_name_H-M   'P 1'
_cell_length_a   6.09407100
_cell_length_b   6.09407186
_cell_length_c   15.51884400
_cell_angle_alpha   90.00000000
_cell_angle_beta   90.00000000
_cell_angle_gamma   120.00000077
_symmetry_Int_Tables_number   1
_chemical_formula_structural   SrLa(NbSe2)6
_chemical_formula_sum   'Sr1 La1 Nb6 Se12'
_cell_volume   499.12011926
_cell_formula_units_Z   1
loop_
 _symmetry_equiv_pos_site_id
 _symmetry_equiv_pos_as_xyz
  1  'x, y, z'
loop_
 _atom_site_type_symbol
 _atom_site_label
 _atom_site_symmetry_multiplicity
 _atom_site_fract_x
 _atom_site_fract_y
 _atom_site_fract_z
 _atom_site_occupancy
  Sr  Sr0  1  0.000000  0.000000  0.500000  1
  La  La1  1  0.000000  0.000000  0.000000  1
  Nb  Nb2  1  0.000000  0.000000  0.752707  1
  Nb  Nb3  1  0.000000  0.000000  0.247293  1
  Nb  Nb4  1  0.333333  0.666667  0.247746  1
  Nb  Nb5  1  0.666667  0.333333  0.752254  1
  Nb  Nb6  1  0.666667  0.333333  0.247746  1
  Nb  Nb7  1  0.333333  0.666667  0.752254  1
  Se  Se8  1  0.338394  0.000000  0.139870  1
  Se  Se9  1  0.000000  0.338394  0.139870  1
  Se  Se10  1  0.661606  0.661606  0.139870  1
  Se  Se11  1  0.338982  0.338982  0.644966  1
  Se  Se12  1  0.661018  0.661018  0.355034  1
  Se  Se13  1  0.661018  0.000000  0.644966  1
  Se  Se14  1  0.000000  0.661018  0.644966  1
  Se  Se15  1  0.000000  0.661606  0.860130  1
  Se  Se16  1  0.338394  0.338394  0.860130  1
  Se  Se17  1  0.000000  0.338982  0.355034  1
  Se  Se18  1  0.338982  0.000000  0.355034  1
  Se  Se19  1  0.661606  0.000000  0.860130  1
