# generated using pymatgen
data_Gd2Tm2Th(FeB3)2
_symmetry_space_group_name_H-M   'P 1'
_cell_length_a   5.41425318
_cell_length_b   5.41425065
_cell_length_c   8.13173334
_cell_angle_alpha   70.55456937
_cell_angle_beta   70.55456926
_cell_angle_gamma   59.99998903
_symmetry_Int_Tables_number   1
_chemical_formula_structural   Gd2Tm2Th(FeB3)2
_chemical_formula_sum   'Gd2 Tm2 Th1 Fe2 B6'
_cell_volume   190.57623977
_cell_formula_units_Z   1
loop_
 _symmetry_equiv_pos_site_id
 _symmetry_equiv_pos_as_xyz
  1  'x, y, z'
loop_
 _atom_site_type_symbol
 _atom_site_label
 _atom_site_symmetry_multiplicity
 _atom_site_fract_x
 _atom_site_fract_y
 _atom_site_fract_z
 _atom_site_occupancy
  Gd  Gd0  1  0.586211  0.586211  0.241367  1
  Gd  Gd1  1  0.413789  0.413789  0.758633  1
  Tm  Tm2  1  0.750134  0.750134  0.749601  1
  Tm  Tm3  1  0.249866  0.249866  0.250399  1
  Th  Th4  1  0.000000  0.000000  0.000000  1
  Fe  Fe5  1  0.887530  0.887530  0.337409  1
  Fe  Fe6  1  0.112470  0.112470  0.662591  1
  B  B7  1  0.500000  0.167666  0.500000  1
  B  B8  1  0.832334  0.500000  0.500000  1
  B  B9  1  0.167666  0.832334  0.500000  1
  B  B10  1  0.167666  0.500000  0.500000  1
  B  B11  1  0.832334  0.167666  0.500000  1
  B  B12  1  0.500000  0.832334  0.500000  1
