# generated using pymatgen
data_TePbBr18
_symmetry_space_group_name_H-M   'P 1'
_cell_length_a   9.66418612
_cell_length_b   9.66418388
_cell_length_c   9.66418464
_cell_angle_alpha   90.46782110
_cell_angle_beta   90.46782122
_cell_angle_gamma   90.46781635
_symmetry_Int_Tables_number   1
_chemical_formula_structural   TePbBr18
_chemical_formula_sum   'Te1 Pb1 Br18'
_cell_volume   902.50999332
_cell_formula_units_Z   1
loop_
 _symmetry_equiv_pos_site_id
 _symmetry_equiv_pos_as_xyz
  1  'x, y, z'
loop_
 _atom_site_type_symbol
 _atom_site_label
 _atom_site_symmetry_multiplicity
 _atom_site_fract_x
 _atom_site_fract_y
 _atom_site_fract_z
 _atom_site_occupancy
  Te  Te0  1  0.000000  0.000000  0.000000  1
  Pb  Pb1  1  0.500000  0.500000  0.500000  1
  Br  Br2  1  0.286177  0.994214  0.016503  1
  Br  Br3  1  0.016503  0.286177  0.994214  1
  Br  Br4  1  0.994214  0.016503  0.286177  1
  Br  Br5  1  0.713823  0.005786  0.983497  1
  Br  Br6  1  0.983497  0.713823  0.005786  1
  Br  Br7  1  0.005786  0.983497  0.713823  1
  Br  Br8  1  0.630131  0.244713  0.100626  1
  Br  Br9  1  0.100626  0.630131  0.244713  1
  Br  Br10  1  0.244713  0.100626  0.630131  1
  Br  Br11  1  0.369869  0.755287  0.899374  1
  Br  Br12  1  0.899374  0.369869  0.755287  1
  Br  Br13  1  0.755287  0.899374  0.369869  1
  Br  Br14  1  0.470086  0.189206  0.551030  1
  Br  Br15  1  0.551030  0.470086  0.189206  1
  Br  Br16  1  0.189206  0.551030  0.470086  1
  Br  Br17  1  0.529914  0.810794  0.448970  1
  Br  Br18  1  0.448970  0.529914  0.810794  1
  Br  Br19  1  0.810794  0.448970  0.529914  1
