# generated using pymatgen
data_Tb5Y3SnPd24
_symmetry_space_group_name_H-M   'P 1'
_cell_length_a   8.41359100
_cell_length_b   8.41358900
_cell_length_c   8.41365600
_cell_angle_alpha   90.00016344
_cell_angle_beta   90.00017706
_cell_angle_gamma   90.00038135
_symmetry_Int_Tables_number   1
_chemical_formula_structural   Tb5Y3SnPd24
_chemical_formula_sum   'Tb5 Y3 Sn1 Pd24'
_cell_volume   595.59005988
_cell_formula_units_Z   1
loop_
 _symmetry_equiv_pos_site_id
 _symmetry_equiv_pos_as_xyz
  1  'x, y, z'
loop_
 _atom_site_type_symbol
 _atom_site_label
 _atom_site_symmetry_multiplicity
 _atom_site_fract_x
 _atom_site_fract_y
 _atom_site_fract_z
 _atom_site_occupancy
  Tb  Tb0  1  0.747438  0.252573  0.747552  1
  Tb  Tb1  1  0.252664  0.252663  0.747215  1
  Tb  Tb2  1  0.252555  0.747371  0.252536  1
  Tb  Tb3  1  0.252573  0.747439  0.747553  1
  Tb  Tb4  1  0.747370  0.252555  0.252535  1
  Y  Y5  1  0.252393  0.252393  0.252466  1
  Y  Y6  1  0.747542  0.747542  0.747493  1
  Y  Y7  1  0.747713  0.747713  0.252375  1
  Sn  Sn8  1  0.999995  0.999995  0.000015  1
  Pd  Pd9  1  0.265397  0.500011  0.999967  1
  Pd  Pd10  1  0.734593  0.499859  0.000006  1
  Pd  Pd11  1  0.999974  0.265400  0.500087  1
  Pd  Pd12  1  0.500011  0.265397  0.999967  1
  Pd  Pd13  1  0.000075  0.734587  0.500031  1
  Pd  Pd14  1  0.499859  0.734593  0.000006  1
  Pd  Pd15  1  0.499965  0.000005  0.265407  1
  Pd  Pd16  1  0.265400  0.999974  0.500087  1
  Pd  Pd17  1  0.499909  0.000039  0.734606  1
  Pd  Pd18  1  0.734586  0.000074  0.500031  1
  Pd  Pd19  1  0.000004  0.499964  0.265407  1
  Pd  Pd20  1  0.000039  0.499909  0.734606  1
  Pd  Pd21  1  0.255269  0.500071  0.500027  1
  Pd  Pd22  1  0.744758  0.499909  0.499972  1
  Pd  Pd23  1  0.500072  0.255269  0.500027  1
  Pd  Pd24  1  0.499908  0.744758  0.499972  1
  Pd  Pd25  1  0.500017  0.500017  0.255240  1
  Pd  Pd26  1  0.499964  0.499964  0.744734  1
  Pd  Pd27  1  0.308438  0.000045  0.000016  1
  Pd  Pd28  1  0.691516  0.999959  0.999989  1
  Pd  Pd29  1  0.000045  0.308438  0.000016  1
  Pd  Pd30  1  0.999959  0.691515  0.999989  1
  Pd  Pd31  1  0.000012  0.000013  0.308492  1
  Pd  Pd32  1  0.999987  0.999987  0.691579  1
