# generated using pymatgen
data_SmHoTm3(In2Pt)2
_symmetry_space_group_name_H-M   'P 1'
_cell_length_a   3.60117000
_cell_length_b   8.15873276
_cell_length_c   18.25156691
_cell_angle_alpha   89.86373562
_cell_angle_beta   90.00000000
_cell_angle_gamma   90.00000000
_symmetry_Int_Tables_number   1
_chemical_formula_structural   SmHoTm3(In2Pt)2
_chemical_formula_sum   'Sm2 Ho2 Tm6 In8 Pt4'
_cell_volume   536.24747286
_cell_formula_units_Z   2
loop_
 _symmetry_equiv_pos_site_id
 _symmetry_equiv_pos_as_xyz
  1  'x, y, z'
loop_
 _atom_site_type_symbol
 _atom_site_label
 _atom_site_symmetry_multiplicity
 _atom_site_fract_x
 _atom_site_fract_y
 _atom_site_fract_z
 _atom_site_occupancy
  Sm  Sm0  1  0.000000  0.000000  0.000000  1
  Sm  Sm1  1  0.000000  0.500000  0.500000  1
  Ho  Ho2  1  0.000000  0.257318  0.720082  1
  Ho  Ho3  1  0.000000  0.742682  0.279918  1
  Tm  Tm4  1  0.000000  0.117737  0.413872  1
  Tm  Tm5  1  0.000000  0.882263  0.586128  1
  Tm  Tm6  1  0.000000  0.382432  0.913889  1
  Tm  Tm7  1  0.000000  0.617568  0.086111  1
  Tm  Tm8  1  0.000000  0.242857  0.220284  1
  Tm  Tm9  1  0.000000  0.757143  0.779716  1
  In  In10  1  0.500000  0.421552  0.349363  1
  In  In11  1  0.500000  0.578448  0.650637  1
  In  In12  1  0.500000  0.077616  0.849490  1
  In  In13  1  0.500000  0.922384  0.150510  1
  In  In14  1  0.500000  0.296735  0.067199  1
  In  In15  1  0.500000  0.703265  0.932801  1
  In  In16  1  0.500000  0.202930  0.566926  1
  In  In17  1  0.500000  0.797070  0.433074  1
  Pt  Pt18  1  0.500000  0.026072  0.303683  1
  Pt  Pt19  1  0.500000  0.973928  0.696317  1
  Pt  Pt20  1  0.500000  0.476434  0.804001  1
  Pt  Pt21  1  0.500000  0.523566  0.195999  1
