# generated using pymatgen
data_Dy7Tm2Lu3Ga20
_symmetry_space_group_name_H-M   'P 1'
_cell_length_a   6.06517858
_cell_length_b   9.58891172
_cell_length_c   11.47137206
_cell_angle_alpha   90.01496989
_cell_angle_beta   89.93334622
_cell_angle_gamma   89.97344199
_symmetry_Int_Tables_number   1
_chemical_formula_structural   Dy7Tm2Lu3Ga20
_chemical_formula_sum   'Dy7 Tm2 Lu3 Ga20'
_cell_volume   667.15681023
_cell_formula_units_Z   1
loop_
 _symmetry_equiv_pos_site_id
 _symmetry_equiv_pos_as_xyz
  1  'x, y, z'
loop_
 _atom_site_type_symbol
 _atom_site_label
 _atom_site_symmetry_multiplicity
 _atom_site_fract_x
 _atom_site_fract_y
 _atom_site_fract_z
 _atom_site_occupancy
  Dy  Dy0  1  0.890621  0.509223  0.351432  1
  Dy  Dy1  1  0.609273  0.990530  0.851320  1
  Dy  Dy2  1  0.108981  0.008999  0.648913  1
  Dy  Dy3  1  0.391035  0.490851  0.147885  1
  Dy  Dy4  1  0.108831  0.491009  0.649077  1
  Dy  Dy5  1  0.391032  0.009239  0.148338  1
  Dy  Dy6  1  0.890653  0.991036  0.351452  1
  Tm  Tm7  1  0.348628  0.250080  0.425689  1
  Tm  Tm8  1  0.608863  0.509381  0.851261  1
  Lu  Lu9  1  0.848362  0.749794  0.074330  1
  Lu  Lu10  1  0.651381  0.750023  0.574846  1
  Lu  Lu11  1  0.152426  0.249779  0.925303  1
  Ga  Ga12  1  0.875897  0.053144  0.089551  1
  Ga  Ga13  1  0.623832  0.447548  0.590712  1
  Ga  Ga14  1  0.125322  0.552491  0.910083  1
  Ga  Ga15  1  0.375946  0.946879  0.410278  1
  Ga  Ga16  1  0.123949  0.946665  0.910215  1
  Ga  Ga17  1  0.376044  0.553148  0.410230  1
  Ga  Ga18  1  0.876171  0.447113  0.089316  1
  Ga  Ga19  1  0.623939  0.052894  0.589720  1
  Ga  Ga20  1  0.170261  0.749995  0.251719  1
  Ga  Ga21  1  0.329823  0.749269  0.752427  1
  Ga  Ga22  1  0.828613  0.250909  0.749217  1
  Ga  Ga23  1  0.670895  0.250146  0.247723  1
  Ga  Ga24  1  0.375864  0.749782  0.003744  1
  Ga  Ga25  1  0.124866  0.749998  0.503973  1
  Ga  Ga26  1  0.625353  0.250905  0.994606  1
  Ga  Ga27  1  0.874398  0.250210  0.496388  1
  Ga  Ga28  1  0.602696  0.750020  0.298772  1
  Ga  Ga29  1  0.896094  0.748808  0.799133  1
  Ga  Ga30  1  0.397322  0.250058  0.701339  1
  Ga  Ga31  1  0.102629  0.250075  0.201010  1
