# generated using pymatgen
data_Pr15Nd(Ga3Co)2
_symmetry_space_group_name_H-M   'P 1'
_cell_length_a   10.46576800
_cell_length_b   10.46129811
_cell_length_c   7.25876717
_cell_angle_alpha   90.00542777
_cell_angle_beta   90.00000000
_cell_angle_gamma   120.01414792
_symmetry_Int_Tables_number   1
_chemical_formula_structural   Pr15Nd(Ga3Co)2
_chemical_formula_sum   'Pr15 Nd1 Ga6 Co2'
_cell_volume   688.15812887
_cell_formula_units_Z   1
loop_
 _symmetry_equiv_pos_site_id
 _symmetry_equiv_pos_as_xyz
  1  'x, y, z'
loop_
 _atom_site_type_symbol
 _atom_site_label
 _atom_site_symmetry_multiplicity
 _atom_site_fract_x
 _atom_site_fract_y
 _atom_site_fract_z
 _atom_site_occupancy
  Pr  Pr0  1  0.829556  0.659112  0.483546  1
  Pr  Pr1  1  0.341098  0.170365  0.484345  1
  Pr  Pr2  1  0.829267  0.170365  0.484345  1
  Pr  Pr3  1  0.171168  0.342336  0.983740  1
  Pr  Pr4  1  0.659113  0.829225  0.984918  1
  Pr  Pr5  1  0.170113  0.829225  0.984918  1
  Pr  Pr6  1  0.666652  0.333303  0.179997  1
  Pr  Pr7  1  0.334018  0.668037  0.679927  1
  Pr  Pr8  1  0.539865  0.079726  0.792938  1
  Pr  Pr9  1  0.918653  0.459372  0.791591  1
  Pr  Pr10  1  0.540721  0.459372  0.791591  1
  Pr  Pr11  1  0.459303  0.918607  0.290662  1
  Pr  Pr12  1  0.080606  0.540014  0.291574  1
  Pr  Pr13  1  0.459407  0.540014  0.291574  1
  Pr  Pr14  1  0.000363  0.000726  0.772076  1
  Nd  Nd15  1  0.000581  0.001161  0.272160  1
  Ga  Ga16  1  0.328053  0.164311  0.045040  1
  Ga  Ga17  1  0.836260  0.164311  0.045040  1
  Ga  Ga18  1  0.164400  0.328801  0.543661  1
  Ga  Ga19  1  0.671892  0.835629  0.544038  1
  Ga  Ga20  1  0.163734  0.835629  0.544038  1
  Ga  Ga21  1  0.835484  0.670965  0.045084  1
  Co  Co22  1  0.666268  0.332534  0.549981  1
  Co  Co23  1  0.333429  0.666859  0.049453  1
