# generated using pymatgen
data_Ho3Zr5Pt4
_symmetry_space_group_name_H-M   'P 1'
_cell_length_a   4.66339700
_cell_length_b   6.98248731
_cell_length_c   8.26374002
_cell_angle_alpha   89.69752724
_cell_angle_beta   90.00000000
_cell_angle_gamma   90.00000000
_symmetry_Int_Tables_number   1
_chemical_formula_structural   Ho3Zr5Pt4
_chemical_formula_sum   'Ho3 Zr5 Pt4'
_cell_volume   269.08106486
_cell_formula_units_Z   1
loop_
 _symmetry_equiv_pos_site_id
 _symmetry_equiv_pos_as_xyz
  1  'x, y, z'
loop_
 _atom_site_type_symbol
 _atom_site_label
 _atom_site_symmetry_multiplicity
 _atom_site_fract_x
 _atom_site_fract_y
 _atom_site_fract_z
 _atom_site_occupancy
  Ho  Ho0  1  0.250000  0.484769  0.180503  1
  Ho  Ho1  1  0.750000  0.013306  0.676007  1
  Ho  Ho2  1  0.750000  0.513571  0.819926  1
  Zr  Zr3  1  0.250000  0.848419  0.922812  1
  Zr  Zr4  1  0.250000  0.347409  0.580106  1
  Zr  Zr5  1  0.750000  0.145982  0.084551  1
  Zr  Zr6  1  0.750000  0.655328  0.417702  1
  Zr  Zr7  1  0.250000  0.988726  0.327761  1
  Pt  Pt8  1  0.250000  0.232902  0.906166  1
  Pt  Pt9  1  0.250000  0.739812  0.589422  1
  Pt  Pt10  1  0.750000  0.764725  0.092601  1
  Pt  Pt11  1  0.750000  0.265051  0.402442  1
