# generated using pymatgen
data_LaPr6RhO12
_symmetry_space_group_name_H-M   'P 1'
_cell_length_a   6.89990502
_cell_length_b   6.89990601
_cell_length_c   6.89990500
_cell_angle_alpha   97.05918621
_cell_angle_beta   97.05917885
_cell_angle_gamma   97.05919019
_symmetry_Int_Tables_number   1
_chemical_formula_structural   LaPr6RhO12
_chemical_formula_sum   'La1 Pr6 Rh1 O12'
_cell_volume   320.34265760
_cell_formula_units_Z   1
loop_
 _symmetry_equiv_pos_site_id
 _symmetry_equiv_pos_as_xyz
  1  'x, y, z'
loop_
 _atom_site_type_symbol
 _atom_site_label
 _atom_site_symmetry_multiplicity
 _atom_site_fract_x
 _atom_site_fract_y
 _atom_site_fract_z
 _atom_site_occupancy
  La  La0  1  0.000000  0.000000  0.000000  1
  Pr  Pr1  1  0.721537  0.896974  0.413297  1
  Pr  Pr2  1  0.413297  0.721537  0.896974  1
  Pr  Pr3  1  0.103026  0.586703  0.278463  1
  Pr  Pr4  1  0.896974  0.413297  0.721537  1
  Pr  Pr5  1  0.586703  0.278463  0.103026  1
  Pr  Pr6  1  0.278463  0.103026  0.586703  1
  Rh  Rh7  1  0.500000  0.500000  0.500000  1
  O  O8  1  0.061531  0.916849  0.324676  1
  O  O9  1  0.675324  0.938469  0.083151  1
  O  O10  1  0.440049  0.792095  0.571354  1
  O  O11  1  0.083151  0.675324  0.938469  1
  O  O12  1  0.792095  0.571354  0.440049  1
  O  O13  1  0.428646  0.559951  0.207905  1
  O  O14  1  0.571354  0.440049  0.792095  1
  O  O15  1  0.207905  0.428646  0.559951  1
  O  O16  1  0.916849  0.324676  0.061531  1
  O  O17  1  0.559951  0.207905  0.428646  1
  O  O18  1  0.324676  0.061531  0.916849  1
  O  O19  1  0.938469  0.083151  0.675324  1
