# generated using pymatgen
data_Li3Tb3ZnSi2
_symmetry_space_group_name_H-M   'P 1'
_cell_length_a   7.17628200
_cell_length_b   7.17628105
_cell_length_c   4.19111500
_cell_angle_alpha   90.00000000
_cell_angle_beta   90.00000000
_cell_angle_gamma   119.99999515
_symmetry_Int_Tables_number   1
_chemical_formula_structural   Li3Tb3ZnSi2
_chemical_formula_sum   'Li3 Tb3 Zn1 Si2'
_cell_volume   186.92146067
_cell_formula_units_Z   1
loop_
 _symmetry_equiv_pos_site_id
 _symmetry_equiv_pos_as_xyz
  1  'x, y, z'
loop_
 _atom_site_type_symbol
 _atom_site_label
 _atom_site_symmetry_multiplicity
 _atom_site_fract_x
 _atom_site_fract_y
 _atom_site_fract_z
 _atom_site_occupancy
  Li  Li0  1  0.753775  0.753775  0.500000  1
  Li  Li1  1  0.246225  0.000000  0.500000  1
  Li  Li2  1  0.000000  0.246225  0.500000  1
  Tb  Tb3  1  0.428998  0.428998  0.000000  1
  Tb  Tb4  1  0.571002  0.000000  0.000000  1
  Tb  Tb5  1  0.000000  0.571002  0.000000  1
  Zn  Zn6  1  0.000000  0.000000  0.000000  1
  Si  Si7  1  0.666667  0.333333  0.500000  1
  Si  Si8  1  0.333333  0.666667  0.500000  1
