# generated using pymatgen
data_YLu2Mg3SiHg2
_symmetry_space_group_name_H-M   'P 1'
_cell_length_a   7.38101775
_cell_length_b   7.40922268
_cell_length_c   4.31463000
_cell_angle_alpha   90.00000000
_cell_angle_beta   90.00000000
_cell_angle_gamma   119.53364400
_symmetry_Int_Tables_number   1
_chemical_formula_structural   YLu2Mg3SiHg2
_chemical_formula_sum   'Y1 Lu2 Mg3 Si1 Hg2'
_cell_volume   205.29806266
_cell_formula_units_Z   1
loop_
 _symmetry_equiv_pos_site_id
 _symmetry_equiv_pos_as_xyz
  1  'x, y, z'
loop_
 _atom_site_type_symbol
 _atom_site_label
 _atom_site_symmetry_multiplicity
 _atom_site_fract_x
 _atom_site_fract_y
 _atom_site_fract_z
 _atom_site_occupancy
  Y  Y0  1  0.578323  0.008752  0.000000  1
  Lu  Lu1  1  0.991946  0.570972  0.000000  1
  Lu  Lu2  1  0.428628  0.421209  0.000000  1
  Mg  Mg3  1  0.249914  0.002074  0.500000  1
  Mg  Mg4  1  0.998915  0.249510  0.500000  1
  Mg  Mg5  1  0.751118  0.748602  0.500000  1
  Si  Si6  1  0.667778  0.336617  0.500000  1
  Hg  Hg7  1  0.329984  0.662221  0.500000  1
  Hg  Hg8  1  0.003395  0.000042  0.000000  1
