# generated using pymatgen
data_Pm2Ir3Ru
_symmetry_space_group_name_H-M   'P 1'
_cell_length_a   5.38210540
_cell_length_b   5.38210551
_cell_length_c   5.38210515
_cell_angle_alpha   60.96852410
_cell_angle_beta   60.96852618
_cell_angle_gamma   60.96851797
_symmetry_Int_Tables_number   1
_chemical_formula_structural   Pm2Ir3Ru
_chemical_formula_sum   'Pm2 Ir3 Ru1'
_cell_volume   112.64610919
_cell_formula_units_Z   1
loop_
 _symmetry_equiv_pos_site_id
 _symmetry_equiv_pos_as_xyz
  1  'x, y, z'
loop_
 _atom_site_type_symbol
 _atom_site_label
 _atom_site_symmetry_multiplicity
 _atom_site_fract_x
 _atom_site_fract_y
 _atom_site_fract_z
 _atom_site_occupancy
  Pm  Pm0  1  0.750992  0.750992  0.750992  1
  Pm  Pm1  1  0.499008  0.499008  0.499008  1
  Ir  Ir2  1  0.625000  0.125000  0.125000  1
  Ir  Ir3  1  0.125000  0.625000  0.125000  1
  Ir  Ir4  1  0.125000  0.125000  0.625000  1
  Ru  Ru5  1  0.125000  0.125000  0.125000  1
