# generated using pymatgen
data_TbNd3Er2NiBr10
_symmetry_space_group_name_H-M   'P 1'
_cell_length_a   7.41896493
_cell_length_b   9.36343003
_cell_length_c   9.47995269
_cell_angle_alpha   107.89945945
_cell_angle_beta   95.32793949
_cell_angle_gamma   105.76630781
_symmetry_Int_Tables_number   1
_chemical_formula_structural   TbNd3Er2NiBr10
_chemical_formula_sum   'Tb1 Nd3 Er2 Ni1 Br10'
_cell_volume   591.80217979
_cell_formula_units_Z   1
loop_
 _symmetry_equiv_pos_site_id
 _symmetry_equiv_pos_as_xyz
  1  'x, y, z'
loop_
 _atom_site_type_symbol
 _atom_site_label
 _atom_site_symmetry_multiplicity
 _atom_site_fract_x
 _atom_site_fract_y
 _atom_site_fract_z
 _atom_site_occupancy
  Tb  Tb0  1  0.650837  0.869711  0.830130  1
  Nd  Nd1  1  0.133506  0.050849  0.756584  1
  Nd  Nd2  1  0.866793  0.950064  0.243777  1
  Nd  Nd3  1  0.970941  0.298372  0.095649  1
  Er  Er4  1  0.030766  0.713302  0.909109  1
  Er  Er5  1  0.346047  0.124419  0.167545  1
  Ni  Ni6  1  0.999972  0.000516  0.999824  1
  Br  Br7  1  0.550623  0.174488  0.919799  1
  Br  Br8  1  0.440980  0.821857  0.078987  1
  Br  Br9  1  0.362029  0.440602  0.267854  1
  Br  Br10  1  0.662573  0.555161  0.737283  1
  Br  Br11  1  0.252284  0.078214  0.441684  1
  Br  Br12  1  0.748355  0.919990  0.555551  1
  Br  Br13  1  0.754505  0.247235  0.339279  1
  Br  Br14  1  0.228801  0.744411  0.666577  1
  Br  Br15  1  0.086570  0.380230  0.827834  1
  Br  Br16  1  0.914416  0.630581  0.162535  1
