# generated using pymatgen
data_Cs2La3Nd7Os2Br17
_symmetry_space_group_name_H-M   'P 1'
_cell_length_a   9.62653980
_cell_length_b   11.26802547
_cell_length_c   11.30236227
_cell_angle_alpha   107.71183067
_cell_angle_beta   93.57262688
_cell_angle_gamma   93.55050143
_symmetry_Int_Tables_number   1
_chemical_formula_structural   Cs2La3Nd7Os2Br17
_chemical_formula_sum   'Cs2 La3 Nd7 Os2 Br17'
_cell_volume   1161.38172834
_cell_formula_units_Z   1
loop_
 _symmetry_equiv_pos_site_id
 _symmetry_equiv_pos_as_xyz
  1  'x, y, z'
loop_
 _atom_site_type_symbol
 _atom_site_label
 _atom_site_symmetry_multiplicity
 _atom_site_fract_x
 _atom_site_fract_y
 _atom_site_fract_z
 _atom_site_occupancy
  Cs  Cs0  1  0.000829  0.823041  0.178594  1
  Cs  Cs1  1  0.000577  0.178691  0.823081  1
  La  La2  1  0.166381  0.710533  0.709828  1
  La  La3  1  0.425799  0.487556  0.797054  1
  La  La4  1  0.562120  0.839642  0.839009  1
  Nd  Nd5  1  0.439888  0.165858  0.167303  1
  Nd  Nd6  1  0.575551  0.512557  0.199641  1
  Nd  Nd7  1  0.825762  0.291147  0.291189  1
  Nd  Nd8  1  0.309348  0.431743  0.431086  1
  Nd  Nd9  1  0.426229  0.795125  0.488815  1
  Nd  Nd10  1  0.575441  0.198189  0.511036  1
  Nd  Nd11  1  0.690929  0.562086  0.561357  1
  Os  Os12  1  0.569689  0.358725  0.358614  1
  Os  Os13  1  0.426777  0.643302  0.646474  1
  Br  Br14  1  0.579945  0.687892  0.022549  1
  Br  Br15  1  0.714937  0.069463  0.069255  1
  Br  Br16  1  0.855331  0.450049  0.120810  1
  Br  Br17  1  0.135869  0.208879  0.208765  1
  Br  Br18  1  0.285892  0.604437  0.256336  1
  Br  Br19  1  0.422209  0.978518  0.315075  1
  Br  Br20  1  0.714703  0.744126  0.395959  1
  Br  Br21  1  0.855691  0.120321  0.449587  1
  Br  Br22  1  0.997830  0.497673  0.497474  1
  Br  Br23  1  0.147562  0.881387  0.546988  1
  Br  Br24  1  0.283951  0.253546  0.600029  1
  Br  Br25  1  0.576927  0.019284  0.683053  1
  Br  Br26  1  0.718549  0.394137  0.741057  1
  Br  Br27  1  0.867313  0.792649  0.791860  1
  Br  Br28  1  0.141727  0.549468  0.881979  1
  Br  Br29  1  0.284181  0.935757  0.935459  1
  Br  Br30  1  0.422065  0.314218  0.980684  1
