# generated using pymatgen
data_CeDyBeSi4Ni
_symmetry_space_group_name_H-M   'P 1'
_cell_length_a   8.39875496
_cell_length_b   8.39875435
_cell_length_c   3.98843500
_cell_angle_alpha   90.00000000
_cell_angle_beta   90.00000000
_cell_angle_gamma   151.97349082
_symmetry_Int_Tables_number   1
_chemical_formula_structural   CeDyBeSi4Ni
_chemical_formula_sum   'Ce1 Dy1 Be1 Si4 Ni1'
_cell_volume   132.19629832
_cell_formula_units_Z   1
loop_
 _symmetry_equiv_pos_site_id
 _symmetry_equiv_pos_as_xyz
  1  'x, y, z'
loop_
 _atom_site_type_symbol
 _atom_site_label
 _atom_site_symmetry_multiplicity
 _atom_site_fract_x
 _atom_site_fract_y
 _atom_site_fract_z
 _atom_site_occupancy
  Ce  Ce0  1  0.108628  0.891372  0.250000  1
  Dy  Dy1  1  0.897760  0.102240  0.750000  1
  Be  Be2  1  0.674208  0.325792  0.750000  1
  Si  Si3  1  0.751643  0.248357  0.250000  1
  Si  Si4  1  0.250074  0.749926  0.750000  1
  Si  Si5  1  0.538087  0.461913  0.750000  1
  Si  Si6  1  0.459744  0.540256  0.250000  1
  Ni  Ni7  1  0.319855  0.680145  0.250000  1
