# generated using pymatgen
data_Re2Sb7W
_symmetry_space_group_name_H-M   'P 1'
_cell_length_a   8.29632550
_cell_length_b   8.29632565
_cell_length_c   8.29468439
_cell_angle_alpha   109.57654288
_cell_angle_beta   109.57654666
_cell_angle_gamma   109.26880609
_symmetry_Int_Tables_number   1
_chemical_formula_structural   Re2Sb7W
_chemical_formula_sum   'Re4 Sb14 W2'
_cell_volume   439.44272654
_cell_formula_units_Z   2
loop_
 _symmetry_equiv_pos_site_id
 _symmetry_equiv_pos_as_xyz
  1  'x, y, z'
loop_
 _atom_site_type_symbol
 _atom_site_label
 _atom_site_symmetry_multiplicity
 _atom_site_fract_x
 _atom_site_fract_y
 _atom_site_fract_z
 _atom_site_occupancy
  Re  Re0  1  0.000033  0.660610  0.660643  1
  Re  Re1  1  0.342165  0.342165  0.000199  1
  Re  Re2  1  0.658034  0.658034  0.000199  1
  Re  Re3  1  0.660610  0.000033  0.660643  1
  Sb  Sb4  1  0.749773  0.499388  0.249161  1
  Sb  Sb5  1  0.499388  0.749773  0.249161  1
  Sb  Sb6  1  0.499489  0.250987  0.750477  1
  Sb  Sb7  1  0.749470  0.249470  0.498942  1
  Sb  Sb8  1  0.249470  0.749470  0.498942  1
  Sb  Sb9  1  0.250987  0.499489  0.750477  1
  Sb  Sb10  1  0.999553  0.999553  0.326243  1
  Sb  Sb11  1  0.672679  0.999619  0.999431  1
  Sb  Sb12  1  0.999619  0.672679  0.999431  1
  Sb  Sb13  1  0.326690  0.326690  0.326243  1
  Sb  Sb14  1  0.999812  0.326753  0.999431  1
  Sb  Sb15  1  0.672683  0.672683  0.672462  1
  Sb  Sb16  1  0.326753  0.999812  0.999431  1
  Sb  Sb17  1  0.999779  0.999779  0.672462  1
  W  W18  1  0.342853  0.000160  0.343012  1
  W  W19  1  0.000160  0.342853  0.343012  1
