# generated using pymatgen
data_Zr12Nb8Si15Ge
_symmetry_space_group_name_H-M   'P 1'
_cell_length_a   6.99178664
_cell_length_b   6.99077733
_cell_length_c   12.89324869
_cell_angle_alpha   90.36460172
_cell_angle_beta   89.90552845
_cell_angle_gamma   89.99515547
_symmetry_Int_Tables_number   1
_chemical_formula_structural   Zr12Nb8Si15Ge
_chemical_formula_sum   'Zr12 Nb8 Si15 Ge1'
_cell_volume   630.18289458
_cell_formula_units_Z   1
loop_
 _symmetry_equiv_pos_site_id
 _symmetry_equiv_pos_as_xyz
  1  'x, y, z'
loop_
 _atom_site_type_symbol
 _atom_site_label
 _atom_site_symmetry_multiplicity
 _atom_site_fract_x
 _atom_site_fract_y
 _atom_site_fract_z
 _atom_site_occupancy
  Zr  Zr0  1  0.650397  0.496431  0.876492  1
  Zr  Zr1  1  0.503031  0.351026  0.622970  1
  Zr  Zr2  1  0.499670  0.647636  0.125182  1
  Zr  Zr3  1  0.147277  0.999555  0.873721  1
  Zr  Zr4  1  0.001628  0.652802  0.036859  1
  Zr  Zr5  1  0.000461  0.343644  0.530938  1
  Zr  Zr6  1  0.654409  0.999346  0.967346  1
  Zr  Zr7  1  0.152076  0.498354  0.782159  1
  Zr  Zr8  1  0.844281  0.499155  0.281491  1
  Zr  Zr9  1  0.500497  0.154348  0.219814  1
  Zr  Zr10  1  0.502063  0.846496  0.714440  1
  Zr  Zr11  1  0.344856  0.002104  0.466943  1
  Nb  Nb12  1  0.352614  0.505995  0.375096  1
  Nb  Nb13  1  0.850749  0.000709  0.372992  1
  Nb  Nb14  1  0.006849  0.148652  0.127030  1
  Nb  Nb15  1  0.995465  0.852003  0.626334  1
  Nb  Nb16  1  0.669481  0.673640  0.498830  1
  Nb  Nb17  1  0.828720  0.171460  0.748518  1
  Nb  Nb18  1  0.172375  0.831555  0.250403  1
  Nb  Nb19  1  0.327726  0.325350  0.001428  1
  Si  Si20  1  0.955309  0.298645  0.938414  1
  Si  Si21  1  0.705393  0.045247  0.561307  1
  Si  Si22  1  0.201129  0.449958  0.188026  1
  Si  Si23  1  0.801794  0.549970  0.683911  1
  Si  Si24  1  0.452403  0.197773  0.813745  1
  Si  Si25  1  0.549211  0.800064  0.315360  1
  Si  Si26  1  0.299491  0.955226  0.065048  1
  Si  Si27  1  0.855020  0.795956  0.818214  1
  Si  Si28  1  0.138382  0.209000  0.323457  1
  Si  Si29  1  0.797478  0.865250  0.179751  1
  Si  Si30  1  0.291386  0.642642  0.572976  1
  Si  Si31  1  0.710066  0.352753  0.074177  1
  Si  Si32  1  0.637983  0.293634  0.424982  1
  Si  Si33  1  0.354552  0.701854  0.929759  1
  Si  Si34  1  0.202049  0.139017  0.676474  1
  Ge  Ge35  1  0.043725  0.702753  0.435416  1
