# generated using pymatgen
data_Lu6Ti2Co21
_symmetry_space_group_name_H-M   'P 1'
_cell_length_a   8.30912846
_cell_length_b   8.31646004
_cell_length_c   8.30912799
_cell_angle_alpha   120.02919233
_cell_angle_beta   89.69973663
_cell_angle_gamma   120.02919401
_symmetry_Int_Tables_number   1
_chemical_formula_structural   Lu6Ti2Co21
_chemical_formula_sum   'Lu6 Ti2 Co21'
_cell_volume   406.70342434
_cell_formula_units_Z   1
loop_
 _symmetry_equiv_pos_site_id
 _symmetry_equiv_pos_as_xyz
  1  'x, y, z'
loop_
 _atom_site_type_symbol
 _atom_site_label
 _atom_site_symmetry_multiplicity
 _atom_site_fract_x
 _atom_site_fract_y
 _atom_site_fract_z
 _atom_site_occupancy
  Lu  Lu0  1  0.713500  0.000000  0.286501  1
  Lu  Lu1  1  0.292727  0.010621  0.292727  1
  Lu  Lu2  1  0.292727  0.574832  0.292727  1
  Lu  Lu3  1  0.707274  0.989379  0.707274  1
  Lu  Lu4  1  0.286501  0.000000  0.713500  1
  Lu  Lu5  1  0.707275  0.425170  0.707275  1
  Ti  Ti6  1  0.000000  0.000000  0.000000  1
  Ti  Ti7  1  0.000000  0.500000  0.000000  1
  Co  Co8  1  0.500000  0.000000  0.000000  1
  Co  Co9  1  0.500000  0.500000  0.000000  1
  Co  Co10  1  0.673050  0.350741  0.028434  1
  Co  Co11  1  0.374869  0.249981  0.125093  1
  Co  Co12  1  0.874828  0.245378  0.125170  1
  Co  Co13  1  0.874828  0.754620  0.125170  1
  Co  Co14  1  0.677115  0.352590  0.322885  1
  Co  Co15  1  0.677115  0.647410  0.322885  1
  Co  Co16  1  0.971566  0.649259  0.326950  1
  Co  Co17  1  0.125093  0.249981  0.374869  1
  Co  Co18  1  0.000000  0.000000  0.500000  1
  Co  Co19  1  0.000000  0.500000  0.500000  1
  Co  Co20  1  0.500000  0.500000  0.500000  1
  Co  Co21  1  0.874905  0.750017  0.625129  1
  Co  Co22  1  0.028434  0.350741  0.673050  1
  Co  Co23  1  0.322885  0.352590  0.677115  1
  Co  Co24  1  0.322885  0.647410  0.677115  1
  Co  Co25  1  0.125170  0.245378  0.874828  1
  Co  Co26  1  0.125170  0.754620  0.874828  1
  Co  Co27  1  0.625129  0.750017  0.874905  1
  Co  Co28  1  0.326950  0.649259  0.971566  1
