# generated using pymatgen
data_BaMn7ZnO16
_symmetry_space_group_name_H-M   'P 1'
_cell_length_a   5.86112265
_cell_length_b   7.13544031
_cell_length_c   7.25021600
_cell_angle_alpha   88.56716716
_cell_angle_beta   78.36138066
_cell_angle_gamma   78.06300496
_symmetry_Int_Tables_number   1
_chemical_formula_structural   BaMn7ZnO16
_chemical_formula_sum   'Ba1 Mn7 Zn1 O16'
_cell_volume   290.51572350
_cell_formula_units_Z   1
loop_
 _symmetry_equiv_pos_site_id
 _symmetry_equiv_pos_as_xyz
  1  'x, y, z'
loop_
 _atom_site_type_symbol
 _atom_site_label
 _atom_site_symmetry_multiplicity
 _atom_site_fract_x
 _atom_site_fract_y
 _atom_site_fract_z
 _atom_site_occupancy
  Ba  Ba0  1  0.997819  0.996702  0.000571  1
  Mn  Mn1  1  0.081482  0.507300  0.180706  1
  Mn  Mn2  1  0.172897  0.817288  0.518126  1
  Mn  Mn3  1  0.666834  0.820301  0.524056  1
  Mn  Mn4  1  0.336043  0.187074  0.477605  1
  Mn  Mn5  1  0.839022  0.185069  0.484819  1
  Mn  Mn6  1  0.429613  0.486124  0.819368  1
  Mn  Mn7  1  0.925222  0.492052  0.819768  1
  Zn  Zn8  1  0.578148  0.516191  0.190329  1
  O  O9  1  0.849557  0.646548  0.043359  1
  O  O10  1  0.313486  0.643906  0.042895  1
  O  O11  1  0.981101  0.706551  0.379116  1
  O  O12  1  0.481614  0.709800  0.395647  1
  O  O13  1  0.856551  0.956790  0.647525  1
  O  O14  1  0.350362  0.959631  0.646877  1
  O  O15  1  0.329369  0.364115  0.288699  1
  O  O16  1  0.857118  0.354059  0.283243  1
  O  O17  1  0.168384  0.632521  0.714548  1
  O  O18  1  0.665290  0.633821  0.718904  1
  O  O19  1  0.152481  0.040703  0.358939  1
  O  O20  1  0.656683  0.042865  0.360121  1
  O  O21  1  0.028058  0.294387  0.620380  1
  O  O22  1  0.524525  0.301462  0.611162  1
  O  O23  1  0.177614  0.352677  0.944596  1
  O  O24  1  0.687826  0.352059  0.928636  1
