# generated using pymatgen
data_Rb6TbLuI12
_symmetry_space_group_name_H-M   'P 1'
_cell_length_a   10.42734300
_cell_length_b   10.42235016
_cell_length_c   8.64593200
_cell_angle_alpha   90.00000000
_cell_angle_beta   90.00000000
_cell_angle_gamma   89.94878076
_symmetry_Int_Tables_number   1
_chemical_formula_structural   Rb6TbLuI12
_chemical_formula_sum   'Rb6 Tb1 Lu1 I12'
_cell_volume   939.61720808
_cell_formula_units_Z   1
loop_
 _symmetry_equiv_pos_site_id
 _symmetry_equiv_pos_as_xyz
  1  'x, y, z'
loop_
 _atom_site_type_symbol
 _atom_site_label
 _atom_site_symmetry_multiplicity
 _atom_site_fract_x
 _atom_site_fract_y
 _atom_site_fract_z
 _atom_site_occupancy
  Rb  Rb0  1  0.000000  0.000000  0.500000  1
  Rb  Rb1  1  0.000000  0.000000  0.000000  1
  Rb  Rb2  1  0.234406  0.586061  0.500000  1
  Rb  Rb3  1  0.765594  0.413939  0.500000  1
  Rb  Rb4  1  0.413802  0.233047  0.000000  1
  Rb  Rb5  1  0.586198  0.766953  0.000000  1
  Tb  Tb6  1  0.000000  0.500000  0.000000  1
  Lu  Lu7  1  0.500000  0.000000  0.500000  1
  I  I8  1  0.695984  0.057549  0.745160  1
  I  I9  1  0.304016  0.942451  0.745160  1
  I  I10  1  0.941438  0.699730  0.249522  1
  I  I11  1  0.058562  0.300270  0.249522  1
  I  I12  1  0.304016  0.942451  0.254840  1
  I  I13  1  0.695984  0.057549  0.254840  1
  I  I14  1  0.058562  0.300270  0.750478  1
  I  I15  1  0.941438  0.699730  0.750478  1
  I  I16  1  0.569654  0.722165  0.500000  1
  I  I17  1  0.430346  0.277835  0.500000  1
  I  I18  1  0.283204  0.570235  0.000000  1
  I  I19  1  0.716796  0.429765  0.000000  1
