# generated using pymatgen
data_Nd4BeB15Ru14
_symmetry_space_group_name_H-M   'P 1'
_cell_length_a   6.47354105
_cell_length_b   6.49839906
_cell_length_c   10.11487300
_cell_angle_alpha   90.00000000
_cell_angle_beta   90.00000000
_cell_angle_gamma   90.01488489
_symmetry_Int_Tables_number   1
_chemical_formula_structural   Nd4BeB15Ru14
_chemical_formula_sum   'Nd4 Be1 B15 Ru14'
_cell_volume   425.50895386
_cell_formula_units_Z   1
loop_
 _symmetry_equiv_pos_site_id
 _symmetry_equiv_pos_as_xyz
  1  'x, y, z'
loop_
 _atom_site_type_symbol
 _atom_site_label
 _atom_site_symmetry_multiplicity
 _atom_site_fract_x
 _atom_site_fract_y
 _atom_site_fract_z
 _atom_site_occupancy
  Nd  Nd0  1  0.734350  0.877343  0.000862  1
  Nd  Nd1  1  0.126777  0.736147  0.498368  1
  Nd  Nd2  1  0.873223  0.263853  0.498368  1
  Nd  Nd3  1  0.265650  0.122657  0.000862  1
  Be  Be4  1  0.500000  0.500000  0.349740  1
  B  B5  1  0.500000  0.000000  0.589310  1
  B  B6  1  0.500000  0.000000  0.410488  1
  B  B7  1  0.896331  0.276686  0.170657  1
  B  B8  1  0.102321  0.723985  0.830710  1
  B  B9  1  0.500000  0.500000  0.840590  1
  B  B10  1  0.274058  0.099770  0.671460  1
  B  B11  1  0.103669  0.723314  0.170657  1
  B  B12  1  0.277148  0.104243  0.328316  1
  B  B13  1  0.897679  0.276015  0.830710  1
  B  B14  1  0.500000  0.500000  0.655530  1
  B  B15  1  0.500000  0.500000  0.158217  1
  B  B16  1  0.000000  0.500000  0.910776  1
  B  B17  1  0.725942  0.900230  0.671460  1
  B  B18  1  0.722852  0.895757  0.328316  1
  B  B19  1  0.000000  0.500000  0.087311  1
  Ru  Ru20  1  0.204755  0.399068  0.753171  1
  Ru  Ru21  1  0.387716  0.276849  0.504551  1
  Ru  Ru22  1  0.400106  0.798397  0.249537  1
  Ru  Ru23  1  0.201994  0.397602  0.243966  1
  Ru  Ru24  1  0.612284  0.723151  0.504551  1
  Ru  Ru25  1  0.600448  0.204697  0.747900  1
  Ru  Ru26  1  0.286246  0.600667  0.999125  1
  Ru  Ru27  1  0.713754  0.399333  0.999125  1
  Ru  Ru28  1  0.798006  0.602398  0.243966  1
  Ru  Ru29  1  0.795245  0.600932  0.753171  1
  Ru  Ru30  1  0.399552  0.795303  0.747900  1
  Ru  Ru31  1  0.000000  0.000000  0.248555  1
  Ru  Ru32  1  0.599894  0.201603  0.249537  1
  Ru  Ru33  1  0.000000  0.000000  0.752239  1
