# generated using pymatgen
data_Dy2MgB2Rh5
_symmetry_space_group_name_H-M   'P 1'
_cell_length_a   9.63711900
_cell_length_b   9.63711900
_cell_length_c   3.18245400
_cell_angle_alpha   90.00000000
_cell_angle_beta   90.00000000
_cell_angle_gamma   90.00000000
_symmetry_Int_Tables_number   1
_chemical_formula_structural   Dy2MgB2Rh5
_chemical_formula_sum   'Dy4 Mg2 B4 Rh10'
_cell_volume   295.56743208
_cell_formula_units_Z   2
loop_
 _symmetry_equiv_pos_site_id
 _symmetry_equiv_pos_as_xyz
  1  'x, y, z'
loop_
 _atom_site_type_symbol
 _atom_site_label
 _atom_site_symmetry_multiplicity
 _atom_site_fract_x
 _atom_site_fract_y
 _atom_site_fract_z
 _atom_site_occupancy
  Dy  Dy0  1  0.675404  0.175404  0.000000  1
  Dy  Dy1  1  0.324596  0.824596  0.000000  1
  Dy  Dy2  1  0.175404  0.324596  0.000000  1
  Dy  Dy3  1  0.824596  0.675404  0.000000  1
  Mg  Mg4  1  0.000000  0.000000  0.000000  1
  Mg  Mg5  1  0.500000  0.500000  0.000000  1
  B  B6  1  0.122826  0.622826  0.000000  1
  B  B7  1  0.877174  0.377174  0.000000  1
  B  B8  1  0.622826  0.877174  0.000000  1
  B  B9  1  0.377174  0.122826  0.000000  1
  Rh  Rh10  1  0.500000  0.000000  0.500000  1
  Rh  Rh11  1  0.000000  0.500000  0.500000  1
  Rh  Rh12  1  0.224156  0.070460  0.500000  1
  Rh  Rh13  1  0.775844  0.929540  0.500000  1
  Rh  Rh14  1  0.070460  0.775844  0.500000  1
  Rh  Rh15  1  0.724156  0.429540  0.500000  1
  Rh  Rh16  1  0.929540  0.224156  0.500000  1
  Rh  Rh17  1  0.275844  0.570460  0.500000  1
  Rh  Rh18  1  0.570460  0.724156  0.500000  1
  Rh  Rh19  1  0.429540  0.275844  0.500000  1
