# generated using pymatgen
data_Sr3Te2(ClO3)2
_symmetry_space_group_name_H-M   'P 1'
_cell_length_a   8.81100453
_cell_length_b   8.81100427
_cell_length_c   11.14740691
_cell_angle_alpha   75.34700718
_cell_angle_beta   75.34700809
_cell_angle_gamma   37.86864971
_symmetry_Int_Tables_number   1
_chemical_formula_structural   Sr3Te2(ClO3)2
_chemical_formula_sum   'Sr6 Te4 Cl4 O12'
_cell_volume   511.88837479
_cell_formula_units_Z   2
loop_
 _symmetry_equiv_pos_site_id
 _symmetry_equiv_pos_as_xyz
  1  'x, y, z'
loop_
 _atom_site_type_symbol
 _atom_site_label
 _atom_site_symmetry_multiplicity
 _atom_site_fract_x
 _atom_site_fract_y
 _atom_site_fract_z
 _atom_site_occupancy
  Sr  Sr0  1  0.664056  0.664056  0.604334  1
  Sr  Sr1  1  0.740653  0.740653  0.206732  1
  Sr  Sr2  1  0.335944  0.335944  0.395666  1
  Sr  Sr3  1  0.984778  0.984778  0.187967  1
  Sr  Sr4  1  0.015222  0.015222  0.812033  1
  Sr  Sr5  1  0.259347  0.259347  0.793268  1
  Te  Te6  1  0.395576  0.395576  0.057986  1
  Te  Te7  1  0.879204  0.879204  0.582901  1
  Te  Te8  1  0.120796  0.120796  0.417099  1
  Te  Te9  1  0.604424  0.604424  0.942014  1
  Cl  Cl10  1  0.180028  0.180028  0.096466  1
  Cl  Cl11  1  0.534428  0.534428  0.285838  1
  Cl  Cl12  1  0.465572  0.465572  0.714162  1
  Cl  Cl13  1  0.819972  0.819972  0.903534  1
  O  O14  1  0.555797  0.044262  0.601959  1
  O  O15  1  0.910623  0.910623  0.408523  1
  O  O16  1  0.403106  0.869425  0.812372  1
  O  O17  1  0.444203  0.955738  0.398041  1
  O  O18  1  0.130575  0.596894  0.187628  1
  O  O19  1  0.044262  0.555797  0.601959  1
  O  O20  1  0.869425  0.403106  0.812372  1
  O  O21  1  0.596894  0.130575  0.187628  1
  O  O22  1  0.283880  0.716120  0.000000  1
  O  O23  1  0.089378  0.089377  0.591477  1
  O  O24  1  0.955738  0.444203  0.398041  1
  O  O25  1  0.716120  0.283880  0.000000  1
