# generated using pymatgen
data_LiNd6NiCl12
_symmetry_space_group_name_H-M   'P 1'
_cell_length_a   8.94977145
_cell_length_b   9.13777513
_cell_length_c   9.11785400
_cell_angle_alpha   108.02811561
_cell_angle_beta   107.72816317
_cell_angle_gamma   107.74936945
_symmetry_Int_Tables_number   1
_chemical_formula_structural   LiNd6NiCl12
_chemical_formula_sum   'Li1 Nd6 Ni1 Cl12'
_cell_volume   606.28991900
_cell_formula_units_Z   1
loop_
 _symmetry_equiv_pos_site_id
 _symmetry_equiv_pos_as_xyz
  1  'x, y, z'
loop_
 _atom_site_type_symbol
 _atom_site_label
 _atom_site_symmetry_multiplicity
 _atom_site_fract_x
 _atom_site_fract_y
 _atom_site_fract_z
 _atom_site_occupancy
  Li  Li0  1  0.500000  0.500000  0.500000  1
  Nd  Nd1  1  0.325011  0.118513  0.034408  1
  Nd  Nd2  1  0.034785  0.335132  0.125907  1
  Nd  Nd3  1  0.126831  0.036845  0.335705  1
  Nd  Nd4  1  0.873168  0.963155  0.664295  1
  Nd  Nd5  1  0.965215  0.664868  0.874092  1
  Nd  Nd6  1  0.674989  0.881487  0.965591  1
  Ni  Ni7  1  0.000000  0.000000  0.000000  1
  Cl  Cl8  1  0.683241  0.213984  0.069449  1
  Cl  Cl9  1  0.382826  0.461161  0.179541  1
  Cl  Cl10  1  0.071557  0.688791  0.213667  1
  Cl  Cl11  1  0.783330  0.928137  0.311694  1
  Cl  Cl12  1  0.468478  0.181248  0.382731  1
  Cl  Cl13  1  0.178053  0.381052  0.463956  1
  Cl  Cl14  1  0.821948  0.618948  0.536045  1
  Cl  Cl15  1  0.531522  0.818753  0.617269  1
  Cl  Cl16  1  0.216669  0.071863  0.688306  1
  Cl  Cl17  1  0.928443  0.311209  0.786332  1
  Cl  Cl18  1  0.617175  0.538840  0.820459  1
  Cl  Cl19  1  0.316759  0.786015  0.930551  1
