# generated using pymatgen
data_Tm20AsRu7Au4
_symmetry_space_group_name_H-M   'P 1'
_cell_length_a   10.88448719
_cell_length_b   10.88448775
_cell_length_c   6.35493700
_cell_angle_alpha   89.96365218
_cell_angle_beta   89.96365218
_cell_angle_gamma   92.61210195
_symmetry_Int_Tables_number   1
_chemical_formula_structural   Tm20AsRu7Au4
_chemical_formula_sum   'Tm20 As1 Ru7 Au4'
_cell_volume   752.09993745
_cell_formula_units_Z   1
loop_
 _symmetry_equiv_pos_site_id
 _symmetry_equiv_pos_as_xyz
  1  'x, y, z'
loop_
 _atom_site_type_symbol
 _atom_site_label
 _atom_site_symmetry_multiplicity
 _atom_site_fract_x
 _atom_site_fract_y
 _atom_site_fract_z
 _atom_site_occupancy
  Tm  Tm0  1  0.298031  0.075609  0.361068  1
  Tm  Tm1  1  0.292562  0.913057  0.874569  1
  Tm  Tm2  1  0.709034  0.095837  0.878603  1
  Tm  Tm3  1  0.701972  0.927434  0.363206  1
  Tm  Tm4  1  0.576992  0.804135  0.864479  1
  Tm  Tm5  1  0.595513  0.206017  0.371326  1
  Tm  Tm6  1  0.407717  0.798895  0.370665  1
  Tm  Tm7  1  0.428457  0.203559  0.860509  1
  Tm  Tm8  1  0.195865  0.423008  0.635521  1
  Tm  Tm9  1  0.201105  0.592283  0.129335  1
  Tm  Tm10  1  0.793983  0.404487  0.128674  1
  Tm  Tm11  1  0.796441  0.571543  0.639491  1
  Tm  Tm12  1  0.924391  0.701969  0.138932  1
  Tm  Tm13  1  0.904163  0.290966  0.621397  1
  Tm  Tm14  1  0.086943  0.707438  0.625431  1
  Tm  Tm15  1  0.072566  0.298028  0.136794  1
  Tm  Tm16  1  0.000982  0.999898  0.495876  1
  Tm  Tm17  1  0.000102  0.999018  0.004124  1
  Tm  Tm18  1  0.509666  0.495150  0.998162  1
  Tm  Tm19  1  0.504850  0.490334  0.501838  1
  As  As20  1  0.348085  0.651915  0.750000  1
  Ru  Ru21  1  0.851651  0.148349  0.250000  1
  Ru  Ru22  1  0.149344  0.850656  0.250000  1
  Ru  Ru23  1  0.650706  0.349294  0.750000  1
  Ru  Ru24  1  0.499887  0.999174  0.116485  1
  Ru  Ru25  1  0.501264  0.001829  0.618283  1
  Ru  Ru26  1  0.998171  0.498736  0.881717  1
  Ru  Ru27  1  0.000826  0.500113  0.383515  1
  Au  Au28  1  0.840563  0.839449  0.749075  1
  Au  Au29  1  0.160551  0.159437  0.750925  1
  Au  Au30  1  0.657968  0.660352  0.253823  1
  Au  Au31  1  0.339648  0.342032  0.246177  1
