# generated using pymatgen
data_ZrSc3Ti2(NbP2)2
_symmetry_space_group_name_H-M   'P 1'
_cell_length_a   3.60570500
_cell_length_b   6.84278450
_cell_length_c   8.23900153
_cell_angle_alpha   89.79607303
_cell_angle_beta   90.00000000
_cell_angle_gamma   90.00000000
_symmetry_Int_Tables_number   1
_chemical_formula_structural   ZrSc3Ti2(NbP2)2
_chemical_formula_sum   'Zr1 Sc3 Ti2 Nb2 P4'
_cell_volume   203.28011022
_cell_formula_units_Z   1
loop_
 _symmetry_equiv_pos_site_id
 _symmetry_equiv_pos_as_xyz
  1  'x, y, z'
loop_
 _atom_site_type_symbol
 _atom_site_label
 _atom_site_symmetry_multiplicity
 _atom_site_fract_x
 _atom_site_fract_y
 _atom_site_fract_z
 _atom_site_occupancy
  Zr  Zr0  1  0.750000  0.457532  0.167978  1
  Sc  Sc1  1  0.250000  0.538599  0.837225  1
  Sc  Sc2  1  0.750000  0.957621  0.332749  1
  Sc  Sc3  1  0.250000  0.038966  0.663904  1
  Ti  Ti4  1  0.750000  0.869339  0.942478  1
  Ti  Ti5  1  0.750000  0.371798  0.555532  1
  Nb  Nb6  1  0.250000  0.135558  0.055485  1
  Nb  Nb7  1  0.250000  0.634655  0.445109  1
  P  P8  1  0.750000  0.742323  0.646734  1
  P  P9  1  0.250000  0.757168  0.136010  1
  P  P10  1  0.750000  0.241794  0.853544  1
  P  P11  1  0.250000  0.254646  0.363253  1
