# generated using pymatgen
data_Ni9Mo12P3C2
_symmetry_space_group_name_H-M   'P 1'
_cell_length_a   7.64282113
_cell_length_b   7.70375446
_cell_length_c   7.64282100
_cell_angle_alpha   60.26129940
_cell_angle_beta   59.99999622
_cell_angle_gamma   60.26130312
_symmetry_Int_Tables_number   1
_chemical_formula_structural   Ni9Mo12P3C2
_chemical_formula_sum   'Ni9 Mo12 P3 C2'
_cell_volume   319.44701700
_cell_formula_units_Z   1
loop_
 _symmetry_equiv_pos_site_id
 _symmetry_equiv_pos_as_xyz
  1  'x, y, z'
loop_
 _atom_site_type_symbol
 _atom_site_label
 _atom_site_symmetry_multiplicity
 _atom_site_fract_x
 _atom_site_fract_y
 _atom_site_fract_z
 _atom_site_occupancy
  Ni  Ni0  1  0.334714  0.324029  0.006543  1
  Ni  Ni1  1  0.334714  0.324029  0.334714  1
  Ni  Ni2  1  0.243457  0.925971  0.915286  1
  Ni  Ni3  1  0.915286  0.925971  0.915286  1
  Ni  Ni4  1  0.006543  0.324029  0.334714  1
  Ni  Ni5  1  0.333177  0.000467  0.333177  1
  Ni  Ni6  1  0.125000  0.625000  0.125000  1
  Ni  Ni7  1  0.915286  0.925971  0.243457  1
  Ni  Ni8  1  0.916823  0.249533  0.916823  1
  Mo  Mo9  1  0.303524  0.693940  0.699012  1
  Mo  Mo10  1  0.699012  0.693940  0.303524  1
  Mo  Mo11  1  0.694216  0.304484  0.694216  1
  Mo  Mo12  1  0.303524  0.693940  0.303524  1
  Mo  Mo13  1  0.555784  0.945516  0.555784  1
  Mo  Mo14  1  0.555784  0.945516  0.942916  1
  Mo  Mo15  1  0.946476  0.556060  0.550988  1
  Mo  Mo16  1  0.946476  0.556060  0.946476  1
  Mo  Mo17  1  0.307084  0.304484  0.694216  1
  Mo  Mo18  1  0.550988  0.556060  0.946476  1
  Mo  Mo19  1  0.942916  0.945516  0.555784  1
  Mo  Mo20  1  0.694216  0.304484  0.307084  1
  P  P21  1  0.125000  0.125000  0.625000  1
  P  P22  1  0.625000  0.125000  0.125000  1
  P  P23  1  0.125000  0.125000  0.125000  1
  C  C24  1  0.498573  0.504282  0.498573  1
  C  C25  1  0.751427  0.745718  0.751427  1
