# generated using pymatgen
data_Dy5Th9OsRu5
_symmetry_space_group_name_H-M   'P 1'
_cell_length_a   9.79161339
_cell_length_b   9.93276221
_cell_length_c   6.36078589
_cell_angle_alpha   90.05703169
_cell_angle_beta   90.15098227
_cell_angle_gamma   120.47306992
_symmetry_Int_Tables_number   1
_chemical_formula_structural   Dy5Th9OsRu5
_chemical_formula_sum   'Dy5 Th9 Os1 Ru5'
_cell_volume   533.17839087
_cell_formula_units_Z   1
loop_
 _symmetry_equiv_pos_site_id
 _symmetry_equiv_pos_as_xyz
  1  'x, y, z'
loop_
 _atom_site_type_symbol
 _atom_site_label
 _atom_site_symmetry_multiplicity
 _atom_site_fract_x
 _atom_site_fract_y
 _atom_site_fract_z
 _atom_site_occupancy
  Dy  Dy0  1  0.461279  0.537507  0.298022  1
  Dy  Dy1  1  0.073101  0.535820  0.300940  1
  Dy  Dy2  1  0.923661  0.459640  0.799651  1
  Dy  Dy3  1  0.250936  0.125276  0.508062  1
  Dy  Dy4  1  0.540656  0.078207  0.794956  1
  Th  Th5  1  0.748154  0.876942  0.011677  1
  Th  Th6  1  0.666418  0.332515  0.270879  1
  Th  Th7  1  0.128448  0.873652  0.004884  1
  Th  Th8  1  0.459388  0.922657  0.302026  1
  Th  Th9  1  0.535466  0.459975  0.797256  1
  Th  Th10  1  0.879455  0.131887  0.513054  1
  Th  Th11  1  0.125763  0.251084  0.011379  1
  Th  Th12  1  0.875676  0.747114  0.507876  1
  Th  Th13  1  0.332781  0.666432  0.770048  1
  Os  Os14  1  0.810438  0.628269  0.048339  1
  Ru  Ru15  1  0.818526  0.180868  0.051952  1
  Ru  Ru16  1  0.632189  0.820449  0.542833  1
  Ru  Ru17  1  0.370906  0.189477  0.041380  1
  Ru  Ru18  1  0.182338  0.374261  0.559776  1
  Ru  Ru19  1  0.184421  0.807969  0.549004  1
