# generated using pymatgen
data_Na3Al(PO4)2
_symmetry_space_group_name_H-M   'P 1'
_cell_length_a   8.77006330
_cell_length_b   8.80846898
_cell_length_c   9.14877600
_cell_angle_alpha   89.27664707
_cell_angle_beta   70.71959638
_cell_angle_gamma   88.03579828
_symmetry_Int_Tables_number   1
_chemical_formula_structural   Na3Al(PO4)2
_chemical_formula_sum   'Na12 Al4 P8 O32'
_cell_volume   666.71908054
_cell_formula_units_Z   4
loop_
 _symmetry_equiv_pos_site_id
 _symmetry_equiv_pos_as_xyz
  1  'x, y, z'
loop_
 _atom_site_type_symbol
 _atom_site_label
 _atom_site_symmetry_multiplicity
 _atom_site_fract_x
 _atom_site_fract_y
 _atom_site_fract_z
 _atom_site_occupancy
  Na  Na0  1  0.305861  0.909042  0.075198  1
  Na  Na1  1  0.342148  0.247310  0.118098  1
  Na  Na2  1  0.923423  0.829515  0.114213  1
  Na  Na3  1  0.943353  0.420794  0.179152  1
  Na  Na4  1  0.647481  0.237606  0.314999  1
  Na  Na5  1  0.103562  0.702042  0.408724  1
  Na  Na6  1  0.896438  0.297957  0.591276  1
  Na  Na7  1  0.352518  0.762393  0.685002  1
  Na  Na8  1  0.056646  0.579206  0.820847  1
  Na  Na9  1  0.076576  0.170485  0.885787  1
  Na  Na10  1  0.657852  0.752690  0.881903  1
  Na  Na11  1  0.694138  0.090958  0.924801  1
  Al  Al12  1  0.475919  0.579346  0.247864  1
  Al  Al13  1  0.748338  0.921051  0.488053  1
  Al  Al14  1  0.251662  0.078949  0.511947  1
  Al  Al15  1  0.524080  0.420653  0.752136  1
  P  P16  1  0.281265  0.593431  0.013987  1
  P  P17  1  0.533986  0.924371  0.267086  1
  P  P18  1  0.031058  0.097221  0.290565  1
  P  P19  1  0.712769  0.590687  0.451659  1
  P  P20  1  0.287230  0.409313  0.548342  1
  P  P21  1  0.968943  0.902780  0.709435  1
  P  P22  1  0.466014  0.075627  0.732913  1
  P  P23  1  0.718734  0.406569  0.986014  1
  O  O24  1  0.820127  0.281635  0.033220  1
  O  O25  1  0.202058  0.439580  0.038639  1
  O  O26  1  0.100408  0.083099  0.113516  1
  O  O27  1  0.546770  0.419816  0.117493  1
  O  O28  1  0.508930  0.041936  0.152940  1
  O  O29  1  0.315702  0.652307  0.160723  1
  O  O30  1  0.567826  0.763492  0.192606  1
  O  O31  1  0.684746  0.965146  0.310366  1
  O  O32  1  0.177076  0.126160  0.347734  1
  O  O33  1  0.625031  0.521192  0.347400  1
  O  O34  1  0.901672  0.223141  0.349493  1
  O  O35  1  0.889603  0.612694  0.357621  1
  O  O36  1  0.958774  0.938538  0.357905  1
  O  O37  1  0.378688  0.917001  0.412713  1
  O  O38  1  0.303897  0.522927  0.411893  1
  O  O39  1  0.368676  0.254072  0.477137  1
  O  O40  1  0.631324  0.745928  0.522863  1
  O  O41  1  0.696102  0.477073  0.588107  1
  O  O42  1  0.621311  0.082999  0.587287  1
  O  O43  1  0.041226  0.061462  0.642095  1
  O  O44  1  0.110396  0.387306  0.642379  1
  O  O45  1  0.098327  0.776859  0.650507  1
  O  O46  1  0.374968  0.478808  0.652600  1
  O  O47  1  0.822923  0.873840  0.652266  1
  O  O48  1  0.315253  0.034853  0.689634  1
  O  O49  1  0.432173  0.236508  0.807395  1
  O  O50  1  0.684297  0.347693  0.839277  1
  O  O51  1  0.491070  0.958064  0.847059  1
  O  O52  1  0.453230  0.580184  0.882507  1
  O  O53  1  0.899592  0.916901  0.886485  1
  O  O54  1  0.797942  0.560419  0.961362  1
  O  O55  1  0.179872  0.718365  0.966780  1
