# generated using pymatgen
data_KRb3PbI6
_symmetry_space_group_name_H-M   'P 1'
_cell_length_a   10.22587079
_cell_length_b   10.22587178
_cell_length_c   10.22587128
_cell_angle_alpha   90.81759945
_cell_angle_beta   90.81759813
_cell_angle_gamma   90.81759565
_symmetry_Int_Tables_number   1
_chemical_formula_structural   KRb3PbI6
_chemical_formula_sum   'K2 Rb6 Pb2 I12'
_cell_volume   1068.97370019
_cell_formula_units_Z   2
loop_
 _symmetry_equiv_pos_site_id
 _symmetry_equiv_pos_as_xyz
  1  'x, y, z'
loop_
 _atom_site_type_symbol
 _atom_site_label
 _atom_site_symmetry_multiplicity
 _atom_site_fract_x
 _atom_site_fract_y
 _atom_site_fract_z
 _atom_site_occupancy
  K  K0  1  0.250000  0.250000  0.250000  1
  K  K1  1  0.750000  0.750000  0.750000  1
  Rb  Rb2  1  0.371485  0.128515  0.750000  1
  Rb  Rb3  1  0.128515  0.750000  0.371485  1
  Rb  Rb4  1  0.750000  0.371485  0.128515  1
  Rb  Rb5  1  0.628515  0.871485  0.250000  1
  Rb  Rb6  1  0.250000  0.628515  0.871485  1
  Rb  Rb7  1  0.871485  0.250000  0.628515  1
  Pb  Pb8  1  0.000000  0.000000  0.000000  1
  Pb  Pb9  1  0.500000  0.500000  0.500000  1
  I  I10  1  0.946194  0.078834  0.304099  1
  I  I11  1  0.078834  0.304099  0.946194  1
  I  I12  1  0.304099  0.946194  0.078834  1
  I  I13  1  0.578834  0.446194  0.804099  1
  I  I14  1  0.804099  0.578834  0.446194  1
  I  I15  1  0.446194  0.804099  0.578834  1
  I  I16  1  0.195901  0.421166  0.553806  1
  I  I17  1  0.421166  0.553806  0.195901  1
  I  I18  1  0.553806  0.195901  0.421166  1
  I  I19  1  0.921166  0.695901  0.053806  1
  I  I20  1  0.053806  0.921166  0.695901  1
  I  I21  1  0.695901  0.053806  0.921166  1
