# generated using pymatgen
data_PrDy(Lu4Bi3)2
_symmetry_space_group_name_H-M   'P 1'
_cell_length_a   8.19988800
_cell_length_b   9.44775600
_cell_length_c   11.86648200
_cell_angle_alpha   90.00000000
_cell_angle_beta   90.00000000
_cell_angle_gamma   90.00000000
_symmetry_Int_Tables_number   1
_chemical_formula_structural   PrDy(Lu4Bi3)2
_chemical_formula_sum   'Pr2 Dy2 Lu16 Bi12'
_cell_volume   919.30278092
_cell_formula_units_Z   2
loop_
 _symmetry_equiv_pos_site_id
 _symmetry_equiv_pos_as_xyz
  1  'x, y, z'
loop_
 _atom_site_type_symbol
 _atom_site_label
 _atom_site_symmetry_multiplicity
 _atom_site_fract_x
 _atom_site_fract_y
 _atom_site_fract_z
 _atom_site_occupancy
  Pr  Pr0  1  0.317932  0.250000  0.219494  1
  Pr  Pr1  1  0.817932  0.250000  0.280506  1
  Dy  Dy2  1  0.685151  0.750000  0.783477  1
  Dy  Dy3  1  0.185151  0.750000  0.716523  1
  Lu  Lu4  1  0.351124  0.750000  0.218408  1
  Lu  Lu5  1  0.851124  0.750000  0.281592  1
  Lu  Lu6  1  0.646940  0.250000  0.778156  1
  Lu  Lu7  1  0.146940  0.250000  0.721844  1
  Lu  Lu8  1  0.689012  0.567181  0.061385  1
  Lu  Lu9  1  0.189012  0.932819  0.438615  1
  Lu  Lu10  1  0.309979  0.067461  0.939967  1
  Lu  Lu11  1  0.809979  0.432539  0.560033  1
  Lu  Lu12  1  0.309979  0.432539  0.939967  1
  Lu  Lu13  1  0.809979  0.067461  0.560033  1
  Lu  Lu14  1  0.689012  0.932819  0.061385  1
  Lu  Lu15  1  0.189012  0.567181  0.438615  1
  Lu  Lu16  1  0.481053  0.250000  0.489558  1
  Lu  Lu17  1  0.981053  0.250000  0.010442  1
  Lu  Lu18  1  0.519120  0.750000  0.512139  1
  Lu  Lu19  1  0.019120  0.750000  0.987861  1
  Bi  Bi20  1  0.399766  0.750000  0.959091  1
  Bi  Bi21  1  0.899766  0.750000  0.540909  1
  Bi  Bi22  1  0.602443  0.250000  0.034515  1
  Bi  Bi23  1  0.102443  0.250000  0.465485  1
  Bi  Bi24  1  0.565487  0.989007  0.328372  1
  Bi  Bi25  1  0.065487  0.510993  0.171628  1
  Bi  Bi26  1  0.433758  0.494573  0.673780  1
  Bi  Bi27  1  0.933758  0.005427  0.826220  1
  Bi  Bi28  1  0.433758  0.005427  0.673780  1
  Bi  Bi29  1  0.933758  0.494573  0.826220  1
  Bi  Bi30  1  0.565487  0.510993  0.328372  1
  Bi  Bi31  1  0.065487  0.989007  0.171628  1
