# generated using pymatgen
data_YbGaPRu2
_symmetry_space_group_name_H-M   'P 1'
_cell_length_a   5.64574314
_cell_length_b   5.64574344
_cell_length_c   5.64574265
_cell_angle_alpha   136.11324159
_cell_angle_beta   136.11324571
_cell_angle_gamma   63.80530776
_symmetry_Int_Tables_number   1
_chemical_formula_structural   YbGaPRu2
_chemical_formula_sum   'Yb1 Ga1 P1 Ru2'
_cell_volume   85.33501519
_cell_formula_units_Z   1
loop_
 _symmetry_equiv_pos_site_id
 _symmetry_equiv_pos_as_xyz
  1  'x, y, z'
loop_
 _atom_site_type_symbol
 _atom_site_label
 _atom_site_symmetry_multiplicity
 _atom_site_fract_x
 _atom_site_fract_y
 _atom_site_fract_z
 _atom_site_occupancy
  Yb  Yb0  1  0.997521  0.997521  0.000000  1
  Ga  Ga1  1  0.378431  0.378431  0.000000  1
  P  P2  1  0.642757  0.642757  0.000000  1
  Ru  Ru3  1  0.240646  0.740646  0.500000  1
  Ru  Ru4  1  0.740646  0.240646  0.500000  1
