# generated using pymatgen
data_YTmCo9As7Ru3
_symmetry_space_group_name_H-M   'P 1'
_cell_length_a   3.80560700
_cell_length_b   9.37532868
_cell_length_c   9.37532800
_cell_angle_alpha   120.00000372
_cell_angle_beta   90.00000000
_cell_angle_gamma   90.00000000
_symmetry_Int_Tables_number   1
_chemical_formula_structural   YTmCo9As7Ru3
_chemical_formula_sum   'Y1 Tm1 Co9 As7 Ru3'
_cell_volume   289.68601224
_cell_formula_units_Z   1
loop_
 _symmetry_equiv_pos_site_id
 _symmetry_equiv_pos_as_xyz
  1  'x, y, z'
loop_
 _atom_site_type_symbol
 _atom_site_label
 _atom_site_symmetry_multiplicity
 _atom_site_fract_x
 _atom_site_fract_y
 _atom_site_fract_z
 _atom_site_occupancy
  Y  Y0  1  0.500000  0.333333  0.666667  1
  Tm  Tm1  1  0.000000  0.666667  0.333333  1
  Co  Co2  1  0.000000  0.569048  0.941331  1
  Co  Co3  1  0.000000  0.372283  0.430952  1
  Co  Co4  1  0.000000  0.058669  0.627717  1
  Co  Co5  1  0.000000  0.875495  0.159080  1
  Co  Co6  1  0.000000  0.283585  0.124505  1
  Co  Co7  1  0.000000  0.840920  0.716415  1
  Co  Co8  1  0.500000  0.945210  0.382485  1
  Co  Co9  1  0.500000  0.437275  0.054790  1
  Co  Co10  1  0.500000  0.617515  0.562725  1
  As  As11  1  0.000000  0.000000  0.000000  1
  As  As12  1  0.500000  0.707965  0.118265  1
  As  As13  1  0.500000  0.410301  0.292035  1
  As  As14  1  0.500000  0.881735  0.589699  1
  As  As15  1  0.000000  0.588139  0.701646  1
  As  As16  1  0.000000  0.113508  0.411861  1
  As  As17  1  0.000000  0.298354  0.886492  1
  Ru  Ru18  1  0.500000  0.779368  0.900145  1
  Ru  Ru19  1  0.500000  0.120777  0.220632  1
  Ru  Ru20  1  0.500000  0.099855  0.879223  1
