# generated using pymatgen
data_Er12Os3Pt
_symmetry_space_group_name_H-M   'P 1'
_cell_length_a   6.35463315
_cell_length_b   7.30324432
_cell_length_c   8.97229500
_cell_angle_alpha   90.00000000
_cell_angle_beta   90.00000000
_cell_angle_gamma   90.17248081
_symmetry_Int_Tables_number   1
_chemical_formula_structural   Er12Os3Pt
_chemical_formula_sum   'Er12 Os3 Pt1'
_cell_volume   416.39728638
_cell_formula_units_Z   1
loop_
 _symmetry_equiv_pos_site_id
 _symmetry_equiv_pos_as_xyz
  1  'x, y, z'
loop_
 _atom_site_type_symbol
 _atom_site_label
 _atom_site_symmetry_multiplicity
 _atom_site_fract_x
 _atom_site_fract_y
 _atom_site_fract_z
 _atom_site_occupancy
  Er  Er0  1  0.335843  0.671672  0.059037  1
  Er  Er1  1  0.171135  0.181546  0.441291  1
  Er  Er2  1  0.669890  0.323892  0.562503  1
  Er  Er3  1  0.825245  0.823536  0.933675  1
  Er  Er4  1  0.669890  0.323892  0.937497  1
  Er  Er5  1  0.825245  0.823536  0.566325  1
  Er  Er6  1  0.335843  0.671672  0.440963  1
  Er  Er7  1  0.171135  0.181546  0.058709  1
  Er  Er8  1  0.873495  0.533660  0.250000  1
  Er  Er9  1  0.623797  0.038984  0.250000  1
  Er  Er10  1  0.125058  0.462549  0.750000  1
  Er  Er11  1  0.370073  0.963030  0.750000  1
  Os  Os12  1  0.461473  0.384255  0.250000  1
  Os  Os13  1  0.964733  0.114942  0.750000  1
  Os  Os14  1  0.533464  0.615362  0.750000  1
  Pt  Pt15  1  0.043680  0.885926  0.250000  1
