# generated using pymatgen
data_KAgPdSe5
_symmetry_space_group_name_H-M   'P 1'
_cell_length_a   7.70553700
_cell_length_b   6.32601562
_cell_length_c   9.36175700
_cell_angle_alpha   78.52861092
_cell_angle_beta   90.00000000
_cell_angle_gamma   90.00000000
_symmetry_Int_Tables_number   1
_chemical_formula_structural   KAgPdSe5
_chemical_formula_sum   'K2 Ag2 Pd2 Se10'
_cell_volume   447.22627033
_cell_formula_units_Z   2
loop_
 _symmetry_equiv_pos_site_id
 _symmetry_equiv_pos_as_xyz
  1  'x, y, z'
loop_
 _atom_site_type_symbol
 _atom_site_label
 _atom_site_symmetry_multiplicity
 _atom_site_fract_x
 _atom_site_fract_y
 _atom_site_fract_z
 _atom_site_occupancy
  K  K0  1  0.750000  0.751793  0.032370  1
  K  K1  1  0.250000  0.248207  0.967630  1
  Ag  Ag2  1  0.750000  0.854881  0.583167  1
  Ag  Ag3  1  0.250000  0.145119  0.416833  1
  Pd  Pd4  1  0.500000  0.500000  0.500000  1
  Pd  Pd5  1  0.000000  0.500000  0.500000  1
  Se  Se6  1  0.250000  0.918707  0.688928  1
  Se  Se7  1  0.980956  0.351197  0.271098  1
  Se  Se8  1  0.750000  0.280044  0.617242  1
  Se  Se9  1  0.250000  0.719956  0.382758  1
  Se  Se10  1  0.519044  0.351197  0.271098  1
  Se  Se11  1  0.250000  0.705588  0.130002  1
  Se  Se12  1  0.750000  0.294412  0.869998  1
  Se  Se13  1  0.750000  0.081293  0.311072  1
  Se  Se14  1  0.019044  0.648803  0.728902  1
  Se  Se15  1  0.480956  0.648803  0.728902  1
