# generated using pymatgen
data_KMg2In7Ir2
_symmetry_space_group_name_H-M   'P 1'
_cell_length_a   9.15136500
_cell_length_b   9.15920377
_cell_length_c   4.01793300
_cell_angle_alpha   90.00000000
_cell_angle_beta   90.00000000
_cell_angle_gamma   119.97168962
_symmetry_Int_Tables_number   1
_chemical_formula_structural   KMg2In7Ir2
_chemical_formula_sum   'K1 Mg2 In7 Ir2'
_cell_volume   291.74320061
_cell_formula_units_Z   1
loop_
 _symmetry_equiv_pos_site_id
 _symmetry_equiv_pos_as_xyz
  1  'x, y, z'
loop_
 _atom_site_type_symbol
 _atom_site_label
 _atom_site_symmetry_multiplicity
 _atom_site_fract_x
 _atom_site_fract_y
 _atom_site_fract_z
 _atom_site_occupancy
  K  K0  1  0.000000  0.000000  0.000000  1
  Mg  Mg1  1  0.000000  0.500000  0.000000  1
  Mg  Mg2  1  0.500000  0.500000  0.000000  1
  In  In3  1  0.589482  0.786601  0.500000  1
  In  In4  1  0.197120  0.786601  0.500000  1
  In  In5  1  0.206953  0.413905  0.500000  1
  In  In6  1  0.793047  0.586095  0.500000  1
  In  In7  1  0.802880  0.213399  0.500000  1
  In  In8  1  0.410518  0.213399  0.500000  1
  In  In9  1  0.500000  0.000000  0.000000  1
  Ir  Ir10  1  0.333141  0.666283  0.000000  1
  Ir  Ir11  1  0.666859  0.333717  0.000000  1
