# generated using pymatgen
data_YbPr4Sm2CoI12
_symmetry_space_group_name_H-M   'P 1'
_cell_length_a   9.97376451
_cell_length_b   10.06551222
_cell_length_c   10.03273983
_cell_angle_alpha   106.79411405
_cell_angle_beta   106.99145840
_cell_angle_gamma   107.13352754
_symmetry_Int_Tables_number   1
_chemical_formula_structural   YbPr4Sm2CoI12
_chemical_formula_sum   'Yb1 Pr4 Sm2 Co1 I12'
_cell_volume   839.41405586
_cell_formula_units_Z   1
loop_
 _symmetry_equiv_pos_site_id
 _symmetry_equiv_pos_as_xyz
  1  'x, y, z'
loop_
 _atom_site_type_symbol
 _atom_site_label
 _atom_site_symmetry_multiplicity
 _atom_site_fract_x
 _atom_site_fract_y
 _atom_site_fract_z
 _atom_site_occupancy
  Yb  Yb0  1  0.500000  0.500000  0.500000  1
  Pr  Pr1  1  0.100850  0.303738  0.024646  1
  Pr  Pr2  1  0.288574  0.025126  0.095056  1
  Pr  Pr3  1  0.899150  0.696262  0.975354  1
  Pr  Pr4  1  0.711426  0.974874  0.904944  1
  Sm  Sm5  1  0.974509  0.901134  0.699657  1
  Sm  Sm6  1  0.025491  0.098866  0.300343  1
  Co  Co7  1  0.000000  0.000000  0.000000  1
  I  I8  1  0.535105  0.616622  0.838222  1
  I  I9  1  0.464895  0.383378  0.161778  1
  I  I10  1  0.315520  0.927075  0.773075  1
  I  I11  1  0.380079  0.160107  0.460937  1
  I  I12  1  0.929958  0.781627  0.323707  1
  I  I13  1  0.684480  0.072925  0.226925  1
  I  I14  1  0.070042  0.218373  0.676293  1
  I  I15  1  0.771017  0.318073  0.926147  1
  I  I16  1  0.228983  0.681927  0.073853  1
  I  I17  1  0.844313  0.543699  0.617741  1
  I  I18  1  0.155687  0.456301  0.382259  1
  I  I19  1  0.619921  0.839893  0.539063  1
