# generated using pymatgen
data_Sm4Lu4B24Ru3W
_symmetry_space_group_name_H-M   'P 1'
_cell_length_a   3.64815600
_cell_length_b   9.16119218
_cell_length_c   11.59152606
_cell_angle_alpha   89.85661448
_cell_angle_beta   90.00000000
_cell_angle_gamma   90.00000000
_symmetry_Int_Tables_number   1
_chemical_formula_structural   Sm4Lu4B24Ru3W
_chemical_formula_sum   'Sm4 Lu4 B24 Ru3 W1'
_cell_volume   387.40449092
_cell_formula_units_Z   1
loop_
 _symmetry_equiv_pos_site_id
 _symmetry_equiv_pos_as_xyz
  1  'x, y, z'
loop_
 _atom_site_type_symbol
 _atom_site_label
 _atom_site_symmetry_multiplicity
 _atom_site_fract_x
 _atom_site_fract_y
 _atom_site_fract_z
 _atom_site_occupancy
  Sm  Sm0  1  0.000000  0.320917  0.413945  1
  Sm  Sm1  1  0.000000  0.678034  0.585250  1
  Sm  Sm2  1  0.000000  0.821000  0.085644  1
  Sm  Sm3  1  0.000000  0.176877  0.915141  1
  Lu  Lu4  1  0.000000  0.946292  0.372831  1
  Lu  Lu5  1  0.000000  0.057386  0.629116  1
  Lu  Lu6  1  0.000000  0.443059  0.126579  1
  Lu  Lu7  1  0.000000  0.556356  0.870493  1
  B  B8  1  0.500000  0.551524  0.434710  1
  B  B9  1  0.500000  0.444172  0.569947  1
  B  B10  1  0.500000  0.056157  0.068573  1
  B  B11  1  0.500000  0.944309  0.931261  1
  B  B12  1  0.500000  0.754670  0.420166  1
  B  B13  1  0.500000  0.249412  0.583427  1
  B  B14  1  0.500000  0.250391  0.082070  1
  B  B15  1  0.500000  0.749334  0.917032  1
  B  B16  1  0.500000  0.796379  0.264316  1
  B  B17  1  0.500000  0.208169  0.734470  1
  B  B18  1  0.500000  0.290967  0.232778  1
  B  B19  1  0.500000  0.708880  0.765699  1
  B  B20  1  0.500000  0.630348  0.181448  1
  B  B21  1  0.500000  0.369273  0.815650  1
  B  B22  1  0.500000  0.130331  0.314817  1
  B  B23  1  0.500000  0.870594  0.684882  1
  B  B24  1  0.500000  0.985170  0.213803  1
  B  B25  1  0.500000  0.015712  0.786842  1
  B  B26  1  0.500000  0.478194  0.284946  1
  B  B27  1  0.500000  0.515126  0.714319  1
  B  B28  1  0.500000  0.600516  0.025508  1
  B  B29  1  0.500000  0.398824  0.971533  1
  B  B30  1  0.500000  0.101794  0.473397  1
  B  B31  1  0.500000  0.901575  0.528702  1
  Ru  Ru32  1  0.000000  0.359736  0.682016  1
  Ru  Ru33  1  0.000000  0.139357  0.180205  1
  Ru  Ru34  1  0.000000  0.860327  0.818632  1
  W  W35  1  0.000000  0.638836  0.319850  1
