# generated using pymatgen
data_K4ThUCl12
_symmetry_space_group_name_H-M   'P 1'
_cell_length_a   7.78868264
_cell_length_b   7.43899443
_cell_length_c   12.90981400
_cell_angle_alpha   54.85285848
_cell_angle_beta   89.83413022
_cell_angle_gamma   90.10687636
_symmetry_Int_Tables_number   1
_chemical_formula_structural   K4ThUCl12
_chemical_formula_sum   'K4 Th1 U1 Cl12'
_cell_volume   611.60888690
_cell_formula_units_Z   1
loop_
 _symmetry_equiv_pos_site_id
 _symmetry_equiv_pos_as_xyz
  1  'x, y, z'
loop_
 _atom_site_type_symbol
 _atom_site_label
 _atom_site_symmetry_multiplicity
 _atom_site_fract_x
 _atom_site_fract_y
 _atom_site_fract_z
 _atom_site_occupancy
  K  K0  1  0.577498  0.732107  0.248228  1
  K  K1  1  0.077519  0.275054  0.244744  1
  K  K2  1  0.422502  0.267893  0.751772  1
  K  K3  1  0.922481  0.724946  0.755256  1
  Th  Th4  1  0.500000  0.000000  0.500000  1
  U  U5  1  0.000000  0.000000  0.000000  1
  Cl  Cl6  1  0.983023  0.854092  0.239044  1
  Cl  Cl7  1  0.481176  0.150538  0.254425  1
  Cl  Cl8  1  0.016977  0.145908  0.760956  1
  Cl  Cl9  1  0.518824  0.849462  0.745575  1
  Cl  Cl10  1  0.683434  0.648834  0.554573  1
  Cl  Cl11  1  0.182166  0.340539  0.949326  1
  Cl  Cl12  1  0.316566  0.351166  0.445427  1
  Cl  Cl13  1  0.817834  0.659461  0.050674  1
  Cl  Cl14  1  0.713461  0.219693  0.955684  1
  Cl  Cl15  1  0.206539  0.772753  0.546129  1
  Cl  Cl16  1  0.286539  0.780307  0.044316  1
  Cl  Cl17  1  0.793461  0.227247  0.453871  1
