# generated using pymatgen
data_Ba4YU7Se20
_symmetry_space_group_name_H-M   'P 1'
_cell_length_a   7.91813867
_cell_length_b   8.81882918
_cell_length_c   12.37692249
_cell_angle_alpha   89.60510269
_cell_angle_beta   89.96674600
_cell_angle_gamma   90.12152475
_symmetry_Int_Tables_number   1
_chemical_formula_structural   Ba4YU7Se20
_chemical_formula_sum   'Ba4 Y1 U7 Se20'
_cell_volume   864.24193533
_cell_formula_units_Z   1
loop_
 _symmetry_equiv_pos_site_id
 _symmetry_equiv_pos_as_xyz
  1  'x, y, z'
loop_
 _atom_site_type_symbol
 _atom_site_label
 _atom_site_symmetry_multiplicity
 _atom_site_fract_x
 _atom_site_fract_y
 _atom_site_fract_z
 _atom_site_occupancy
  Ba  Ba0  1  0.052433  0.490559  0.330616  1
  Ba  Ba1  1  0.554187  0.507320  0.169595  1
  Ba  Ba2  1  0.945817  0.508033  0.668509  1
  Ba  Ba3  1  0.445531  0.492457  0.830892  1
  Y  Y4  1  0.025716  0.997071  0.318941  1
  U  U5  1  0.524136  0.001374  0.181315  1
  U  U6  1  0.978749  0.001176  0.679753  1
  U  U7  1  0.476654  0.998595  0.819268  1
  U  U8  1  0.068651  0.758464  0.009294  1
  U  U9  1  0.570051  0.244418  0.492301  1
  U  U10  1  0.930299  0.244862  0.992311  1
  U  U11  1  0.429746  0.756894  0.507813  1
  Se  Se12  1  0.660852  0.955995  0.404068  1
  Se  Se13  1  0.165664  0.045703  0.093880  1
  Se  Se14  1  0.336487  0.045285  0.598253  1
  Se  Se15  1  0.836202  0.955033  0.901839  1
  Se  Se16  1  0.451663  0.791478  0.001283  1
  Se  Se17  1  0.947971  0.209163  0.500691  1
  Se  Se18  1  0.550450  0.207531  0.998163  1
  Se  Se19  1  0.051000  0.790914  0.504095  1
  Se  Se20  1  0.837773  0.782156  0.185633  1
  Se  Se21  1  0.343149  0.219769  0.311884  1
  Se  Se22  1  0.159394  0.216625  0.811781  1
  Se  Se23  1  0.658287  0.782849  0.688692  1
  Se  Se24  1  0.313522  0.772370  0.283926  1
  Se  Se25  1  0.811770  0.223769  0.213807  1
  Se  Se26  1  0.686181  0.224896  0.715788  1
  Se  Se27  1  0.187183  0.775283  0.787055  1
  Se  Se28  1  0.176774  0.460954  0.069851  1
  Se  Se29  1  0.676332  0.539675  0.428785  1
  Se  Se30  1  0.823655  0.537296  0.927675  1
  Se  Se31  1  0.323722  0.462031  0.572246  1
