# generated using pymatgen
data_LiSm2Lu4Rh17
_symmetry_space_group_name_H-M   'P 1'
_cell_length_a   5.26834800
_cell_length_b   5.26824487
_cell_length_c   17.33651500
_cell_angle_alpha   90.00000000
_cell_angle_beta   90.00000000
_cell_angle_gamma   120.00204215
_symmetry_Int_Tables_number   1
_chemical_formula_structural   LiSm2Lu4Rh17
_chemical_formula_sum   'Li1 Sm2 Lu4 Rh17'
_cell_volume   416.70038541
_cell_formula_units_Z   1
loop_
 _symmetry_equiv_pos_site_id
 _symmetry_equiv_pos_as_xyz
  1  'x, y, z'
loop_
 _atom_site_type_symbol
 _atom_site_label
 _atom_site_symmetry_multiplicity
 _atom_site_fract_x
 _atom_site_fract_y
 _atom_site_fract_z
 _atom_site_occupancy
  Li  Li0  1  0.333332  0.666679  0.250000  1
  Sm  Sm1  1  0.333325  0.666667  0.750000  1
  Sm  Sm2  1  0.666682  0.333341  0.250000  1
  Lu  Lu3  1  0.333307  0.666649  0.958146  1
  Lu  Lu4  1  0.666647  0.333346  0.040288  1
  Lu  Lu5  1  0.666647  0.333346  0.459712  1
  Lu  Lu6  1  0.333307  0.666649  0.541854  1
  Rh  Rh7  1  0.169187  0.830784  0.375219  1
  Rh  Rh8  1  0.169202  0.338415  0.375228  1
  Rh  Rh9  1  0.661586  0.830787  0.375230  1
  Rh  Rh10  1  0.832527  0.167492  0.623451  1
  Rh  Rh11  1  0.832530  0.665025  0.623452  1
  Rh  Rh12  1  0.334976  0.167482  0.623452  1
  Rh  Rh13  1  0.832527  0.167492  0.876549  1
  Rh  Rh14  1  0.832530  0.665025  0.876548  1
  Rh  Rh15  1  0.334976  0.167482  0.876548  1
  Rh  Rh16  1  0.169187  0.830784  0.124781  1
  Rh  Rh17  1  0.169202  0.338415  0.124772  1
  Rh  Rh18  1  0.661586  0.830787  0.124770  1
  Rh  Rh19  1  0.666671  0.333328  0.750000  1
  Rh  Rh20  1  0.000029  0.000011  0.250000  1
  Rh  Rh21  1  0.000041  0.000011  0.750000  1
  Rh  Rh22  1  0.999999  0.000003  0.497989  1
  Rh  Rh23  1  0.999999  0.000003  0.002011  1
