# generated using pymatgen
data_BaNb6BiSe12
_symmetry_space_group_name_H-M   'P 1'
_cell_length_a   6.11799900
_cell_length_b   6.11799914
_cell_length_c   15.84156800
_cell_angle_alpha   90.00000000
_cell_angle_beta   90.00000000
_cell_angle_gamma   119.99999386
_symmetry_Int_Tables_number   1
_chemical_formula_structural   BaNb6BiSe12
_chemical_formula_sum   'Ba1 Nb6 Bi1 Se12'
_cell_volume   513.50850079
_cell_formula_units_Z   1
loop_
 _symmetry_equiv_pos_site_id
 _symmetry_equiv_pos_as_xyz
  1  'x, y, z'
loop_
 _atom_site_type_symbol
 _atom_site_label
 _atom_site_symmetry_multiplicity
 _atom_site_fract_x
 _atom_site_fract_y
 _atom_site_fract_z
 _atom_site_occupancy
  Ba  Ba0  1  0.000000  0.000000  0.500000  1
  Nb  Nb1  1  0.000000  0.000000  0.761943  1
  Nb  Nb2  1  0.000000  0.000000  0.238057  1
  Nb  Nb3  1  0.333333  0.666667  0.237522  1
  Nb  Nb4  1  0.666667  0.333333  0.762478  1
  Nb  Nb5  1  0.666667  0.333333  0.237522  1
  Nb  Nb6  1  0.333333  0.666667  0.762478  1
  Bi  Bi7  1  0.000000  0.000000  0.000000  1
  Se  Se8  1  0.339624  0.000000  0.132740  1
  Se  Se9  1  0.000000  0.339624  0.132740  1
  Se  Se10  1  0.660376  0.660376  0.132740  1
  Se  Se11  1  0.338649  0.338649  0.657496  1
  Se  Se12  1  0.661351  0.661351  0.342504  1
  Se  Se13  1  0.661351  0.000000  0.657496  1
  Se  Se14  1  0.000000  0.661351  0.657496  1
  Se  Se15  1  0.000000  0.660376  0.867260  1
  Se  Se16  1  0.339624  0.339624  0.867260  1
  Se  Se17  1  0.000000  0.338649  0.342504  1
  Se  Se18  1  0.338649  0.000000  0.342504  1
  Se  Se19  1  0.660376  0.000000  0.867260  1
