# generated using pymatgen
data_Tb10Ho2Co4PdPb
_symmetry_space_group_name_H-M   'P 1'
_cell_length_a   8.38017738
_cell_length_b   8.38757277
_cell_length_c   8.38017551
_cell_angle_alpha   111.04167373
_cell_angle_beta   110.25416147
_cell_angle_gamma   107.10906305
_symmetry_Int_Tables_number   1
_chemical_formula_structural   Tb10Ho2Co4PdPb
_chemical_formula_sum   'Tb10 Ho2 Co4 Pd1 Pb1'
_cell_volume   453.04510921
_cell_formula_units_Z   1
loop_
 _symmetry_equiv_pos_site_id
 _symmetry_equiv_pos_as_xyz
  1  'x, y, z'
loop_
 _atom_site_type_symbol
 _atom_site_label
 _atom_site_symmetry_multiplicity
 _atom_site_fract_x
 _atom_site_fract_y
 _atom_site_fract_z
 _atom_site_occupancy
  Tb  Tb0  1  0.412032  0.211231  0.199788  1
  Tb  Tb1  1  0.587968  0.788769  0.800212  1
  Tb  Tb2  1  0.011443  0.211231  0.799200  1
  Tb  Tb3  1  0.988557  0.788769  0.200800  1
  Tb  Tb4  1  0.183988  0.292405  0.478469  1
  Tb  Tb5  1  0.816012  0.707595  0.521531  1
  Tb  Tb6  1  0.186066  0.707595  0.891584  1
  Tb  Tb7  1  0.813934  0.292405  0.108416  1
  Tb  Tb8  1  0.314382  0.621403  0.307022  1
  Tb  Tb9  1  0.685618  0.378597  0.692978  1
  Ho  Ho10  1  0.315075  0.007430  0.692355  1
  Ho  Ho11  1  0.684925  0.992570  0.307645  1
  Co  Co12  1  0.378875  0.000000  0.378875  1
  Co  Co13  1  0.621125  0.000000  0.621125  1
  Co  Co14  1  0.111864  0.612619  0.500755  1
  Co  Co15  1  0.888136  0.387381  0.499245  1
  Pd  Pd16  1  0.000000  0.000000  0.000000  1
  Pb  Pb17  1  0.500000  0.500000  0.000000  1
