# generated using pymatgen
data_ErCuPd5O8
_symmetry_space_group_name_H-M   'P 1'
_cell_length_a   6.81201661
_cell_length_b   6.81201696
_cell_length_c   6.79935600
_cell_angle_alpha   60.06145397
_cell_angle_beta   60.06145226
_cell_angle_gamma   59.05348868
_symmetry_Int_Tables_number   1
_chemical_formula_structural   ErCuPd5O8
_chemical_formula_sum   'Er1 Cu1 Pd5 O8'
_cell_volume   221.66550714
_cell_formula_units_Z   1
loop_
 _symmetry_equiv_pos_site_id
 _symmetry_equiv_pos_as_xyz
  1  'x, y, z'
loop_
 _atom_site_type_symbol
 _atom_site_label
 _atom_site_symmetry_multiplicity
 _atom_site_fract_x
 _atom_site_fract_y
 _atom_site_fract_z
 _atom_site_occupancy
  Er  Er0  1  0.000000  0.000000  0.000000  1
  Cu  Cu1  1  0.000000  0.000000  0.500000  1
  Pd  Pd2  1  0.500000  0.000000  0.000000  1
  Pd  Pd3  1  0.000000  0.500000  0.000000  1
  Pd  Pd4  1  0.500000  0.500000  0.000000  1
  Pd  Pd5  1  0.000000  0.500000  0.500000  1
  Pd  Pd6  1  0.500000  0.000000  0.500000  1
  O  O7  1  0.133676  0.133676  0.574654  1
  O  O8  1  0.136935  0.585145  0.138960  1
  O  O9  1  0.585145  0.136935  0.138960  1
  O  O10  1  0.863065  0.414855  0.861040  1
  O  O11  1  0.133676  0.133676  0.157995  1
  O  O12  1  0.866324  0.866324  0.842005  1
  O  O13  1  0.866324  0.866324  0.425346  1
  O  O14  1  0.414855  0.863065  0.861040  1
