# generated using pymatgen
data_SmTm2RuO7
_symmetry_space_group_name_H-M   'P 1'
_cell_length_a   6.36411337
_cell_length_b   6.36411361
_cell_length_c   7.42398800
_cell_angle_alpha   90.00000000
_cell_angle_beta   90.00000000
_cell_angle_gamma   109.80295915
_symmetry_Int_Tables_number   1
_chemical_formula_structural   SmTm2RuO7
_chemical_formula_sum   'Sm2 Tm4 Ru2 O14'
_cell_volume   282.90433938
_cell_formula_units_Z   2
loop_
 _symmetry_equiv_pos_site_id
 _symmetry_equiv_pos_as_xyz
  1  'x, y, z'
loop_
 _atom_site_type_symbol
 _atom_site_label
 _atom_site_symmetry_multiplicity
 _atom_site_fract_x
 _atom_site_fract_y
 _atom_site_fract_z
 _atom_site_occupancy
  Sm  Sm0  1  0.000000  0.000000  0.500000  1
  Sm  Sm1  1  0.000000  0.000000  0.000000  1
  Tm  Tm2  1  0.483092  0.933738  0.750000  1
  Tm  Tm3  1  0.516908  0.066262  0.250000  1
  Tm  Tm4  1  0.933738  0.483092  0.750000  1
  Tm  Tm5  1  0.066262  0.516908  0.250000  1
  Ru  Ru6  1  0.500000  0.500000  0.500000  1
  Ru  Ru7  1  0.500000  0.500000  0.000000  1
  O  O8  1  0.593283  0.593283  0.750000  1
  O  O9  1  0.406717  0.406717  0.250000  1
  O  O10  1  0.837520  0.117773  0.750000  1
  O  O11  1  0.162480  0.882227  0.250000  1
  O  O12  1  0.117773  0.837520  0.750000  1
  O  O13  1  0.882227  0.162480  0.250000  1
  O  O14  1  0.438970  0.178785  0.962664  1
  O  O15  1  0.561030  0.821215  0.462664  1
  O  O16  1  0.178785  0.438970  0.962664  1
  O  O17  1  0.821215  0.561030  0.462664  1
  O  O18  1  0.438970  0.178785  0.537336  1
  O  O19  1  0.561030  0.821215  0.037336  1
  O  O20  1  0.821215  0.561030  0.037336  1
  O  O21  1  0.178785  0.438970  0.537336  1
