# generated using pymatgen
data_Hf12ZnMo5Ir6
_symmetry_space_group_name_H-M   'P 1'
_cell_length_a   4.64595200
_cell_length_b   6.56766900
_cell_length_c   13.93670300
_cell_angle_alpha   90.00000000
_cell_angle_beta   90.00017677
_cell_angle_gamma   90.00000000
_symmetry_Int_Tables_number   1
_chemical_formula_structural   Hf12ZnMo5Ir6
_chemical_formula_sum   'Hf12 Zn1 Mo5 Ir6'
_cell_volume   425.25166286
_cell_formula_units_Z   1
loop_
 _symmetry_equiv_pos_site_id
 _symmetry_equiv_pos_as_xyz
  1  'x, y, z'
loop_
 _atom_site_type_symbol
 _atom_site_label
 _atom_site_symmetry_multiplicity
 _atom_site_fract_x
 _atom_site_fract_y
 _atom_site_fract_z
 _atom_site_occupancy
  Hf  Hf0  1  0.500001  0.244350  0.000000  1
  Hf  Hf1  1  0.500001  0.755650  0.000000  1
  Hf  Hf2  1  0.999988  0.247682  0.169188  1
  Hf  Hf3  1  0.999988  0.752318  0.169188  1
  Hf  Hf4  1  0.499989  0.250326  0.334156  1
  Hf  Hf5  1  0.499989  0.749674  0.334156  1
  Hf  Hf6  1  0.000000  0.250087  0.500000  1
  Hf  Hf7  1  0.000000  0.749913  0.500000  1
  Hf  Hf8  1  0.500010  0.250326  0.665844  1
  Hf  Hf9  1  0.500010  0.749674  0.665844  1
  Hf  Hf10  1  0.000012  0.247682  0.830812  1
  Hf  Hf11  1  0.000012  0.752318  0.830812  1
  Zn  Zn12  1  0.000000  0.500000  0.000000  1
  Mo  Mo13  1  0.499990  0.000000  0.165789  1
  Mo  Mo14  1  0.999986  0.500000  0.331533  1
  Mo  Mo15  1  0.500000  0.000000  0.500000  1
  Mo  Mo16  1  0.000014  0.500000  0.668467  1
  Mo  Mo17  1  0.500011  0.000000  0.834211  1
  Ir  Ir18  1  0.000000  0.000000  0.000000  1
  Ir  Ir19  1  0.499986  0.500000  0.164221  1
  Ir  Ir20  1  0.999989  0.000000  0.332635  1
  Ir  Ir21  1  0.500000  0.500000  0.500000  1
  Ir  Ir22  1  0.000011  0.000000  0.667365  1
  Ir  Ir23  1  0.500015  0.500000  0.835779  1
