# generated using pymatgen
data_MgNb4B4SbRu10
_symmetry_space_group_name_H-M   'P 1'
_cell_length_a   9.47214580
_cell_length_b   9.48289396
_cell_length_c   3.04498800
_cell_angle_alpha   90.00000000
_cell_angle_beta   90.00000000
_cell_angle_gamma   90.12761275
_symmetry_Int_Tables_number   1
_chemical_formula_structural   MgNb4B4SbRu10
_chemical_formula_sum   'Mg1 Nb4 B4 Sb1 Ru10'
_cell_volume   273.51035708
_cell_formula_units_Z   1
loop_
 _symmetry_equiv_pos_site_id
 _symmetry_equiv_pos_as_xyz
  1  'x, y, z'
loop_
 _atom_site_type_symbol
 _atom_site_label
 _atom_site_symmetry_multiplicity
 _atom_site_fract_x
 _atom_site_fract_y
 _atom_site_fract_z
 _atom_site_occupancy
  Mg  Mg0  1  0.826647  0.681213  0.000000  1
  Nb  Nb1  1  0.171908  0.324603  0.000000  1
  Nb  Nb2  1  0.323173  0.825482  0.000000  1
  Nb  Nb3  1  0.678756  0.172441  0.000000  1
  Nb  Nb4  1  0.998805  0.994312  0.000000  1
  B  B5  1  0.621874  0.876425  0.000000  1
  B  B6  1  0.378271  0.123238  0.000000  1
  B  B7  1  0.122323  0.619009  0.000000  1
  B  B8  1  0.880648  0.378874  0.000000  1
  Sb  Sb9  1  0.504989  0.501632  0.000000  1
  Ru  Ru10  1  0.560450  0.725052  0.500000  1
  Ru  Ru11  1  0.424774  0.282736  0.500000  1
  Ru  Ru12  1  0.079723  0.782146  0.500000  1
  Ru  Ru13  1  0.933294  0.216223  0.500000  1
  Ru  Ru14  1  0.282794  0.570217  0.500000  1
  Ru  Ru15  1  0.718526  0.413187  0.500000  1
  Ru  Ru16  1  0.217024  0.073092  0.500000  1
  Ru  Ru17  1  0.776566  0.939322  0.500000  1
  Ru  Ru18  1  0.497440  0.003248  0.500000  1
  Ru  Ru19  1  0.002015  0.497549  0.500000  1
