# generated using pymatgen
data_Ta12Cr7Ga5N4
_symmetry_space_group_name_H-M   'P 1'
_cell_length_a   8.17846751
_cell_length_b   8.16834278
_cell_length_c   8.16834300
_cell_angle_alpha   60.00000317
_cell_angle_beta   60.04094658
_cell_angle_gamma   60.04094138
_symmetry_Int_Tables_number   1
_chemical_formula_structural   Ta12Cr7Ga5N4
_chemical_formula_sum   'Ta12 Cr7 Ga5 N4'
_cell_volume   386.09427338
_cell_formula_units_Z   1
loop_
 _symmetry_equiv_pos_site_id
 _symmetry_equiv_pos_as_xyz
  1  'x, y, z'
loop_
 _atom_site_type_symbol
 _atom_site_label
 _atom_site_symmetry_multiplicity
 _atom_site_fract_x
 _atom_site_fract_y
 _atom_site_fract_z
 _atom_site_occupancy
  Ta  Ta0  1  0.809604  0.807610  0.191393  1
  Ta  Ta1  1  0.189540  0.198917  0.805772  1
  Ta  Ta2  1  0.809604  0.191393  0.807610  1
  Ta  Ta3  1  0.189540  0.805772  0.198917  1
  Ta  Ta4  1  0.189540  0.805772  0.805772  1
  Ta  Ta5  1  0.809604  0.191393  0.191393  1
  Ta  Ta6  1  0.446218  0.445391  0.054196  1
  Ta  Ta7  1  0.055765  0.053676  0.445279  1
  Ta  Ta8  1  0.446218  0.054196  0.445391  1
  Ta  Ta9  1  0.055765  0.445279  0.053676  1
  Ta  Ta10  1  0.055765  0.445279  0.445279  1
  Ta  Ta11  1  0.446218  0.054196  0.054196  1
  Cr  Cr12  1  0.103825  0.632058  0.632058  1
  Cr  Cr13  1  0.643953  0.109973  0.623037  1
  Cr  Cr14  1  0.643953  0.623037  0.109973  1
  Cr  Cr15  1  0.643953  0.623037  0.623037  1
  Cr  Cr16  1  0.820939  0.519802  0.829630  1
  Cr  Cr17  1  0.820939  0.829630  0.519802  1
  Cr  Cr18  1  0.820939  0.829630  0.829630  1
  Ga  Ga19  1  0.759182  0.413606  0.413606  1
  Ga  Ga20  1  0.416356  0.754476  0.414584  1
  Ga  Ga21  1  0.416356  0.414584  0.754476  1
  Ga  Ga22  1  0.416356  0.414584  0.414584  1
  Ga  Ga23  1  0.489605  0.836799  0.836799  1
  N  N24  1  0.625723  0.124759  0.124759  1
  N  N25  1  0.124847  0.624994  0.125080  1
  N  N26  1  0.124847  0.125080  0.624994  1
  N  N27  1  0.124847  0.125080  0.125080  1
