# generated using pymatgen
data_Sc12Si16Os7Rh
_symmetry_space_group_name_H-M   'P 1'
_cell_length_a   10.10362098
_cell_length_b   10.10954427
_cell_length_c   13.65128263
_cell_angle_alpha   55.06183798
_cell_angle_beta   55.09317029
_cell_angle_gamma   31.16621516
_symmetry_Int_Tables_number   1
_chemical_formula_structural   Sc12Si16Os7Rh
_chemical_formula_sum   'Sc12 Si16 Os7 Rh1'
_cell_volume   580.35426200
_cell_formula_units_Z   1
loop_
 _symmetry_equiv_pos_site_id
 _symmetry_equiv_pos_as_xyz
  1  'x, y, z'
loop_
 _atom_site_type_symbol
 _atom_site_label
 _atom_site_symmetry_multiplicity
 _atom_site_fract_x
 _atom_site_fract_y
 _atom_site_fract_z
 _atom_site_occupancy
  Sc  Sc0  1  0.749922  0.487149  0.051093  1
  Sc  Sc1  1  0.540097  0.301358  0.155544  1
  Sc  Sc2  1  0.513570  0.248620  0.449333  1
  Sc  Sc3  1  0.459059  0.699534  0.843946  1
  Sc  Sc4  1  0.292674  0.039016  0.134268  1
  Sc  Sc5  1  0.961296  0.707803  0.364612  1
  Sc  Sc6  1  0.706941  0.961765  0.865014  1
  Sc  Sc7  1  0.040020  0.290458  0.635799  1
  Sc  Sc8  1  0.251019  0.511893  0.948444  1
  Sc  Sc9  1  0.486359  0.753434  0.550832  1
  Sc  Sc10  1  0.293890  0.544171  0.659521  1
  Sc  Sc11  1  0.700857  0.458866  0.341445  1
  Si  Si12  1  0.888270  0.111911  0.249661  1
  Si  Si13  1  0.114859  0.885321  0.750904  1
  Si  Si14  1  0.356434  0.643576  0.250528  1
  Si  Si15  1  0.643008  0.358136  0.748890  1
  Si  Si16  1  0.997651  0.231644  0.877389  1
  Si  Si17  1  0.769250  0.000193  0.622626  1
  Si  Si18  1  0.001982  0.768680  0.122291  1
  Si  Si19  1  0.231962  0.998790  0.374850  1
  Si  Si20  1  0.592900  0.055704  0.074764  1
  Si  Si21  1  0.945296  0.405681  0.426399  1
  Si  Si22  1  0.406510  0.944634  0.926012  1
  Si  Si23  1  0.055937  0.592467  0.574026  1
  Si  Si24  1  0.390485  0.153887  0.387252  1
  Si  Si25  1  0.847164  0.609253  0.111184  1
  Si  Si26  1  0.610561  0.846282  0.612685  1
  Si  Si27  1  0.153495  0.388660  0.889806  1
  Os  Os28  1  0.637417  0.829611  0.286006  1
  Os  Os29  1  0.830408  0.638173  0.785792  1
  Os  Os30  1  0.362114  0.170068  0.714760  1
  Os  Os31  1  0.169464  0.362535  0.214521  1
  Os  Os32  1  0.139876  0.909984  0.078672  1
  Os  Os33  1  0.087835  0.862799  0.421673  1
  Os  Os34  1  0.858180  0.091692  0.921861  1
  Rh  Rh35  1  0.913238  0.136250  0.577596  1
