# generated using pymatgen
data_YHo7(Zr3Sn4)4
_symmetry_space_group_name_H-M   'P 1'
_cell_length_a   7.78327402
_cell_length_b   7.83510401
_cell_length_c   14.75746800
_cell_angle_alpha   89.99796707
_cell_angle_beta   90.00426225
_cell_angle_gamma   90.00200383
_symmetry_Int_Tables_number   1
_chemical_formula_structural   YHo7(Zr3Sn4)4
_chemical_formula_sum   'Y1 Ho7 Zr12 Sn16'
_cell_volume   899.95114771
_cell_formula_units_Z   1
loop_
 _symmetry_equiv_pos_site_id
 _symmetry_equiv_pos_as_xyz
  1  'x, y, z'
loop_
 _atom_site_type_symbol
 _atom_site_label
 _atom_site_symmetry_multiplicity
 _atom_site_fract_x
 _atom_site_fract_y
 _atom_site_fract_z
 _atom_site_occupancy
  Y  Y0  1  0.513059  0.322421  0.907161  1
  Ho  Ho1  1  0.013004  0.177859  0.592890  1
  Ho  Ho2  1  0.487008  0.677861  0.407159  1
  Ho  Ho3  1  0.987016  0.822172  0.092890  1
  Ho  Ho4  1  0.487018  0.677884  0.092929  1
  Ho  Ho5  1  0.987012  0.822121  0.407156  1
  Ho  Ho6  1  0.513005  0.322130  0.592927  1
  Ho  Ho7  1  0.012993  0.177831  0.907066  1
  Zr  Zr8  1  0.349684  0.837115  0.870949  1
  Zr  Zr9  1  0.849590  0.662744  0.629120  1
  Zr  Zr10  1  0.650314  0.162872  0.370929  1
  Zr  Zr11  1  0.150404  0.337227  0.129054  1
  Zr  Zr12  1  0.650341  0.162839  0.129039  1
  Zr  Zr13  1  0.150389  0.337220  0.370910  1
  Zr  Zr14  1  0.349676  0.837095  0.629105  1
  Zr  Zr15  1  0.849608  0.662787  0.870905  1
  Zr  Zr16  1  0.171676  0.509972  0.750048  1
  Zr  Zr17  1  0.671700  0.990091  0.750053  1
  Zr  Zr18  1  0.828313  0.490057  0.249919  1
  Zr  Zr19  1  0.328308  0.009839  0.249940  1
  Sn  Sn20  1  0.310661  0.039872  0.042240  1
  Sn  Sn21  1  0.810836  0.459942  0.457859  1
  Sn  Sn22  1  0.689219  0.959898  0.542219  1
  Sn  Sn23  1  0.188677  0.540340  0.957841  1
  Sn  Sn24  1  0.689395  0.959600  0.957809  1
  Sn  Sn25  1  0.189186  0.540066  0.542232  1
  Sn  Sn26  1  0.310802  0.040070  0.457869  1
  Sn  Sn27  1  0.811059  0.460115  0.042277  1
  Sn  Sn28  1  0.544414  0.615494  0.749822  1
  Sn  Sn29  1  0.044343  0.884660  0.749934  1
  Sn  Sn30  1  0.455666  0.384803  0.250045  1
  Sn  Sn31  1  0.955690  0.115244  0.250055  1
  Sn  Sn32  1  0.317689  0.154558  0.749732  1
  Sn  Sn33  1  0.818183  0.345219  0.749837  1
  Sn  Sn34  1  0.682049  0.845144  0.250050  1
  Sn  Sn35  1  0.182011  0.654839  0.250029  1
