# generated using pymatgen
data_Zr2BeP
_symmetry_space_group_name_H-M   'P 1'
_cell_length_a   3.56873300
_cell_length_b   5.20460532
_cell_length_c   7.41845524
_cell_angle_alpha   69.90385692
_cell_angle_beta   90.00000000
_cell_angle_gamma   90.00000000
_symmetry_Int_Tables_number   1
_chemical_formula_structural   Zr2BeP
_chemical_formula_sum   'Zr4 Be2 P2'
_cell_volume   129.40028068
_cell_formula_units_Z   2
loop_
 _symmetry_equiv_pos_site_id
 _symmetry_equiv_pos_as_xyz
  1  'x, y, z'
loop_
 _atom_site_type_symbol
 _atom_site_label
 _atom_site_symmetry_multiplicity
 _atom_site_fract_x
 _atom_site_fract_y
 _atom_site_fract_z
 _atom_site_occupancy
  Zr  Zr0  1  0.250000  0.718593  0.073827  1
  Zr  Zr1  1  0.750000  0.281407  0.926173  1
  Zr  Zr2  1  0.250000  0.218043  0.573363  1
  Zr  Zr3  1  0.750000  0.781957  0.426637  1
  Be  Be4  1  0.250000  0.644691  0.715877  1
  Be  Be5  1  0.750000  0.355309  0.284123  1
  P  P6  1  0.250000  0.152617  0.216163  1
  P  P7  1  0.750000  0.847383  0.783837  1
