# generated using pymatgen
data_Dy10Er5Tm(Ga3Co)2
_symmetry_space_group_name_H-M   'P 1'
_cell_length_a   9.96258704
_cell_length_b   9.96258729
_cell_length_c   6.94463901
_cell_angle_alpha   89.99413394
_cell_angle_beta   90.00586658
_cell_angle_gamma   119.99201930
_symmetry_Int_Tables_number   1
_chemical_formula_structural   Dy10Er5Tm(Ga3Co)2
_chemical_formula_sum   'Dy10 Er5 Tm1 Ga6 Co2'
_cell_volume   596.97960253
_cell_formula_units_Z   1
loop_
 _symmetry_equiv_pos_site_id
 _symmetry_equiv_pos_as_xyz
  1  'x, y, z'
loop_
 _atom_site_type_symbol
 _atom_site_label
 _atom_site_symmetry_multiplicity
 _atom_site_fract_x
 _atom_site_fract_y
 _atom_site_fract_z
 _atom_site_occupancy
  Dy  Dy0  1  0.333168  0.666832  0.826878  1
  Dy  Dy1  1  0.666658  0.333342  0.327298  1
  Dy  Dy2  1  0.463217  0.536783  0.207970  1
  Dy  Dy3  1  0.073553  0.537068  0.208264  1
  Dy  Dy4  1  0.462932  0.926447  0.208264  1
  Dy  Dy5  1  0.536816  0.463184  0.707897  1
  Dy  Dy6  1  0.926713  0.463595  0.707781  1
  Dy  Dy7  1  0.536405  0.073287  0.707781  1
  Dy  Dy8  1  0.000196  0.999804  0.232192  1
  Dy  Dy9  1  0.000070  0.999930  0.731415  1
  Er  Er10  1  0.654397  0.827181  0.511359  1
  Er  Er11  1  0.172819  0.345603  0.511359  1
  Er  Er12  1  0.827177  0.172823  0.011310  1
  Er  Er13  1  0.345592  0.172808  0.011387  1
  Er  Er14  1  0.827192  0.654408  0.011387  1
  Tm  Tm15  1  0.173073  0.826927  0.511375  1
  Ga  Ga16  1  0.163100  0.836900  0.957620  1
  Ga  Ga17  1  0.673689  0.836860  0.958283  1
  Ga  Ga18  1  0.163140  0.326311  0.958283  1
  Ga  Ga19  1  0.836902  0.163098  0.458363  1
  Ga  Ga20  1  0.325828  0.162349  0.458415  1
  Ga  Ga21  1  0.837651  0.674172  0.458415  1
  Co  Co22  1  0.333052  0.666948  0.445826  1
  Co  Co23  1  0.666659  0.333341  0.945713  1
