# generated using pymatgen
data_Dy6Ho10Cd4Ru3Pt
_symmetry_space_group_name_H-M   'P 1'
_cell_length_a   9.61390847
_cell_length_b   9.65580781
_cell_length_c   9.65580744
_cell_angle_alpha   59.62602285
_cell_angle_beta   59.47496950
_cell_angle_gamma   59.47496873
_symmetry_Int_Tables_number   1
_chemical_formula_structural   Dy6Ho10Cd4Ru3Pt
_chemical_formula_sum   'Dy6 Ho10 Cd4 Ru3 Pt1'
_cell_volume   626.97029910
_cell_formula_units_Z   1
loop_
 _symmetry_equiv_pos_site_id
 _symmetry_equiv_pos_as_xyz
  1  'x, y, z'
loop_
 _atom_site_type_symbol
 _atom_site_label
 _atom_site_symmetry_multiplicity
 _atom_site_fract_x
 _atom_site_fract_y
 _atom_site_fract_z
 _atom_site_occupancy
  Dy  Dy0  1  0.936713  0.561972  0.561972  1
  Dy  Dy1  1  0.557604  0.938392  0.938392  1
  Dy  Dy2  1  0.557544  0.938556  0.565458  1
  Dy  Dy3  1  0.937130  0.561647  0.939229  1
  Dy  Dy4  1  0.557544  0.565458  0.938556  1
  Dy  Dy5  1  0.937130  0.939229  0.561647  1
  Ho  Ho6  1  0.345297  0.350476  0.350476  1
  Ho  Ho7  1  0.346025  0.350748  0.954698  1
  Ho  Ho8  1  0.346025  0.954698  0.350748  1
  Ho  Ho9  1  0.963395  0.345621  0.345621  1
  Ho  Ho10  1  0.814650  0.189019  0.189019  1
  Ho  Ho11  1  0.186247  0.811412  0.811412  1
  Ho  Ho12  1  0.187801  0.811014  0.188486  1
  Ho  Ho13  1  0.814735  0.189060  0.805714  1
  Ho  Ho14  1  0.187801  0.188486  0.811014  1
  Ho  Ho15  1  0.814735  0.805714  0.189060  1
  Cd  Cd16  1  0.580367  0.580139  0.580139  1
  Cd  Cd17  1  0.580680  0.580156  0.258568  1
  Cd  Cd18  1  0.580680  0.258568  0.580156  1
  Cd  Cd19  1  0.256023  0.581122  0.581122  1
  Ru  Ru20  1  0.145050  0.138124  0.138124  1
  Ru  Ru21  1  0.145677  0.139592  0.578245  1
  Ru  Ru22  1  0.145677  0.578245  0.139592  1
  Pt  Pt23  1  0.575480  0.142549  0.142549  1
