# generated using pymatgen
data_Ho2Mn2Fe9CoP7
_symmetry_space_group_name_H-M   'P 1'
_cell_length_a   9.02245811
_cell_length_b   9.00231037
_cell_length_c   3.61653900
_cell_angle_alpha   90.00000000
_cell_angle_beta   90.00000000
_cell_angle_gamma   119.92188493
_symmetry_Int_Tables_number   1
_chemical_formula_structural   Ho2Mn2Fe9CoP7
_chemical_formula_sum   'Ho2 Mn2 Fe9 Co1 P7'
_cell_volume   254.59153104
_cell_formula_units_Z   1
loop_
 _symmetry_equiv_pos_site_id
 _symmetry_equiv_pos_as_xyz
  1  'x, y, z'
loop_
 _atom_site_type_symbol
 _atom_site_label
 _atom_site_symmetry_multiplicity
 _atom_site_fract_x
 _atom_site_fract_y
 _atom_site_fract_z
 _atom_site_occupancy
  Ho  Ho0  1  0.669402  0.334320  0.000000  1
  Ho  Ho1  1  0.331389  0.665047  0.500000  1
  Mn  Mn2  1  0.781264  0.885456  0.500000  1
  Mn  Mn3  1  0.119922  0.901234  0.500000  1
  Fe  Fe4  1  0.057095  0.424456  0.000000  1
  Fe  Fe5  1  0.571611  0.629558  0.000000  1
  Fe  Fe6  1  0.368593  0.942820  0.000000  1
  Fe  Fe7  1  0.274096  0.154460  0.000000  1
  Fe  Fe8  1  0.844389  0.118723  0.000000  1
  Fe  Fe9  1  0.434004  0.384267  0.500000  1
  Fe  Fe10  1  0.615922  0.049945  0.500000  1
  Fe  Fe11  1  0.949664  0.565176  0.500000  1
  Fe  Fe12  1  0.096026  0.213242  0.500000  1
  Co  Co13  1  0.882322  0.728574  0.000000  1
  P  P14  1  0.298719  0.410479  0.000000  1
  P  P15  1  0.585272  0.887563  0.000000  1
  P  P16  1  0.110964  0.696963  0.000000  1
  P  P17  1  0.409336  0.118986  0.500000  1
  P  P18  1  0.889621  0.289748  0.500000  1
  P  P19  1  0.708779  0.594339  0.500000  1
  P  P20  1  0.001607  0.004643  0.000000  1
