# generated using pymatgen
data_Co6ReMo6
_symmetry_space_group_name_H-M   'P 1'
_cell_length_a   9.12657125
_cell_length_b   9.12657145
_cell_length_c   9.12657252
_cell_angle_alpha   30.29125465
_cell_angle_beta   30.29125064
_cell_angle_gamma   30.29125525
_symmetry_Int_Tables_number   1
_chemical_formula_structural   Co6ReMo6
_chemical_formula_sum   'Co6 Re1 Mo6'
_cell_volume   171.38829714
_cell_formula_units_Z   1
loop_
 _symmetry_equiv_pos_site_id
 _symmetry_equiv_pos_as_xyz
  1  'x, y, z'
loop_
 _atom_site_type_symbol
 _atom_site_label
 _atom_site_symmetry_multiplicity
 _atom_site_fract_x
 _atom_site_fract_y
 _atom_site_fract_z
 _atom_site_occupancy
  Co  Co0  1  0.090426  0.090426  0.583773  1
  Co  Co1  1  0.416227  0.909574  0.909574  1
  Co  Co2  1  0.583773  0.090426  0.090426  1
  Co  Co3  1  0.909574  0.909574  0.416227  1
  Co  Co4  1  0.909574  0.416227  0.909574  1
  Co  Co5  1  0.090426  0.583773  0.090426  1
  Re  Re6  1  0.000000  0.000000  0.000000  1
  Mo  Mo7  1  0.837312  0.837312  0.837312  1
  Mo  Mo8  1  0.650116  0.650116  0.650116  1
  Mo  Mo9  1  0.451412  0.451412  0.451412  1
  Mo  Mo10  1  0.548588  0.548588  0.548588  1
  Mo  Mo11  1  0.162688  0.162688  0.162688  1
  Mo  Mo12  1  0.349884  0.349884  0.349884  1
