# generated using pymatgen
data_Hf18TiRe6Si2W
_symmetry_space_group_name_H-M   'P 1'
_cell_length_a   8.62814300
_cell_length_b   8.62814236
_cell_length_c   8.61315600
_cell_angle_alpha   90.00000000
_cell_angle_beta   90.00000000
_cell_angle_gamma   120.00000628
_symmetry_Int_Tables_number   1
_chemical_formula_structural   Hf18TiRe6Si2W
_chemical_formula_sum   'Hf18 Ti1 Re6 Si2 W1'
_cell_volume   555.29984716
_cell_formula_units_Z   1
loop_
 _symmetry_equiv_pos_site_id
 _symmetry_equiv_pos_as_xyz
  1  'x, y, z'
loop_
 _atom_site_type_symbol
 _atom_site_label
 _atom_site_symmetry_multiplicity
 _atom_site_fract_x
 _atom_site_fract_y
 _atom_site_fract_z
 _atom_site_occupancy
  Hf  Hf0  1  0.196022  0.803978  0.452177  1
  Hf  Hf1  1  0.196022  0.392045  0.452177  1
  Hf  Hf2  1  0.607955  0.803978  0.452177  1
  Hf  Hf3  1  0.803978  0.196022  0.547823  1
  Hf  Hf4  1  0.803978  0.607955  0.547823  1
  Hf  Hf5  1  0.392045  0.196022  0.547823  1
  Hf  Hf6  1  0.804601  0.195399  0.952585  1
  Hf  Hf7  1  0.804601  0.609202  0.952585  1
  Hf  Hf8  1  0.390798  0.195399  0.952585  1
  Hf  Hf9  1  0.195399  0.804601  0.047415  1
  Hf  Hf10  1  0.195399  0.390798  0.047415  1
  Hf  Hf11  1  0.609202  0.804601  0.047415  1
  Hf  Hf12  1  0.539653  0.460347  0.249996  1
  Hf  Hf13  1  0.539653  0.079306  0.249996  1
  Hf  Hf14  1  0.920694  0.460347  0.249996  1
  Hf  Hf15  1  0.460347  0.539653  0.750004  1
  Hf  Hf16  1  0.460347  0.920694  0.750004  1
  Hf  Hf17  1  0.079306  0.539653  0.750004  1
  Ti  Ti18  1  0.000000  0.000000  0.000000  1
  Re  Re19  1  0.889144  0.110856  0.248661  1
  Re  Re20  1  0.889144  0.778287  0.248661  1
  Re  Re21  1  0.221713  0.110856  0.248661  1
  Re  Re22  1  0.110856  0.889144  0.751339  1
  Re  Re23  1  0.110856  0.221713  0.751339  1
  Re  Re24  1  0.778287  0.889144  0.751339  1
  Si  Si25  1  0.333333  0.666667  0.249178  1
  Si  Si26  1  0.666667  0.333333  0.750822  1
  W  W27  1  0.000000  0.000000  0.500000  1
