# generated using pymatgen
data_Tb3Y(Fe2Cl)2
_symmetry_space_group_name_H-M   'P 1'
_cell_length_a   3.89474400
_cell_length_b   3.89474415
_cell_length_c   16.13750800
_cell_angle_alpha   90.00000000
_cell_angle_beta   90.00000000
_cell_angle_gamma   119.99998171
_symmetry_Int_Tables_number   1
_chemical_formula_structural   Tb3Y(Fe2Cl)2
_chemical_formula_sum   'Tb3 Y1 Fe4 Cl2'
_cell_volume   211.99471459
_cell_formula_units_Z   1
loop_
 _symmetry_equiv_pos_site_id
 _symmetry_equiv_pos_as_xyz
  1  'x, y, z'
loop_
 _atom_site_type_symbol
 _atom_site_label
 _atom_site_symmetry_multiplicity
 _atom_site_fract_x
 _atom_site_fract_y
 _atom_site_fract_z
 _atom_site_occupancy
  Tb  Tb0  1  0.000000  0.000000  0.113602  1
  Tb  Tb1  1  0.000000  0.000000  0.886125  1
  Tb  Tb2  1  0.000000  0.000000  0.613564  1
  Y  Y3  1  0.000000  0.000000  0.385833  1
  Fe  Fe4  1  0.333333  0.666667  0.506628  1
  Fe  Fe5  1  0.666667  0.333333  0.493147  1
  Fe  Fe6  1  0.666667  0.333333  0.006620  1
  Fe  Fe7  1  0.333333  0.666667  0.993482  1
  Cl  Cl8  1  0.333333  0.666667  0.251237  1
  Cl  Cl9  1  0.666667  0.333333  0.749763  1
