# generated using pymatgen
data_RbCu2F8
_symmetry_space_group_name_H-M   'P 1'
_cell_length_a   7.23775170
_cell_length_b   7.23689463
_cell_length_c   5.36734898
_cell_angle_alpha   109.61069077
_cell_angle_beta   109.61766787
_cell_angle_gamma   42.19559217
_symmetry_Int_Tables_number   1
_chemical_formula_structural   RbCu2F8
_chemical_formula_sum   'Rb1 Cu2 F8'
_cell_volume   176.18232483
_cell_formula_units_Z   1
loop_
 _symmetry_equiv_pos_site_id
 _symmetry_equiv_pos_as_xyz
  1  'x, y, z'
loop_
 _atom_site_type_symbol
 _atom_site_label
 _atom_site_symmetry_multiplicity
 _atom_site_fract_x
 _atom_site_fract_y
 _atom_site_fract_z
 _atom_site_occupancy
  Rb  Rb0  1  0.812726  0.187559  0.000209  1
  Cu  Cu1  1  0.495281  0.005823  0.251273  1
  Cu  Cu2  1  0.994004  0.504546  0.748509  1
  F  F3  1  0.809858  0.752662  0.057775  1
  F  F4  1  0.439019  0.786620  0.139925  1
  F  F5  1  0.550978  0.225108  0.364265  1
  F  F6  1  0.174440  0.262382  0.437726  1
  F  F7  1  0.737955  0.825605  0.562668  1
  F  F8  1  0.774699  0.448808  0.635397  1
  F  F9  1  0.212651  0.561578  0.860140  1
  F  F10  1  0.247246  0.190453  0.942114  1
