# generated using pymatgen
data_Rb2Co4P4O15
_symmetry_space_group_name_H-M   'P 1'
_cell_length_a   8.76059339
_cell_length_b   8.76059280
_cell_length_c   18.42376800
_cell_angle_alpha   97.91491145
_cell_angle_beta   97.91491092
_cell_angle_gamma   106.28767025
_symmetry_Int_Tables_number   1
_chemical_formula_structural   Rb2Co4P4O15
_chemical_formula_sum   'Rb8 Co16 P16 O60'
_cell_volume   1320.98653930
_cell_formula_units_Z   4
loop_
 _symmetry_equiv_pos_site_id
 _symmetry_equiv_pos_as_xyz
  1  'x, y, z'
loop_
 _atom_site_type_symbol
 _atom_site_label
 _atom_site_symmetry_multiplicity
 _atom_site_fract_x
 _atom_site_fract_y
 _atom_site_fract_z
 _atom_site_occupancy
  Rb  Rb0  1  0.107562  0.594387  0.299904  1
  Rb  Rb1  1  0.346423  0.554105  0.047220  1
  Rb  Rb2  1  0.445895  0.653577  0.452780  1
  Rb  Rb3  1  0.892438  0.405613  0.700096  1
  Rb  Rb4  1  0.653577  0.445895  0.952780  1
  Rb  Rb5  1  0.594387  0.107562  0.799904  1
  Rb  Rb6  1  0.405613  0.892438  0.200096  1
  Rb  Rb7  1  0.554105  0.346423  0.547220  1
  Co  Co8  1  0.914094  0.272521  0.068424  1
  Co  Co9  1  0.843536  0.957262  0.931772  1
  Co  Co10  1  0.531264  0.468736  0.250000  1
  Co  Co11  1  0.828121  0.171879  0.250000  1
  Co  Co12  1  0.468736  0.531264  0.750000  1
  Co  Co13  1  0.000000  0.500000  0.500000  1
  Co  Co14  1  0.156464  0.042738  0.068228  1
  Co  Co15  1  0.272521  0.914094  0.568424  1
  Co  Co16  1  0.042738  0.156464  0.568228  1
  Co  Co17  1  0.046007  0.953993  0.250000  1
  Co  Co18  1  0.171879  0.828121  0.750000  1
  Co  Co19  1  0.957262  0.843536  0.431772  1
  Co  Co20  1  0.953993  0.046007  0.750000  1
  Co  Co21  1  0.500000  0.000000  0.000000  1
  Co  Co22  1  0.727479  0.085906  0.431576  1
  Co  Co23  1  0.085906  0.727479  0.931576  1
  P  P24  1  0.437939  0.768488  0.877926  1
  P  P25  1  0.104376  0.221694  0.402629  1
  P  P26  1  0.989114  0.688898  0.098029  1
  P  P27  1  0.311102  0.010886  0.401971  1
  P  P28  1  0.778306  0.895624  0.097371  1
  P  P29  1  0.157801  0.278426  0.179427  1
  P  P30  1  0.721574  0.842199  0.320573  1
  P  P31  1  0.562061  0.231512  0.122074  1
  P  P32  1  0.221694  0.104376  0.902629  1
  P  P33  1  0.278426  0.157801  0.679427  1
  P  P34  1  0.842199  0.721574  0.820573  1
  P  P35  1  0.895624  0.778306  0.597371  1
  P  P36  1  0.010886  0.311102  0.901971  1
  P  P37  1  0.768488  0.437939  0.377926  1
  P  P38  1  0.688898  0.989114  0.598029  1
  P  P39  1  0.231512  0.562061  0.622074  1
  O  O40  1  0.138386  0.401755  0.428554  1
  O  O41  1  0.777801  0.328595  0.438451  1
  O  O42  1  0.708256  0.585223  0.767144  1
  O  O43  1  0.748808  0.055356  0.680936  1
  O  O44  1  0.251192  0.944644  0.319064  1
  O  O45  1  0.597717  0.453653  0.358076  1
  O  O46  1  0.055356  0.748808  0.180936  1
  O  O47  1  0.617577  0.173457  0.192162  1
  O  O48  1  0.948595  0.510187  0.070654  1
  O  O49  1  0.826543  0.382423  0.307838  1
  O  O50  1  0.173457  0.617577  0.692162  1
  O  O51  1  0.957243  0.834718  0.681283  1
  O  O52  1  0.989199  0.297786  0.187798  1
  O  O53  1  0.051405  0.489813  0.929346  1
  O  O54  1  0.944644  0.251192  0.819064  1
  O  O55  1  0.834718  0.957243  0.181283  1
  O  O56  1  0.114538  0.993924  0.948546  1
  O  O57  1  0.165282  0.042757  0.818717  1
  O  O58  1  0.602274  0.900147  0.920493  1
  O  O59  1  0.702214  0.010801  0.312202  1
  O  O60  1  0.103457  0.788014  0.051643  1
  O  O61  1  0.186739  0.276923  0.921057  1
  O  O62  1  0.211986  0.896543  0.448357  1
  O  O63  1  0.328595  0.777801  0.938451  1
  O  O64  1  0.173184  0.106489  0.185564  1
  O  O65  1  0.382423  0.826543  0.807838  1
  O  O66  1  0.285145  0.161003  0.594038  1
  O  O67  1  0.010801  0.702214  0.812202  1
  O  O68  1  0.276923  0.186739  0.421057  1
  O  O69  1  0.900147  0.602274  0.420493  1
  O  O70  1  0.885462  0.006076  0.051454  1
  O  O71  1  0.788014  0.103457  0.551644  1
  O  O72  1  0.813261  0.723077  0.078943  1
  O  O73  1  0.222199  0.671405  0.561549  1
  O  O74  1  0.297786  0.989199  0.687798  1
  O  O75  1  0.106489  0.173184  0.685564  1
  O  O76  1  0.401755  0.138386  0.928554  1
  O  O77  1  0.714855  0.838997  0.405962  1
  O  O78  1  0.291744  0.414777  0.232856  1
  O  O79  1  0.838997  0.714855  0.905962  1
  O  O80  1  0.723077  0.813261  0.578943  1
  O  O81  1  0.099853  0.397726  0.579507  1
  O  O82  1  0.671405  0.222199  0.061549  1
  O  O83  1  0.585223  0.708256  0.267144  1
  O  O84  1  0.006076  0.885462  0.551454  1
  O  O85  1  0.397726  0.099853  0.079507  1
  O  O86  1  0.861614  0.598245  0.571446  1
  O  O87  1  0.826816  0.893511  0.814436  1
  O  O88  1  0.161003  0.285145  0.094038  1
  O  O89  1  0.510187  0.948595  0.570654  1
  O  O90  1  0.598245  0.861614  0.071446  1
  O  O91  1  0.042757  0.165282  0.318717  1
  O  O92  1  0.453653  0.597717  0.858076  1
  O  O93  1  0.489813  0.051405  0.429346  1
  O  O94  1  0.993924  0.114538  0.448546  1
  O  O95  1  0.546347  0.402283  0.141924  1
  O  O96  1  0.402283  0.546347  0.641924  1
  O  O97  1  0.414777  0.291744  0.732856  1
  O  O98  1  0.893511  0.826816  0.314436  1
  O  O99  1  0.896543  0.211986  0.948356  1
