# generated using pymatgen
data_Hf8Zr2Ga2Sn5Bi
_symmetry_space_group_name_H-M   'P 1'
_cell_length_a   8.69697900
_cell_length_b   8.69697900
_cell_length_c   5.83256200
_cell_angle_alpha   90.00000000
_cell_angle_beta   90.00000000
_cell_angle_gamma   119.86745832
_symmetry_Int_Tables_number   1
_chemical_formula_structural   Hf8Zr2Ga2Sn5Bi
_chemical_formula_sum   'Hf8 Zr2 Ga2 Sn5 Bi1'
_cell_volume   382.56507906
_cell_formula_units_Z   1
loop_
 _symmetry_equiv_pos_site_id
 _symmetry_equiv_pos_as_xyz
  1  'x, y, z'
loop_
 _atom_site_type_symbol
 _atom_site_label
 _atom_site_symmetry_multiplicity
 _atom_site_fract_x
 _atom_site_fract_y
 _atom_site_fract_z
 _atom_site_occupancy
  Hf  Hf0  1  0.264748  0.992981  0.750000  1
  Hf  Hf1  1  0.992981  0.264748  0.750000  1
  Hf  Hf2  1  0.732344  0.000809  0.250000  1
  Hf  Hf3  1  0.000809  0.732344  0.250000  1
  Hf  Hf4  1  0.670050  0.332171  0.001460  1
  Hf  Hf5  1  0.332171  0.670050  0.001460  1
  Hf  Hf6  1  0.332171  0.670050  0.498540  1
  Hf  Hf7  1  0.670050  0.332171  0.498540  1
  Zr  Zr8  1  0.735940  0.735940  0.750000  1
  Zr  Zr9  1  0.267017  0.267017  0.250000  1
  Ga  Ga10  1  0.000527  0.000527  0.001181  1
  Ga  Ga11  1  0.000527  0.000527  0.498819  1
  Sn  Sn12  1  0.609915  0.999376  0.750000  1
  Sn  Sn13  1  0.999376  0.609915  0.750000  1
  Sn  Sn14  1  0.612852  0.612852  0.250000  1
  Sn  Sn15  1  0.389292  0.000935  0.250000  1
  Sn  Sn16  1  0.000935  0.389292  0.250000  1
  Bi  Bi17  1  0.388296  0.388296  0.750000  1
