# generated using pymatgen
data_Tb6Ho4Sn5Sb
_symmetry_space_group_name_H-M   'P 1'
_cell_length_a   8.99538500
_cell_length_b   8.99315229
_cell_length_c   6.51846000
_cell_angle_alpha   90.00000000
_cell_angle_beta   90.00000000
_cell_angle_gamma   120.00820929
_symmetry_Int_Tables_number   1
_chemical_formula_structural   Tb6Ho4Sn5Sb
_chemical_formula_sum   'Tb6 Ho4 Sn5 Sb1'
_cell_volume   456.63732623
_cell_formula_units_Z   1
loop_
 _symmetry_equiv_pos_site_id
 _symmetry_equiv_pos_as_xyz
  1  'x, y, z'
loop_
 _atom_site_type_symbol
 _atom_site_label
 _atom_site_symmetry_multiplicity
 _atom_site_fract_x
 _atom_site_fract_y
 _atom_site_fract_z
 _atom_site_occupancy
  Tb  Tb0  1  0.999037  0.760039  0.750000  1
  Tb  Tb1  1  0.000303  0.239507  0.250000  1
  Tb  Tb2  1  0.760796  0.760493  0.250000  1
  Tb  Tb3  1  0.761048  0.000000  0.750000  1
  Tb  Tb4  1  0.238998  0.239961  0.750000  1
  Tb  Tb5  1  0.239410  0.000000  0.250000  1
  Ho  Ho6  1  0.333200  0.666165  0.499924  1
  Ho  Ho7  1  0.667036  0.333835  0.000076  1
  Ho  Ho8  1  0.667036  0.333835  0.499924  1
  Ho  Ho9  1  0.333200  0.666165  0.000076  1
  Sn  Sn10  1  0.396091  0.395812  0.250000  1
  Sn  Sn11  1  0.000278  0.604188  0.250000  1
  Sn  Sn12  1  0.999935  0.396036  0.750000  1
  Sn  Sn13  1  0.603899  0.603964  0.750000  1
  Sn  Sn14  1  0.604320  0.000000  0.250000  1
  Sb  Sb15  1  0.395416  0.000000  0.750000  1
