# generated using pymatgen
data_Er4LuBi3C
_symmetry_space_group_name_H-M   'P 1'
_cell_length_a   9.06807803
_cell_length_b   9.06944632
_cell_length_c   6.42472500
_cell_angle_alpha   90.00000000
_cell_angle_beta   90.00000000
_cell_angle_gamma   120.00499038
_symmetry_Int_Tables_number   1
_chemical_formula_structural   Er4LuBi3C
_chemical_formula_sum   'Er8 Lu2 Bi6 C2'
_cell_volume   457.57191123
_cell_formula_units_Z   2
loop_
 _symmetry_equiv_pos_site_id
 _symmetry_equiv_pos_as_xyz
  1  'x, y, z'
loop_
 _atom_site_type_symbol
 _atom_site_label
 _atom_site_symmetry_multiplicity
 _atom_site_fract_x
 _atom_site_fract_y
 _atom_site_fract_z
 _atom_site_occupancy
  Er  Er0  1  0.666638  0.333287  0.000581  1
  Er  Er1  1  0.333362  0.666651  0.000581  1
  Er  Er2  1  0.333362  0.666651  0.499419  1
  Er  Er3  1  0.666638  0.333287  0.499419  1
  Er  Er4  1  0.000000  0.207090  0.750000  1
  Er  Er5  1  0.207249  0.206642  0.250000  1
  Er  Er6  1  0.792751  0.999393  0.250000  1
  Er  Er7  1  0.000000  0.792348  0.250000  1
  Lu  Lu8  1  0.797420  0.797340  0.750000  1
  Lu  Lu9  1  0.202580  0.999920  0.750000  1
  Bi  Bi10  1  0.401625  0.400791  0.750000  1
  Bi  Bi11  1  0.598375  0.999165  0.750000  1
  Bi  Bi12  1  0.000000  0.599803  0.750000  1
  Bi  Bi13  1  0.598718  0.598885  0.250000  1
  Bi  Bi14  1  0.401282  0.000167  0.250000  1
  Bi  Bi15  1  0.000000  0.400825  0.250000  1
  C  C16  1  0.000000  0.998877  0.997910  1
  C  C17  1  0.000000  0.998877  0.502090  1
