# generated using pymatgen
data_HoLu9(Sn3P)2
_symmetry_space_group_name_H-M   'P 1'
_cell_length_a   8.88468943
_cell_length_b   8.88468913
_cell_length_c   6.56302800
_cell_angle_alpha   90.00000000
_cell_angle_beta   90.00000000
_cell_angle_gamma   119.93506371
_symmetry_Int_Tables_number   1
_chemical_formula_structural   HoLu9(Sn3P)2
_chemical_formula_sum   'Ho1 Lu9 Sn6 P2'
_cell_volume   448.95538173
_cell_formula_units_Z   1
loop_
 _symmetry_equiv_pos_site_id
 _symmetry_equiv_pos_as_xyz
  1  'x, y, z'
loop_
 _atom_site_type_symbol
 _atom_site_label
 _atom_site_symmetry_multiplicity
 _atom_site_fract_x
 _atom_site_fract_y
 _atom_site_fract_z
 _atom_site_occupancy
  Ho  Ho0  1  0.756957  0.756957  0.750000  1
  Lu  Lu1  1  0.666529  0.333064  0.000070  1
  Lu  Lu2  1  0.333064  0.666529  0.000070  1
  Lu  Lu3  1  0.333064  0.666529  0.499930  1
  Lu  Lu4  1  0.666529  0.333064  0.499930  1
  Lu  Lu5  1  0.241322  0.000143  0.750000  1
  Lu  Lu6  1  0.000143  0.241322  0.750000  1
  Lu  Lu7  1  0.241430  0.241430  0.250000  1
  Lu  Lu8  1  0.758879  0.000162  0.250000  1
  Lu  Lu9  1  0.000162  0.758879  0.250000  1
  Sn  Sn10  1  0.398240  0.398240  0.750000  1
  Sn  Sn11  1  0.599994  0.001108  0.750000  1
  Sn  Sn12  1  0.001108  0.599994  0.750000  1
  Sn  Sn13  1  0.600760  0.600760  0.250000  1
  Sn  Sn14  1  0.399370  0.000085  0.250000  1
  Sn  Sn15  1  0.000085  0.399370  0.250000  1
  P  P16  1  0.001182  0.001182  0.001101  1
  P  P17  1  0.001182  0.001182  0.498899  1
