# generated using pymatgen
data_Tm2Si5Pt2Rh
_symmetry_space_group_name_H-M   'P 1'
_cell_length_a   8.10780679
_cell_length_b   8.10780755
_cell_length_c   8.10780785
_cell_angle_alpha   136.95817646
_cell_angle_beta   104.01401622
_cell_angle_gamma   91.54632776
_symmetry_Int_Tables_number   1
_chemical_formula_structural   Tm2Si5Pt2Rh
_chemical_formula_sum   'Tm4 Si10 Pt4 Rh2'
_cell_volume   335.78908308
_cell_formula_units_Z   2
loop_
 _symmetry_equiv_pos_site_id
 _symmetry_equiv_pos_as_xyz
  1  'x, y, z'
loop_
 _atom_site_type_symbol
 _atom_site_label
 _atom_site_symmetry_multiplicity
 _atom_site_fract_x
 _atom_site_fract_y
 _atom_site_fract_z
 _atom_site_occupancy
  Tm  Tm0  1  0.639236  0.869533  0.769703  1
  Tm  Tm1  1  0.360764  0.130467  0.230297  1
  Tm  Tm2  1  0.099830  0.369533  0.730297  1
  Tm  Tm3  1  0.900170  0.630467  0.269703  1
  Si  Si4  1  0.275554  0.025554  0.750000  1
  Si  Si5  1  0.724446  0.974446  0.250000  1
  Si  Si6  1  0.724446  0.474446  0.750000  1
  Si  Si7  1  0.275554  0.525554  0.250000  1
  Si  Si8  1  0.454632  0.605437  0.849194  1
  Si  Si9  1  0.545368  0.394563  0.150806  1
  Si  Si10  1  0.756242  0.105437  0.650806  1
  Si  Si11  1  0.243758  0.894563  0.349194  1
  Si  Si12  1  0.000000  0.750000  0.750000  1
  Si  Si13  1  0.000000  0.250000  0.250000  1
  Pt  Pt14  1  0.253977  0.638794  0.615184  1
  Pt  Pt15  1  0.746023  0.361206  0.384816  1
  Pt  Pt16  1  0.023611  0.138794  0.884816  1
  Pt  Pt17  1  0.976389  0.861206  0.115184  1
  Rh  Rh18  1  0.500000  0.750000  0.250000  1
  Rh  Rh19  1  0.500000  0.250000  0.750000  1
