# generated using pymatgen
data_Cs6(PtO3)5
_symmetry_space_group_name_H-M   'P 1'
_cell_length_a   8.10990195
_cell_length_b   8.10989705
_cell_length_c   8.10990050
_cell_angle_alpha   89.91238800
_cell_angle_beta   89.91234359
_cell_angle_gamma   89.91240176
_symmetry_Int_Tables_number   1
_chemical_formula_structural   Cs6(PtO3)5
_chemical_formula_sum   'Cs6 Pt5 O15'
_cell_volume   533.39009817
_cell_formula_units_Z   1
loop_
 _symmetry_equiv_pos_site_id
 _symmetry_equiv_pos_as_xyz
  1  'x, y, z'
loop_
 _atom_site_type_symbol
 _atom_site_label
 _atom_site_symmetry_multiplicity
 _atom_site_fract_x
 _atom_site_fract_y
 _atom_site_fract_z
 _atom_site_occupancy
  Cs  Cs0  1  0.323517  0.676289  0.000048  1
  Cs  Cs1  1  0.000048  0.323519  0.676288  1
  Cs  Cs2  1  0.676288  0.000047  0.323519  1
  Cs  Cs3  1  0.145564  0.854577  0.499869  1
  Cs  Cs4  1  0.499869  0.145565  0.854577  1
  Cs  Cs5  1  0.854576  0.499869  0.145564  1
  Pt  Pt6  1  0.500022  0.500021  0.500021  1
  Pt  Pt7  1  0.299217  0.299217  0.299217  1
  Pt  Pt8  1  0.700790  0.700790  0.700790  1
  Pt  Pt9  1  0.099491  0.099491  0.099491  1
  Pt  Pt10  1  0.900521  0.900521  0.900522  1
  O  O11  1  0.128624  0.999953  0.871373  1
  O  O12  1  0.871374  0.128624  0.999954  1
  O  O13  1  0.999953  0.871374  0.128624  1
  O  O14  1  0.062378  0.216381  0.317088  1
  O  O15  1  0.317088  0.062378  0.216381  1
  O  O16  1  0.216381  0.317088  0.062378  1
  O  O17  1  0.783622  0.937688  0.682827  1
  O  O18  1  0.682827  0.783623  0.937688  1
  O  O19  1  0.937688  0.682827  0.783623  1
  O  O20  1  0.351822  0.303045  0.543291  1
  O  O21  1  0.543291  0.351822  0.303045  1
  O  O22  1  0.303046  0.543291  0.351822  1
  O  O23  1  0.697042  0.648259  0.456701  1
  O  O24  1  0.456701  0.697042  0.648259  1
  O  O25  1  0.648260  0.456701  0.697042  1
