# generated using pymatgen
data_Lu2Rh6C
_symmetry_space_group_name_H-M   'P 1'
_cell_length_a   5.75156217
_cell_length_b   5.75156336
_cell_length_c   5.75156300
_cell_angle_alpha   60.00000784
_cell_angle_beta   60.00000098
_cell_angle_gamma   59.99999755
_symmetry_Int_Tables_number   1
_chemical_formula_structural   Lu2Rh6C
_chemical_formula_sum   'Lu2 Rh6 C1'
_cell_volume   134.53727638
_cell_formula_units_Z   1
loop_
 _symmetry_equiv_pos_site_id
 _symmetry_equiv_pos_as_xyz
  1  'x, y, z'
loop_
 _atom_site_type_symbol
 _atom_site_label
 _atom_site_symmetry_multiplicity
 _atom_site_fract_x
 _atom_site_fract_y
 _atom_site_fract_z
 _atom_site_occupancy
  Lu  Lu0  1  0.250000  0.250000  0.250000  1
  Lu  Lu1  1  0.750000  0.750000  0.750000  1
  Rh  Rh2  1  0.754141  0.754141  0.245858  1
  Rh  Rh3  1  0.754141  0.245858  0.245858  1
  Rh  Rh4  1  0.245858  0.754141  0.245858  1
  Rh  Rh5  1  0.245858  0.245858  0.754141  1
  Rh  Rh6  1  0.754141  0.245858  0.754141  1
  Rh  Rh7  1  0.245858  0.754141  0.754141  1
  C  C8  1  0.500000  0.500000  0.500000  1
