# generated using pymatgen
data_Er5Nb3Co16(SiP)6
_symmetry_space_group_name_H-M   'P 1'
_cell_length_a   12.28319200
_cell_length_b   12.28319123
_cell_length_c   3.73014000
_cell_angle_alpha   90.00000000
_cell_angle_beta   90.00000000
_cell_angle_gamma   119.99999669
_symmetry_Int_Tables_number   1
_chemical_formula_structural   Er5Nb3Co16(SiP)6
_chemical_formula_sum   'Er5 Nb3 Co16 Si6 P6'
_cell_volume   487.39181533
_cell_formula_units_Z   1
loop_
 _symmetry_equiv_pos_site_id
 _symmetry_equiv_pos_as_xyz
  1  'x, y, z'
loop_
 _atom_site_type_symbol
 _atom_site_label
 _atom_site_symmetry_multiplicity
 _atom_site_fract_x
 _atom_site_fract_y
 _atom_site_fract_z
 _atom_site_occupancy
  Er  Er0  1  0.816923  0.000000  0.500000  1
  Er  Er1  1  0.000000  0.816923  0.500000  1
  Er  Er2  1  0.183077  0.183077  0.500000  1
  Er  Er3  1  0.333333  0.666667  0.000000  1
  Er  Er4  1  0.666667  0.333333  0.000000  1
  Nb  Nb5  1  0.441558  0.000000  0.000000  1
  Nb  Nb6  1  0.000000  0.441558  0.000000  1
  Nb  Nb7  1  0.558442  0.558442  0.000000  1
  Co  Co8  1  0.276145  0.000000  0.500000  1
  Co  Co9  1  0.000000  0.276145  0.500000  1
  Co  Co10  1  0.723855  0.723855  0.500000  1
  Co  Co11  1  0.629354  0.807522  0.000000  1
  Co  Co12  1  0.192478  0.821832  0.000000  1
  Co  Co13  1  0.178168  0.370646  0.000000  1
  Co  Co14  1  0.370646  0.178168  0.000000  1
  Co  Co15  1  0.807522  0.629354  0.000000  1
  Co  Co16  1  0.821832  0.192478  0.000000  1
  Co  Co17  1  0.523822  0.878997  0.500000  1
  Co  Co18  1  0.121003  0.644825  0.500000  1
  Co  Co19  1  0.355175  0.476178  0.500000  1
  Co  Co20  1  0.476178  0.355175  0.500000  1
  Co  Co21  1  0.878997  0.523822  0.500000  1
  Co  Co22  1  0.644825  0.121003  0.500000  1
  Co  Co23  1  0.000000  0.000000  0.000000  1
  Si  Si24  1  0.521305  0.690458  0.500000  1
  Si  Si25  1  0.309542  0.830847  0.500000  1
  Si  Si26  1  0.169153  0.478695  0.500000  1
  Si  Si27  1  0.478695  0.169153  0.500000  1
  Si  Si28  1  0.690458  0.521305  0.500000  1
  Si  Si29  1  0.830847  0.309542  0.500000  1
  P  P30  1  0.180022  0.000000  0.000000  1
  P  P31  1  0.000000  0.180022  0.000000  1
  P  P32  1  0.819978  0.819978  0.000000  1
  P  P33  1  0.644664  0.000000  0.000000  1
  P  P34  1  0.000000  0.644664  0.000000  1
  P  P35  1  0.355336  0.355336  0.000000  1
