# generated using pymatgen
data_Cs8Tb2O7
_symmetry_space_group_name_H-M   'P 1'
_cell_length_a   19.67224700
_cell_length_b   7.48082802
_cell_length_c   7.66488083
_cell_angle_alpha   61.11105838
_cell_angle_beta   90.00000000
_cell_angle_gamma   90.00000000
_symmetry_Int_Tables_number   1
_chemical_formula_structural   Cs8Tb2O7
_chemical_formula_sum   'Cs16 Tb4 O14'
_cell_volume   987.62906180
_cell_formula_units_Z   2
loop_
 _symmetry_equiv_pos_site_id
 _symmetry_equiv_pos_as_xyz
  1  'x, y, z'
loop_
 _atom_site_type_symbol
 _atom_site_label
 _atom_site_symmetry_multiplicity
 _atom_site_fract_x
 _atom_site_fract_y
 _atom_site_fract_z
 _atom_site_occupancy
  Cs  Cs0  1  0.504202  0.021836  0.241003  1
  Cs  Cs1  1  0.004202  0.478164  0.758997  1
  Cs  Cs2  1  0.495798  0.978164  0.758997  1
  Cs  Cs3  1  0.995798  0.521836  0.241003  1
  Cs  Cs4  1  0.704766  0.039878  0.232360  1
  Cs  Cs5  1  0.204766  0.460122  0.767640  1
  Cs  Cs6  1  0.295234  0.960122  0.767640  1
  Cs  Cs7  1  0.795234  0.539878  0.232360  1
  Cs  Cs8  1  0.089173  0.995635  0.357974  1
  Cs  Cs9  1  0.589173  0.504365  0.642026  1
  Cs  Cs10  1  0.910827  0.004365  0.642026  1
  Cs  Cs11  1  0.410827  0.495635  0.357974  1
  Cs  Cs12  1  0.807015  0.453474  0.780925  1
  Cs  Cs13  1  0.307015  0.046526  0.219075  1
  Cs  Cs14  1  0.192985  0.546526  0.219075  1
  Cs  Cs15  1  0.692985  0.953474  0.780925  1
  Tb  Tb16  1  0.596829  0.499531  0.148199  1
  Tb  Tb17  1  0.096829  0.000469  0.851801  1
  Tb  Tb18  1  0.403171  0.500469  0.851801  1
  Tb  Tb19  1  0.903171  0.999531  0.148199  1
  O  O20  1  0.500000  0.500000  0.000000  1
  O  O21  1  0.000000  0.000000  0.000000  1
  O  O22  1  0.177891  0.011985  0.039708  1
  O  O23  1  0.677891  0.488015  0.960292  1
  O  O24  1  0.822109  0.988015  0.960292  1
  O  O25  1  0.322109  0.511985  0.039708  1
  O  O26  1  0.892143  0.280215  0.164192  1
  O  O27  1  0.392143  0.219785  0.835808  1
  O  O28  1  0.107857  0.719785  0.835808  1
  O  O29  1  0.607857  0.780215  0.164192  1
  O  O30  1  0.599377  0.231220  0.439572  1
  O  O31  1  0.099377  0.268780  0.560428  1
  O  O32  1  0.400623  0.768780  0.560428  1
  O  O33  1  0.900623  0.731220  0.439572  1
