# generated using pymatgen
data_Sr2Ni2I
_symmetry_space_group_name_H-M   'P 1'
_cell_length_a   4.18585800
_cell_length_b   4.18587204
_cell_length_c   18.15319000
_cell_angle_alpha   90.00000000
_cell_angle_beta   90.00000000
_cell_angle_gamma   119.99990485
_symmetry_Int_Tables_number   1
_chemical_formula_structural   Sr2Ni2I
_chemical_formula_sum   'Sr4 Ni4 I2'
_cell_volume   275.45739800
_cell_formula_units_Z   2
loop_
 _symmetry_equiv_pos_site_id
 _symmetry_equiv_pos_as_xyz
  1  'x, y, z'
loop_
 _atom_site_type_symbol
 _atom_site_label
 _atom_site_symmetry_multiplicity
 _atom_site_fract_x
 _atom_site_fract_y
 _atom_site_fract_z
 _atom_site_occupancy
  Sr  Sr0  1  0.000002  0.000004  0.108305  1
  Sr  Sr1  1  0.000002  0.000004  0.391695  1
  Sr  Sr2  1  0.999998  0.999996  0.608305  1
  Sr  Sr3  1  0.999998  0.999996  0.891695  1
  Ni  Ni4  1  0.333335  0.666669  0.000666  1
  Ni  Ni5  1  0.333335  0.666669  0.499334  1
  Ni  Ni6  1  0.666665  0.333331  0.500666  1
  Ni  Ni7  1  0.666665  0.333331  0.999334  1
  I  I8  1  0.666684  0.333366  0.250000  1
  I  I9  1  0.333316  0.666633  0.750000  1
