# generated using pymatgen
data_Li3Sm4MgPb4
_symmetry_space_group_name_H-M   'P 1'
_cell_length_a   7.54446800
_cell_length_b   4.84325600
_cell_length_c   8.44584897
_cell_angle_alpha   90.00000000
_cell_angle_beta   89.67303357
_cell_angle_gamma   90.00000000
_symmetry_Int_Tables_number   1
_chemical_formula_structural   Li3Sm4MgPb4
_chemical_formula_sum   'Li3 Sm4 Mg1 Pb4'
_cell_volume   308.60452184
_cell_formula_units_Z   1
loop_
 _symmetry_equiv_pos_site_id
 _symmetry_equiv_pos_as_xyz
  1  'x, y, z'
loop_
 _atom_site_type_symbol
 _atom_site_label
 _atom_site_symmetry_multiplicity
 _atom_site_fract_x
 _atom_site_fract_y
 _atom_site_fract_z
 _atom_site_occupancy
  Li  Li0  1  0.816531  0.749999  0.078808  1
  Li  Li1  1  0.318976  0.749999  0.423564  1
  Li  Li2  1  0.683838  0.249999  0.579367  1
  Sm  Sm3  1  0.506691  0.249999  0.226811  1
  Sm  Sm4  1  0.997690  0.249999  0.279564  1
  Sm  Sm5  1  0.990505  0.749999  0.715273  1
  Sm  Sm6  1  0.498076  0.749999  0.776043  1
  Mg  Mg7  1  0.191654  0.249999  0.917684  1
  Pb  Pb8  1  0.238391  0.749999  0.099781  1
  Pb  Pb9  1  0.730794  0.749999  0.411036  1
  Pb  Pb10  1  0.264889  0.249999  0.581037  1
  Pb  Pb11  1  0.761961  0.249999  0.911031  1
