# generated using pymatgen
data_Y2Ho14CdAg3Rh4
_symmetry_space_group_name_H-M   'P 1'
_cell_length_a   9.53805362
_cell_length_b   9.50931607
_cell_length_c   9.48234200
_cell_angle_alpha   60.09378950
_cell_angle_beta   60.19303082
_cell_angle_gamma   60.23417176
_symmetry_Int_Tables_number   1
_chemical_formula_structural   Y2Ho14CdAg3Rh4
_chemical_formula_sum   'Y2 Ho14 Cd1 Ag3 Rh4'
_cell_volume   610.53848847
_cell_formula_units_Z   1
loop_
 _symmetry_equiv_pos_site_id
 _symmetry_equiv_pos_as_xyz
  1  'x, y, z'
loop_
 _atom_site_type_symbol
 _atom_site_label
 _atom_site_symmetry_multiplicity
 _atom_site_fract_x
 _atom_site_fract_y
 _atom_site_fract_z
 _atom_site_occupancy
  Y  Y0  1  0.935306  0.936308  0.564193  1
  Y  Y1  1  0.563886  0.567133  0.934491  1
  Ho  Ho2  1  0.688555  0.688308  0.311568  1
  Ho  Ho3  1  0.146942  0.556865  0.148096  1
  Ho  Ho4  1  0.688121  0.313147  0.687315  1
  Ho  Ho5  1  0.148409  0.148071  0.148725  1
  Ho  Ho6  1  0.554126  0.148131  0.148871  1
  Ho  Ho7  1  0.688121  0.313147  0.311418  1
  Ho  Ho8  1  0.148409  0.148071  0.554795  1
  Ho  Ho9  1  0.312686  0.688363  0.311648  1
  Ho  Ho10  1  0.312686  0.688363  0.687303  1
  Ho  Ho11  1  0.936059  0.566408  0.561798  1
  Ho  Ho12  1  0.936059  0.566408  0.935734  1
  Ho  Ho13  1  0.563432  0.936961  0.563382  1
  Ho  Ho14  1  0.563432  0.936961  0.936225  1
  Ho  Ho15  1  0.312328  0.313283  0.687195  1
  Cd  Cd16  1  0.920479  0.237137  0.921192  1
  Ag  Ag17  1  0.917053  0.915864  0.247946  1
  Ag  Ag18  1  0.247883  0.916941  0.917588  1
  Ag  Ag19  1  0.917053  0.915864  0.919137  1
  Rh  Rh20  1  0.356202  0.356441  0.928938  1
  Rh  Rh21  1  0.356588  0.928968  0.357222  1
  Rh  Rh22  1  0.929986  0.356408  0.356803  1
  Rh  Rh23  1  0.356202  0.356441  0.358418  1
