# generated using pymatgen
data_Nd2Sn3HgBi
_symmetry_space_group_name_H-M   'P 1'
_cell_length_a   17.77921148
_cell_length_b   17.77921100
_cell_length_c   4.56718500
_cell_angle_alpha   90.00000000
_cell_angle_beta   90.00000000
_cell_angle_gamma   164.23255470
_symmetry_Int_Tables_number   1
_chemical_formula_structural   Nd2Sn3HgBi
_chemical_formula_sum   'Nd4 Sn6 Hg2 Bi2'
_cell_volume   392.29858336
_cell_formula_units_Z   2
loop_
 _symmetry_equiv_pos_site_id
 _symmetry_equiv_pos_as_xyz
  1  'x, y, z'
loop_
 _atom_site_type_symbol
 _atom_site_label
 _atom_site_symmetry_multiplicity
 _atom_site_fract_x
 _atom_site_fract_y
 _atom_site_fract_z
 _atom_site_occupancy
  Nd  Nd0  1  0.928677  0.071323  0.500000  1
  Nd  Nd1  1  0.071323  0.928677  0.500000  1
  Nd  Nd2  1  0.799220  0.200780  0.500000  1
  Nd  Nd3  1  0.200780  0.799220  0.500000  1
  Sn  Sn4  1  0.635839  0.364161  0.500000  1
  Sn  Sn5  1  0.364161  0.635839  0.500000  1
  Sn  Sn6  1  0.564925  0.435075  0.000000  1
  Sn  Sn7  1  0.435075  0.564925  0.000000  1
  Sn  Sn8  1  0.863335  0.136665  0.000000  1
  Sn  Sn9  1  0.136665  0.863335  0.000000  1
  Hg  Hg10  1  0.500000  0.500000  0.500000  1
  Hg  Hg11  1  0.000000  0.000000  0.000000  1
  Bi  Bi12  1  0.717167  0.282833  0.000000  1
  Bi  Bi13  1  0.282833  0.717167  0.000000  1
