# generated using pymatgen
data_Nd2Sm4OsI10
_symmetry_space_group_name_H-M   'P 1'
_cell_length_a   7.94428460
_cell_length_b   9.99094914
_cell_length_c   9.89567961
_cell_angle_alpha   107.30103451
_cell_angle_beta   96.62537451
_cell_angle_gamma   105.30265771
_symmetry_Int_Tables_number   1
_chemical_formula_structural   Nd2Sm4OsI10
_chemical_formula_sum   'Nd2 Sm4 Os1 I10'
_cell_volume   707.09687947
_cell_formula_units_Z   1
loop_
 _symmetry_equiv_pos_site_id
 _symmetry_equiv_pos_as_xyz
  1  'x, y, z'
loop_
 _atom_site_type_symbol
 _atom_site_label
 _atom_site_symmetry_multiplicity
 _atom_site_fract_x
 _atom_site_fract_y
 _atom_site_fract_z
 _atom_site_occupancy
  Nd  Nd0  1  0.386485  0.958351  0.731778  1
  Nd  Nd1  1  0.613515  0.041649  0.268222  1
  Sm  Sm2  1  0.470145  0.291622  0.588836  1
  Sm  Sm3  1  0.529855  0.708378  0.411164  1
  Sm  Sm4  1  0.855810  0.130805  0.673750  1
  Sm  Sm5  1  0.144190  0.869195  0.326250  1
  Os  Os6  1  0.500000  0.000000  0.500000  1
  I  I7  1  0.415076  0.629606  0.678284  1
  I  I8  1  0.584924  0.370394  0.321716  1
  I  I9  1  0.289548  0.261488  0.850021  1
  I  I10  1  0.710452  0.738512  0.149979  1
  I  I11  1  0.855691  0.455207  0.771869  1
  I  I12  1  0.144309  0.544793  0.228131  1
  I  I13  1  0.045389  0.180070  0.410840  1
  I  I14  1  0.239792  0.913281  0.042090  1
  I  I15  1  0.760208  0.086719  0.957910  1
  I  I16  1  0.954611  0.819930  0.589160  1
