# generated using pymatgen
data_Zr16Ta3NbSi16
_symmetry_space_group_name_H-M   'P 1'
_cell_length_a   7.07357205
_cell_length_b   7.07357305
_cell_length_c   12.96492501
_cell_angle_alpha   90.00243486
_cell_angle_beta   89.99753568
_cell_angle_gamma   90.01305719
_symmetry_Int_Tables_number   1
_chemical_formula_structural   Zr16Ta3NbSi16
_chemical_formula_sum   'Zr16 Ta3 Nb1 Si16'
_cell_volume   648.70556122
_cell_formula_units_Z   1
loop_
 _symmetry_equiv_pos_site_id
 _symmetry_equiv_pos_as_xyz
  1  'x, y, z'
loop_
 _atom_site_type_symbol
 _atom_site_label
 _atom_site_symmetry_multiplicity
 _atom_site_fract_x
 _atom_site_fract_y
 _atom_site_fract_z
 _atom_site_occupancy
  Zr  Zr0  1  0.354731  0.502730  0.376172  1
  Zr  Zr1  1  0.854658  0.997156  0.373768  1
  Zr  Zr2  1  0.002737  0.145386  0.126198  1
  Zr  Zr3  1  0.997157  0.854659  0.626232  1
  Zr  Zr4  1  0.645472  0.497221  0.876204  1
  Zr  Zr5  1  0.502729  0.354732  0.623828  1
  Zr  Zr6  1  0.497218  0.645472  0.123795  1
  Zr  Zr7  1  0.145389  0.002737  0.873802  1
  Zr  Zr8  1  0.999508  0.650364  0.034047  1
  Zr  Zr9  1  0.000510  0.349467  0.534053  1
  Zr  Zr10  1  0.650366  0.999507  0.965954  1
  Zr  Zr11  1  0.150341  0.500490  0.784058  1
  Zr  Zr12  1  0.849730  0.499436  0.283873  1
  Zr  Zr13  1  0.500489  0.150339  0.215942  1
  Zr  Zr14  1  0.499438  0.849729  0.716126  1
  Zr  Zr15  1  0.349468  0.000508  0.465947  1
  Ta  Ta16  1  0.824407  0.175582  0.750013  1
  Ta  Ta17  1  0.175581  0.824408  0.249987  1
  Ta  Ta18  1  0.324373  0.324374  0.000001  1
  Nb  Nb19  1  0.675583  0.675585  0.500000  1
  Si  Si20  1  0.049653  0.700019  0.435695  1
  Si  Si21  1  0.950835  0.300095  0.935728  1
  Si  Si22  1  0.700018  0.049653  0.564304  1
  Si  Si23  1  0.199920  0.450866  0.185762  1
  Si  Si24  1  0.800280  0.549058  0.686009  1
  Si  Si25  1  0.450867  0.199919  0.814238  1
  Si  Si26  1  0.549057  0.800282  0.313991  1
  Si  Si27  1  0.300094  0.950835  0.064272  1
  Si  Si28  1  0.852205  0.798163  0.821351  1
  Si  Si29  1  0.147783  0.201801  0.321441  1
  Si  Si30  1  0.798163  0.852205  0.178650  1
  Si  Si31  1  0.297722  0.647692  0.571455  1
  Si  Si32  1  0.701801  0.352224  0.071422  1
  Si  Si33  1  0.647691  0.297721  0.428545  1
  Si  Si34  1  0.352225  0.701801  0.928578  1
  Si  Si35  1  0.201802  0.147784  0.678559  1
