# generated using pymatgen
data_AcFe3P12Ir
_symmetry_space_group_name_H-M   'P 1'
_cell_length_a   6.88226177
_cell_length_b   6.88226311
_cell_length_c   6.88226200
_cell_angle_alpha   109.52070241
_cell_angle_beta   109.52070986
_cell_angle_gamma   109.52070016
_symmetry_Int_Tables_number   1
_chemical_formula_structural   AcFe3P12Ir
_chemical_formula_sum   'Ac1 Fe3 P12 Ir1'
_cell_volume   250.48028543
_cell_formula_units_Z   1
loop_
 _symmetry_equiv_pos_site_id
 _symmetry_equiv_pos_as_xyz
  1  'x, y, z'
loop_
 _atom_site_type_symbol
 _atom_site_label
 _atom_site_symmetry_multiplicity
 _atom_site_fract_x
 _atom_site_fract_y
 _atom_site_fract_z
 _atom_site_occupancy
  Ac  Ac0  1  0.000000  0.000000  0.000000  1
  Fe  Fe1  1  0.000000  0.000000  0.500000  1
  Fe  Fe2  1  0.000000  0.500000  0.000000  1
  Fe  Fe3  1  0.500000  0.000000  0.000000  1
  P  P4  1  0.863202  0.652952  0.495219  1
  P  P5  1  0.847356  0.351539  0.199865  1
  P  P6  1  0.152644  0.648461  0.800135  1
  P  P7  1  0.347048  0.504781  0.136798  1
  P  P8  1  0.504781  0.136798  0.347048  1
  P  P9  1  0.136798  0.347048  0.504781  1
  P  P10  1  0.648461  0.800135  0.152644  1
  P  P11  1  0.199865  0.847356  0.351539  1
  P  P12  1  0.652952  0.495219  0.863202  1
  P  P13  1  0.800135  0.152644  0.648461  1
  P  P14  1  0.351539  0.199865  0.847356  1
  P  P15  1  0.495219  0.863202  0.652952  1
  Ir  Ir16  1  0.500000  0.500000  0.500000  1
