# generated using pymatgen
data_Y4Ho4B24IrRu3
_symmetry_space_group_name_H-M   'P 1'
_cell_length_a   3.66099100
_cell_length_b   9.15446969
_cell_length_c   11.51771888
_cell_angle_alpha   90.04460458
_cell_angle_beta   90.00000000
_cell_angle_gamma   90.00000000
_symmetry_Int_Tables_number   1
_chemical_formula_structural   Y4Ho4B24IrRu3
_chemical_formula_sum   'Y4 Ho4 B24 Ir1 Ru3'
_cell_volume   386.00967928
_cell_formula_units_Z   1
loop_
 _symmetry_equiv_pos_site_id
 _symmetry_equiv_pos_as_xyz
  1  'x, y, z'
loop_
 _atom_site_type_symbol
 _atom_site_label
 _atom_site_symmetry_multiplicity
 _atom_site_fract_x
 _atom_site_fract_y
 _atom_site_fract_z
 _atom_site_occupancy
  Y  Y0  1  0.000000  0.319592  0.414547  1
  Y  Y1  1  0.000000  0.678562  0.588589  1
  Y  Y2  1  0.000000  0.823387  0.084275  1
  Y  Y3  1  0.000000  0.178189  0.913406  1
  Ho  Ho4  1  0.000000  0.945830  0.372895  1
  Ho  Ho5  1  0.000000  0.055953  0.627164  1
  Ho  Ho6  1  0.000000  0.441921  0.125934  1
  Ho  Ho7  1  0.000000  0.555934  0.872988  1
  B  B8  1  0.500000  0.553774  0.433377  1
  B  B9  1  0.500000  0.445774  0.567214  1
  B  B10  1  0.500000  0.054345  0.067207  1
  B  B11  1  0.500000  0.945844  0.932686  1
  B  B12  1  0.500000  0.749799  0.420691  1
  B  B13  1  0.500000  0.251302  0.580395  1
  B  B14  1  0.500000  0.248281  0.080230  1
  B  B15  1  0.500000  0.751731  0.919691  1
  B  B16  1  0.500000  0.792140  0.265697  1
  B  B17  1  0.500000  0.208904  0.733672  1
  B  B18  1  0.500000  0.291376  0.233957  1
  B  B19  1  0.500000  0.708664  0.766370  1
  B  B20  1  0.500000  0.631978  0.183749  1
  B  B21  1  0.500000  0.368477  0.814796  1
  B  B22  1  0.500000  0.131801  0.315069  1
  B  B23  1  0.500000  0.868081  0.685241  1
  B  B24  1  0.500000  0.983764  0.213104  1
  B  B25  1  0.500000  0.016291  0.786749  1
  B  B26  1  0.500000  0.482512  0.286700  1
  B  B27  1  0.500000  0.516361  0.713283  1
  B  B28  1  0.500000  0.608815  0.030248  1
  B  B29  1  0.500000  0.391259  0.970178  1
  B  B30  1  0.500000  0.108616  0.470119  1
  B  B31  1  0.500000  0.890834  0.529507  1
  Ir  Ir32  1  0.000000  0.637769  0.321392  1
  Ru  Ru33  1  0.000000  0.362088  0.678664  1
  Ru  Ru34  1  0.000000  0.138321  0.179350  1
  Ru  Ru35  1  0.000000  0.861728  0.820864  1
