# generated using pymatgen
data_Hf2Mn5(NiP)7
_symmetry_space_group_name_H-M   'P 1'
_cell_length_a   9.00504416
_cell_length_b   9.08044999
_cell_length_c   3.57513500
_cell_angle_alpha   90.00000000
_cell_angle_beta   90.00000000
_cell_angle_gamma   119.86031723
_symmetry_Int_Tables_number   1
_chemical_formula_structural   Hf2Mn5(NiP)7
_chemical_formula_sum   'Hf2 Mn5 Ni7 P7'
_cell_volume   253.52795978
_cell_formula_units_Z   1
loop_
 _symmetry_equiv_pos_site_id
 _symmetry_equiv_pos_as_xyz
  1  'x, y, z'
loop_
 _atom_site_type_symbol
 _atom_site_label
 _atom_site_symmetry_multiplicity
 _atom_site_fract_x
 _atom_site_fract_y
 _atom_site_fract_z
 _atom_site_occupancy
  Hf  Hf0  1  0.658798  0.331282  0.000000  1
  Hf  Hf1  1  0.004176  0.001275  0.500000  1
  Mn  Mn2  1  0.453972  0.510549  0.000000  1
  Mn  Mn3  1  0.381065  0.277661  0.500000  1
  Mn  Mn4  1  0.560103  0.766658  0.500000  1
  Mn  Mn5  1  0.236716  0.792687  0.500000  1
  Mn  Mn6  1  0.208830  0.447837  0.500000  1
  Ni  Ni7  1  0.772996  0.732214  0.000000  1
  Ni  Ni8  1  0.269295  0.036639  0.000000  1
  Ni  Ni9  1  0.964292  0.229520  0.000000  1
  Ni  Ni10  1  0.494177  0.948139  0.000000  1
  Ni  Ni11  1  0.049774  0.543612  0.000000  1
  Ni  Ni12  1  0.722580  0.108360  0.500000  1
  Ni  Ni13  1  0.890176  0.611180  0.500000  1
  P  P14  1  0.453495  0.078184  0.500000  1
  P  P15  1  0.919900  0.375927  0.500000  1
  P  P16  1  0.615536  0.538142  0.500000  1
  P  P17  1  0.749672  0.961381  0.000000  1
  P  P18  1  0.040246  0.786008  0.000000  1
  P  P19  1  0.220219  0.255267  0.000000  1
  P  P20  1  0.333982  0.667480  0.000000  1
