# generated using pymatgen
data_Tm10Lu10Bi11Sb
_symmetry_space_group_name_H-M   'P 1'
_cell_length_a   8.12762019
_cell_length_b   9.38769817
_cell_length_c   11.83924121
_cell_angle_alpha   89.98850091
_cell_angle_beta   90.01681106
_cell_angle_gamma   90.01840767
_symmetry_Int_Tables_number   1
_chemical_formula_structural   Tm10Lu10Bi11Sb
_chemical_formula_sum   'Tm10 Lu10 Bi11 Sb1'
_cell_volume   903.32980026
_cell_formula_units_Z   1
loop_
 _symmetry_equiv_pos_site_id
 _symmetry_equiv_pos_as_xyz
  1  'x, y, z'
loop_
 _atom_site_type_symbol
 _atom_site_label
 _atom_site_symmetry_multiplicity
 _atom_site_fract_x
 _atom_site_fract_y
 _atom_site_fract_z
 _atom_site_occupancy
  Tm  Tm0  1  0.355606  0.249898  0.285770  1
  Tm  Tm1  1  0.645578  0.750087  0.717313  1
  Tm  Tm2  1  0.145028  0.750155  0.782104  1
  Tm  Tm3  1  0.855042  0.249808  0.217614  1
  Tm  Tm4  1  0.189451  0.249973  0.780248  1
  Tm  Tm5  1  0.812166  0.750046  0.217635  1
  Tm  Tm6  1  0.312640  0.750077  0.282346  1
  Tm  Tm7  1  0.682696  0.249908  0.714811  1
  Tm  Tm8  1  0.690448  0.431802  0.441929  1
  Tm  Tm9  1  0.308172  0.562122  0.559354  1
  Lu  Lu10  1  0.027998  0.249843  0.511268  1
  Lu  Lu11  1  0.976568  0.750131  0.489305  1
  Lu  Lu12  1  0.475587  0.749902  0.011249  1
  Lu  Lu13  1  0.524842  0.250080  0.988603  1
  Lu  Lu14  1  0.193559  0.066710  0.060008  1
  Lu  Lu15  1  0.806562  0.933674  0.940342  1
  Lu  Lu16  1  0.308082  0.937648  0.559384  1
  Lu  Lu17  1  0.806654  0.566356  0.940365  1
  Lu  Lu18  1  0.690485  0.068519  0.441978  1
  Lu  Lu19  1  0.193466  0.433287  0.059994  1
  Bi  Bi20  1  0.595061  0.750849  0.457346  1
  Bi  Bi21  1  0.094590  0.749985  0.042548  1
  Bi  Bi22  1  0.906146  0.250040  0.956501  1
  Bi  Bi23  1  0.066276  0.003558  0.325982  1
  Bi  Bi24  1  0.933057  0.996832  0.674117  1
  Bi  Bi25  1  0.433352  0.996078  0.826005  1
  Bi  Bi26  1  0.932892  0.503160  0.674149  1
  Bi  Bi27  1  0.566628  0.004023  0.174171  1
  Bi  Bi28  1  0.066415  0.496460  0.325936  1
  Bi  Bi29  1  0.566579  0.495964  0.174107  1
  Bi  Bi30  1  0.433386  0.503927  0.826098  1
  Sb  Sb31  1  0.404992  0.249100  0.541418  1
