# generated using pymatgen
data_Ho2Tm10Os3Rh
_symmetry_space_group_name_H-M   'P 1'
_cell_length_a   7.29488270
_cell_length_b   8.93136400
_cell_length_c   6.26434003
_cell_angle_alpha   90.00000000
_cell_angle_beta   89.89608726
_cell_angle_gamma   90.00000000
_symmetry_Int_Tables_number   1
_chemical_formula_structural   Ho2Tm10Os3Rh
_chemical_formula_sum   'Ho2 Tm10 Os3 Rh1'
_cell_volume   408.14145793
_cell_formula_units_Z   1
loop_
 _symmetry_equiv_pos_site_id
 _symmetry_equiv_pos_as_xyz
  1  'x, y, z'
loop_
 _atom_site_type_symbol
 _atom_site_label
 _atom_site_symmetry_multiplicity
 _atom_site_fract_x
 _atom_site_fract_y
 _atom_site_fract_z
 _atom_site_occupancy
  Ho  Ho0  1  0.038880  0.250000  0.628473  1
  Ho  Ho1  1  0.539288  0.250000  0.870313  1
  Tm  Tm2  1  0.961437  0.750000  0.372573  1
  Tm  Tm3  1  0.462159  0.750000  0.129645  1
  Tm  Tm4  1  0.172537  0.060159  0.165704  1
  Tm  Tm5  1  0.824476  0.936763  0.830737  1
  Tm  Tm6  1  0.323219  0.933248  0.672112  1
  Tm  Tm7  1  0.824476  0.563237  0.830737  1
  Tm  Tm8  1  0.678282  0.060948  0.331651  1
  Tm  Tm9  1  0.172537  0.439841  0.165704  1
  Tm  Tm10  1  0.678282  0.439052  0.331651  1
  Tm  Tm11  1  0.323219  0.566752  0.672112  1
  Os  Os12  1  0.615961  0.750000  0.537553  1
  Os  Os13  1  0.116835  0.750000  0.963957  1
  Os  Os14  1  0.883717  0.250000  0.039526  1
  Rh  Rh15  1  0.384695  0.250000  0.457550  1
