# generated using pymatgen
data_Sc5Re19Tc5
_symmetry_space_group_name_H-M   'P 1'
_cell_length_a   8.44300486
_cell_length_b   8.45295970
_cell_length_c   8.44225359
_cell_angle_alpha   109.56532547
_cell_angle_beta   109.45704197
_cell_angle_gamma   109.41898708
_symmetry_Int_Tables_number   1
_chemical_formula_structural   Sc5Re19Tc5
_chemical_formula_sum   'Sc5 Re19 Tc5'
_cell_volume   463.65319177
_cell_formula_units_Z   1
loop_
 _symmetry_equiv_pos_site_id
 _symmetry_equiv_pos_as_xyz
  1  'x, y, z'
loop_
 _atom_site_type_symbol
 _atom_site_label
 _atom_site_symmetry_multiplicity
 _atom_site_fract_x
 _atom_site_fract_y
 _atom_site_fract_z
 _atom_site_occupancy
  Sc  Sc0  1  0.366535  0.368169  0.368133  1
  Sc  Sc1  1  0.002231  0.632438  0.999723  1
  Sc  Sc2  1  0.633450  0.001144  0.002010  1
  Sc  Sc3  1  0.997711  0.999854  0.631554  1
  Sc  Sc4  1  0.000024  0.999547  0.999792  1
  Re  Re5  1  0.000736  0.677476  0.398457  1
  Re  Re6  1  0.601713  0.602227  0.278113  1
  Re  Re7  1  0.808395  0.808334  0.185431  1
  Re  Re8  1  0.377124  0.190932  0.999646  1
  Re  Re9  1  0.192189  0.376733  0.999914  1
  Re  Re10  1  0.621130  0.813642  0.621651  1
  Re  Re11  1  0.378591  0.000081  0.192407  1
  Re  Re12  1  0.999584  0.377081  0.191854  1
  Re  Re13  1  0.813990  0.621975  0.620503  1
  Re  Re14  1  0.185966  0.807388  0.807101  1
  Re  Re15  1  0.806900  0.184818  0.808553  1
  Re  Re16  1  0.192494  0.001532  0.378154  1
  Re  Re17  1  0.000332  0.192591  0.379011  1
  Re  Re18  1  0.623305  0.622380  0.814022  1
  Re  Re19  1  0.398063  0.999771  0.676444  1
  Re  Re20  1  0.602397  0.278476  0.601479  1
  Re  Re21  1  0.676692  0.398931  0.000675  1
  Re  Re22  1  0.397694  0.676028  0.999743  1
  Re  Re23  1  0.323624  0.324540  0.722445  1
  Tc  Tc24  1  0.999358  0.398529  0.678320  1
  Tc  Tc25  1  0.279226  0.601691  0.601252  1
  Tc  Tc26  1  0.720808  0.322159  0.322304  1
  Tc  Tc27  1  0.321662  0.720726  0.322315  1
  Tc  Tc28  1  0.678076  0.000812  0.398994  1
