# generated using pymatgen
data_Tm12Si11Ag
_symmetry_space_group_name_H-M   'P 1'
_cell_length_a   3.81393400
_cell_length_b   5.61273041
_cell_length_c   23.37405100
_cell_angle_alpha   82.67048675
_cell_angle_beta   90.00000000
_cell_angle_gamma   90.00000000
_symmetry_Int_Tables_number   1
_chemical_formula_structural   Tm12Si11Ag
_chemical_formula_sum   'Tm12 Si11 Ag1'
_cell_volume   496.27007052
_cell_formula_units_Z   1
loop_
 _symmetry_equiv_pos_site_id
 _symmetry_equiv_pos_as_xyz
  1  'x, y, z'
loop_
 _atom_site_type_symbol
 _atom_site_label
 _atom_site_symmetry_multiplicity
 _atom_site_fract_x
 _atom_site_fract_y
 _atom_site_fract_z
 _atom_site_occupancy
  Tm  Tm0  1  0.750000  0.360664  0.056266  1
  Tm  Tm1  1  0.250000  0.661019  0.938139  1
  Tm  Tm2  1  0.750000  0.529777  0.228765  1
  Tm  Tm3  1  0.250000  0.469150  0.772706  1
  Tm  Tm4  1  0.750000  0.167194  0.394708  1
  Tm  Tm5  1  0.250000  0.824581  0.607101  1
  Tm  Tm6  1  0.750000  0.349491  0.560082  1
  Tm  Tm7  1  0.250000  0.641997  0.441641  1
  Tm  Tm8  1  0.750000  0.993793  0.725611  1
  Tm  Tm9  1  0.250000  0.994433  0.276511  1
  Tm  Tm10  1  0.750000  0.170802  0.891742  1
  Tm  Tm11  1  0.250000  0.844313  0.105489  1
  Si  Si12  1  0.750000  0.871750  0.010860  1
  Si  Si13  1  0.250000  0.149928  0.985158  1
  Si  Si14  1  0.750000  0.029599  0.183179  1
  Si  Si15  1  0.250000  0.959335  0.819423  1
  Si  Si16  1  0.750000  0.706963  0.348342  1
  Si  Si17  1  0.250000  0.284807  0.653525  1
  Si  Si18  1  0.750000  0.857949  0.513673  1
  Si  Si19  1  0.250000  0.133688  0.488076  1
  Si  Si20  1  0.750000  0.533783  0.679020  1
  Si  Si21  1  0.250000  0.456205  0.322513  1
  Si  Si22  1  0.750000  0.681613  0.844708  1
  Ag  Ag23  1  0.250000  0.327167  0.152758  1
