# generated using pymatgen
data_Tb4Dy6Si5Ge
_symmetry_space_group_name_H-M   'P 1'
_cell_length_a   8.47021300
_cell_length_b   8.47528379
_cell_length_c   6.40010900
_cell_angle_alpha   90.00000000
_cell_angle_beta   90.00000000
_cell_angle_gamma   119.98021418
_symmetry_Int_Tables_number   1
_chemical_formula_structural   Tb4Dy6Si5Ge
_chemical_formula_sum   'Tb4 Dy6 Si5 Ge1'
_cell_volume   397.97256647
_cell_formula_units_Z   1
loop_
 _symmetry_equiv_pos_site_id
 _symmetry_equiv_pos_as_xyz
  1  'x, y, z'
loop_
 _atom_site_type_symbol
 _atom_site_label
 _atom_site_symmetry_multiplicity
 _atom_site_fract_x
 _atom_site_fract_y
 _atom_site_fract_z
 _atom_site_occupancy
  Tb  Tb0  1  0.242841  0.000000  0.250000  1
  Tb  Tb1  1  0.999968  0.243393  0.250000  1
  Tb  Tb2  1  0.756575  0.756607  0.250000  1
  Tb  Tb3  1  0.757808  0.000000  0.750000  1
  Dy  Dy4  1  0.333080  0.665411  0.000748  1
  Dy  Dy5  1  0.667671  0.334589  0.499252  1
  Dy  Dy6  1  0.667671  0.334589  0.000748  1
  Dy  Dy7  1  0.333080  0.665411  0.499252  1
  Dy  Dy8  1  0.243108  0.244526  0.750000  1
  Dy  Dy9  1  0.998582  0.755474  0.750000  1
  Si  Si10  1  0.606090  0.000000  0.250000  1
  Si  Si11  1  0.605951  0.605905  0.750000  1
  Si  Si12  1  0.000046  0.394095  0.750000  1
  Si  Si13  1  0.000104  0.606036  0.250000  1
  Si  Si14  1  0.394068  0.393964  0.250000  1
  Ge  Ge15  1  0.393355  0.000000  0.750000  1
