# generated using pymatgen
data_TmLu2TcSn3Pt2
_symmetry_space_group_name_H-M   'P 1'
_cell_length_a   7.78348546
_cell_length_b   7.78348486
_cell_length_c   3.58718000
_cell_angle_alpha   90.00000000
_cell_angle_beta   90.00000000
_cell_angle_gamma   120.09113141
_symmetry_Int_Tables_number   1
_chemical_formula_structural   TmLu2TcSn3Pt2
_chemical_formula_sum   'Tm1 Lu2 Tc1 Sn3 Pt2'
_cell_volume   188.03230020
_cell_formula_units_Z   1
loop_
 _symmetry_equiv_pos_site_id
 _symmetry_equiv_pos_as_xyz
  1  'x, y, z'
loop_
 _atom_site_type_symbol
 _atom_site_label
 _atom_site_symmetry_multiplicity
 _atom_site_fract_x
 _atom_site_fract_y
 _atom_site_fract_z
 _atom_site_occupancy
  Tm  Tm0  1  0.395326  0.395326  0.500000  1
  Lu  Lu1  1  0.604765  0.999958  0.500000  1
  Lu  Lu2  1  0.999958  0.604765  0.500000  1
  Tc  Tc3  1  0.999540  0.999540  0.500000  1
  Sn  Sn4  1  0.728461  0.728461  0.000000  1
  Sn  Sn5  1  0.271571  0.999115  0.000000  1
  Sn  Sn6  1  0.999115  0.271571  0.000000  1
  Pt  Pt7  1  0.668258  0.333006  0.000000  1
  Pt  Pt8  1  0.333006  0.668258  0.000000  1
