# generated using pymatgen
data_Al2MoRu3
_symmetry_space_group_name_H-M   'P 1'
_cell_length_a   4.31103900
_cell_length_b   4.31103850
_cell_length_c   5.28096200
_cell_angle_alpha   90.00000000
_cell_angle_beta   90.00000000
_cell_angle_gamma   119.99999618
_symmetry_Int_Tables_number   1
_chemical_formula_structural   Al2MoRu3
_chemical_formula_sum   'Al2 Mo1 Ru3'
_cell_volume   84.99777237
_cell_formula_units_Z   1
loop_
 _symmetry_equiv_pos_site_id
 _symmetry_equiv_pos_as_xyz
  1  'x, y, z'
loop_
 _atom_site_type_symbol
 _atom_site_label
 _atom_site_symmetry_multiplicity
 _atom_site_fract_x
 _atom_site_fract_y
 _atom_site_fract_z
 _atom_site_occupancy
  Al  Al0  1  0.666667  0.333333  0.661011  1
  Al  Al1  1  0.333333  0.666667  0.338989  1
  Mo  Mo2  1  0.000000  0.000000  0.000000  1
  Ru  Ru3  1  0.666667  0.333333  0.162329  1
  Ru  Ru4  1  0.333333  0.666667  0.837671  1
  Ru  Ru5  1  0.000000  0.000000  0.500000  1
