# generated using pymatgen
data_Zr12Ti4CrPt7N4
_symmetry_space_group_name_H-M   'P 1'
_cell_length_a   8.71439872
_cell_length_b   8.71229847
_cell_length_c   8.71229800
_cell_angle_alpha   60.00000177
_cell_angle_beta   60.00797399
_cell_angle_gamma   60.00797919
_symmetry_Int_Tables_number   1
_chemical_formula_structural   Zr12Ti4CrPt7N4
_chemical_formula_sum   'Zr12 Ti4 Cr1 Pt7 N4'
_cell_volume   467.77849511
_cell_formula_units_Z   1
loop_
 _symmetry_equiv_pos_site_id
 _symmetry_equiv_pos_as_xyz
  1  'x, y, z'
loop_
 _atom_site_type_symbol
 _atom_site_label
 _atom_site_symmetry_multiplicity
 _atom_site_fract_x
 _atom_site_fract_y
 _atom_site_fract_z
 _atom_site_occupancy
  Zr  Zr0  1  0.812978  0.808508  0.189257  1
  Zr  Zr1  1  0.185092  0.187242  0.813833  1
  Zr  Zr2  1  0.812978  0.189257  0.808508  1
  Zr  Zr3  1  0.185092  0.813833  0.187242  1
  Zr  Zr4  1  0.185092  0.813833  0.813833  1
  Zr  Zr5  1  0.812978  0.189257  0.189257  1
  Zr  Zr6  1  0.434618  0.435502  0.064940  1
  Zr  Zr7  1  0.056279  0.072940  0.435391  1
  Zr  Zr8  1  0.434618  0.064940  0.435502  1
  Zr  Zr9  1  0.056279  0.435391  0.072940  1
  Zr  Zr10  1  0.056279  0.435391  0.435391  1
  Zr  Zr11  1  0.434618  0.064940  0.064940  1
  Ti  Ti12  1  0.126086  0.624638  0.624638  1
  Ti  Ti13  1  0.627946  0.124062  0.623996  1
  Ti  Ti14  1  0.627946  0.623996  0.124062  1
  Ti  Ti15  1  0.627946  0.623996  0.623996  1
  Cr  Cr16  1  0.746094  0.417968  0.417968  1
  Pt  Pt17  1  0.422055  0.753222  0.412361  1
  Pt  Pt18  1  0.422055  0.412361  0.753222  1
  Pt  Pt19  1  0.422055  0.412361  0.412361  1
  Pt  Pt20  1  0.490918  0.836361  0.836361  1
  Pt  Pt21  1  0.838912  0.488303  0.836393  1
  Pt  Pt22  1  0.838912  0.836393  0.488303  1
  Pt  Pt23  1  0.838912  0.836393  0.836393  1
  N  N24  1  0.622675  0.125775  0.125775  1
  N  N25  1  0.126865  0.624172  0.124481  1
  N  N26  1  0.126865  0.124481  0.624172  1
  N  N27  1  0.126865  0.124481  0.124481  1
