# generated using pymatgen
data_Ca3La(Si5Pt3)2
_symmetry_space_group_name_H-M   'P 1'
_cell_length_a   8.29613912
_cell_length_b   8.28997512
_cell_length_c   8.28997459
_cell_angle_alpha   137.74995135
_cell_angle_beta   104.51882673
_cell_angle_gamma   90.50943637
_symmetry_Int_Tables_number   1
_chemical_formula_structural   Ca3La(Si5Pt3)2
_chemical_formula_sum   'Ca3 La1 Si10 Pt6'
_cell_volume   354.15338928
_cell_formula_units_Z   1
loop_
 _symmetry_equiv_pos_site_id
 _symmetry_equiv_pos_as_xyz
  1  'x, y, z'
loop_
 _atom_site_type_symbol
 _atom_site_label
 _atom_site_symmetry_multiplicity
 _atom_site_fract_x
 _atom_site_fract_y
 _atom_site_fract_z
 _atom_site_occupancy
  Ca  Ca0  1  0.362246  0.628010  0.734236  1
  Ca  Ca1  1  0.105558  0.871245  0.234313  1
  Ca  Ca2  1  0.895830  0.129506  0.766323  1
  La  La3  1  0.636840  0.370401  0.266439  1
  Si  Si4  1  0.461254  0.110849  0.350405  1
  Si  Si5  1  0.536529  0.888100  0.648429  1
  Si  Si6  1  0.764048  0.614484  0.149564  1
  Si  Si7  1  0.236912  0.387303  0.849609  1
  Si  Si8  1  0.268729  0.519307  0.248709  1
  Si  Si9  1  0.730309  0.479740  0.750792  1
  Si  Si10  1  0.730309  0.979516  0.250568  1
  Si  Si11  1  0.268729  0.020020  0.749422  1
  Si  Si12  1  0.001473  0.251162  0.251633  1
  Si  Si13  1  0.001473  0.749840  0.750311  1
  Pt  Pt14  1  0.500390  0.252206  0.751729  1
  Pt  Pt15  1  0.500390  0.748661  0.248184  1
  Pt  Pt16  1  0.248080  0.134014  0.114066  1
  Pt  Pt17  1  0.749661  0.864213  0.885448  1
  Pt  Pt18  1  0.022129  0.636884  0.385244  1
  Pt  Pt19  1  0.979111  0.364537  0.614575  1
