# generated using pymatgen
data_Ta2TiMn4NbP4
_symmetry_space_group_name_H-M   'P 1'
_cell_length_a   3.53766100
_cell_length_b   6.17522010
_cell_length_c   7.19484102
_cell_angle_alpha   89.86551467
_cell_angle_beta   90.00000000
_cell_angle_gamma   90.00000000
_symmetry_Int_Tables_number   1
_chemical_formula_structural   Ta2TiMn4NbP4
_chemical_formula_sum   'Ta2 Ti1 Mn4 Nb1 P4'
_cell_volume   157.17687909
_cell_formula_units_Z   1
loop_
 _symmetry_equiv_pos_site_id
 _symmetry_equiv_pos_as_xyz
  1  'x, y, z'
loop_
 _atom_site_type_symbol
 _atom_site_label
 _atom_site_symmetry_multiplicity
 _atom_site_fract_x
 _atom_site_fract_y
 _atom_site_fract_z
 _atom_site_occupancy
  Ta  Ta0  1  0.750000  0.469872  0.328246  1
  Ta  Ta1  1  0.250000  0.029440  0.826280  1
  Ti  Ti2  1  0.250000  0.529414  0.673828  1
  Mn  Mn3  1  0.750000  0.860730  0.560131  1
  Mn  Mn4  1  0.250000  0.140519  0.442348  1
  Mn  Mn5  1  0.750000  0.360626  0.939568  1
  Mn  Mn6  1  0.250000  0.640442  0.058799  1
  Nb  Nb7  1  0.750000  0.967715  0.172043  1
  P  P8  1  0.250000  0.270725  0.129277  1
  P  P9  1  0.750000  0.726793  0.863584  1
  P  P10  1  0.250000  0.767182  0.374588  1
  P  P11  1  0.750000  0.236540  0.631309  1
