# generated using pymatgen
data_Tb3Dy2Tc3P12Ir13Rh3
_symmetry_space_group_name_H-M   'P 1'
_cell_length_a   12.66117500
_cell_length_b   12.66117545
_cell_length_c   3.97083100
_cell_angle_alpha   90.00000000
_cell_angle_beta   90.00000000
_cell_angle_gamma   119.99999621
_symmetry_Int_Tables_number   1
_chemical_formula_structural   Tb3Dy2Tc3P12Ir13Rh3
_chemical_formula_sum   'Tb3 Dy2 Tc3 P12 Ir13 Rh3'
_cell_volume   551.26458200
_cell_formula_units_Z   1
loop_
 _symmetry_equiv_pos_site_id
 _symmetry_equiv_pos_as_xyz
  1  'x, y, z'
loop_
 _atom_site_type_symbol
 _atom_site_label
 _atom_site_symmetry_multiplicity
 _atom_site_fract_x
 _atom_site_fract_y
 _atom_site_fract_z
 _atom_site_occupancy
  Tb  Tb0  1  0.999730  0.816282  0.000000  1
  Tb  Tb1  1  0.183718  0.183449  0.000000  1
  Tb  Tb2  1  0.816551  0.000270  0.000000  1
  Dy  Dy3  1  0.333333  0.666667  0.500000  1
  Dy  Dy4  1  0.666667  0.333333  0.500000  1
  Tc  Tc5  1  0.999774  0.454686  0.500000  1
  Tc  Tc6  1  0.545314  0.545088  0.500000  1
  Tc  Tc7  1  0.454912  0.000226  0.500000  1
  P  P8  1  0.000643  0.638237  0.500000  1
  P  P9  1  0.361763  0.362405  0.500000  1
  P  P10  1  0.637595  0.999357  0.500000  1
  P  P11  1  0.516065  0.684757  0.000000  1
  P  P12  1  0.315243  0.831309  0.000000  1
  P  P13  1  0.168691  0.483935  0.000000  1
  P  P14  1  0.484091  0.168956  0.000000  1
  P  P15  1  0.684864  0.515909  0.000000  1
  P  P16  1  0.831044  0.315136  0.000000  1
  P  P17  1  0.999984  0.177283  0.500000  1
  P  P18  1  0.822717  0.822702  0.500000  1
  P  P19  1  0.177298  0.000016  0.500000  1
  Ir  Ir20  1  0.511393  0.869430  0.000000  1
  Ir  Ir21  1  0.130570  0.641965  0.000000  1
  Ir  Ir22  1  0.358035  0.488607  0.000000  1
  Ir  Ir23  1  0.490103  0.358436  0.000000  1
  Ir  Ir24  1  0.868334  0.509897  0.000000  1
  Ir  Ir25  1  0.641564  0.131666  0.000000  1
  Ir  Ir26  1  0.999341  0.288957  0.000000  1
  Ir  Ir27  1  0.711043  0.710385  0.000000  1
  Ir  Ir28  1  0.289615  0.000659  0.000000  1
  Ir  Ir29  1  0.374422  0.179425  0.500000  1
  Ir  Ir30  1  0.805003  0.625578  0.500000  1
  Ir  Ir31  1  0.820575  0.194997  0.500000  1
  Ir  Ir32  1  0.000000  0.000000  0.500000  1
  Rh  Rh33  1  0.626010  0.805203  0.500000  1
  Rh  Rh34  1  0.194797  0.820807  0.500000  1
  Rh  Rh35  1  0.179193  0.373990  0.500000  1
