# generated using pymatgen
data_Gd6RuO12
_symmetry_space_group_name_H-M   'P 1'
_cell_length_a   6.56404053
_cell_length_b   6.56403971
_cell_length_c   6.56403925
_cell_angle_alpha   98.59766053
_cell_angle_beta   98.59764990
_cell_angle_gamma   98.59765572
_symmetry_Int_Tables_number   1
_chemical_formula_structural   Gd6RuO12
_chemical_formula_sum   'Gd6 Ru1 O12'
_cell_volume   272.19669312
_cell_formula_units_Z   1
loop_
 _symmetry_equiv_pos_site_id
 _symmetry_equiv_pos_as_xyz
  1  'x, y, z'
loop_
 _atom_site_type_symbol
 _atom_site_label
 _atom_site_symmetry_multiplicity
 _atom_site_fract_x
 _atom_site_fract_y
 _atom_site_fract_z
 _atom_site_occupancy
  Gd  Gd0  1  0.857477  0.389366  0.689868  1
  Gd  Gd1  1  0.610634  0.310132  0.142523  1
  Gd  Gd2  1  0.310132  0.142523  0.610634  1
  Gd  Gd3  1  0.689868  0.857477  0.389366  1
  Gd  Gd4  1  0.389366  0.689868  0.857477  1
  Gd  Gd5  1  0.142523  0.610634  0.310132  1
  Ru  Ru6  1  0.000000  0.000000  0.000000  1
  O  O7  1  0.927700  0.033774  0.705646  1
  O  O8  1  0.966226  0.294354  0.072300  1
  O  O9  1  0.590917  0.177371  0.435025  1
  O  O10  1  0.822629  0.564975  0.409083  1
  O  O11  1  0.294354  0.072300  0.966226  1
  O  O12  1  0.564975  0.409083  0.822629  1
  O  O13  1  0.435025  0.590917  0.177371  1
  O  O14  1  0.705646  0.927700  0.033774  1
  O  O15  1  0.177371  0.435025  0.590917  1
  O  O16  1  0.409083  0.822629  0.564975  1
  O  O17  1  0.033774  0.705646  0.927700  1
  O  O18  1  0.072300  0.966226  0.294354  1
