# generated using pymatgen
data_DyEr3Hf3ScRh4
_symmetry_space_group_name_H-M   'P 1'
_cell_length_a   4.56193000
_cell_length_b   6.96047614
_cell_length_c   8.29158313
_cell_angle_alpha   90.11786139
_cell_angle_beta   90.00000000
_cell_angle_gamma   90.00000000
_symmetry_Int_Tables_number   1
_chemical_formula_structural   DyEr3Hf3ScRh4
_chemical_formula_sum   'Dy1 Er3 Hf3 Sc1 Rh4'
_cell_volume   263.28378109
_cell_formula_units_Z   1
loop_
 _symmetry_equiv_pos_site_id
 _symmetry_equiv_pos_as_xyz
  1  'x, y, z'
loop_
 _atom_site_type_symbol
 _atom_site_label
 _atom_site_symmetry_multiplicity
 _atom_site_fract_x
 _atom_site_fract_y
 _atom_site_fract_z
 _atom_site_occupancy
  Dy  Dy0  1  0.250000  0.986167  0.323825  1
  Er  Er1  1  0.250000  0.483349  0.174231  1
  Er  Er2  1  0.750000  0.018734  0.680038  1
  Er  Er3  1  0.750000  0.513077  0.821974  1
  Hf  Hf4  1  0.250000  0.364305  0.574302  1
  Hf  Hf5  1  0.250000  0.856389  0.926814  1
  Hf  Hf6  1  0.750000  0.644371  0.424153  1
  Sc  Sc7  1  0.750000  0.138235  0.075848  1
  Rh  Rh8  1  0.250000  0.232803  0.901624  1
  Rh  Rh9  1  0.250000  0.737197  0.590041  1
  Rh  Rh10  1  0.750000  0.755605  0.089033  1
  Rh  Rh11  1  0.750000  0.269771  0.418119  1
