# generated using pymatgen
data_AcBS3
_symmetry_space_group_name_H-M   'P 1'
_cell_length_a   6.18616500
_cell_length_b   8.05364500
_cell_length_c   9.25946200
_cell_angle_alpha   90.00000000
_cell_angle_beta   90.00000000
_cell_angle_gamma   90.00000000
_symmetry_Int_Tables_number   1
_chemical_formula_structural   AcBS3
_chemical_formula_sum   'Ac4 B4 S12'
_cell_volume   461.31729357
_cell_formula_units_Z   4
loop_
 _symmetry_equiv_pos_site_id
 _symmetry_equiv_pos_as_xyz
  1  'x, y, z'
loop_
 _atom_site_type_symbol
 _atom_site_label
 _atom_site_symmetry_multiplicity
 _atom_site_fract_x
 _atom_site_fract_y
 _atom_site_fract_z
 _atom_site_occupancy
  Ac  Ac0  1  0.072443  0.888562  0.432315  1
  Ac  Ac1  1  0.927557  0.111438  0.932315  1
  Ac  Ac2  1  0.572443  0.611438  0.932315  1
  Ac  Ac3  1  0.427557  0.388562  0.432315  1
  B  B4  1  0.592049  0.851715  0.604411  1
  B  B5  1  0.407951  0.148285  0.104411  1
  B  B6  1  0.092049  0.648285  0.104411  1
  B  B7  1  0.907951  0.351715  0.604411  1
  S  S8  1  0.829198  0.828404  0.720991  1
  S  S9  1  0.170802  0.171596  0.220991  1
  S  S10  1  0.329198  0.671596  0.220991  1
  S  S11  1  0.670802  0.328404  0.720991  1
  S  S12  1  0.131157  0.206757  0.637074  1
  S  S13  1  0.868843  0.793243  0.137074  1
  S  S14  1  0.631157  0.293243  0.137074  1
  S  S15  1  0.368843  0.706757  0.637074  1
  S  S16  1  0.584930  0.990812  0.451029  1
  S  S17  1  0.415070  0.009188  0.951029  1
  S  S18  1  0.084930  0.509188  0.951029  1
  S  S19  1  0.915070  0.490812  0.451029  1
