# generated using pymatgen
data_Sm7Dy9(HoPb4)4
_symmetry_space_group_name_H-M   'P 1'
_cell_length_a   8.24890744
_cell_length_b   8.34383892
_cell_length_c   15.75392300
_cell_angle_alpha   90.01518944
_cell_angle_beta   90.17262579
_cell_angle_gamma   89.87889236
_symmetry_Int_Tables_number   1
_chemical_formula_structural   Sm7Dy9(HoPb4)4
_chemical_formula_sum   'Sm7 Dy9 Ho4 Pb16'
_cell_volume   1084.29662077
_cell_formula_units_Z   1
loop_
 _symmetry_equiv_pos_site_id
 _symmetry_equiv_pos_as_xyz
  1  'x, y, z'
loop_
 _atom_site_type_symbol
 _atom_site_label
 _atom_site_symmetry_multiplicity
 _atom_site_fract_x
 _atom_site_fract_y
 _atom_site_fract_z
 _atom_site_occupancy
  Sm  Sm0  1  0.968777  0.822631  0.900340  1
  Sm  Sm1  1  0.530685  0.322845  0.098948  1
  Sm  Sm2  1  0.032328  0.176939  0.400660  1
  Sm  Sm3  1  0.531808  0.323813  0.401029  1
  Sm  Sm4  1  0.030731  0.177289  0.099024  1
  Sm  Sm5  1  0.469573  0.677035  0.901185  1
  Sm  Sm6  1  0.968151  0.822606  0.599283  1
  Dy  Dy7  1  0.625948  0.158306  0.621262  1
  Dy  Dy8  1  0.127116  0.341620  0.878401  1
  Dy  Dy9  1  0.373269  0.841591  0.121532  1
  Dy  Dy10  1  0.874457  0.658717  0.379035  1
  Dy  Dy11  1  0.374827  0.841514  0.379072  1
  Dy  Dy12  1  0.873050  0.658557  0.121345  1
  Dy  Dy13  1  0.626767  0.157831  0.877953  1
  Dy  Dy14  1  0.125922  0.341815  0.621114  1
  Dy  Dy15  1  0.465598  0.675440  0.600281  1
  Ho  Ho16  1  0.793103  0.495655  0.749450  1
  Ho  Ho17  1  0.293419  0.004627  0.749582  1
  Ho  Ho18  1  0.206912  0.504712  0.250395  1
  Ho  Ho19  1  0.706942  0.995418  0.250133  1
  Pb  Pb20  1  0.715412  0.965024  0.456623  1
  Pb  Pb21  1  0.213923  0.536423  0.043236  1
  Pb  Pb22  1  0.285966  0.036239  0.956582  1
  Pb  Pb23  1  0.782929  0.466152  0.543895  1
  Pb  Pb24  1  0.286161  0.034498  0.543482  1
  Pb  Pb25  1  0.786385  0.462826  0.956633  1
  Pb  Pb26  1  0.713906  0.963806  0.042972  1
  Pb  Pb27  1  0.216137  0.537054  0.457764  1
  Pb  Pb28  1  0.430770  0.373192  0.749775  1
  Pb  Pb29  1  0.930794  0.127143  0.749612  1
  Pb  Pb30  1  0.569847  0.626735  0.250346  1
  Pb  Pb31  1  0.069859  0.873003  0.250183  1
  Pb  Pb32  1  0.654967  0.846661  0.748849  1
  Pb  Pb33  1  0.157595  0.651828  0.749743  1
  Pb  Pb34  1  0.343195  0.151888  0.250147  1
  Pb  Pb35  1  0.842764  0.348564  0.250141  1
