# generated using pymatgen
data_Y8ReMo(OsC4)2
_symmetry_space_group_name_H-M   'P 1'
_cell_length_a   5.12594800
_cell_length_b   6.58497728
_cell_length_c   9.89284553
_cell_angle_alpha   89.48111883
_cell_angle_beta   90.00000000
_cell_angle_gamma   90.00000000
_symmetry_Int_Tables_number   1
_chemical_formula_structural   Y8ReMo(OsC4)2
_chemical_formula_sum   'Y8 Re1 Mo1 Os2 C8'
_cell_volume   333.91189923
_cell_formula_units_Z   1
loop_
 _symmetry_equiv_pos_site_id
 _symmetry_equiv_pos_as_xyz
  1  'x, y, z'
loop_
 _atom_site_type_symbol
 _atom_site_label
 _atom_site_symmetry_multiplicity
 _atom_site_fract_x
 _atom_site_fract_y
 _atom_site_fract_z
 _atom_site_occupancy
  Y  Y0  1  0.250000  0.679532  0.555662  1
  Y  Y1  1  0.750000  0.321147  0.443769  1
  Y  Y2  1  0.750000  0.821248  0.056915  1
  Y  Y3  1  0.250000  0.178953  0.943649  1
  Y  Y4  1  0.250000  0.534255  0.215461  1
  Y  Y5  1  0.750000  0.465930  0.782290  1
  Y  Y6  1  0.750000  0.970154  0.714075  1
  Y  Y7  1  0.250000  0.029786  0.285510  1
  Re  Re8  1  0.750000  0.278339  0.135453  1
  Mo  Mo9  1  0.250000  0.720859  0.866723  1
  Os  Os10  1  0.750000  0.775778  0.364250  1
  Os  Os11  1  0.250000  0.223735  0.634195  1
  C  C12  1  0.250000  0.452644  0.758533  1
  C  C13  1  0.750000  0.543254  0.241111  1
  C  C14  1  0.750000  0.043630  0.258946  1
  C  C15  1  0.250000  0.958086  0.739574  1
  C  C16  1  0.250000  0.823709  0.053039  1
  C  C17  1  0.750000  0.179098  0.952394  1
  C  C18  1  0.750000  0.677800  0.547809  1
  C  C19  1  0.250000  0.322061  0.450643  1
