# generated using pymatgen
data_Dy4HoTm15Pt16
_symmetry_space_group_name_H-M   'P 1'
_cell_length_a   7.41786304
_cell_length_b   7.49988498
_cell_length_c   14.62289901
_cell_angle_alpha   90.02114336
_cell_angle_beta   90.00568126
_cell_angle_gamma   89.96885124
_symmetry_Int_Tables_number   1
_chemical_formula_structural   Dy4HoTm15Pt16
_chemical_formula_sum   'Dy4 Ho1 Tm15 Pt16'
_cell_volume   813.51730940
_cell_formula_units_Z   1
loop_
 _symmetry_equiv_pos_site_id
 _symmetry_equiv_pos_as_xyz
  1  'x, y, z'
loop_
 _atom_site_type_symbol
 _atom_site_label
 _atom_site_symmetry_multiplicity
 _atom_site_fract_x
 _atom_site_fract_y
 _atom_site_fract_z
 _atom_site_occupancy
  Dy  Dy0  1  0.998912  0.179305  0.407046  1
  Dy  Dy1  1  0.499120  0.321469  0.407502  1
  Dy  Dy2  1  0.998907  0.178773  0.092441  1
  Dy  Dy3  1  0.500887  0.678953  0.907569  1
  Ho  Ho4  1  0.001258  0.820407  0.592702  1
  Tm  Tm5  1  0.656024  0.167443  0.622672  1
  Tm  Tm6  1  0.156072  0.332707  0.877440  1
  Tm  Tm7  1  0.343867  0.832695  0.122499  1
  Tm  Tm8  1  0.843837  0.667292  0.377376  1
  Tm  Tm9  1  0.344675  0.831984  0.377664  1
  Tm  Tm10  1  0.843992  0.667547  0.122057  1
  Tm  Tm11  1  0.655957  0.167542  0.877777  1
  Tm  Tm12  1  0.156416  0.332738  0.622450  1
  Tm  Tm13  1  0.501609  0.680104  0.593078  1
  Tm  Tm14  1  0.001688  0.819915  0.906922  1
  Tm  Tm15  1  0.498258  0.319923  0.092960  1
  Tm  Tm16  1  0.819154  0.510316  0.750007  1
  Tm  Tm17  1  0.319046  0.989625  0.750111  1
  Tm  Tm18  1  0.180883  0.489816  0.249675  1
  Tm  Tm19  1  0.680727  0.010294  0.249779  1
  Pt  Pt20  1  0.683237  0.965880  0.458673  1
  Pt  Pt21  1  0.184747  0.533265  0.041578  1
  Pt  Pt22  1  0.315292  0.033215  0.958410  1
  Pt  Pt23  1  0.815293  0.467533  0.541874  1
  Pt  Pt24  1  0.316812  0.032438  0.542081  1
  Pt  Pt25  1  0.816789  0.466998  0.958340  1
  Pt  Pt26  1  0.683208  0.967106  0.041642  1
  Pt  Pt27  1  0.183549  0.534227  0.458821  1
  Pt  Pt28  1  0.453809  0.386758  0.749851  1
  Pt  Pt29  1  0.953717  0.113289  0.750274  1
  Pt  Pt30  1  0.546084  0.613512  0.249594  1
  Pt  Pt31  1  0.046484  0.886239  0.249983  1
  Pt  Pt32  1  0.681871  0.856146  0.749792  1
  Pt  Pt33  1  0.181803  0.644030  0.750352  1
  Pt  Pt34  1  0.318580  0.143919  0.249395  1
  Pt  Pt35  1  0.817432  0.356599  0.249612  1
