# generated using pymatgen
data_TbEr5Al24(CoRu3)2
_symmetry_space_group_name_H-M   'P 1'
_cell_length_a   8.73768200
_cell_length_b   8.73494846
_cell_length_c   9.50558400
_cell_angle_alpha   90.00000000
_cell_angle_beta   90.00000000
_cell_angle_gamma   120.01035260
_symmetry_Int_Tables_number   1
_chemical_formula_structural   TbEr5Al24(CoRu3)2
_chemical_formula_sum   'Tb1 Er5 Al24 Co2 Ru6'
_cell_volume   628.23293813
_cell_formula_units_Z   1
loop_
 _symmetry_equiv_pos_site_id
 _symmetry_equiv_pos_as_xyz
  1  'x, y, z'
loop_
 _atom_site_type_symbol
 _atom_site_label
 _atom_site_symmetry_multiplicity
 _atom_site_fract_x
 _atom_site_fract_y
 _atom_site_fract_z
 _atom_site_occupancy
  Tb  Tb0  1  0.193870  0.387742  0.250000  1
  Er  Er1  1  0.805846  0.611692  0.750000  1
  Er  Er2  1  0.611724  0.805814  0.250000  1
  Er  Er3  1  0.388342  0.194262  0.750000  1
  Er  Er4  1  0.194089  0.805814  0.250000  1
  Er  Er5  1  0.805921  0.194262  0.750000  1
  Al  Al6  1  0.333439  0.666880  0.016614  1
  Al  Al7  1  0.666664  0.333326  0.983261  1
  Al  Al8  1  0.666664  0.333326  0.516739  1
  Al  Al9  1  0.333439  0.666880  0.483386  1
  Al  Al10  1  0.159631  0.319262  0.577019  1
  Al  Al11  1  0.840358  0.680716  0.423161  1
  Al  Al12  1  0.680721  0.840355  0.576861  1
  Al  Al13  1  0.840358  0.680716  0.076839  1
  Al  Al14  1  0.319362  0.159528  0.423234  1
  Al  Al15  1  0.159631  0.319262  0.922981  1
  Al  Al16  1  0.159635  0.840355  0.576861  1
  Al  Al17  1  0.319362  0.159528  0.076766  1
  Al  Al18  1  0.840165  0.159528  0.423234  1
  Al  Al19  1  0.680721  0.840355  0.923139  1
  Al  Al20  1  0.840165  0.159528  0.076766  1
  Al  Al21  1  0.159635  0.840355  0.923139  1
  Al  Al22  1  0.561133  0.122268  0.250000  1
  Al  Al23  1  0.438859  0.877717  0.750000  1
  Al  Al24  1  0.877424  0.438914  0.250000  1
  Al  Al25  1  0.122276  0.561141  0.750000  1
  Al  Al26  1  0.561489  0.438914  0.250000  1
  Al  Al27  1  0.438866  0.561141  0.750000  1
  Al  Al28  1  0.999852  0.999704  0.250000  1
  Al  Al29  1  0.000005  0.000009  0.750000  1
  Co  Co30  1  0.000017  0.000034  0.000023  1
  Co  Co31  1  0.000017  0.000034  0.499977  1
  Ru  Ru32  1  0.500046  0.000091  0.999951  1
  Ru  Ru33  1  0.999850  0.500114  0.999823  1
  Ru  Ru34  1  0.500046  0.000091  0.500049  1
  Ru  Ru35  1  0.500263  0.500114  0.999823  1
  Ru  Ru36  1  0.999850  0.500114  0.500177  1
  Ru  Ru37  1  0.500263  0.500114  0.500177  1
