# generated using pymatgen
data_Sr8Li4CdIn3Pb8
_symmetry_space_group_name_H-M   'P 1'
_cell_length_a   5.02584200
_cell_length_b   7.87894507
_cell_length_c   18.67076539
_cell_angle_alpha   90.06851895
_cell_angle_beta   90.00000000
_cell_angle_gamma   90.00000000
_symmetry_Int_Tables_number   1
_chemical_formula_structural   Sr8Li4CdIn3Pb8
_chemical_formula_sum   'Sr8 Li4 Cd1 In3 Pb8'
_cell_volume   739.33065704
_cell_formula_units_Z   1
loop_
 _symmetry_equiv_pos_site_id
 _symmetry_equiv_pos_as_xyz
  1  'x, y, z'
loop_
 _atom_site_type_symbol
 _atom_site_label
 _atom_site_symmetry_multiplicity
 _atom_site_fract_x
 _atom_site_fract_y
 _atom_site_fract_z
 _atom_site_occupancy
  Sr  Sr0  1  0.250000  0.338032  0.942411  1
  Sr  Sr1  1  0.250000  0.838738  0.558927  1
  Sr  Sr2  1  0.750000  0.163340  0.442377  1
  Sr  Sr3  1  0.750000  0.495834  0.270807  1
  Sr  Sr4  1  0.750000  0.994998  0.229157  1
  Sr  Sr5  1  0.750000  0.662113  0.058314  1
  Sr  Sr6  1  0.250000  0.501459  0.728803  1
  Sr  Sr7  1  0.250000  0.006701  0.769779  1
  Li  Li8  1  0.250000  0.989930  0.073825  1
  Li  Li9  1  0.750000  0.505992  0.573373  1
  Li  Li10  1  0.750000  0.010259  0.927179  1
  Li  Li11  1  0.250000  0.489659  0.426318  1
  Cd  Cd12  1  0.750000  0.172997  0.651488  1
  In  In13  1  0.250000  0.827487  0.346359  1
  In  In14  1  0.750000  0.670904  0.846808  1
  In  In15  1  0.250000  0.327524  0.153147  1
  Pb  Pb16  1  0.750000  0.204723  0.065615  1
  Pb  Pb17  1  0.750000  0.784806  0.683625  1
  Pb  Pb18  1  0.250000  0.217466  0.316793  1
  Pb  Pb19  1  0.250000  0.717359  0.182613  1
  Pb  Pb20  1  0.250000  0.296745  0.564328  1
  Pb  Pb21  1  0.750000  0.281536  0.817594  1
  Pb  Pb22  1  0.250000  0.797398  0.935969  1
  Pb  Pb23  1  0.750000  0.704002  0.434392  1
