# generated using pymatgen
data_Dy3Cd3InPbAu
_symmetry_space_group_name_H-M   'P 1'
_cell_length_a   7.51709900
_cell_length_b   7.51709865
_cell_length_c   4.58036000
_cell_angle_alpha   90.00000000
_cell_angle_beta   90.00000000
_cell_angle_gamma   120.00000596
_symmetry_Int_Tables_number   1
_chemical_formula_structural   Dy3Cd3InPbAu
_chemical_formula_sum   'Dy3 Cd3 In1 Pb1 Au1'
_cell_volume   224.14586858
_cell_formula_units_Z   1
loop_
 _symmetry_equiv_pos_site_id
 _symmetry_equiv_pos_as_xyz
  1  'x, y, z'
loop_
 _atom_site_type_symbol
 _atom_site_label
 _atom_site_symmetry_multiplicity
 _atom_site_fract_x
 _atom_site_fract_y
 _atom_site_fract_z
 _atom_site_occupancy
  Dy  Dy0  1  0.596510  0.004975  0.000000  1
  Dy  Dy1  1  0.995025  0.591535  0.000000  1
  Dy  Dy2  1  0.408465  0.403490  0.000000  1
  Cd  Cd3  1  0.243203  0.009364  0.500000  1
  Cd  Cd4  1  0.990636  0.233839  0.500000  1
  Cd  Cd5  1  0.766161  0.756797  0.500000  1
  In  In6  1  0.666667  0.333333  0.500000  1
  Pb  Pb7  1  0.333333  0.666667  0.500000  1
  Au  Au8  1  0.000000  0.000000  0.000000  1
