# generated using pymatgen
data_RbSrAsO4
_symmetry_space_group_name_H-M   'P 1'
_cell_length_a   5.94871300
_cell_length_b   7.72925700
_cell_length_c   10.13499000
_cell_angle_alpha   90.00000000
_cell_angle_beta   90.00000000
_cell_angle_gamma   90.00000000
_symmetry_Int_Tables_number   1
_chemical_formula_structural   RbSrAsO4
_chemical_formula_sum   'Rb4 Sr4 As4 O16'
_cell_volume   465.99803894
_cell_formula_units_Z   4
loop_
 _symmetry_equiv_pos_site_id
 _symmetry_equiv_pos_as_xyz
  1  'x, y, z'
loop_
 _atom_site_type_symbol
 _atom_site_label
 _atom_site_symmetry_multiplicity
 _atom_site_fract_x
 _atom_site_fract_y
 _atom_site_fract_z
 _atom_site_occupancy
  Rb  Rb0  1  0.250000  0.845165  0.415022  1
  Rb  Rb1  1  0.250000  0.345165  0.084978  1
  Rb  Rb2  1  0.750000  0.154835  0.584978  1
  Rb  Rb3  1  0.750000  0.654835  0.915022  1
  Sr  Sr4  1  0.250000  0.501056  0.699828  1
  Sr  Sr5  1  0.250000  0.001056  0.800172  1
  Sr  Sr6  1  0.750000  0.498944  0.300172  1
  Sr  Sr7  1  0.750000  0.998944  0.199828  1
  As  As8  1  0.250000  0.276515  0.420031  1
  As  As9  1  0.250000  0.776515  0.079969  1
  As  As10  1  0.750000  0.723485  0.579969  1
  As  As11  1  0.750000  0.223485  0.920031  1
  O  O12  1  0.250000  0.189503  0.577917  1
  O  O13  1  0.250000  0.689503  0.922083  1
  O  O14  1  0.750000  0.810497  0.422083  1
  O  O15  1  0.750000  0.310497  0.077917  1
  O  O16  1  0.010499  0.213663  0.335424  1
  O  O17  1  0.489501  0.713663  0.164576  1
  O  O18  1  0.510499  0.786337  0.664576  1
  O  O19  1  0.989501  0.286337  0.835424  1
  O  O20  1  0.989501  0.786337  0.664576  1
  O  O21  1  0.510499  0.286337  0.835424  1
  O  O22  1  0.489501  0.213663  0.335424  1
  O  O23  1  0.010499  0.713663  0.164576  1
  O  O24  1  0.250000  0.496817  0.437110  1
  O  O25  1  0.250000  0.996817  0.062890  1
  O  O26  1  0.750000  0.503183  0.562890  1
  O  O27  1  0.750000  0.003183  0.937110  1
