# generated using pymatgen
data_Y3UPt12
_symmetry_space_group_name_H-M   'P 1'
_cell_length_a   5.85057000
_cell_length_b   5.85057065
_cell_length_c   9.58887400
_cell_angle_alpha   90.00000000
_cell_angle_beta   90.00000000
_cell_angle_gamma   119.99999631
_symmetry_Int_Tables_number   1
_chemical_formula_structural   Y3UPt12
_chemical_formula_sum   'Y3 U1 Pt12'
_cell_volume   284.24620036
_cell_formula_units_Z   1
loop_
 _symmetry_equiv_pos_site_id
 _symmetry_equiv_pos_as_xyz
  1  'x, y, z'
loop_
 _atom_site_type_symbol
 _atom_site_label
 _atom_site_symmetry_multiplicity
 _atom_site_fract_x
 _atom_site_fract_y
 _atom_site_fract_z
 _atom_site_occupancy
  Y  Y0  1  0.000000  0.000000  0.505188  1
  Y  Y1  1  0.000000  0.000000  0.994812  1
  Y  Y2  1  0.333333  0.666667  0.750000  1
  U  U3  1  0.666667  0.333333  0.250000  1
  Pt  Pt4  1  0.503083  0.496917  0.494772  1
  Pt  Pt5  1  0.503083  0.006165  0.494772  1
  Pt  Pt6  1  0.993835  0.496917  0.494772  1
  Pt  Pt7  1  0.503083  0.496917  0.005228  1
  Pt  Pt8  1  0.503083  0.006165  0.005228  1
  Pt  Pt9  1  0.993835  0.496917  0.005228  1
  Pt  Pt10  1  0.173312  0.826688  0.250000  1
  Pt  Pt11  1  0.173312  0.346625  0.250000  1
  Pt  Pt12  1  0.653375  0.826688  0.250000  1
  Pt  Pt13  1  0.824404  0.175596  0.750000  1
  Pt  Pt14  1  0.824404  0.648809  0.750000  1
  Pt  Pt15  1  0.351191  0.175596  0.750000  1
