# generated using pymatgen
data_Sc4PCl6
_symmetry_space_group_name_H-M   'P 1'
_cell_length_a   3.69178700
_cell_length_b   12.15117700
_cell_length_c   12.58332700
_cell_angle_alpha   90.00000000
_cell_angle_beta   90.00000000
_cell_angle_gamma   90.00000000
_symmetry_Int_Tables_number   1
_chemical_formula_structural   Sc4PCl6
_chemical_formula_sum   'Sc8 P2 Cl12'
_cell_volume   564.48247837
_cell_formula_units_Z   2
loop_
 _symmetry_equiv_pos_site_id
 _symmetry_equiv_pos_as_xyz
  1  'x, y, z'
loop_
 _atom_site_type_symbol
 _atom_site_label
 _atom_site_symmetry_multiplicity
 _atom_site_fract_x
 _atom_site_fract_y
 _atom_site_fract_z
 _atom_site_occupancy
  Sc  Sc0  1  0.000000  0.110053  0.087464  1
  Sc  Sc1  1  0.000000  0.889947  0.912536  1
  Sc  Sc2  1  0.000000  0.610053  0.412536  1
  Sc  Sc3  1  0.000000  0.389947  0.587464  1
  Sc  Sc4  1  0.500000  0.129785  0.847773  1
  Sc  Sc5  1  0.500000  0.870215  0.152227  1
  Sc  Sc6  1  0.500000  0.629785  0.652227  1
  Sc  Sc7  1  0.500000  0.370215  0.347773  1
  P  P8  1  0.500000  0.000000  0.000000  1
  P  P9  1  0.500000  0.500000  0.500000  1
  Cl  Cl10  1  0.500000  0.267044  0.682497  1
  Cl  Cl11  1  0.500000  0.732956  0.317503  1
  Cl  Cl12  1  0.500000  0.767044  0.817503  1
  Cl  Cl13  1  0.500000  0.232956  0.182497  1
  Cl  Cl14  1  0.000000  0.254727  0.929571  1
  Cl  Cl15  1  0.000000  0.745273  0.070429  1
  Cl  Cl16  1  0.000000  0.477845  0.245201  1
  Cl  Cl17  1  0.000000  0.522155  0.754799  1
  Cl  Cl18  1  0.000000  0.977845  0.254799  1
  Cl  Cl19  1  0.000000  0.022155  0.745201  1
  Cl  Cl20  1  0.000000  0.245273  0.429571  1
  Cl  Cl21  1  0.000000  0.754727  0.570429  1
