# generated using pymatgen
data_Er8Ti7Nb2Si16W3
_symmetry_space_group_name_H-M   'P 1'
_cell_length_a   6.97119920
_cell_length_b   6.96838323
_cell_length_c   12.82527809
_cell_angle_alpha   89.99851025
_cell_angle_beta   89.98256299
_cell_angle_gamma   89.97146738
_symmetry_Int_Tables_number   1
_chemical_formula_structural   Er8Ti7Nb2Si16W3
_chemical_formula_sum   'Er8 Ti7 Nb2 Si16 W3'
_cell_volume   623.02609327
_cell_formula_units_Z   1
loop_
 _symmetry_equiv_pos_site_id
 _symmetry_equiv_pos_as_xyz
  1  'x, y, z'
loop_
 _atom_site_type_symbol
 _atom_site_label
 _atom_site_symmetry_multiplicity
 _atom_site_fract_x
 _atom_site_fract_y
 _atom_site_fract_z
 _atom_site_occupancy
  Er  Er0  1  0.341239  0.000611  0.466743  1
  Er  Er1  1  0.498756  0.841848  0.718436  1
  Er  Er2  1  0.500081  0.158632  0.216526  1
  Er  Er3  1  0.842164  0.499159  0.282022  1
  Er  Er4  1  0.158594  0.500131  0.783300  1
  Er  Er5  1  0.657876  0.999498  0.967312  1
  Er  Er6  1  0.000513  0.341259  0.533021  1
  Er  Er7  1  0.999695  0.658636  0.032516  1
  Ti  Ti8  1  0.491965  0.653347  0.124669  1
  Ti  Ti9  1  0.506901  0.347386  0.626368  1
  Ti  Ti10  1  0.652589  0.491125  0.875326  1
  Ti  Ti11  1  0.347418  0.507871  0.373740  1
  Ti  Ti12  1  0.847841  0.991808  0.375129  1
  Ti  Ti13  1  0.008093  0.152100  0.124395  1
  Ti  Ti14  1  0.991329  0.847426  0.624910  1
  Nb  Nb15  1  0.673613  0.673388  0.499919  1
  Nb  Nb16  1  0.151852  0.007417  0.875630  1
  Si  Si17  1  0.202720  0.132375  0.682678  1
  Si  Si18  1  0.369645  0.700004  0.933498  1
  Si  Si19  1  0.632045  0.296447  0.433933  1
  Si  Si20  1  0.700888  0.368564  0.066558  1
  Si  Si21  1  0.296454  0.632267  0.566172  1
  Si  Si22  1  0.798808  0.868058  0.183844  1
  Si  Si23  1  0.131388  0.201505  0.316012  1
  Si  Si24  1  0.865710  0.796597  0.816650  1
  Si  Si25  1  0.293801  0.952616  0.066216  1
  Si  Si26  1  0.545536  0.792647  0.313621  1
  Si  Si27  1  0.454867  0.209623  0.814755  1
  Si  Si28  1  0.792779  0.545233  0.686082  1
  Si  Si29  1  0.208566  0.453196  0.184758  1
  Si  Si30  1  0.707891  0.049026  0.565732  1
  Si  Si31  1  0.951813  0.294385  0.935461  1
  Si  Si32  1  0.048912  0.707559  0.434083  1
  W  W33  1  0.327215  0.327425  0.000276  1
  W  W34  1  0.173113  0.827419  0.249005  1
  W  W35  1  0.827330  0.173414  0.750700  1
