# generated using pymatgen
data_PdRh3(Pb2O7)2
_symmetry_space_group_name_H-M   'P 1'
_cell_length_a   7.34665710
_cell_length_b   7.31282981
_cell_length_c   7.34665700
_cell_angle_alpha   59.84686821
_cell_angle_beta   60.00000496
_cell_angle_gamma   59.84686917
_symmetry_Int_Tables_number   1
_chemical_formula_structural   PdRh3(Pb2O7)2
_chemical_formula_sum   'Pd1 Rh3 Pb4 O14'
_cell_volume   278.44596086
_cell_formula_units_Z   1
loop_
 _symmetry_equiv_pos_site_id
 _symmetry_equiv_pos_as_xyz
  1  'x, y, z'
loop_
 _atom_site_type_symbol
 _atom_site_label
 _atom_site_symmetry_multiplicity
 _atom_site_fract_x
 _atom_site_fract_y
 _atom_site_fract_z
 _atom_site_occupancy
  Pd  Pd0  1  0.625000  0.125000  0.625000  1
  Rh  Rh1  1  0.125000  0.625000  0.625000  1
  Rh  Rh2  1  0.625000  0.625000  0.125000  1
  Rh  Rh3  1  0.625000  0.625000  0.625000  1
  Pb  Pb4  1  0.625000  0.125000  0.125000  1
  Pb  Pb5  1  0.125000  0.625000  0.125000  1
  Pb  Pb6  1  0.125000  0.125000  0.625000  1
  Pb  Pb7  1  0.125000  0.125000  0.125000  1
  O  O8  1  0.707277  0.707832  0.292446  1
  O  O9  1  0.289316  0.294266  0.708209  1
  O  O10  1  0.708209  0.294266  0.708209  1
  O  O11  1  0.292446  0.707832  0.292446  1
  O  O12  1  0.292446  0.707832  0.707277  1
  O  O13  1  0.708209  0.294266  0.289316  1
  O  O14  1  0.542723  0.542168  0.957554  1
  O  O15  1  0.960684  0.955734  0.541791  1
  O  O16  1  0.541791  0.955734  0.541791  1
  O  O17  1  0.957554  0.542168  0.957554  1
  O  O18  1  0.957554  0.542168  0.542723  1
  O  O19  1  0.541791  0.955734  0.960684  1
  O  O20  1  0.251526  0.245422  0.251526  1
  O  O21  1  0.998474  0.004578  0.998474  1
