# generated using pymatgen
data_Hf5ZrIn4CBr18
_symmetry_space_group_name_H-M   'P 1'
_cell_length_a   10.33740186
_cell_length_b   10.57037608
_cell_length_c   10.62052219
_cell_angle_alpha   118.35125657
_cell_angle_beta   100.03470974
_cell_angle_gamma   104.08415757
_symmetry_Int_Tables_number   1
_chemical_formula_structural   Hf5ZrIn4CBr18
_chemical_formula_sum   'Hf5 Zr1 In4 C1 Br18'
_cell_volume   931.76697072
_cell_formula_units_Z   1
loop_
 _symmetry_equiv_pos_site_id
 _symmetry_equiv_pos_as_xyz
  1  'x, y, z'
loop_
 _atom_site_type_symbol
 _atom_site_label
 _atom_site_symmetry_multiplicity
 _atom_site_fract_x
 _atom_site_fract_y
 _atom_site_fract_z
 _atom_site_occupancy
  Hf  Hf0  1  0.355390  0.445537  0.777986  1
  Hf  Hf1  1  0.366537  0.622595  0.129431  1
  Hf  Hf2  1  0.641953  0.728315  0.041873  1
  Hf  Hf3  1  0.646553  0.552856  0.220389  1
  Hf  Hf4  1  0.360036  0.270235  0.956322  1
  Zr  Zr5  1  0.633236  0.377470  0.870218  1
  In  In6  1  0.176575  0.722166  0.558538  1
  In  In7  1  0.852784  0.964771  0.775837  1
  In  In8  1  0.145690  0.036154  0.224105  1
  In  In9  1  0.822213  0.278377  0.444666  1
  C  C10  1  0.498126  0.501905  0.002009  1
  Br  Br11  1  0.821769  0.422822  0.111301  1
  Br  Br12  1  0.516499  0.701572  0.404849  1
  Br  Br13  1  0.175399  0.983643  0.901833  1
  Br  Br14  1  0.180666  0.576737  0.891144  1
  Br  Br15  1  0.828670  0.829998  0.308224  1
  Br  Br16  1  0.503812  0.298000  0.208029  1
  Br  Br17  1  0.798538  0.221890  0.706782  1
  Br  Br18  1  0.170984  0.170239  0.692032  1
  Br  Br19  1  0.509727  0.904931  0.194315  1
  Br  Br20  1  0.818960  0.629637  0.903692  1
  Br  Br21  1  0.204433  0.774672  0.289159  1
  Br  Br22  1  0.163666  0.378505  0.501413  1
  Br  Br23  1  0.495536  0.702406  0.792244  1
  Br  Br24  1  0.822962  0.018140  0.100726  1
  Br  Br25  1  0.481661  0.297433  0.590748  1
  Br  Br26  1  0.184282  0.373679  0.096594  1
  Br  Br27  1  0.834374  0.624267  0.500812  1
  Br  Br28  1  0.488970  0.091049  0.804731  1
