# generated using pymatgen
data_Zr5Cr3(Co4P3)4
_symmetry_space_group_name_H-M   'P 1'
_cell_length_a   11.87392700
_cell_length_b   11.87392725
_cell_length_c   3.60900500
_cell_angle_alpha   90.00000000
_cell_angle_beta   90.00000000
_cell_angle_gamma   119.99999652
_symmetry_Int_Tables_number   1
_chemical_formula_structural   Zr5Cr3(Co4P3)4
_chemical_formula_sum   'Zr5 Cr3 Co16 P12'
_cell_volume   440.66330657
_cell_formula_units_Z   1
loop_
 _symmetry_equiv_pos_site_id
 _symmetry_equiv_pos_as_xyz
  1  'x, y, z'
loop_
 _atom_site_type_symbol
 _atom_site_label
 _atom_site_symmetry_multiplicity
 _atom_site_fract_x
 _atom_site_fract_y
 _atom_site_fract_z
 _atom_site_occupancy
  Zr  Zr0  1  0.666667  0.333333  0.000000  1
  Zr  Zr1  1  0.333333  0.666667  0.000000  1
  Zr  Zr2  1  0.817113  0.817113  0.500000  1
  Zr  Zr3  1  0.182887  0.000000  0.500000  1
  Zr  Zr4  1  0.000000  0.182887  0.500000  1
  Cr  Cr5  1  0.444139  0.444139  0.000000  1
  Cr  Cr6  1  0.555861  0.000000  0.000000  1
  Cr  Cr7  1  0.000000  0.555861  0.000000  1
  Co  Co8  1  0.196835  0.375918  0.000000  1
  Co  Co9  1  0.179083  0.803165  0.000000  1
  Co  Co10  1  0.820917  0.624082  0.000000  1
  Co  Co11  1  0.803165  0.179083  0.000000  1
  Co  Co12  1  0.375918  0.196835  0.000000  1
  Co  Co13  1  0.126928  0.482942  0.500000  1
  Co  Co14  1  0.356014  0.873072  0.500000  1
  Co  Co15  1  0.517058  0.643986  0.500000  1
  Co  Co16  1  0.643986  0.517058  0.500000  1
  Co  Co17  1  0.873072  0.356014  0.500000  1
  Co  Co18  1  0.482942  0.126928  0.500000  1
  Co  Co19  1  0.000000  0.000000  0.000000  1
  Co  Co20  1  0.717414  0.000000  0.500000  1
  Co  Co21  1  0.000000  0.717414  0.500000  1
  Co  Co22  1  0.624082  0.820917  0.000000  1
  Co  Co23  1  0.282586  0.282586  0.500000  1
  P  P24  1  0.640354  0.640354  0.000000  1
  P  P25  1  0.359646  0.000000  0.000000  1
  P  P26  1  0.000000  0.359646  0.000000  1
  P  P27  1  0.481956  0.315825  0.500000  1
  P  P28  1  0.684175  0.166131  0.500000  1
  P  P29  1  0.833869  0.518044  0.500000  1
  P  P30  1  0.518044  0.833869  0.500000  1
  P  P31  1  0.166131  0.684175  0.500000  1
  P  P32  1  0.823160  0.000000  0.000000  1
  P  P33  1  0.000000  0.823160  0.000000  1
  P  P34  1  0.315825  0.481956  0.500000  1
  P  P35  1  0.176840  0.176840  0.000000  1
