# generated using pymatgen
data_Li2Co2Ni3(PRu)7
_symmetry_space_group_name_H-M   'P 1'
_cell_length_a   9.31271611
_cell_length_b   9.14835364
_cell_length_c   3.69794800
_cell_angle_alpha   90.00000000
_cell_angle_beta   90.00000000
_cell_angle_gamma   119.65876326
_symmetry_Int_Tables_number   1
_chemical_formula_structural   Li2Co2Ni3(PRu)7
_chemical_formula_sum   'Li2 Co2 Ni3 P7 Ru7'
_cell_volume   273.77502493
_cell_formula_units_Z   1
loop_
 _symmetry_equiv_pos_site_id
 _symmetry_equiv_pos_as_xyz
  1  'x, y, z'
loop_
 _atom_site_type_symbol
 _atom_site_label
 _atom_site_symmetry_multiplicity
 _atom_site_fract_x
 _atom_site_fract_y
 _atom_site_fract_z
 _atom_site_occupancy
  Li  Li0  1  0.001182  0.999120  0.000000  1
  Li  Li1  1  0.331583  0.666167  0.500000  1
  Co  Co2  1  0.393485  0.222159  0.000000  1
  Co  Co3  1  0.820726  0.604274  0.000000  1
  Ni  Ni4  1  0.600270  0.694562  0.000000  1
  Ni  Ni5  1  0.097688  0.399494  0.000000  1
  Ni  Ni6  1  0.785653  0.171970  0.000000  1
  P  P7  1  0.551291  0.915850  0.000000  1
  P  P8  1  0.368104  0.449539  0.000000  1
  P  P9  1  0.072945  0.628324  0.000000  1
  P  P10  1  0.949865  0.204764  0.500000  1
  P  P11  1  0.263598  0.051862  0.500000  1
  P  P12  1  0.792510  0.739247  0.500000  1
  P  P13  1  0.665225  0.333533  0.000000  1
  Ru  Ru14  1  0.302784  0.900152  0.000000  1
  Ru  Ru15  1  0.710892  0.937595  0.500000  1
  Ru  Ru16  1  0.226846  0.289254  0.500000  1
  Ru  Ru17  1  0.053271  0.773359  0.500000  1
  Ru  Ru18  1  0.550063  0.138101  0.500000  1
  Ru  Ru19  1  0.576369  0.460463  0.500000  1
  Ru  Ru20  1  0.885649  0.420210  0.500000  1
