# generated using pymatgen
data_LuPaSnPt2
_symmetry_space_group_name_H-M   'P 1'
_cell_length_a   7.77094600
_cell_length_b   7.77461100
_cell_length_c   3.62125500
_cell_angle_alpha   90.00000000
_cell_angle_beta   90.00000000
_cell_angle_gamma   90.00000000
_symmetry_Int_Tables_number   1
_chemical_formula_structural   LuPaSnPt2
_chemical_formula_sum   'Lu2 Pa2 Sn2 Pt4'
_cell_volume   218.78203994
_cell_formula_units_Z   2
loop_
 _symmetry_equiv_pos_site_id
 _symmetry_equiv_pos_as_xyz
  1  'x, y, z'
loop_
 _atom_site_type_symbol
 _atom_site_label
 _atom_site_symmetry_multiplicity
 _atom_site_fract_x
 _atom_site_fract_y
 _atom_site_fract_z
 _atom_site_occupancy
  Lu  Lu0  1  0.171109  0.673346  0.500000  1
  Lu  Lu1  1  0.671109  0.826654  0.500000  1
  Pa  Pa2  1  0.331441  0.167832  0.500000  1
  Pa  Pa3  1  0.831441  0.332168  0.500000  1
  Sn  Sn4  1  0.996171  0.988063  0.000000  1
  Sn  Sn5  1  0.496171  0.511937  0.000000  1
  Pt  Pt6  1  0.631719  0.135443  0.000000  1
  Pt  Pt7  1  0.131719  0.364558  0.000000  1
  Pt  Pt8  1  0.869561  0.622205  0.000000  1
  Pt  Pt9  1  0.369561  0.877796  0.000000  1
