# generated using pymatgen
data_CeY(Al5Ru)4
_symmetry_space_group_name_H-M   'P 1'
_cell_length_a   6.85631366
_cell_length_b   6.85631413
_cell_length_c   9.14264900
_cell_angle_alpha   90.00000000
_cell_angle_beta   90.00000000
_cell_angle_gamma   96.91831365
_symmetry_Int_Tables_number   1
_chemical_formula_structural   CeY(Al5Ru)4
_chemical_formula_sum   'Ce1 Y1 Al20 Ru4'
_cell_volume   426.65782731
_cell_formula_units_Z   1
loop_
 _symmetry_equiv_pos_site_id
 _symmetry_equiv_pos_as_xyz
  1  'x, y, z'
loop_
 _atom_site_type_symbol
 _atom_site_label
 _atom_site_symmetry_multiplicity
 _atom_site_fract_x
 _atom_site_fract_y
 _atom_site_fract_z
 _atom_site_occupancy
  Ce  Ce0  1  0.875417  0.124583  0.750000  1
  Y  Y1  1  0.127889  0.872111  0.250000  1
  Al  Al2  1  0.622657  0.377343  0.550154  1
  Al  Al3  1  0.376460  0.623540  0.449115  1
  Al  Al4  1  0.376460  0.623540  0.050885  1
  Al  Al5  1  0.622657  0.377343  0.949846  1
  Al  Al6  1  0.226963  0.226340  0.498570  1
  Al  Al7  1  0.773660  0.773037  0.498570  1
  Al  Al8  1  0.773660  0.773037  0.001430  1
  Al  Al9  1  0.226963  0.226340  0.001430  1
  Al  Al10  1  0.842655  0.157345  0.101616  1
  Al  Al11  1  0.158159  0.841841  0.899919  1
  Al  Al12  1  0.158159  0.841841  0.600081  1
  Al  Al13  1  0.842655  0.157345  0.398384  1
  Al  Al14  1  0.859598  0.589335  0.750000  1
  Al  Al15  1  0.140899  0.414908  0.250000  1
  Al  Al16  1  0.410665  0.140402  0.750000  1
  Al  Al17  1  0.585092  0.859101  0.250000  1
  Al  Al18  1  0.220731  0.481445  0.750000  1
  Al  Al19  1  0.779844  0.519811  0.250000  1
  Al  Al20  1  0.518555  0.779269  0.750000  1
  Al  Al21  1  0.480189  0.220156  0.250000  1
  Ru  Ru22  1  0.999583  0.499577  0.499662  1
  Ru  Ru23  1  0.999583  0.499577  0.000338  1
  Ru  Ru24  1  0.500423  0.000417  0.000338  1
  Ru  Ru25  1  0.500423  0.000417  0.499662  1
