# generated using pymatgen
data_Tb4Dy6BiPb5
_symmetry_space_group_name_H-M   'P 1'
_cell_length_a   9.11829607
_cell_length_b   9.11923445
_cell_length_c   6.58588600
_cell_angle_alpha   90.00000000
_cell_angle_beta   90.00000000
_cell_angle_gamma   120.00341430
_symmetry_Int_Tables_number   1
_chemical_formula_structural   Tb4Dy6BiPb5
_chemical_formula_sum   'Tb4 Dy6 Bi1 Pb5'
_cell_volume   474.24413473
_cell_formula_units_Z   1
loop_
 _symmetry_equiv_pos_site_id
 _symmetry_equiv_pos_as_xyz
  1  'x, y, z'
loop_
 _atom_site_type_symbol
 _atom_site_label
 _atom_site_symmetry_multiplicity
 _atom_site_fract_x
 _atom_site_fract_y
 _atom_site_fract_z
 _atom_site_occupancy
  Tb  Tb0  1  0.000000  0.239038  0.750000  1
  Tb  Tb1  1  0.241467  0.237559  0.250000  1
  Tb  Tb2  1  0.758533  0.996092  0.250000  1
  Tb  Tb3  1  0.000000  0.762816  0.250000  1
  Dy  Dy4  1  0.664291  0.332948  0.999795  1
  Dy  Dy5  1  0.335709  0.668658  0.999795  1
  Dy  Dy6  1  0.335709  0.668658  0.500205  1
  Dy  Dy7  1  0.664291  0.332948  0.500205  1
  Dy  Dy8  1  0.760328  0.760974  0.750000  1
  Dy  Dy9  1  0.239672  0.000647  0.750000  1
  Bi  Bi10  1  0.000000  0.392805  0.250000  1
  Pb  Pb11  1  0.392981  0.393893  0.750000  1
  Pb  Pb12  1  0.607019  0.000913  0.750000  1
  Pb  Pb13  1  0.000000  0.607253  0.750000  1
  Pb  Pb14  1  0.605530  0.605164  0.250000  1
  Pb  Pb15  1  0.394470  0.999635  0.250000  1
