# generated using pymatgen
data_ErTm7In3Tc
_symmetry_space_group_name_H-M   'P 1'
_cell_length_a   10.29717000
_cell_length_b   10.29710779
_cell_length_c   6.97504700
_cell_angle_alpha   90.00000000
_cell_angle_beta   90.00000000
_cell_angle_gamma   119.99979890
_symmetry_Int_Tables_number   1
_chemical_formula_structural   ErTm7In3Tc
_chemical_formula_sum   'Er2 Tm14 In6 Tc2'
_cell_volume   640.48917152
_cell_formula_units_Z   2
loop_
 _symmetry_equiv_pos_site_id
 _symmetry_equiv_pos_as_xyz
  1  'x, y, z'
loop_
 _atom_site_type_symbol
 _atom_site_label
 _atom_site_symmetry_multiplicity
 _atom_site_fract_x
 _atom_site_fract_y
 _atom_site_fract_z
 _atom_site_occupancy
  Er  Er0  1  0.999964  0.999982  0.775968  1
  Er  Er1  1  0.000036  0.000018  0.275968  1
  Tm  Tm2  1  0.531574  0.063162  0.796511  1
  Tm  Tm3  1  0.936847  0.468424  0.796511  1
  Tm  Tm4  1  0.531574  0.468411  0.796511  1
  Tm  Tm5  1  0.468426  0.936838  0.296511  1
  Tm  Tm6  1  0.063153  0.531576  0.296511  1
  Tm  Tm7  1  0.468426  0.531589  0.296511  1
  Tm  Tm8  1  0.822617  0.645233  0.498965  1
  Tm  Tm9  1  0.354767  0.177384  0.498966  1
  Tm  Tm10  1  0.822617  0.177384  0.498965  1
  Tm  Tm11  1  0.177383  0.354767  0.998965  1
  Tm  Tm12  1  0.645233  0.822616  0.998966  1
  Tm  Tm13  1  0.177383  0.822616  0.998965  1
  Tm  Tm14  1  0.666667  0.333333  0.170886  1
  Tm  Tm15  1  0.333333  0.666667  0.670886  1
  In  In16  1  0.836768  0.673555  0.038132  1
  In  In17  1  0.326437  0.163219  0.038110  1
  In  In18  1  0.836768  0.163213  0.038132  1
  In  In19  1  0.163232  0.326445  0.538132  1
  In  In20  1  0.673563  0.836781  0.538110  1
  In  In21  1  0.163232  0.836787  0.538132  1
  Tc  Tc22  1  0.666672  0.333336  0.570297  1
  Tc  Tc23  1  0.333328  0.666664  0.070297  1
