# generated using pymatgen
data_TiPdPt7
_symmetry_space_group_name_H-M   'P 1'
_cell_length_a   3.93852976
_cell_length_b   6.24986650
_cell_length_c   6.27398487
_cell_angle_alpha   95.67580668
_cell_angle_beta   71.70691552
_cell_angle_gamma   108.36620410
_symmetry_Int_Tables_number   1
_chemical_formula_structural   TiPdPt7
_chemical_formula_sum   'Ti1 Pd1 Pt7'
_cell_volume   139.16215718
_cell_formula_units_Z   1
loop_
 _symmetry_equiv_pos_site_id
 _symmetry_equiv_pos_as_xyz
  1  'x, y, z'
loop_
 _atom_site_type_symbol
 _atom_site_label
 _atom_site_symmetry_multiplicity
 _atom_site_fract_x
 _atom_site_fract_y
 _atom_site_fract_z
 _atom_site_occupancy
  Ti  Ti0  1  0.999085  0.998170  0.000000  1
  Pd  Pd1  1  0.662915  0.325828  0.000000  1
  Pt  Pt2  1  0.337683  0.675367  0.000000  1
  Pt  Pt3  1  0.338538  0.000764  0.323690  1
  Pt  Pt4  1  0.999800  0.328533  0.328932  1
  Pt  Pt5  1  0.671081  0.671022  0.328861  1
  Pt  Pt6  1  0.328733  0.328533  0.671069  1
  Pt  Pt7  1  0.999941  0.671022  0.671140  1
  Pt  Pt8  1  0.662228  0.000764  0.676311  1
