# generated using pymatgen
data_Tm20Cd3Ag3Pd2
_symmetry_space_group_name_H-M   'P 1'
_cell_length_a   9.42951800
_cell_length_b   9.42951788
_cell_length_c   9.58847900
_cell_angle_alpha   90.00000000
_cell_angle_beta   90.00000000
_cell_angle_gamma   120.00000041
_symmetry_Int_Tables_number   1
_chemical_formula_structural   Tm20Cd3Ag3Pd2
_chemical_formula_sum   'Tm20 Cd3 Ag3 Pd2'
_cell_volume   738.34499243
_cell_formula_units_Z   1
loop_
 _symmetry_equiv_pos_site_id
 _symmetry_equiv_pos_as_xyz
  1  'x, y, z'
loop_
 _atom_site_type_symbol
 _atom_site_label
 _atom_site_symmetry_multiplicity
 _atom_site_fract_x
 _atom_site_fract_y
 _atom_site_fract_z
 _atom_site_occupancy
  Tm  Tm0  1  0.000000  0.000000  0.475775  1
  Tm  Tm1  1  0.000000  0.000000  0.024225  1
  Tm  Tm2  1  0.208118  0.791882  0.445454  1
  Tm  Tm3  1  0.208118  0.416238  0.445454  1
  Tm  Tm4  1  0.583762  0.791882  0.445454  1
  Tm  Tm5  1  0.792761  0.207239  0.554196  1
  Tm  Tm6  1  0.792761  0.585521  0.554196  1
  Tm  Tm7  1  0.414479  0.207239  0.554196  1
  Tm  Tm8  1  0.792761  0.207239  0.945804  1
  Tm  Tm9  1  0.792761  0.585521  0.945804  1
  Tm  Tm10  1  0.414479  0.207239  0.945804  1
  Tm  Tm11  1  0.208118  0.791882  0.054546  1
  Tm  Tm12  1  0.208118  0.416238  0.054546  1
  Tm  Tm13  1  0.583762  0.791882  0.054546  1
  Tm  Tm14  1  0.542504  0.457496  0.250000  1
  Tm  Tm15  1  0.542504  0.085008  0.250000  1
  Tm  Tm16  1  0.914992  0.457496  0.250000  1
  Tm  Tm17  1  0.457243  0.542757  0.750000  1
  Tm  Tm18  1  0.457243  0.914484  0.750000  1
  Tm  Tm19  1  0.085516  0.542757  0.750000  1
  Cd  Cd20  1  0.110925  0.889075  0.750000  1
  Cd  Cd21  1  0.110925  0.221848  0.750000  1
  Cd  Cd22  1  0.778152  0.889075  0.750000  1
  Ag  Ag23  1  0.876741  0.123259  0.250000  1
  Ag  Ag24  1  0.876741  0.753484  0.250000  1
  Ag  Ag25  1  0.246516  0.123259  0.250000  1
  Pd  Pd26  1  0.333333  0.666667  0.250000  1
  Pd  Pd27  1  0.666667  0.333333  0.750000  1
