# generated using pymatgen
data_Nd3Dy(B4W)4
_symmetry_space_group_name_H-M   'P 1'
_cell_length_a   6.11085791
_cell_length_b   11.81947863
_cell_length_c   3.68531700
_cell_angle_alpha   90.00000000
_cell_angle_beta   90.00000000
_cell_angle_gamma   89.88812690
_symmetry_Int_Tables_number   1
_chemical_formula_structural   Nd3Dy(B4W)4
_chemical_formula_sum   'Nd3 Dy1 B16 W4'
_cell_volume   266.17945301
_cell_formula_units_Z   1
loop_
 _symmetry_equiv_pos_site_id
 _symmetry_equiv_pos_as_xyz
  1  'x, y, z'
loop_
 _atom_site_type_symbol
 _atom_site_label
 _atom_site_symmetry_multiplicity
 _atom_site_fract_x
 _atom_site_fract_y
 _atom_site_fract_z
 _atom_site_occupancy
  Nd  Nd0  1  0.625655  0.349762  0.000000  1
  Nd  Nd1  1  0.374269  0.650857  0.000000  1
  Nd  Nd2  1  0.125576  0.149808  0.000000  1
  Dy  Dy3  1  0.873956  0.850533  0.000000  1
  B  B4  1  0.782795  0.184180  0.500000  1
  B  B5  1  0.213531  0.815297  0.500000  1
  B  B6  1  0.282694  0.314995  0.500000  1
  B  B7  1  0.717577  0.687249  0.500000  1
  B  B8  1  0.864229  0.030124  0.500000  1
  B  B9  1  0.135110  0.966305  0.500000  1
  B  B10  1  0.363147  0.468170  0.500000  1
  B  B11  1  0.637013  0.533062  0.500000  1
  B  B12  1  0.888051  0.454385  0.500000  1
  B  B13  1  0.111461  0.547021  0.500000  1
  B  B14  1  0.388735  0.044889  0.500000  1
  B  B15  1  0.614591  0.951977  0.500000  1
  B  B16  1  0.976107  0.309147  0.500000  1
  B  B17  1  0.022380  0.693562  0.500000  1
  B  B18  1  0.476123  0.190292  0.500000  1
  B  B19  1  0.526349  0.808710  0.500000  1
  W  W20  1  0.629776  0.082159  0.000000  1
  W  W21  1  0.371132  0.915550  0.000000  1
  W  W22  1  0.128783  0.416959  0.000000  1
  W  W23  1  0.870960  0.585009  0.000000  1
