# generated using pymatgen
data_La10Si4HgPb
_symmetry_space_group_name_H-M   'P 1'
_cell_length_a   7.93491183
_cell_length_b   7.93491137
_cell_length_c   9.29506700
_cell_angle_alpha   115.26685319
_cell_angle_beta   115.26685163
_cell_angle_gamma   89.99999514
_symmetry_Int_Tables_number   1
_chemical_formula_structural   La10Si4HgPb
_chemical_formula_sum   'La10 Si4 Hg1 Pb1'
_cell_volume   466.59161558
_cell_formula_units_Z   1
loop_
 _symmetry_equiv_pos_site_id
 _symmetry_equiv_pos_as_xyz
  1  'x, y, z'
loop_
 _atom_site_type_symbol
 _atom_site_label
 _atom_site_symmetry_multiplicity
 _atom_site_fract_x
 _atom_site_fract_y
 _atom_site_fract_z
 _atom_site_occupancy
  La  La0  1  0.518600  0.518600  0.037201  1
  La  La1  1  0.981400  0.981400  0.962799  1
  La  La2  1  0.969100  0.820458  0.278017  1
  La  La3  1  0.308917  0.457559  0.278017  1
  La  La4  1  0.820458  0.308917  0.278017  1
  La  La5  1  0.457559  0.969100  0.278017  1
  La  La6  1  0.042441  0.191083  0.721983  1
  La  La7  1  0.679542  0.530900  0.721983  1
  La  La8  1  0.191083  0.679542  0.721983  1
  La  La9  1  0.530900  0.042441  0.721983  1
  Si  Si10  1  0.614051  0.885949  0.000000  1
  Si  Si11  1  0.385949  0.114051  0.000000  1
  Si  Si12  1  0.885949  0.385949  0.000000  1
  Si  Si13  1  0.114051  0.614051  0.000000  1
  Hg  Hg14  1  0.250000  0.250000  0.500000  1
  Pb  Pb15  1  0.750000  0.750000  0.500000  1
