# generated using pymatgen
data_Tm4Hf5NbSi8
_symmetry_space_group_name_H-M   'P 1'
_cell_length_a   7.20921401
_cell_length_b   7.20921424
_cell_length_c   13.22871500
_cell_angle_alpha   90.00000000
_cell_angle_beta   90.00000000
_cell_angle_gamma   90.11210858
_symmetry_Int_Tables_number   1
_chemical_formula_structural   Tm4Hf5NbSi8
_chemical_formula_sum   'Tm8 Hf10 Nb2 Si16'
_cell_volume   687.53162297
_cell_formula_units_Z   2
loop_
 _symmetry_equiv_pos_site_id
 _symmetry_equiv_pos_as_xyz
  1  'x, y, z'
loop_
 _atom_site_type_symbol
 _atom_site_label
 _atom_site_symmetry_multiplicity
 _atom_site_fract_x
 _atom_site_fract_y
 _atom_site_fract_z
 _atom_site_occupancy
  Tm  Tm0  1  0.997101  0.343584  0.214519  1
  Tm  Tm1  1  0.002899  0.656416  0.714519  1
  Tm  Tm2  1  0.154892  0.497717  0.465639  1
  Tm  Tm3  1  0.502283  0.845108  0.034361  1
  Tm  Tm4  1  0.845108  0.502283  0.965639  1
  Tm  Tm5  1  0.497717  0.154892  0.534361  1
  Tm  Tm6  1  0.343584  0.997101  0.785481  1
  Tm  Tm7  1  0.656416  0.002899  0.285481  1
  Hf  Hf8  1  0.324796  0.675204  0.250000  1
  Hf  Hf9  1  0.675204  0.324796  0.750000  1
  Hf  Hf10  1  0.146101  0.996473  0.376217  1
  Hf  Hf11  1  0.853899  0.003527  0.876217  1
  Hf  Hf12  1  0.505161  0.649062  0.623742  1
  Hf  Hf13  1  0.350938  0.494839  0.876258  1
  Hf  Hf14  1  0.494839  0.350938  0.123742  1
  Hf  Hf15  1  0.649062  0.505161  0.376258  1
  Hf  Hf16  1  0.996473  0.146101  0.623783  1
  Hf  Hf17  1  0.003527  0.853899  0.123783  1
  Nb  Nb18  1  0.174905  0.174905  0.000000  1
  Nb  Nb19  1  0.825095  0.825095  0.500000  1
  Si  Si20  1  0.361242  0.294781  0.317768  1
  Si  Si21  1  0.638758  0.705219  0.817768  1
  Si  Si22  1  0.204268  0.860462  0.567572  1
  Si  Si23  1  0.139538  0.795732  0.932428  1
  Si  Si24  1  0.795732  0.139538  0.067572  1
  Si  Si25  1  0.860462  0.204268  0.432428  1
  Si  Si26  1  0.294781  0.361242  0.682232  1
  Si  Si27  1  0.705219  0.638758  0.182232  1
  Si  Si28  1  0.297067  0.049197  0.184543  1
  Si  Si29  1  0.702933  0.950803  0.684543  1
  Si  Si30  1  0.452604  0.798595  0.435572  1
  Si  Si31  1  0.201405  0.547396  0.064428  1
  Si  Si32  1  0.547396  0.201405  0.935572  1
  Si  Si33  1  0.798595  0.452604  0.564428  1
  Si  Si34  1  0.049197  0.297067  0.815457  1
  Si  Si35  1  0.950803  0.702933  0.315457  1
