# generated using pymatgen
data_Pr6Er10Cd4TcPt3
_symmetry_space_group_name_H-M   'P 1'
_cell_length_a   9.78577605
_cell_length_b   9.78577574
_cell_length_c   9.78577590
_cell_angle_alpha   59.54007551
_cell_angle_beta   59.54007703
_cell_angle_gamma   59.54007019
_symmetry_Int_Tables_number   1
_chemical_formula_structural   Pr6Er10Cd4TcPt3
_chemical_formula_sum   'Pr6 Er10 Cd4 Tc1 Pt3'
_cell_volume   655.70016867
_cell_formula_units_Z   1
loop_
 _symmetry_equiv_pos_site_id
 _symmetry_equiv_pos_as_xyz
  1  'x, y, z'
loop_
 _atom_site_type_symbol
 _atom_site_label
 _atom_site_symmetry_multiplicity
 _atom_site_fract_x
 _atom_site_fract_y
 _atom_site_fract_z
 _atom_site_occupancy
  Pr  Pr0  1  0.937862  0.561478  0.561478  1
  Pr  Pr1  1  0.553264  0.941185  0.941185  1
  Pr  Pr2  1  0.561478  0.937862  0.561478  1
  Pr  Pr3  1  0.941185  0.553264  0.941185  1
  Pr  Pr4  1  0.561478  0.561478  0.937862  1
  Pr  Pr5  1  0.941185  0.941185  0.553264  1
  Er  Er6  1  0.350945  0.350945  0.350945  1
  Er  Er7  1  0.348206  0.348206  0.956365  1
  Er  Er8  1  0.348206  0.956365  0.348206  1
  Er  Er9  1  0.956365  0.348206  0.348206  1
  Er  Er10  1  0.817969  0.185047  0.185047  1
  Er  Er11  1  0.183898  0.811856  0.811856  1
  Er  Er12  1  0.185047  0.817969  0.185047  1
  Er  Er13  1  0.811856  0.183898  0.811856  1
  Er  Er14  1  0.185047  0.185047  0.817969  1
  Er  Er15  1  0.811856  0.811856  0.183898  1
  Cd  Cd16  1  0.578949  0.578949  0.578949  1
  Cd  Cd17  1  0.579125  0.579125  0.260944  1
  Cd  Cd18  1  0.579125  0.260944  0.579125  1
  Cd  Cd19  1  0.260944  0.579125  0.579125  1
  Tc  Tc20  1  0.143079  0.143079  0.143079  1
  Pt  Pt21  1  0.144061  0.144061  0.574805  1
  Pt  Pt22  1  0.144061  0.574805  0.144061  1
  Pt  Pt23  1  0.574805  0.144061  0.144061  1
