# generated using pymatgen
data_CsP2RhO7
_symmetry_space_group_name_H-M   'P 1'
_cell_length_a   5.55593841
_cell_length_b   5.55593755
_cell_length_c   6.40360622
_cell_angle_alpha   90.97974664
_cell_angle_beta   90.97973835
_cell_angle_gamma   98.18095960
_symmetry_Int_Tables_number   1
_chemical_formula_structural   CsP2RhO7
_chemical_formula_sum   'Cs1 P2 Rh1 O7'
_cell_volume   195.59110326
_cell_formula_units_Z   1
loop_
 _symmetry_equiv_pos_site_id
 _symmetry_equiv_pos_as_xyz
  1  'x, y, z'
loop_
 _atom_site_type_symbol
 _atom_site_label
 _atom_site_symmetry_multiplicity
 _atom_site_fract_x
 _atom_site_fract_y
 _atom_site_fract_z
 _atom_site_occupancy
  Cs  Cs0  1  0.158881  0.841120  0.000000  1
  P  P1  1  0.656324  0.949756  0.435736  1
  P  P2  1  0.050244  0.343675  0.564264  1
  Rh  Rh3  1  0.519490  0.480510  0.500000  1
  O  O4  1  0.683892  0.736237  0.282888  1
  O  O5  1  0.173640  0.470107  0.371150  1
  O  O6  1  0.532377  0.151007  0.338957  1
  O  O7  1  0.932845  0.067155  0.500000  1
  O  O8  1  0.848992  0.467622  0.661044  1
  O  O9  1  0.529893  0.826361  0.628850  1
  O  O10  1  0.263762  0.316107  0.717112  1
