# generated using pymatgen
data_Sm4Fe7Co(PRh)12
_symmetry_space_group_name_H-M   'P 1'
_cell_length_a   3.81830200
_cell_length_b   10.63620281
_cell_length_c   12.29946938
_cell_angle_alpha   89.73517801
_cell_angle_beta   90.00000000
_cell_angle_gamma   90.00000000
_symmetry_Int_Tables_number   1
_chemical_formula_structural   Sm4Fe7Co(PRh)12
_chemical_formula_sum   'Sm4 Fe7 Co1 P12 Rh12'
_cell_volume   499.50359857
_cell_formula_units_Z   1
loop_
 _symmetry_equiv_pos_site_id
 _symmetry_equiv_pos_as_xyz
  1  'x, y, z'
loop_
 _atom_site_type_symbol
 _atom_site_label
 _atom_site_symmetry_multiplicity
 _atom_site_fract_x
 _atom_site_fract_y
 _atom_site_fract_z
 _atom_site_occupancy
  Sm  Sm0  1  0.250000  0.579424  0.708821  1
  Sm  Sm1  1  0.250000  0.919850  0.209319  1
  Sm  Sm2  1  0.750000  0.419899  0.290645  1
  Sm  Sm3  1  0.750000  0.080925  0.791604  1
  Fe  Fe4  1  0.250000  0.878989  0.696842  1
  Fe  Fe5  1  0.250000  0.623449  0.197665  1
  Fe  Fe6  1  0.750000  0.122485  0.302478  1
  Fe  Fe7  1  0.750000  0.377000  0.802307  1
  Fe  Fe8  1  0.250000  0.460118  0.934821  1
  Fe  Fe9  1  0.250000  0.038260  0.435613  1
  Fe  Fe10  1  0.750000  0.540627  0.065038  1
  Co  Co11  1  0.750000  0.961129  0.566662  1
  P  P12  1  0.250000  0.440768  0.110935  1
  P  P13  1  0.250000  0.062617  0.610748  1
  P  P14  1  0.750000  0.559904  0.888877  1
  P  P15  1  0.750000  0.939582  0.389280  1
  P  P16  1  0.250000  0.275411  0.865414  1
  P  P17  1  0.250000  0.223824  0.365681  1
  P  P18  1  0.750000  0.725105  0.135015  1
  P  P19  1  0.750000  0.774501  0.633681  1
  P  P20  1  0.250000  0.602430  0.381265  1
  P  P21  1  0.250000  0.896840  0.881641  1
  P  P22  1  0.750000  0.396500  0.618383  1
  P  P23  1  0.750000  0.103426  0.118228  1
  Rh  Rh24  1  0.250000  0.713929  0.990590  1
  Rh  Rh25  1  0.250000  0.782467  0.491987  1
  Rh  Rh26  1  0.750000  0.286299  0.009059  1
  Rh  Rh27  1  0.750000  0.215113  0.508301  1
  Rh  Rh28  1  0.250000  0.407269  0.480778  1
  Rh  Rh29  1  0.250000  0.092292  0.981658  1
  Rh  Rh30  1  0.750000  0.590674  0.518571  1
  Rh  Rh31  1  0.750000  0.907767  0.018449  1
  Rh  Rh32  1  0.250000  0.231140  0.174345  1
  Rh  Rh33  1  0.250000  0.269331  0.674453  1
  Rh  Rh34  1  0.750000  0.769492  0.824661  1
  Rh  Rh35  1  0.750000  0.731164  0.326186  1
