# generated using pymatgen
data_Y12Co4HgRu
_symmetry_space_group_name_H-M   'P 1'
_cell_length_a   8.33197510
_cell_length_b   8.33197483
_cell_length_c   8.33197442
_cell_angle_alpha   110.06991427
_cell_angle_beta   111.24425696
_cell_angle_gamma   107.12687932
_symmetry_Int_Tables_number   1
_chemical_formula_structural   Y12Co4HgRu
_chemical_formula_sum   'Y12 Co4 Hg1 Ru1'
_cell_volume   444.66349919
_cell_formula_units_Z   1
loop_
 _symmetry_equiv_pos_site_id
 _symmetry_equiv_pos_as_xyz
  1  'x, y, z'
loop_
 _atom_site_type_symbol
 _atom_site_label
 _atom_site_symmetry_multiplicity
 _atom_site_fract_x
 _atom_site_fract_y
 _atom_site_fract_z
 _atom_site_occupancy
  Y  Y0  1  0.287014  0.183525  0.470538  1
  Y  Y1  1  0.712986  0.816475  0.529462  1
  Y  Y2  1  0.287014  0.816475  0.103490  1
  Y  Y3  1  0.712986  0.183525  0.896510  1
  Y  Y4  1  0.617805  0.314547  0.303258  1
  Y  Y5  1  0.382195  0.685453  0.696742  1
  Y  Y6  1  0.011289  0.314547  0.696742  1
  Y  Y7  1  0.988711  0.685453  0.303258  1
  Y  Y8  1  0.215753  0.410522  0.194771  1
  Y  Y9  1  0.784247  0.589478  0.805229  1
  Y  Y10  1  0.215753  0.020982  0.805229  1
  Y  Y11  1  0.784247  0.979018  0.194771  1
  Co  Co12  1  0.000000  0.381027  0.381027  1
  Co  Co13  1  0.000000  0.618973  0.618973  1
  Co  Co14  1  0.388542  0.888542  0.500000  1
  Co  Co15  1  0.611458  0.111458  0.500000  1
  Hg  Hg16  1  0.500000  0.500000  0.000000  1
  Ru  Ru17  1  0.000000  0.000000  0.000000  1
