# generated using pymatgen
data_Hf7Zr(V3Ge4)4
_symmetry_space_group_name_H-M   'P 1'
_cell_length_a   6.59780004
_cell_length_b   6.73618103
_cell_length_c   12.77985215
_cell_angle_alpha   89.98858604
_cell_angle_beta   89.98692548
_cell_angle_gamma   90.00199300
_symmetry_Int_Tables_number   1
_chemical_formula_structural   Hf7Zr(V3Ge4)4
_chemical_formula_sum   'Hf7 Zr1 V12 Ge16'
_cell_volume   567.98740961
_cell_formula_units_Z   1
loop_
 _symmetry_equiv_pos_site_id
 _symmetry_equiv_pos_as_xyz
  1  'x, y, z'
loop_
 _atom_site_type_symbol
 _atom_site_label
 _atom_site_symmetry_multiplicity
 _atom_site_fract_x
 _atom_site_fract_y
 _atom_site_fract_z
 _atom_site_occupancy
  Hf  Hf0  1  0.488640  0.673271  0.091386  1
  Hf  Hf1  1  0.988452  0.827008  0.408342  1
  Hf  Hf2  1  0.511414  0.326750  0.591455  1
  Hf  Hf3  1  0.011676  0.173320  0.908254  1
  Hf  Hf4  1  0.511858  0.327396  0.908079  1
  Hf  Hf5  1  0.011282  0.173234  0.591596  1
  Hf  Hf6  1  0.488602  0.673113  0.408840  1
  Zr  Zr7  1  0.989628  0.826885  0.091850  1
  V  V8  1  0.338051  0.008579  0.250413  1
  V  V9  1  0.837459  0.491715  0.250373  1
  V  V10  1  0.662203  0.991698  0.749821  1
  V  V11  1  0.162129  0.507970  0.749805  1
  V  V12  1  0.661290  0.160024  0.125480  1
  V  V13  1  0.162153  0.340238  0.375063  1
  V  V14  1  0.337904  0.840506  0.625135  1
  V  V15  1  0.837114  0.658746  0.874235  1
  V  V16  1  0.337813  0.840665  0.874657  1
  V  V17  1  0.837756  0.659363  0.625088  1
  V  V18  1  0.661959  0.159730  0.375160  1
  V  V19  1  0.162035  0.340228  0.125095  1
  Ge  Ge20  1  0.690314  0.853681  0.250350  1
  Ge  Ge21  1  0.192026  0.645480  0.250615  1
  Ge  Ge22  1  0.308986  0.146446  0.749878  1
  Ge  Ge23  1  0.808949  0.353401  0.749735  1
  Ge  Ge24  1  0.678156  0.954030  0.956738  1
  Ge  Ge25  1  0.178480  0.546175  0.542849  1
  Ge  Ge26  1  0.321430  0.046079  0.457303  1
  Ge  Ge27  1  0.821216  0.453210  0.042613  1
  Ge  Ge28  1  0.322775  0.047041  0.042445  1
  Ge  Ge29  1  0.821529  0.454004  0.457329  1
  Ge  Ge30  1  0.678712  0.953805  0.542912  1
  Ge  Ge31  1  0.178687  0.545777  0.956823  1
  Ge  Ge32  1  0.468009  0.374239  0.250235  1
  Ge  Ge33  1  0.967849  0.126534  0.250336  1
  Ge  Ge34  1  0.531578  0.625839  0.749812  1
  Ge  Ge35  1  0.031886  0.873821  0.749901  1
