# generated using pymatgen
data_Rb6HoLuSb4
_symmetry_space_group_name_H-M   'P 1'
_cell_length_a   10.19853626
_cell_length_b   10.19853602
_cell_length_c   10.19853658
_cell_angle_alpha   128.31804080
_cell_angle_beta   70.05529307
_cell_angle_gamma   136.14429096
_symmetry_Int_Tables_number   1
_chemical_formula_structural   Rb6HoLuSb4
_chemical_formula_sum   'Rb6 Ho1 Lu1 Sb4'
_cell_volume   565.55203629
_cell_formula_units_Z   1
loop_
 _symmetry_equiv_pos_site_id
 _symmetry_equiv_pos_as_xyz
  1  'x, y, z'
loop_
 _atom_site_type_symbol
 _atom_site_label
 _atom_site_symmetry_multiplicity
 _atom_site_fract_x
 _atom_site_fract_y
 _atom_site_fract_z
 _atom_site_occupancy
  Rb  Rb0  1  0.250000  0.250000  0.000000  1
  Rb  Rb1  1  0.750000  0.750000  0.000000  1
  Rb  Rb2  1  0.814434  0.298036  0.113385  1
  Rb  Rb3  1  0.685565  0.798950  0.483601  1
  Rb  Rb4  1  0.315347  0.201964  0.516399  1
  Rb  Rb5  1  0.184652  0.701051  0.886615  1
  Ho  Ho6  1  0.250000  0.750000  0.500000  1
  Lu  Lu7  1  0.750000  0.250000  0.500000  1
  Sb  Sb8  1  0.405736  0.812584  0.210883  1
  Sb  Sb9  1  0.094264  0.305147  0.406847  1
  Sb  Sb10  1  0.898300  0.687416  0.593154  1
  Sb  Sb11  1  0.601700  0.194853  0.789117  1
