# generated using pymatgen
data_Cs6PrDyCl12
_symmetry_space_group_name_H-M   'P 1'
_cell_length_a   9.56451600
_cell_length_b   9.55853736
_cell_length_c   7.94306300
_cell_angle_alpha   90.00000000
_cell_angle_beta   90.00000000
_cell_angle_gamma   89.98418131
_symmetry_Int_Tables_number   1
_chemical_formula_structural   Cs6PrDyCl12
_chemical_formula_sum   'Cs6 Pr1 Dy1 Cl12'
_cell_volume   726.17690176
_cell_formula_units_Z   1
loop_
 _symmetry_equiv_pos_site_id
 _symmetry_equiv_pos_as_xyz
  1  'x, y, z'
loop_
 _atom_site_type_symbol
 _atom_site_label
 _atom_site_symmetry_multiplicity
 _atom_site_fract_x
 _atom_site_fract_y
 _atom_site_fract_z
 _atom_site_occupancy
  Cs  Cs0  1  0.000000  0.000000  0.500000  1
  Cs  Cs1  1  0.000000  0.000000  0.000000  1
  Cs  Cs2  1  0.239090  0.583640  0.500000  1
  Cs  Cs3  1  0.760910  0.416360  0.500000  1
  Cs  Cs4  1  0.417286  0.232217  0.000000  1
  Cs  Cs5  1  0.582714  0.767783  0.000000  1
  Pr  Pr6  1  0.000000  0.500000  0.000000  1
  Dy  Dy7  1  0.500000  0.000000  0.500000  1
  Cl  Cl8  1  0.689392  0.056234  0.736909  1
  Cl  Cl9  1  0.310608  0.943766  0.736909  1
  Cl  Cl10  1  0.941127  0.697425  0.246237  1
  Cl  Cl11  1  0.058873  0.302575  0.246237  1
  Cl  Cl12  1  0.310608  0.943766  0.263091  1
  Cl  Cl13  1  0.689392  0.056234  0.263091  1
  Cl  Cl14  1  0.058873  0.302575  0.753763  1
  Cl  Cl15  1  0.941127  0.697425  0.753763  1
  Cl  Cl16  1  0.569278  0.732348  0.500000  1
  Cl  Cl17  1  0.430722  0.267652  0.500000  1
  Cl  Cl18  1  0.279671  0.570361  0.000000  1
  Cl  Cl19  1  0.720329  0.429639  0.000000  1
