# generated using pymatgen
data_Nb6FeCo14Si7Ir
_symmetry_space_group_name_H-M   'P 1'
_cell_length_a   7.98456239
_cell_length_b   7.97125984
_cell_length_c   7.97125900
_cell_angle_alpha   59.99999933
_cell_angle_beta   60.05509601
_cell_angle_gamma   60.05509872
_symmetry_Int_Tables_number   1
_chemical_formula_structural   Nb6FeCo14Si7Ir
_chemical_formula_sum   'Nb6 Fe1 Co14 Si7 Ir1'
_cell_volume   359.04690085
_cell_formula_units_Z   1
loop_
 _symmetry_equiv_pos_site_id
 _symmetry_equiv_pos_as_xyz
  1  'x, y, z'
loop_
 _atom_site_type_symbol
 _atom_site_label
 _atom_site_symmetry_multiplicity
 _atom_site_fract_x
 _atom_site_fract_y
 _atom_site_fract_z
 _atom_site_occupancy
  Nb  Nb0  1  0.794438  0.200522  0.804518  1
  Nb  Nb1  1  0.794438  0.804518  0.200522  1
  Nb  Nb2  1  0.204845  0.796284  0.202586  1
  Nb  Nb3  1  0.204845  0.202586  0.796284  1
  Nb  Nb4  1  0.204845  0.796284  0.796284  1
  Nb  Nb5  1  0.794438  0.200522  0.200522  1
  Fe  Fe6  1  0.483627  0.172124  0.172124  1
  Co  Co7  1  0.615670  0.620360  0.143610  1
  Co  Co8  1  0.381603  0.380482  0.857433  1
  Co  Co9  1  0.835114  0.499139  0.832873  1
  Co  Co10  1  0.835114  0.832873  0.832873  1
  Co  Co11  1  0.835114  0.832873  0.499139  1
  Co  Co12  1  0.381603  0.380482  0.380482  1
  Co  Co13  1  0.142162  0.619280  0.619280  1
  Co  Co14  1  0.615670  0.620360  0.620360  1
  Co  Co15  1  0.171066  0.163933  0.163933  1
  Co  Co16  1  0.171066  0.501067  0.163933  1
  Co  Co17  1  0.498324  0.833892  0.833892  1
  Co  Co18  1  0.615670  0.143610  0.620360  1
  Co  Co19  1  0.171066  0.163933  0.501067  1
  Co  Co20  1  0.381603  0.857433  0.380482  1
  Si  Si21  1  0.503523  0.997028  0.997028  1
  Si  Si22  1  0.005329  0.500790  0.993091  1
  Si  Si23  1  0.503523  0.502422  0.997028  1
  Si  Si24  1  0.486907  0.504365  0.504365  1
  Si  Si25  1  0.005329  0.500790  0.500790  1
  Si  Si26  1  0.005329  0.993091  0.500790  1
  Si  Si27  1  0.503523  0.997028  0.502422  1
  Ir  Ir28  1  0.854211  0.381929  0.381929  1
