# generated using pymatgen
data_K(TaSe2)2
_symmetry_space_group_name_H-M   'P 1'
_cell_length_a   9.16225440
_cell_length_b   9.16225413
_cell_length_c   9.16225423
_cell_angle_alpha   157.57845133
_cell_angle_beta   141.63353949
_cell_angle_gamma   44.89027458
_symmetry_Int_Tables_number   1
_chemical_formula_structural   K(TaSe2)2
_chemical_formula_sum   'K1 Ta2 Se4'
_cell_volume   181.65497815
_cell_formula_units_Z   1
loop_
 _symmetry_equiv_pos_site_id
 _symmetry_equiv_pos_as_xyz
  1  'x, y, z'
loop_
 _atom_site_type_symbol
 _atom_site_label
 _atom_site_symmetry_multiplicity
 _atom_site_fract_x
 _atom_site_fract_y
 _atom_site_fract_z
 _atom_site_occupancy
  K  K0  1  0.502309  0.500000  0.002309  1
  Ta  Ta1  1  0.747045  0.749924  0.997120  1
  Ta  Ta2  1  0.247196  0.250076  0.997120  1
  Se  Se3  1  0.484091  0.152200  0.331891  1
  Se  Se4  1  0.987950  0.652331  0.335620  1
  Se  Se5  1  0.683289  0.347669  0.335620  1
  Se  Se6  1  0.179691  0.847800  0.331891  1
