# generated using pymatgen
data_Y9Tm(IrPt2)2
_symmetry_space_group_name_H-M   'P 1'
_cell_length_a   11.10265100
_cell_length_b   11.10265100
_cell_length_c   6.33611700
_cell_angle_alpha   90.00000000
_cell_angle_beta   90.00000000
_cell_angle_gamma   90.00000000
_symmetry_Int_Tables_number   1
_chemical_formula_structural   Y9Tm(IrPt2)2
_chemical_formula_sum   'Y18 Tm2 Ir4 Pt8'
_cell_volume   781.04591452
_cell_formula_units_Z   2
loop_
 _symmetry_equiv_pos_site_id
 _symmetry_equiv_pos_as_xyz
  1  'x, y, z'
loop_
 _atom_site_type_symbol
 _atom_site_label
 _atom_site_symmetry_multiplicity
 _atom_site_fract_x
 _atom_site_fract_y
 _atom_site_fract_z
 _atom_site_occupancy
  Y  Y0  1  0.293922  0.087427  0.374552  1
  Y  Y1  1  0.293922  0.912573  0.874552  1
  Y  Y2  1  0.706078  0.087427  0.874552  1
  Y  Y3  1  0.706078  0.912573  0.374552  1
  Y  Y4  1  0.587661  0.794611  0.874118  1
  Y  Y5  1  0.587661  0.205389  0.374118  1
  Y  Y6  1  0.412339  0.794611  0.374118  1
  Y  Y7  1  0.412339  0.205389  0.874118  1
  Y  Y8  1  0.205389  0.412339  0.625882  1
  Y  Y9  1  0.205389  0.587661  0.125882  1
  Y  Y10  1  0.794611  0.412339  0.125882  1
  Y  Y11  1  0.794611  0.587661  0.625882  1
  Y  Y12  1  0.912573  0.706078  0.125448  1
  Y  Y13  1  0.912573  0.293922  0.625448  1
  Y  Y14  1  0.087427  0.706078  0.625448  1
  Y  Y15  1  0.087427  0.293922  0.125448  1
  Y  Y16  1  0.500000  0.500000  0.000000  1
  Y  Y17  1  0.500000  0.500000  0.500000  1
  Tm  Tm18  1  0.000000  0.000000  0.500000  1
  Tm  Tm19  1  0.000000  0.000000  0.000000  1
  Ir  Ir20  1  0.500000  0.000000  0.121946  1
  Ir  Ir21  1  0.500000  0.000000  0.621946  1
  Ir  Ir22  1  0.000000  0.500000  0.878054  1
  Ir  Ir23  1  0.000000  0.500000  0.378054  1
  Pt  Pt24  1  0.848615  0.151385  0.250000  1
  Pt  Pt25  1  0.848615  0.848615  0.750000  1
  Pt  Pt26  1  0.151385  0.151385  0.750000  1
  Pt  Pt27  1  0.151385  0.848615  0.250000  1
  Pt  Pt28  1  0.654002  0.345998  0.750000  1
  Pt  Pt29  1  0.654002  0.654002  0.250000  1
  Pt  Pt30  1  0.345998  0.345998  0.250000  1
  Pt  Pt31  1  0.345998  0.654002  0.750000  1
