# generated using pymatgen
data_Nd16Y3MgIr12
_symmetry_space_group_name_H-M   'P 1'
_cell_length_a   11.21287900
_cell_length_b   11.21287900
_cell_length_c   6.44047600
_cell_angle_alpha   90.00000000
_cell_angle_beta   90.00000000
_cell_angle_gamma   90.00000000
_symmetry_Int_Tables_number   1
_chemical_formula_structural   Nd16Y3MgIr12
_chemical_formula_sum   'Nd16 Y3 Mg1 Ir12'
_cell_volume   809.75238806
_cell_formula_units_Z   1
loop_
 _symmetry_equiv_pos_site_id
 _symmetry_equiv_pos_as_xyz
  1  'x, y, z'
loop_
 _atom_site_type_symbol
 _atom_site_label
 _atom_site_symmetry_multiplicity
 _atom_site_fract_x
 _atom_site_fract_y
 _atom_site_fract_z
 _atom_site_occupancy
  Nd  Nd0  1  0.281774  0.085365  0.383139  1
  Nd  Nd1  1  0.288274  0.912583  0.883312  1
  Nd  Nd2  1  0.711726  0.087417  0.883312  1
  Nd  Nd3  1  0.718226  0.914635  0.383139  1
  Nd  Nd4  1  0.588553  0.789862  0.883474  1
  Nd  Nd5  1  0.587795  0.209663  0.381428  1
  Nd  Nd6  1  0.412205  0.790337  0.381428  1
  Nd  Nd7  1  0.411447  0.210138  0.883474  1
  Nd  Nd8  1  0.209663  0.412205  0.618572  1
  Nd  Nd9  1  0.210138  0.588553  0.116526  1
  Nd  Nd10  1  0.789862  0.411447  0.116526  1
  Nd  Nd11  1  0.790337  0.587795  0.618572  1
  Nd  Nd12  1  0.912583  0.711726  0.116688  1
  Nd  Nd13  1  0.914635  0.281774  0.616861  1
  Nd  Nd14  1  0.085365  0.718226  0.616861  1
  Nd  Nd15  1  0.087417  0.288274  0.116688  1
  Y  Y16  1  0.000000  0.000000  0.000000  1
  Y  Y17  1  0.500000  0.500000  0.000000  1
  Y  Y18  1  0.500000  0.500000  0.500000  1
  Mg  Mg19  1  0.000000  0.000000  0.500000  1
  Ir  Ir20  1  0.849471  0.151179  0.247722  1
  Ir  Ir21  1  0.848821  0.849471  0.752278  1
  Ir  Ir22  1  0.151179  0.150529  0.752278  1
  Ir  Ir23  1  0.150529  0.848821  0.247722  1
  Ir  Ir24  1  0.650927  0.349286  0.748498  1
  Ir  Ir25  1  0.650714  0.650927  0.251502  1
  Ir  Ir26  1  0.349286  0.349073  0.251502  1
  Ir  Ir27  1  0.349073  0.650714  0.748498  1
  Ir  Ir28  1  0.500000  0.000000  0.120311  1
  Ir  Ir29  1  0.500000  0.000000  0.617605  1
  Ir  Ir30  1  0.000000  0.500000  0.879689  1
  Ir  Ir31  1  0.000000  0.500000  0.382395  1
