# generated using pymatgen
data_Pr(CoO2)3
_symmetry_space_group_name_H-M   'P 1'
_cell_length_a   4.95144821
_cell_length_b   5.76682881
_cell_length_c   8.57894900
_cell_angle_alpha   89.99999619
_cell_angle_beta   90.00000212
_cell_angle_gamma   73.30218092
_symmetry_Int_Tables_number   1
_chemical_formula_structural   Pr(CoO2)3
_chemical_formula_sum   'Pr2 Co6 O12'
_cell_volume   234.63531464
_cell_formula_units_Z   2
loop_
 _symmetry_equiv_pos_site_id
 _symmetry_equiv_pos_as_xyz
  1  'x, y, z'
loop_
 _atom_site_type_symbol
 _atom_site_label
 _atom_site_symmetry_multiplicity
 _atom_site_fract_x
 _atom_site_fract_y
 _atom_site_fract_z
 _atom_site_occupancy
  Pr  Pr0  1  0.000001  0.500000  0.166640  1
  Pr  Pr1  1  0.500000  0.500000  0.666640  1
  Co  Co2  1  0.500000  0.000000  0.166669  1
  Co  Co3  1  0.500000  0.000000  0.834659  1
  Co  Co4  1  0.500000  0.000000  0.498679  1
  Co  Co5  1  0.000000  0.000000  0.666670  1
  Co  Co6  1  0.000000  0.000000  0.334656  1
  Co  Co7  1  0.000000  0.000000  0.998682  1
  O  O8  1  0.772454  0.182178  0.166682  1
  O  O9  1  0.272453  0.182179  0.666683  1
  O  O10  1  0.227546  0.817822  0.166683  1
  O  O11  1  0.727547  0.817821  0.666683  1
  O  O12  1  0.271973  0.183302  0.999915  1
  O  O13  1  0.771973  0.183302  0.499917  1
  O  O14  1  0.271945  0.183341  0.333411  1
  O  O15  1  0.771943  0.183342  0.833410  1
  O  O16  1  0.728055  0.816659  0.333411  1
  O  O17  1  0.228057  0.816658  0.833410  1
  O  O18  1  0.728026  0.816699  0.999916  1
  O  O19  1  0.228027  0.816698  0.499917  1
