# generated using pymatgen
data_Gd6Zn22CuP
_symmetry_space_group_name_H-M   'P 1'
_cell_length_a   9.01979388
_cell_length_b   9.01947154
_cell_length_c   9.01880100
_cell_angle_alpha   59.99991764
_cell_angle_beta   59.99961080
_cell_angle_gamma   60.00008421
_symmetry_Int_Tables_number   1
_chemical_formula_structural   Gd6Zn22CuP
_chemical_formula_sum   'Gd6 Zn22 Cu1 P1'
_cell_volume   518.81227261
_cell_formula_units_Z   1
loop_
 _symmetry_equiv_pos_site_id
 _symmetry_equiv_pos_as_xyz
  1  'x, y, z'
loop_
 _atom_site_type_symbol
 _atom_site_label
 _atom_site_symmetry_multiplicity
 _atom_site_fract_x
 _atom_site_fract_y
 _atom_site_fract_z
 _atom_site_occupancy
  Gd  Gd0  1  0.713375  0.286751  0.286676  1
  Gd  Gd1  1  0.712616  0.287404  0.712584  1
  Gd  Gd2  1  0.713445  0.713658  0.286395  1
  Gd  Gd3  1  0.286625  0.713249  0.713324  1
  Gd  Gd4  1  0.287384  0.712596  0.287416  1
  Gd  Gd5  1  0.286555  0.286342  0.713605  1
  Zn  Zn6  1  0.635208  0.121873  0.121543  1
  Zn  Zn7  1  0.121759  0.635357  0.121268  1
  Zn  Zn8  1  0.121621  0.121342  0.635272  1
  Zn  Zn9  1  0.121491  0.121424  0.121795  1
  Zn  Zn10  1  0.364792  0.878127  0.878457  1
  Zn  Zn11  1  0.878241  0.364643  0.878732  1
  Zn  Zn12  1  0.878379  0.878658  0.364728  1
  Zn  Zn13  1  0.878509  0.878576  0.878205  1
  Zn  Zn14  1  0.500000  0.000000  0.000000  1
  Zn  Zn15  1  0.500000  0.000000  0.500000  1
  Zn  Zn16  1  0.500000  0.500000  0.000000  1
  Zn  Zn17  1  0.000000  0.500000  0.500000  1
  Zn  Zn18  1  0.000000  0.500000  0.000000  1
  Zn  Zn19  1  0.000000  0.000000  0.500000  1
  Zn  Zn20  1  0.016953  0.327723  0.327684  1
  Zn  Zn21  1  0.327814  0.016662  0.327732  1
  Zn  Zn22  1  0.327817  0.327682  0.016735  1
  Zn  Zn23  1  0.327768  0.327702  0.327791  1
  Zn  Zn24  1  0.983047  0.672277  0.672316  1
  Zn  Zn25  1  0.672186  0.983338  0.672268  1
  Zn  Zn26  1  0.672183  0.672318  0.983265  1
  Zn  Zn27  1  0.672232  0.672298  0.672209  1
  Cu  Cu28  1  0.000000  0.000000  0.000000  1
  P  P29  1  0.500000  0.500000  0.500000  1
