# generated using pymatgen
data_Hf18V2FeRe6Se
_symmetry_space_group_name_H-M   'P 1'
_cell_length_a   8.59354800
_cell_length_b   8.59354811
_cell_length_c   8.49764400
_cell_angle_alpha   90.00000000
_cell_angle_beta   90.00000000
_cell_angle_gamma   119.99999959
_symmetry_Int_Tables_number   1
_chemical_formula_structural   Hf18V2FeRe6Se
_chemical_formula_sum   'Hf18 V2 Fe1 Re6 Se1'
_cell_volume   543.46826089
_cell_formula_units_Z   1
loop_
 _symmetry_equiv_pos_site_id
 _symmetry_equiv_pos_as_xyz
  1  'x, y, z'
loop_
 _atom_site_type_symbol
 _atom_site_label
 _atom_site_symmetry_multiplicity
 _atom_site_fract_x
 _atom_site_fract_y
 _atom_site_fract_z
 _atom_site_occupancy
  Hf  Hf0  1  0.200348  0.799652  0.441408  1
  Hf  Hf1  1  0.200348  0.400697  0.441408  1
  Hf  Hf2  1  0.599303  0.799652  0.441408  1
  Hf  Hf3  1  0.808839  0.191161  0.547293  1
  Hf  Hf4  1  0.808839  0.617678  0.547293  1
  Hf  Hf5  1  0.382322  0.191161  0.547293  1
  Hf  Hf6  1  0.808839  0.191161  0.952707  1
  Hf  Hf7  1  0.808839  0.617678  0.952707  1
  Hf  Hf8  1  0.382322  0.191161  0.952707  1
  Hf  Hf9  1  0.200348  0.799652  0.058592  1
  Hf  Hf10  1  0.200348  0.400697  0.058592  1
  Hf  Hf11  1  0.599303  0.799652  0.058592  1
  Hf  Hf12  1  0.540958  0.459042  0.250000  1
  Hf  Hf13  1  0.540958  0.081917  0.250000  1
  Hf  Hf14  1  0.918083  0.459042  0.250000  1
  Hf  Hf15  1  0.454532  0.545468  0.750000  1
  Hf  Hf16  1  0.454532  0.909062  0.750000  1
  Hf  Hf17  1  0.090938  0.545468  0.750000  1
  V  V18  1  0.000000  0.000000  0.499255  1
  V  V19  1  0.000000  0.000000  0.000745  1
  Fe  Fe20  1  0.333333  0.666667  0.250000  1
  Re  Re21  1  0.890880  0.109120  0.250000  1
  Re  Re22  1  0.890880  0.781760  0.250000  1
  Re  Re23  1  0.218240  0.109120  0.250000  1
  Re  Re24  1  0.109212  0.890788  0.750000  1
  Re  Re25  1  0.109212  0.218424  0.750000  1
  Re  Re26  1  0.781576  0.890788  0.750000  1
  Se  Se27  1  0.666667  0.333333  0.750000  1
