# generated using pymatgen
data_Nd7Dy(GaI6)2
_symmetry_space_group_name_H-M   'P 1'
_cell_length_a   4.32948300
_cell_length_b   14.45647454
_cell_length_c   15.21599400
_cell_angle_alpha   90.35310720
_cell_angle_beta   90.00000000
_cell_angle_gamma   90.00000000
_symmetry_Int_Tables_number   1
_chemical_formula_structural   Nd7Dy(GaI6)2
_chemical_formula_sum   'Nd7 Dy1 Ga2 I12'
_cell_volume   952.33668703
_cell_formula_units_Z   1
loop_
 _symmetry_equiv_pos_site_id
 _symmetry_equiv_pos_as_xyz
  1  'x, y, z'
loop_
 _atom_site_type_symbol
 _atom_site_label
 _atom_site_symmetry_multiplicity
 _atom_site_fract_x
 _atom_site_fract_y
 _atom_site_fract_z
 _atom_site_occupancy
  Nd  Nd0  1  0.500000  0.117009  0.343461  1
  Nd  Nd1  1  0.500000  0.884062  0.657289  1
  Nd  Nd2  1  0.500000  0.615773  0.155970  1
  Nd  Nd3  1  0.000000  0.118357  0.579982  1
  Nd  Nd4  1  0.000000  0.883614  0.421888  1
  Nd  Nd5  1  0.000000  0.615823  0.921275  1
  Nd  Nd6  1  0.000000  0.383026  0.077101  1
  Dy  Dy7  1  0.500000  0.384863  0.844490  1
  Ga  Ga8  1  0.500000  0.001089  0.500743  1
  Ga  Ga9  1  0.500000  0.498644  0.998044  1
  I  I10  1  0.500000  0.242806  0.162215  1
  I  I11  1  0.500000  0.755283  0.835527  1
  I  I12  1  0.500000  0.743231  0.336146  1
  I  I13  1  0.500000  0.258534  0.668895  1
  I  I14  1  0.000000  0.261348  0.415922  1
  I  I15  1  0.000000  0.739456  0.585040  1
  I  I16  1  0.000000  0.759772  0.085069  1
  I  I17  1  0.000000  0.245648  0.907844  1
  I  I18  1  0.000000  0.996967  0.238700  1
  I  I19  1  0.000000  0.003414  0.762600  1
  I  I20  1  0.000000  0.497055  0.260586  1
  I  I21  1  0.000000  0.494227  0.741215  1
