# generated using pymatgen
data_Pr6NdHo9(CdIr)4
_symmetry_space_group_name_H-M   'P 1'
_cell_length_a   9.76106554
_cell_length_b   9.76106568
_cell_length_c   9.76106514
_cell_angle_alpha   60.16475641
_cell_angle_beta   60.16475404
_cell_angle_gamma   60.16475686
_symmetry_Int_Tables_number   1
_chemical_formula_structural   Pr6NdHo9(CdIr)4
_chemical_formula_sum   'Pr6 Nd1 Ho9 Cd4 Ir4'
_cell_volume   660.07645589
_cell_formula_units_Z   1
loop_
 _symmetry_equiv_pos_site_id
 _symmetry_equiv_pos_as_xyz
  1  'x, y, z'
loop_
 _atom_site_type_symbol
 _atom_site_label
 _atom_site_symmetry_multiplicity
 _atom_site_fract_x
 _atom_site_fract_y
 _atom_site_fract_z
 _atom_site_occupancy
  Pr  Pr0  1  0.940116  0.559459  0.559459  1
  Pr  Pr1  1  0.557115  0.942666  0.942666  1
  Pr  Pr2  1  0.559459  0.940116  0.559459  1
  Pr  Pr3  1  0.942666  0.557115  0.942666  1
  Pr  Pr4  1  0.559459  0.559459  0.940116  1
  Pr  Pr5  1  0.942666  0.942666  0.557115  1
  Nd  Nd6  1  0.348858  0.348858  0.348858  1
  Ho  Ho7  1  0.347585  0.347585  0.957574  1
  Ho  Ho8  1  0.347585  0.957574  0.347585  1
  Ho  Ho9  1  0.957574  0.347585  0.347585  1
  Ho  Ho10  1  0.813523  0.186428  0.186428  1
  Ho  Ho11  1  0.186243  0.812470  0.812470  1
  Ho  Ho12  1  0.186428  0.813523  0.186428  1
  Ho  Ho13  1  0.812470  0.186243  0.812470  1
  Ho  Ho14  1  0.186428  0.186428  0.813523  1
  Ho  Ho15  1  0.812470  0.812470  0.186243  1
  Cd  Cd16  1  0.578821  0.578821  0.578821  1
  Cd  Cd17  1  0.580393  0.580393  0.261815  1
  Cd  Cd18  1  0.580393  0.261815  0.580393  1
  Cd  Cd19  1  0.261815  0.580393  0.580393  1
  Ir  Ir20  1  0.141368  0.141368  0.141368  1
  Ir  Ir21  1  0.139133  0.139133  0.578297  1
  Ir  Ir22  1  0.139133  0.578297  0.139133  1
  Ir  Ir23  1  0.578297  0.139133  0.139133  1
