# generated using pymatgen
data_Gd5Lu5Pb8
_symmetry_space_group_name_H-M   'P 1'
_cell_length_a   8.31755400
_cell_length_b   8.36226505
_cell_length_c   15.78868200
_cell_angle_alpha   90.00601580
_cell_angle_beta   90.00000000
_cell_angle_gamma   90.00000000
_symmetry_Int_Tables_number   1
_chemical_formula_structural   Gd5Lu5Pb8
_chemical_formula_sum   'Gd10 Lu10 Pb16'
_cell_volume   1098.15952552
_cell_formula_units_Z   2
loop_
 _symmetry_equiv_pos_site_id
 _symmetry_equiv_pos_as_xyz
  1  'x, y, z'
loop_
 _atom_site_type_symbol
 _atom_site_label
 _atom_site_symmetry_multiplicity
 _atom_site_fract_x
 _atom_site_fract_y
 _atom_site_fract_z
 _atom_site_occupancy
  Gd  Gd0  1  0.374145  0.843345  0.619111  1
  Gd  Gd1  1  0.874145  0.656655  0.880889  1
  Gd  Gd2  1  0.534709  0.320173  0.903592  1
  Gd  Gd3  1  0.034709  0.179827  0.596408  1
  Gd  Gd4  1  0.463369  0.675327  0.399574  1
  Gd  Gd5  1  0.963369  0.824673  0.100426  1
  Gd  Gd6  1  0.465523  0.677089  0.098810  1
  Gd  Gd7  1  0.965523  0.822911  0.401190  1
  Gd  Gd8  1  0.534839  0.323003  0.598130  1
  Gd  Gd9  1  0.034839  0.176997  0.901870  1
  Lu  Lu10  1  0.371346  0.844409  0.877653  1
  Lu  Lu11  1  0.871346  0.655591  0.622347  1
  Lu  Lu12  1  0.628447  0.153501  0.377879  1
  Lu  Lu13  1  0.128447  0.346499  0.122121  1
  Lu  Lu14  1  0.626392  0.155102  0.124124  1
  Lu  Lu15  1  0.126392  0.344898  0.375876  1
  Lu  Lu16  1  0.206781  0.504948  0.749860  1
  Lu  Lu17  1  0.706781  0.995052  0.750140  1
  Lu  Lu18  1  0.793352  0.493736  0.250969  1
  Lu  Lu19  1  0.293352  0.006264  0.249031  1
  Pb  Pb20  1  0.285745  0.037775  0.044125  1
  Pb  Pb21  1  0.785745  0.462225  0.455875  1
  Pb  Pb22  1  0.719728  0.964150  0.543706  1
  Pb  Pb23  1  0.219728  0.535850  0.956294  1
  Pb  Pb24  1  0.709638  0.966832  0.957027  1
  Pb  Pb25  1  0.209638  0.533168  0.542973  1
  Pb  Pb26  1  0.286176  0.040348  0.452576  1
  Pb  Pb27  1  0.786176  0.459652  0.047424  1
  Pb  Pb28  1  0.565969  0.627477  0.750051  1
  Pb  Pb29  1  0.065969  0.872523  0.749949  1
  Pb  Pb30  1  0.434365  0.369584  0.250532  1
  Pb  Pb31  1  0.934365  0.130416  0.249468  1
  Pb  Pb32  1  0.346669  0.154772  0.750368  1
  Pb  Pb33  1  0.846669  0.345228  0.749632  1
  Pb  Pb34  1  0.652805  0.845690  0.250047  1
  Pb  Pb35  1  0.152805  0.654310  0.249953  1
