# generated using pymatgen
data_Sr(AcGa6)2
_symmetry_space_group_name_H-M   'P 1'
_cell_length_a   8.91775107
_cell_length_b   8.91775144
_cell_length_c   8.91775063
_cell_angle_alpha   149.59940297
_cell_angle_beta   109.52950170
_cell_angle_gamma   78.65007253
_symmetry_Int_Tables_number   1
_chemical_formula_structural   Sr(AcGa6)2
_chemical_formula_sum   'Sr1 Ac2 Ga12'
_cell_volume   331.94936542
_cell_formula_units_Z   1
loop_
 _symmetry_equiv_pos_site_id
 _symmetry_equiv_pos_as_xyz
  1  'x, y, z'
loop_
 _atom_site_type_symbol
 _atom_site_label
 _atom_site_symmetry_multiplicity
 _atom_site_fract_x
 _atom_site_fract_y
 _atom_site_fract_z
 _atom_site_occupancy
  Sr  Sr0  1  0.000425  0.000000  0.000425  1
  Ac  Ac1  1  0.334381  0.333474  0.000907  1
  Ac  Ac2  1  0.667433  0.666526  0.000907  1
  Ga  Ga3  1  0.624648  0.000000  0.624648  1
  Ga  Ga4  1  0.377453  0.000000  0.377453  1
  Ga  Ga5  1  0.250879  0.500000  0.750879  1
  Ga  Ga6  1  0.750892  0.500000  0.250892  1
  Ga  Ga7  1  0.584019  0.832933  0.751086  1
  Ga  Ga8  1  0.918154  0.167067  0.751086  1
  Ga  Ga9  1  0.289768  0.665314  0.624455  1
  Ga  Ga10  1  0.959141  0.334686  0.624455  1
  Ga  Ga11  1  0.042325  0.665648  0.376677  1
  Ga  Ga12  1  0.711027  0.334352  0.376677  1
  Ga  Ga13  1  0.083646  0.833418  0.250228  1
  Ga  Ga14  1  0.416809  0.166582  0.250228  1
