# generated using pymatgen
data_Nb12Ga9Fe(CoN2)2
_symmetry_space_group_name_H-M   'P 1'
_cell_length_a   8.22665609
_cell_length_b   8.24607952
_cell_length_c   8.24290572
_cell_angle_alpha   59.98726250
_cell_angle_beta   59.88821258
_cell_angle_gamma   59.92186719
_symmetry_Int_Tables_number   1
_chemical_formula_structural   Nb12Ga9Fe(CoN2)2
_chemical_formula_sum   'Nb12 Ga9 Fe1 Co2 N4'
_cell_volume   394.79311572
_cell_formula_units_Z   1
loop_
 _symmetry_equiv_pos_site_id
 _symmetry_equiv_pos_as_xyz
  1  'x, y, z'
loop_
 _atom_site_type_symbol
 _atom_site_label
 _atom_site_symmetry_multiplicity
 _atom_site_fract_x
 _atom_site_fract_y
 _atom_site_fract_z
 _atom_site_occupancy
  Nb  Nb0  1  0.813037  0.808346  0.185916  1
  Nb  Nb1  1  0.187932  0.197080  0.808321  1
  Nb  Nb2  1  0.815599  0.186085  0.812232  1
  Nb  Nb3  1  0.195026  0.803901  0.197171  1
  Nb  Nb4  1  0.187932  0.806667  0.808321  1
  Nb  Nb5  1  0.813037  0.192701  0.185916  1
  Nb  Nb6  1  0.436963  0.441654  0.064084  1
  Nb  Nb7  1  0.062068  0.052920  0.441679  1
  Nb  Nb8  1  0.434401  0.063915  0.437768  1
  Nb  Nb9  1  0.054974  0.446099  0.052829  1
  Nb  Nb10  1  0.062068  0.443333  0.441679  1
  Nb  Nb11  1  0.436963  0.057299  0.064084  1
  Ga  Ga12  1  0.125000  0.625000  0.625000  1
  Ga  Ga13  1  0.757951  0.412169  0.417712  1
  Ga  Ga14  1  0.431374  0.752692  0.410877  1
  Ga  Ga15  1  0.431881  0.405411  0.757298  1
  Ga  Ga16  1  0.431374  0.405058  0.410877  1
  Ga  Ga17  1  0.492049  0.837831  0.832288  1
  Ga  Ga18  1  0.818626  0.497308  0.839123  1
  Ga  Ga19  1  0.818119  0.844589  0.492702  1
  Ga  Ga20  1  0.818626  0.844942  0.839123  1
  Fe  Fe21  1  0.625000  0.625000  0.125000  1
  Co  Co22  1  0.625000  0.125000  0.625000  1
  Co  Co23  1  0.625000  0.625000  0.625000  1
  N  N24  1  0.625000  0.125000  0.125000  1
  N  N25  1  0.125000  0.625000  0.125000  1
  N  N26  1  0.125000  0.125000  0.625000  1
  N  N27  1  0.125000  0.125000  0.125000  1
