# generated using pymatgen
data_PrY7Al8
_symmetry_space_group_name_H-M   'P 1'
_cell_length_a   5.88477805
_cell_length_b   11.50583330
_cell_length_c   5.65136900
_cell_angle_alpha   90.00000000
_cell_angle_beta   90.00000000
_cell_angle_gamma   90.26957774
_symmetry_Int_Tables_number   1
_chemical_formula_structural   PrY7Al8
_chemical_formula_sum   'Pr1 Y7 Al8'
_cell_volume   382.64586375
_cell_formula_units_Z   1
loop_
 _symmetry_equiv_pos_site_id
 _symmetry_equiv_pos_as_xyz
  1  'x, y, z'
loop_
 _atom_site_type_symbol
 _atom_site_label
 _atom_site_symmetry_multiplicity
 _atom_site_fract_x
 _atom_site_fract_y
 _atom_site_fract_z
 _atom_site_occupancy
  Pr  Pr0  1  0.591893  0.665691  0.750000  1
  Y  Y1  1  0.161547  0.482351  0.750000  1
  Y  Y2  1  0.842400  0.513736  0.250000  1
  Y  Y3  1  0.161477  0.015891  0.250000  1
  Y  Y4  1  0.838086  0.985865  0.750000  1
  Y  Y5  1  0.397059  0.167255  0.750000  1
  Y  Y6  1  0.603805  0.833286  0.250000  1
  Y  Y7  1  0.398294  0.333765  0.250000  1
  Al  Al8  1  0.933795  0.249361  0.499430  1
  Al  Al9  1  0.070188  0.751884  0.000489  1
  Al  Al10  1  0.070188  0.751884  0.499511  1
  Al  Al11  1  0.933795  0.249361  0.000570  1
  Al  Al12  1  0.663724  0.397277  0.750000  1
  Al  Al13  1  0.336270  0.597949  0.250000  1
  Al  Al14  1  0.661553  0.099870  0.250000  1
  Al  Al15  1  0.335926  0.904573  0.750000  1
