# generated using pymatgen
data_Th3Be3P3Pd20
_symmetry_space_group_name_H-M   'P 1'
_cell_length_a   8.71959338
_cell_length_b   8.67339239
_cell_length_c   8.63613755
_cell_angle_alpha   60.49574510
_cell_angle_beta   59.96360907
_cell_angle_gamma   59.54065127
_symmetry_Int_Tables_number   1
_chemical_formula_structural   Th3Be3P3Pd20
_chemical_formula_sum   'Th3 Be3 P3 Pd20'
_cell_volume   461.77362365
_cell_formula_units_Z   1
loop_
 _symmetry_equiv_pos_site_id
 _symmetry_equiv_pos_as_xyz
  1  'x, y, z'
loop_
 _atom_site_type_symbol
 _atom_site_label
 _atom_site_symmetry_multiplicity
 _atom_site_fract_x
 _atom_site_fract_y
 _atom_site_fract_z
 _atom_site_occupancy
  Th  Th0  1  0.250830  0.249170  0.250830  1
  Th  Th1  1  0.750830  0.749170  0.750830  1
  Th  Th2  1  0.004992  0.995008  0.004992  1
  Be  Be3  1  0.729803  0.270197  0.269157  1
  Be  Be4  1  0.269157  0.730843  0.729803  1
  Be  Be5  1  0.271270  0.728730  0.271270  1
  P  P6  1  0.733257  0.266743  0.733257  1
  P  P7  1  0.267975  0.271453  0.728547  1
  P  P8  1  0.728547  0.732025  0.267975  1
  Pd  Pd9  1  0.385483  0.386169  0.380498  1
  Pd  Pd10  1  0.611560  0.617930  0.616805  1
  Pd  Pd11  1  0.382070  0.388440  0.846295  1
  Pd  Pd12  1  0.380498  0.847850  0.385483  1
  Pd  Pd13  1  0.613831  0.614517  0.152150  1
  Pd  Pd14  1  0.616805  0.153705  0.611560  1
  Pd  Pd15  1  0.846295  0.383195  0.382070  1
  Pd  Pd16  1  0.152150  0.619502  0.613831  1
  Pd  Pd17  1  0.343939  0.996566  0.003434  1
  Pd  Pd18  1  0.653691  0.000119  0.999881  1
  Pd  Pd19  1  0.999881  0.346309  0.653691  1
  Pd  Pd20  1  0.003434  0.656061  0.343939  1
  Pd  Pd21  1  0.997129  0.343427  0.004458  1
  Pd  Pd22  1  0.656573  0.002871  0.345014  1
  Pd  Pd23  1  0.004458  0.654986  0.997129  1
  Pd  Pd24  1  0.345014  0.995542  0.656573  1
  Pd  Pd25  1  0.999924  0.000076  0.342017  1
  Pd  Pd26  1  0.004043  0.995957  0.654542  1
  Pd  Pd27  1  0.654542  0.345458  0.004043  1
  Pd  Pd28  1  0.342017  0.657983  0.999924  1
