# generated using pymatgen
data_Nd4Ho12Cd4RuPt3
_symmetry_space_group_name_H-M   'P 1'
_cell_length_a   9.73697930
_cell_length_b   9.72414846
_cell_length_c   9.72414893
_cell_angle_alpha   59.84879207
_cell_angle_beta   59.80321675
_cell_angle_gamma   59.80322140
_symmetry_Int_Tables_number   1
_chemical_formula_structural   Nd4Ho12Cd4RuPt3
_chemical_formula_sum   'Nd4 Ho12 Cd4 Ru1 Pt3'
_cell_volume   648.36338851
_cell_formula_units_Z   1
loop_
 _symmetry_equiv_pos_site_id
 _symmetry_equiv_pos_as_xyz
  1  'x, y, z'
loop_
 _atom_site_type_symbol
 _atom_site_label
 _atom_site_symmetry_multiplicity
 _atom_site_fract_x
 _atom_site_fract_y
 _atom_site_fract_z
 _atom_site_occupancy
  Nd  Nd0  1  0.565484  0.935526  0.566128  1
  Nd  Nd1  1  0.937400  0.560641  0.935299  1
  Nd  Nd2  1  0.565484  0.566128  0.935526  1
  Nd  Nd3  1  0.937400  0.935299  0.560641  1
  Ho  Ho4  1  0.352158  0.351259  0.351259  1
  Ho  Ho5  1  0.347887  0.349325  0.952180  1
  Ho  Ho6  1  0.347887  0.952180  0.349325  1
  Ho  Ho7  1  0.950127  0.348689  0.348689  1
  Ho  Ho8  1  0.817512  0.186327  0.186327  1
  Ho  Ho9  1  0.188031  0.811116  0.811116  1
  Ho  Ho10  1  0.187939  0.816766  0.187820  1
  Ho  Ho11  1  0.810522  0.185722  0.810830  1
  Ho  Ho12  1  0.187939  0.187820  0.816766  1
  Ho  Ho13  1  0.810522  0.810830  0.185722  1
  Ho  Ho14  1  0.941082  0.558268  0.558268  1
  Ho  Ho15  1  0.554107  0.942883  0.942883  1
  Cd  Cd16  1  0.582107  0.578483  0.578483  1
  Cd  Cd17  1  0.578242  0.582671  0.258714  1
  Cd  Cd18  1  0.578242  0.258714  0.582671  1
  Cd  Cd19  1  0.258585  0.578902  0.578902  1
  Ru  Ru20  1  0.144692  0.141297  0.141297  1
  Pt  Pt21  1  0.142206  0.146423  0.572536  1
  Pt  Pt22  1  0.142206  0.572536  0.146423  1
  Pt  Pt23  1  0.572235  0.142194  0.142194  1
