# generated using pymatgen
data_NaNd(AlSe2)4
_symmetry_space_group_name_H-M   'P 1'
_cell_length_a   12.43692458
_cell_length_b   12.43692432
_cell_length_c   12.43364800
_cell_angle_alpha   105.44105914
_cell_angle_beta   105.44105880
_cell_angle_gamma   117.88162729
_symmetry_Int_Tables_number   1
_chemical_formula_structural   NaNd(AlSe2)4
_chemical_formula_sum   'Na4 Nd4 Al16 Se32'
_cell_volume   1456.09455691
_cell_formula_units_Z   4
loop_
 _symmetry_equiv_pos_site_id
 _symmetry_equiv_pos_as_xyz
  1  'x, y, z'
loop_
 _atom_site_type_symbol
 _atom_site_label
 _atom_site_symmetry_multiplicity
 _atom_site_fract_x
 _atom_site_fract_y
 _atom_site_fract_z
 _atom_site_occupancy
  Na  Na0  1  0.621478  0.378521  0.250000  1
  Na  Na1  1  0.128521  0.871478  0.250000  1
  Na  Na2  1  0.871479  0.128522  0.750000  1
  Na  Na3  1  0.378522  0.621479  0.750000  1
  Nd  Nd4  1  0.875000  0.125000  0.250000  1
  Nd  Nd5  1  0.375000  0.624999  0.250000  1
  Nd  Nd6  1  0.625000  0.375000  0.750000  1
  Nd  Nd7  1  0.125000  0.875000  0.750000  1
  Al  Al8  1  0.130082  0.135243  0.020837  1
  Al  Al9  1  0.390756  0.885595  0.020837  1
  Al  Al10  1  0.971496  0.469837  0.107879  1
  Al  Al11  1  0.636384  0.638042  0.107879  1
  Al  Al12  1  0.530163  0.028504  0.392121  1
  Al  Al13  1  0.361958  0.363616  0.392121  1
  Al  Al14  1  0.114405  0.609244  0.479162  1
  Al  Al15  1  0.864757  0.869918  0.479162  1
  Al  Al16  1  0.135243  0.130082  0.520838  1
  Al  Al17  1  0.885595  0.390755  0.520838  1
  Al  Al18  1  0.638042  0.636385  0.607879  1
  Al  Al19  1  0.469837  0.971496  0.607879  1
  Al  Al20  1  0.363616  0.361958  0.892121  1
  Al  Al21  1  0.028504  0.530163  0.892121  1
  Al  Al22  1  0.609244  0.114405  0.979163  1
  Al  Al23  1  0.869918  0.864757  0.979163  1
  Se  Se24  1  0.093226  0.419892  0.004473  1
  Se  Se25  1  0.411248  0.584582  0.004473  1
  Se  Se26  1  0.910879  0.083244  0.005425  1
  Se  Se27  1  0.594547  0.922182  0.005425  1
  Se  Se28  1  0.816296  0.316734  0.163319  1
  Se  Se29  1  0.847023  0.846585  0.163319  1
  Se  Se30  1  0.338305  0.345893  0.187006  1
  Se  Se31  1  0.348699  0.841111  0.187006  1
  Se  Se32  1  0.158888  0.651300  0.312994  1
  Se  Se33  1  0.654106  0.661694  0.312994  1
  Se  Se34  1  0.153415  0.152977  0.336682  1
  Se  Se35  1  0.683266  0.183704  0.336682  1
  Se  Se36  1  0.916756  0.089122  0.494575  1
  Se  Se37  1  0.077818  0.405453  0.494575  1
  Se  Se38  1  0.415419  0.588753  0.495527  1
  Se  Se39  1  0.580109  0.906774  0.495527  1
  Se  Se40  1  0.419891  0.093226  0.504473  1
  Se  Se41  1  0.584581  0.411247  0.504473  1
  Se  Se42  1  0.922182  0.594547  0.505425  1
  Se  Se43  1  0.083243  0.910878  0.505425  1
  Se  Se44  1  0.316733  0.816296  0.663318  1
  Se  Se45  1  0.846585  0.847023  0.663318  1
  Se  Se46  1  0.345894  0.338306  0.687006  1
  Se  Se47  1  0.841112  0.348700  0.687006  1
  Se  Se48  1  0.651301  0.158889  0.812994  1
  Se  Se49  1  0.661695  0.654107  0.812994  1
  Se  Se50  1  0.152977  0.153415  0.836681  1
  Se  Se51  1  0.183704  0.683267  0.836681  1
  Se  Se52  1  0.405453  0.077818  0.994574  1
  Se  Se53  1  0.089122  0.916757  0.994574  1
  Se  Se54  1  0.588752  0.415418  0.995526  1
  Se  Se55  1  0.906773  0.580108  0.995526  1
