# generated using pymatgen
data_Ho3Co2Ni(PRu)6
_symmetry_space_group_name_H-M   'P 1'
_cell_length_a   3.89320200
_cell_length_b   10.75276500
_cell_length_c   12.61331200
_cell_angle_alpha   90.00000000
_cell_angle_beta   90.00000000
_cell_angle_gamma   90.00000000
_symmetry_Int_Tables_number   1
_chemical_formula_structural   Ho3Co2Ni(PRu)6
_chemical_formula_sum   'Ho6 Co4 Ni2 P12 Ru12'
_cell_volume   528.02712224
_cell_formula_units_Z   2
loop_
 _symmetry_equiv_pos_site_id
 _symmetry_equiv_pos_as_xyz
  1  'x, y, z'
loop_
 _atom_site_type_symbol
 _atom_site_label
 _atom_site_symmetry_multiplicity
 _atom_site_fract_x
 _atom_site_fract_y
 _atom_site_fract_z
 _atom_site_occupancy
  Ho  Ho0  1  0.000000  0.500000  0.523989  1
  Ho  Ho1  1  0.500000  0.000000  0.473687  1
  Ho  Ho2  1  0.500000  0.820316  0.202038  1
  Ho  Ho3  1  0.500000  0.179684  0.202038  1
  Ho  Ho4  1  0.000000  0.683275  0.799134  1
  Ho  Ho5  1  0.000000  0.316725  0.799134  1
  Co  Co6  1  0.000000  0.500000  0.986313  1
  Co  Co7  1  0.500000  0.000000  0.014762  1
  Co  Co8  1  0.000000  0.160402  0.012783  1
  Co  Co9  1  0.000000  0.839598  0.012783  1
  Ni  Ni10  1  0.500000  0.500000  0.700857  1
  Ni  Ni11  1  0.000000  0.000000  0.300430  1
  P  P12  1  0.500000  0.312506  0.617242  1
  P  P13  1  0.500000  0.687494  0.617242  1
  P  P14  1  0.000000  0.188263  0.383004  1
  P  P15  1  0.000000  0.811737  0.383004  1
  P  P16  1  0.500000  0.500000  0.879746  1
  P  P17  1  0.000000  0.000000  0.120574  1
  P  P18  1  0.500000  0.852020  0.896218  1
  P  P19  1  0.500000  0.147980  0.896218  1
  P  P20  1  0.000000  0.656643  0.100556  1
  P  P21  1  0.000000  0.343357  0.100556  1
  P  P22  1  0.500000  0.500000  0.339260  1
  P  P23  1  0.000000  0.000000  0.659892  1
  Ru  Ru24  1  0.500000  0.299661  0.428734  1
  Ru  Ru25  1  0.500000  0.700339  0.428734  1
  Ru  Ru26  1  0.000000  0.201193  0.571103  1
  Ru  Ru27  1  0.000000  0.798807  0.571103  1
  Ru  Ru28  1  0.500000  0.876091  0.715233  1
  Ru  Ru29  1  0.500000  0.123909  0.715233  1
  Ru  Ru30  1  0.000000  0.625783  0.282057  1
  Ru  Ru31  1  0.000000  0.374217  0.282057  1
  Ru  Ru32  1  0.500000  0.328327  0.990245  1
  Ru  Ru33  1  0.500000  0.671673  0.990245  1
  Ru  Ru34  1  0.500000  0.500000  0.153022  1
  Ru  Ru35  1  0.000000  0.000000  0.850774  1
