# generated using pymatgen
data_YHo3(Os3W)2
_symmetry_space_group_name_H-M   'P 1'
_cell_length_a   5.51809600
_cell_length_b   5.51809623
_cell_length_c   8.43143400
_cell_angle_alpha   90.00000000
_cell_angle_beta   90.00000000
_cell_angle_gamma   120.00001064
_symmetry_Int_Tables_number   1
_chemical_formula_structural   YHo3(Os3W)2
_chemical_formula_sum   'Y1 Ho3 Os6 W2'
_cell_volume   222.33639068
_cell_formula_units_Z   1
loop_
 _symmetry_equiv_pos_site_id
 _symmetry_equiv_pos_as_xyz
  1  'x, y, z'
loop_
 _atom_site_type_symbol
 _atom_site_label
 _atom_site_symmetry_multiplicity
 _atom_site_fract_x
 _atom_site_fract_y
 _atom_site_fract_z
 _atom_site_occupancy
  Y  Y0  1  0.333333  0.666667  0.435284  1
  Ho  Ho1  1  0.666667  0.333333  0.564362  1
  Ho  Ho2  1  0.666667  0.333333  0.935833  1
  Ho  Ho3  1  0.333333  0.666667  0.063704  1
  Os  Os4  1  0.827225  0.172775  0.249686  1
  Os  Os5  1  0.827225  0.654449  0.249686  1
  Os  Os6  1  0.345551  0.172775  0.249686  1
  Os  Os7  1  0.172669  0.827331  0.750474  1
  Os  Os8  1  0.172669  0.345338  0.750474  1
  Os  Os9  1  0.654662  0.827331  0.750474  1
  W  W10  1  0.000000  0.000000  0.500145  1
  W  W11  1  0.000000  0.000000  0.000192  1
