# generated using pymatgen
data_Er5Tm5Sn8
_symmetry_space_group_name_H-M   'P 1'
_cell_length_a   7.96793400
_cell_length_b   8.10314306
_cell_length_c   15.32901400
_cell_angle_alpha   89.99280899
_cell_angle_beta   90.00000000
_cell_angle_gamma   90.00000000
_symmetry_Int_Tables_number   1
_chemical_formula_structural   Er5Tm5Sn8
_chemical_formula_sum   'Er10 Tm10 Sn16'
_cell_volume   989.72251970
_cell_formula_units_Z   2
loop_
 _symmetry_equiv_pos_site_id
 _symmetry_equiv_pos_as_xyz
  1  'x, y, z'
loop_
 _atom_site_type_symbol
 _atom_site_label
 _atom_site_symmetry_multiplicity
 _atom_site_fract_x
 _atom_site_fract_y
 _atom_site_fract_z
 _atom_site_occupancy
  Er  Er0  1  0.368036  0.837070  0.622138  1
  Er  Er1  1  0.868036  0.662930  0.877862  1
  Er  Er2  1  0.521161  0.320294  0.903235  1
  Er  Er3  1  0.021161  0.179706  0.596765  1
  Er  Er4  1  0.478648  0.679199  0.402575  1
  Er  Er5  1  0.978648  0.820801  0.097425  1
  Er  Er6  1  0.478967  0.679219  0.097086  1
  Er  Er7  1  0.978967  0.820781  0.402914  1
  Er  Er8  1  0.521183  0.320473  0.596977  1
  Er  Er9  1  0.021183  0.179527  0.903023  1
  Tm  Tm10  1  0.367492  0.837528  0.877226  1
  Tm  Tm11  1  0.867492  0.662472  0.622774  1
  Tm  Tm12  1  0.632416  0.162292  0.377324  1
  Tm  Tm13  1  0.132416  0.337708  0.122676  1
  Tm  Tm14  1  0.632120  0.162464  0.123138  1
  Tm  Tm15  1  0.132120  0.337536  0.376862  1
  Tm  Tm16  1  0.198279  0.503712  0.750085  1
  Tm  Tm17  1  0.698279  0.996288  0.749915  1
  Tm  Tm18  1  0.801538  0.496046  0.250180  1
  Tm  Tm19  1  0.301538  0.003954  0.249820  1
  Sn  Sn20  1  0.292939  0.037606  0.041234  1
  Sn  Sn21  1  0.792939  0.462394  0.458766  1
  Sn  Sn22  1  0.707899  0.962611  0.541490  1
  Sn  Sn23  1  0.207899  0.537389  0.958510  1
  Sn  Sn24  1  0.706458  0.963326  0.958548  1
  Sn  Sn25  1  0.206458  0.536674  0.541452  1
  Sn  Sn26  1  0.292942  0.038017  0.458081  1
  Sn  Sn27  1  0.792942  0.461983  0.041919  1
  Sn  Sn28  1  0.564265  0.619165  0.750024  1
  Sn  Sn29  1  0.064265  0.880835  0.749976  1
  Sn  Sn30  1  0.435539  0.380275  0.250107  1
  Sn  Sn31  1  0.935539  0.119725  0.249893  1
  Sn  Sn32  1  0.330976  0.149103  0.750042  1
  Sn  Sn33  1  0.830976  0.350897  0.749958  1
  Sn  Sn34  1  0.669142  0.851052  0.250012  1
  Sn  Sn35  1  0.169142  0.648948  0.249988  1
