# generated using pymatgen
data_Ho2Tm3Nb3(Co4P3)4
_symmetry_space_group_name_H-M   'P 1'
_cell_length_a   12.16571100
_cell_length_b   12.16571094
_cell_length_c   3.68662300
_cell_angle_alpha   90.00000000
_cell_angle_beta   90.00000000
_cell_angle_gamma   119.99999745
_symmetry_Int_Tables_number   1
_chemical_formula_structural   Ho2Tm3Nb3(Co4P3)4
_chemical_formula_sum   'Ho2 Tm3 Nb3 Co16 P12'
_cell_volume   472.53541155
_cell_formula_units_Z   1
loop_
 _symmetry_equiv_pos_site_id
 _symmetry_equiv_pos_as_xyz
  1  'x, y, z'
loop_
 _atom_site_type_symbol
 _atom_site_label
 _atom_site_symmetry_multiplicity
 _atom_site_fract_x
 _atom_site_fract_y
 _atom_site_fract_z
 _atom_site_occupancy
  Ho  Ho0  1  0.333333  0.666667  0.000000  1
  Ho  Ho1  1  0.666667  0.333333  0.000000  1
  Tm  Tm2  1  0.816712  0.000000  0.500000  1
  Tm  Tm3  1  0.000000  0.816712  0.500000  1
  Tm  Tm4  1  0.183288  0.183288  0.500000  1
  Nb  Nb5  1  0.444897  0.000000  0.000000  1
  Nb  Nb6  1  0.000000  0.444897  0.000000  1
  Nb  Nb7  1  0.555103  0.555103  0.000000  1
  Co  Co8  1  0.278269  0.000000  0.500000  1
  Co  Co9  1  0.000000  0.278269  0.500000  1
  Co  Co10  1  0.721731  0.721731  0.500000  1
  Co  Co11  1  0.627220  0.803965  0.000000  1
  Co  Co12  1  0.196035  0.823254  0.000000  1
  Co  Co13  1  0.176746  0.372780  0.000000  1
  Co  Co14  1  0.372780  0.176746  0.000000  1
  Co  Co15  1  0.803965  0.627220  0.000000  1
  Co  Co16  1  0.823254  0.196035  0.000000  1
  Co  Co17  1  0.519916  0.873085  0.500000  1
  Co  Co18  1  0.126915  0.646831  0.500000  1
  Co  Co19  1  0.353169  0.480084  0.500000  1
  Co  Co20  1  0.480084  0.353169  0.500000  1
  Co  Co21  1  0.873085  0.519916  0.500000  1
  Co  Co22  1  0.646831  0.126915  0.500000  1
  Co  Co23  1  0.000000  0.000000  0.000000  1
  P  P24  1  0.177417  0.000000  0.000000  1
  P  P25  1  0.000000  0.177417  0.000000  1
  P  P26  1  0.822583  0.822583  0.000000  1
  P  P27  1  0.520464  0.688362  0.500000  1
  P  P28  1  0.311638  0.832101  0.500000  1
  P  P29  1  0.167899  0.479536  0.500000  1
  P  P30  1  0.479536  0.167899  0.500000  1
  P  P31  1  0.688362  0.520464  0.500000  1
  P  P32  1  0.832101  0.311638  0.500000  1
  P  P33  1  0.645086  0.000000  0.000000  1
  P  P34  1  0.000000  0.645086  0.000000  1
  P  P35  1  0.354914  0.354914  0.000000  1
