# generated using pymatgen
data_La5Pr11Cd4CoPd3
_symmetry_space_group_name_H-M   'P 1'
_cell_length_a   10.05693199
_cell_length_b   10.09274893
_cell_length_c   10.09274856
_cell_angle_alpha   59.85804384
_cell_angle_beta   59.98060673
_cell_angle_gamma   59.98060859
_symmetry_Int_Tables_number   1
_chemical_formula_structural   La5Pr11Cd4CoPd3
_chemical_formula_sum   'La5 Pr11 Cd4 Co1 Pd3'
_cell_volume   723.39292758
_cell_formula_units_Z   1
loop_
 _symmetry_equiv_pos_site_id
 _symmetry_equiv_pos_as_xyz
  1  'x, y, z'
loop_
 _atom_site_type_symbol
 _atom_site_label
 _atom_site_symmetry_multiplicity
 _atom_site_fract_x
 _atom_site_fract_y
 _atom_site_fract_z
 _atom_site_occupancy
  La  La0  1  0.351011  0.351800  0.351800  1
  La  La1  1  0.343855  0.343574  0.953166  1
  La  La2  1  0.343855  0.953166  0.343574  1
  La  La3  1  0.952759  0.344700  0.344700  1
  La  La4  1  0.825117  0.188038  0.188038  1
  Pr  Pr5  1  0.190358  0.808549  0.808549  1
  Pr  Pr6  1  0.190328  0.819636  0.188865  1
  Pr  Pr7  1  0.808219  0.190524  0.807623  1
  Pr  Pr8  1  0.190328  0.188865  0.819636  1
  Pr  Pr9  1  0.808219  0.807623  0.190524  1
  Pr  Pr10  1  0.937032  0.563822  0.563822  1
  Pr  Pr11  1  0.563025  0.934207  0.934207  1
  Pr  Pr12  1  0.563167  0.936910  0.563929  1
  Pr  Pr13  1  0.935119  0.563296  0.934077  1
  Pr  Pr14  1  0.563167  0.563929  0.936910  1
  Pr  Pr15  1  0.935119  0.934077  0.563296  1
  Cd  Cd16  1  0.579794  0.579885  0.579885  1
  Cd  Cd17  1  0.580548  0.581857  0.258575  1
  Cd  Cd18  1  0.580548  0.258575  0.581857  1
  Cd  Cd19  1  0.258551  0.581078  0.581078  1
  Co  Co20  1  0.138272  0.145885  0.145885  1
  Pd  Pd21  1  0.145143  0.144535  0.569981  1
  Pd  Pd22  1  0.145143  0.569981  0.144535  1
  Pd  Pd23  1  0.571321  0.145487  0.145487  1
