# generated using pymatgen
data_Er3Pa(Ga3Rh)6
_symmetry_space_group_name_H-M   'P 1'
_cell_length_a   7.59700756
_cell_length_b   7.59145297
_cell_length_c   9.45489800
_cell_angle_alpha   90.00000000
_cell_angle_beta   90.00000000
_cell_angle_gamma   119.78897694
_symmetry_Int_Tables_number   1
_chemical_formula_structural   Er3Pa(Ga3Rh)6
_chemical_formula_sum   'Er3 Pa1 Ga18 Rh6'
_cell_volume   473.23244239
_cell_formula_units_Z   1
loop_
 _symmetry_equiv_pos_site_id
 _symmetry_equiv_pos_as_xyz
  1  'x, y, z'
loop_
 _atom_site_type_symbol
 _atom_site_label
 _atom_site_symmetry_multiplicity
 _atom_site_fract_x
 _atom_site_fract_y
 _atom_site_fract_z
 _atom_site_occupancy
  Er  Er0  1  0.003445  0.331141  0.750000  1
  Er  Er1  1  0.671021  0.997143  0.250000  1
  Er  Er2  1  0.329876  0.002020  0.750000  1
  Pa  Pa3  1  0.997802  0.669480  0.250000  1
  Ga  Ga4  1  0.129766  0.128510  0.250000  1
  Ga  Ga5  1  0.874453  0.875715  0.750000  1
  Ga  Ga6  1  0.998868  0.331048  0.078959  1
  Ga  Ga7  1  0.000387  0.665222  0.917015  1
  Ga  Ga8  1  0.000387  0.665222  0.582985  1
  Ga  Ga9  1  0.338670  0.002657  0.420710  1
  Ga  Ga10  1  0.998868  0.331048  0.421041  1
  Ga  Ga11  1  0.665385  0.001432  0.580681  1
  Ga  Ga12  1  0.665385  0.001432  0.919319  1
  Ga  Ga13  1  0.338670  0.002657  0.079290  1
  Ga  Ga14  1  0.331689  0.331566  0.569054  1
  Ga  Ga15  1  0.663883  0.667366  0.435338  1
  Ga  Ga16  1  0.663883  0.667366  0.064662  1
  Ga  Ga17  1  0.331689  0.331566  0.930946  1
  Ga  Ga18  1  0.337865  0.545972  0.250000  1
  Ga  Ga19  1  0.661102  0.450808  0.750000  1
  Ga  Ga20  1  0.546246  0.340484  0.250000  1
  Ga  Ga21  1  0.452049  0.662277  0.750000  1
  Rh  Rh22  1  0.673057  0.330770  0.001452  1
  Rh  Rh23  1  0.326626  0.670987  0.001393  1
  Rh  Rh24  1  0.326626  0.670987  0.498607  1
  Rh  Rh25  1  0.673057  0.330770  0.498548  1
  Rh  Rh26  1  0.999622  0.997176  0.002004  1
  Rh  Rh27  1  0.999622  0.997176  0.497996  1
