# generated using pymatgen
data_Rb2AcI5
_symmetry_space_group_name_H-M   'P 1'
_cell_length_a   9.66267500
_cell_length_b   10.25025100
_cell_length_c   15.31256600
_cell_angle_alpha   90.00000000
_cell_angle_beta   90.00000000
_cell_angle_gamma   90.00000000
_symmetry_Int_Tables_number   1
_chemical_formula_structural   Rb2AcI5
_chemical_formula_sum   'Rb8 Ac4 I20'
_cell_volume   1516.63071196
_cell_formula_units_Z   4
loop_
 _symmetry_equiv_pos_site_id
 _symmetry_equiv_pos_as_xyz
  1  'x, y, z'
loop_
 _atom_site_type_symbol
 _atom_site_label
 _atom_site_symmetry_multiplicity
 _atom_site_fract_x
 _atom_site_fract_y
 _atom_site_fract_z
 _atom_site_occupancy
  Rb  Rb0  1  0.538404  0.501404  0.824988  1
  Rb  Rb1  1  0.461596  0.498596  0.175012  1
  Rb  Rb2  1  0.038404  0.498596  0.675012  1
  Rb  Rb3  1  0.461596  0.001404  0.175012  1
  Rb  Rb4  1  0.961596  0.501404  0.324988  1
  Rb  Rb5  1  0.538404  0.998596  0.824988  1
  Rb  Rb6  1  0.961596  0.998596  0.324988  1
  Rb  Rb7  1  0.038404  0.001404  0.675012  1
  Ac  Ac8  1  0.577002  0.750000  0.504338  1
  Ac  Ac9  1  0.422998  0.250000  0.495662  1
  Ac  Ac10  1  0.077002  0.250000  0.995662  1
  Ac  Ac11  1  0.922998  0.750000  0.004338  1
  I  I12  1  0.827943  0.750000  0.795942  1
  I  I13  1  0.172057  0.250000  0.204058  1
  I  I14  1  0.327943  0.250000  0.704058  1
  I  I15  1  0.672057  0.750000  0.295942  1
  I  I16  1  0.360674  0.750000  0.672452  1
  I  I17  1  0.639326  0.250000  0.327548  1
  I  I18  1  0.860674  0.250000  0.827548  1
  I  I19  1  0.139326  0.750000  0.172452  1
  I  I20  1  0.923520  0.750000  0.511326  1
  I  I21  1  0.076480  0.250000  0.488674  1
  I  I22  1  0.423520  0.250000  0.988674  1
  I  I23  1  0.576480  0.750000  0.011326  1
  I  I24  1  0.661830  0.043798  0.583739  1
  I  I25  1  0.338170  0.956202  0.416261  1
  I  I26  1  0.161830  0.956202  0.916261  1
  I  I27  1  0.338170  0.543798  0.416261  1
  I  I28  1  0.838170  0.043798  0.083739  1
  I  I29  1  0.661830  0.456202  0.583739  1
  I  I30  1  0.838170  0.456202  0.083739  1
  I  I31  1  0.161830  0.543798  0.916261  1
