# generated using pymatgen
data_Tb3HoGa18(NiRu2)2
_symmetry_space_group_name_H-M   'P 1'
_cell_length_a   7.51182205
_cell_length_b   7.51181004
_cell_length_c   9.59027500
_cell_angle_alpha   90.00000000
_cell_angle_beta   90.00000000
_cell_angle_gamma   120.52338100
_symmetry_Int_Tables_number   1
_chemical_formula_structural   Tb3HoGa18(NiRu2)2
_chemical_formula_sum   'Tb3 Ho1 Ga18 Ni2 Ru4'
_cell_volume   466.16202869
_cell_formula_units_Z   1
loop_
 _symmetry_equiv_pos_site_id
 _symmetry_equiv_pos_as_xyz
  1  'x, y, z'
loop_
 _atom_site_type_symbol
 _atom_site_label
 _atom_site_symmetry_multiplicity
 _atom_site_fract_x
 _atom_site_fract_y
 _atom_site_fract_z
 _atom_site_occupancy
  Tb  Tb0  1  0.995922  0.662550  0.250000  1
  Tb  Tb1  1  0.004072  0.337514  0.750000  1
  Tb  Tb2  1  0.662488  0.995933  0.250000  1
  Ho  Ho3  1  0.337492  0.003984  0.750000  1
  Ga  Ga4  1  0.117318  0.117344  0.250000  1
  Ga  Ga5  1  0.882836  0.882713  0.750000  1
  Ga  Ga6  1  0.002515  0.327421  0.076757  1
  Ga  Ga7  1  0.997684  0.672807  0.923097  1
  Ga  Ga8  1  0.997684  0.672807  0.576903  1
  Ga  Ga9  1  0.327448  0.002500  0.423333  1
  Ga  Ga10  1  0.002515  0.327421  0.423243  1
  Ga  Ga11  1  0.672446  0.997507  0.576847  1
  Ga  Ga12  1  0.672446  0.997507  0.923153  1
  Ga  Ga13  1  0.327448  0.002500  0.076667  1
  Ga  Ga14  1  0.334446  0.334291  0.562036  1
  Ga  Ga15  1  0.665562  0.665557  0.438080  1
  Ga  Ga16  1  0.665562  0.665557  0.061920  1
  Ga  Ga17  1  0.334446  0.334291  0.937964  1
  Ga  Ga18  1  0.336231  0.546194  0.250000  1
  Ga  Ga19  1  0.663616  0.453545  0.750000  1
  Ga  Ga20  1  0.546161  0.336200  0.250000  1
  Ga  Ga21  1  0.453696  0.663850  0.750000  1
  Ni  Ni22  1  0.000047  0.999977  0.999989  1
  Ni  Ni23  1  0.000047  0.999977  0.500011  1
  Ru  Ru24  1  0.674312  0.325504  0.999890  1
  Ru  Ru25  1  0.325623  0.674521  0.999873  1
  Ru  Ru26  1  0.325623  0.674521  0.500127  1
  Ru  Ru27  1  0.674312  0.325504  0.500110  1
