# generated using pymatgen
data_Mn5Fe2Co5(W6C)2
_symmetry_space_group_name_H-M   'P 1'
_cell_length_a   7.73347653
_cell_length_b   7.74326070
_cell_length_c   7.73565706
_cell_angle_alpha   60.04314586
_cell_angle_beta   59.98599070
_cell_angle_gamma   60.04087487
_symmetry_Int_Tables_number   1
_chemical_formula_structural   Mn5Fe2Co5(W6C)2
_chemical_formula_sum   'Mn5 Fe2 Co5 W12 C2'
_cell_volume   327.72553553
_cell_formula_units_Z   1
loop_
 _symmetry_equiv_pos_site_id
 _symmetry_equiv_pos_as_xyz
  1  'x, y, z'
loop_
 _atom_site_type_symbol
 _atom_site_label
 _atom_site_symmetry_multiplicity
 _atom_site_fract_x
 _atom_site_fract_y
 _atom_site_fract_z
 _atom_site_occupancy
  Mn  Mn0  1  0.925084  0.227377  0.923973  1
  Mn  Mn1  1  0.121188  0.127932  0.625981  1
  Mn  Mn2  1  0.125559  0.623912  0.121410  1
  Mn  Mn3  1  0.123690  0.131208  0.120411  1
  Mn  Mn4  1  0.625191  0.129892  0.118961  1
  Fe  Fe5  1  0.327414  0.327786  0.017020  1
  Fe  Fe6  1  0.923474  0.919596  0.922932  1
  Co  Co7  1  0.330512  0.008930  0.330158  1
  Co  Co8  1  0.329892  0.330526  0.330764  1
  Co  Co9  1  0.009633  0.330306  0.330552  1
  Co  Co10  1  0.920125  0.918539  0.241180  1
  Co  Co11  1  0.241068  0.918369  0.920346  1
  W  W12  1  0.303216  0.696781  0.697047  1
  W  W13  1  0.303083  0.302904  0.697316  1
  W  W14  1  0.552452  0.947455  0.552503  1
  W  W15  1  0.946644  0.554292  0.552557  1
  W  W16  1  0.553052  0.946731  0.947010  1
  W  W17  1  0.697422  0.302544  0.302943  1
  W  W18  1  0.945592  0.554610  0.946015  1
  W  W19  1  0.302623  0.696836  0.303465  1
  W  W20  1  0.552823  0.554062  0.946729  1
  W  W21  1  0.696455  0.303423  0.696950  1
  W  W22  1  0.697384  0.696954  0.303240  1
  W  W23  1  0.947237  0.946924  0.552792  1
  C  C24  1  0.749286  0.751417  0.748738  1
  C  C25  1  0.499902  0.500696  0.499007  1
