# generated using pymatgen
data_Yb4Ti2GaRuO12
_symmetry_space_group_name_H-M   'P 1'
_cell_length_a   5.32208936
_cell_length_b   5.51298995
_cell_length_c   7.58663197
_cell_angle_alpha   89.56130560
_cell_angle_beta   89.88959776
_cell_angle_gamma   89.91247237
_symmetry_Int_Tables_number   1
_chemical_formula_structural   Yb4Ti2GaRuO12
_chemical_formula_sum   'Yb4 Ti2 Ga1 Ru1 O12'
_cell_volume   222.58933213
_cell_formula_units_Z   1
loop_
 _symmetry_equiv_pos_site_id
 _symmetry_equiv_pos_as_xyz
  1  'x, y, z'
loop_
 _atom_site_type_symbol
 _atom_site_label
 _atom_site_symmetry_multiplicity
 _atom_site_fract_x
 _atom_site_fract_y
 _atom_site_fract_z
 _atom_site_occupancy
  Yb  Yb0  1  0.012467  0.443283  0.249052  1
  Yb  Yb1  1  0.987533  0.556717  0.750948  1
  Yb  Yb2  1  0.516466  0.062172  0.750226  1
  Yb  Yb3  1  0.483534  0.937828  0.249774  1
  Ti  Ti4  1  0.000000  0.000000  0.000000  1
  Ti  Ti5  1  0.500000  0.500000  0.000000  1
  Ga  Ga6  1  0.500000  0.500000  0.500000  1
  Ru  Ru7  1  0.000000  0.000000  0.500000  1
  O  O8  1  0.293629  0.204057  0.044540  1
  O  O9  1  0.706371  0.795943  0.955460  1
  O  O10  1  0.797016  0.292924  0.955170  1
  O  O11  1  0.701008  0.802503  0.549276  1
  O  O12  1  0.202984  0.707076  0.044830  1
  O  O13  1  0.298992  0.197497  0.450724  1
  O  O14  1  0.193741  0.704443  0.449746  1
  O  O15  1  0.806259  0.295557  0.550254  1
  O  O16  1  0.585556  0.522214  0.248911  1
  O  O17  1  0.414444  0.477786  0.751089  1
  O  O18  1  0.092547  0.974828  0.750528  1
  O  O19  1  0.907453  0.025172  0.249472  1
