# generated using pymatgen
data_Yb5Er3(Si4Mo3)4
_symmetry_space_group_name_H-M   'P 1'
_cell_length_a   6.71852751
_cell_length_b   6.93854280
_cell_length_c   12.98494148
_cell_angle_alpha   89.92441848
_cell_angle_beta   89.97352735
_cell_angle_gamma   89.94452811
_symmetry_Int_Tables_number   1
_chemical_formula_structural   Yb5Er3(Si4Mo3)4
_chemical_formula_sum   'Yb5 Er3 Si16 Mo12'
_cell_volume   605.31542472
_cell_formula_units_Z   1
loop_
 _symmetry_equiv_pos_site_id
 _symmetry_equiv_pos_as_xyz
  1  'x, y, z'
loop_
 _atom_site_type_symbol
 _atom_site_label
 _atom_site_symmetry_multiplicity
 _atom_site_fract_x
 _atom_site_fract_y
 _atom_site_fract_z
 _atom_site_occupancy
  Yb  Yb0  1  0.497884  0.334723  0.090461  1
  Yb  Yb1  1  0.997905  0.167470  0.408293  1
  Yb  Yb2  1  0.501579  0.667886  0.591796  1
  Yb  Yb3  1  0.001670  0.831644  0.907986  1
  Yb  Yb4  1  0.501420  0.667099  0.909450  1
  Er  Er5  1  0.000582  0.829565  0.593873  1
  Er  Er6  1  0.499240  0.330368  0.406372  1
  Er  Er7  1  0.998894  0.169435  0.093434  1
  Si  Si8  1  0.660517  0.041831  0.544806  1
  Si  Si9  1  0.158952  0.457278  0.954816  1
  Si  Si10  1  0.339857  0.958076  0.045868  1
  Si  Si11  1  0.839577  0.541983  0.454616  1
  Si  Si12  1  0.339559  0.957778  0.454621  1
  Si  Si13  1  0.841211  0.543001  0.045777  1
  Si  Si14  1  0.659739  0.041792  0.954629  1
  Si  Si15  1  0.160426  0.457716  0.544793  1
  Si  Si16  1  0.534071  0.371958  0.750086  1
  Si  Si17  1  0.034495  0.127268  0.749315  1
  Si  Si18  1  0.465601  0.631026  0.249645  1
  Si  Si19  1  0.965949  0.870736  0.250130  1
  Si  Si20  1  0.800198  0.629588  0.750748  1
  Si  Si21  1  0.303164  0.869216  0.750841  1
  Si  Si22  1  0.198002  0.369844  0.249977  1
  Si  Si23  1  0.697567  0.130878  0.249882  1
  Mo  Mo24  1  0.832507  0.332935  0.625690  1
  Mo  Mo25  1  0.332514  0.167962  0.873076  1
  Mo  Mo26  1  0.167302  0.666554  0.126486  1
  Mo  Mo27  1  0.668498  0.833303  0.374464  1
  Mo  Mo28  1  0.167552  0.667320  0.373814  1
  Mo  Mo29  1  0.668332  0.834181  0.127079  1
  Mo  Mo30  1  0.834797  0.330579  0.872821  1
  Mo  Mo31  1  0.333128  0.167797  0.625571  1
  Mo  Mo32  1  0.662677  0.006796  0.749236  1
  Mo  Mo33  1  0.161880  0.492854  0.748868  1
  Mo  Mo34  1  0.336294  0.996672  0.250602  1
  Mo  Mo35  1  0.836466  0.504890  0.250080  1
