# generated using pymatgen
data_LaNd5(CBr5)2
_symmetry_space_group_name_H-M   'P 1'
_cell_length_a   7.68023777
_cell_length_b   9.21328638
_cell_length_c   9.34652751
_cell_angle_alpha   107.66395090
_cell_angle_beta   96.88117753
_cell_angle_gamma   105.45079975
_symmetry_Int_Tables_number   1
_chemical_formula_structural   LaNd5(CBr5)2
_chemical_formula_sum   'La1 Nd5 C2 Br10'
_cell_volume   592.73285680
_cell_formula_units_Z   1
loop_
 _symmetry_equiv_pos_site_id
 _symmetry_equiv_pos_as_xyz
  1  'x, y, z'
loop_
 _atom_site_type_symbol
 _atom_site_label
 _atom_site_symmetry_multiplicity
 _atom_site_fract_x
 _atom_site_fract_y
 _atom_site_fract_z
 _atom_site_occupancy
  La  La0  1  0.884084  0.953656  0.234914  1
  Nd  Nd1  1  0.114753  0.045503  0.772154  1
  Nd  Nd2  1  0.028656  0.722620  0.915589  1
  Nd  Nd3  1  0.971234  0.277143  0.081165  1
  Nd  Nd4  1  0.614133  0.852333  0.803865  1
  Nd  Nd5  1  0.385922  0.148466  0.195644  1
  C  C6  1  0.908301  0.966923  0.955881  1
  C  C7  1  0.090218  0.032040  0.045313  1
  Br  Br8  1  0.753563  0.916247  0.541381  1
  Br  Br9  1  0.254781  0.085854  0.462798  1
  Br  Br10  1  0.452596  0.817415  0.081826  1
  Br  Br11  1  0.541780  0.181071  0.914652  1
  Br  Br12  1  0.812188  0.269212  0.352988  1
  Br  Br13  1  0.186154  0.737327  0.646373  1
  Br  Br14  1  0.912604  0.622770  0.169943  1
  Br  Br15  1  0.090148  0.371090  0.826244  1
  Br  Br16  1  0.656418  0.539087  0.723210  1
  Br  Br17  1  0.342469  0.461244  0.276059  1
