# generated using pymatgen
data_Tm(ThPd4)3
_symmetry_space_group_name_H-M   'P 1'
_cell_length_a   5.92028100
_cell_length_b   5.92028011
_cell_length_c   9.73413700
_cell_angle_alpha   90.00000000
_cell_angle_beta   90.00000000
_cell_angle_gamma   119.99999941
_symmetry_Int_Tables_number   1
_chemical_formula_structural   Tm(ThPd4)3
_chemical_formula_sum   'Tm1 Th3 Pd12'
_cell_volume   295.46950466
_cell_formula_units_Z   1
loop_
 _symmetry_equiv_pos_site_id
 _symmetry_equiv_pos_as_xyz
  1  'x, y, z'
loop_
 _atom_site_type_symbol
 _atom_site_label
 _atom_site_symmetry_multiplicity
 _atom_site_fract_x
 _atom_site_fract_y
 _atom_site_fract_z
 _atom_site_occupancy
  Tm  Tm0  1  0.333333  0.666667  0.250000  1
  Th  Th1  1  0.000000  0.000000  0.494049  1
  Th  Th2  1  0.000000  0.000000  0.005951  1
  Th  Th3  1  0.666667  0.333333  0.750000  1
  Pd  Pd4  1  0.499067  0.500933  0.497690  1
  Pd  Pd5  1  0.499067  0.998135  0.497690  1
  Pd  Pd6  1  0.001865  0.500933  0.497690  1
  Pd  Pd7  1  0.499067  0.500933  0.002310  1
  Pd  Pd8  1  0.499067  0.998135  0.002310  1
  Pd  Pd9  1  0.001865  0.500933  0.002310  1
  Pd  Pd10  1  0.824060  0.648121  0.250000  1
  Pd  Pd11  1  0.351879  0.175940  0.250000  1
  Pd  Pd12  1  0.824060  0.175940  0.250000  1
  Pd  Pd13  1  0.174252  0.348503  0.750000  1
  Pd  Pd14  1  0.651497  0.825748  0.750000  1
  Pd  Pd15  1  0.174252  0.825748  0.750000  1
