# generated using pymatgen
data_Ta2TiO7
_symmetry_space_group_name_H-M   'P 1'
_cell_length_a   10.52014477
_cell_length_b   10.52014460
_cell_length_c   11.97863375
_cell_angle_alpha   60.17307580
_cell_angle_beta   60.17307663
_cell_angle_gamma   21.07232937
_symmetry_Int_Tables_number   1
_chemical_formula_structural   Ta2TiO7
_chemical_formula_sum   'Ta6 Ti3 O21'
_cell_volume   411.15683502
_cell_formula_units_Z   3
loop_
 _symmetry_equiv_pos_site_id
 _symmetry_equiv_pos_as_xyz
  1  'x, y, z'
loop_
 _atom_site_type_symbol
 _atom_site_label
 _atom_site_symmetry_multiplicity
 _atom_site_fract_x
 _atom_site_fract_y
 _atom_site_fract_z
 _atom_site_occupancy
  Ta  Ta0  1  0.816478  0.816478  0.998132  1
  Ta  Ta1  1  0.183798  0.183798  0.998900  1
  Ta  Ta2  1  0.117199  0.117199  0.625227  1
  Ta  Ta3  1  0.886434  0.886434  0.372349  1
  Ta  Ta4  1  0.000340  0.000340  0.996690  1
  Ta  Ta5  1  0.075490  0.075490  0.373305  1
  Ti  Ti6  1  0.708882  0.708882  0.361684  1
  Ti  Ti7  1  0.297622  0.297622  0.637115  1
  Ti  Ti8  1  0.920352  0.920352  0.635216  1
  O  O9  1  0.949526  0.949526  0.196582  1
  O  O10  1  0.050287  0.050287  0.803244  1
  O  O11  1  0.627063  0.627063  0.580354  1
  O  O12  1  0.372760  0.372760  0.416943  1
  O  O13  1  0.290750  0.290750  0.003271  1
  O  O14  1  0.708575  0.708575  0.997832  1
  O  O15  1  0.099231  0.099231  0.985918  1
  O  O16  1  0.900720  0.900720  0.013474  1
  O  O17  1  0.750732  0.750732  0.192243  1
  O  O18  1  0.248740  0.248740  0.808314  1
  O  O19  1  0.827125  0.827125  0.594716  1
  O  O20  1  0.172735  0.172735  0.404690  1
  O  O21  1  0.974495  0.974495  0.413778  1
  O  O22  1  0.024056  0.024056  0.579208  1
  O  O23  1  0.126646  0.126646  0.190006  1
  O  O24  1  0.873594  0.873594  0.810715  1
  O  O25  1  0.401152  0.401152  0.625116  1
  O  O26  1  0.596206  0.596206  0.376137  1
  O  O27  1  0.498555  0.498555  0.009540  1
  O  O28  1  0.209747  0.209747  0.619704  1
  O  O29  1  0.790709  0.790709  0.379595  1
