# generated using pymatgen
data_Dy15Tm5(Bi2Te)4
_symmetry_space_group_name_H-M   'P 1'
_cell_length_a   8.15927404
_cell_length_b   9.37902240
_cell_length_c   11.89635000
_cell_angle_alpha   90.00359816
_cell_angle_beta   90.02886110
_cell_angle_gamma   90.01630292
_symmetry_Int_Tables_number   1
_chemical_formula_structural   Dy15Tm5(Bi2Te)4
_chemical_formula_sum   'Dy15 Tm5 Bi8 Te4'
_cell_volume   910.38009165
_cell_formula_units_Z   1
loop_
 _symmetry_equiv_pos_site_id
 _symmetry_equiv_pos_as_xyz
  1  'x, y, z'
loop_
 _atom_site_type_symbol
 _atom_site_label
 _atom_site_symmetry_multiplicity
 _atom_site_fract_x
 _atom_site_fract_y
 _atom_site_fract_z
 _atom_site_occupancy
  Dy  Dy0  1  0.354345  0.751036  0.213607  1
  Dy  Dy1  1  0.854157  0.749693  0.286088  1
  Dy  Dy2  1  0.645269  0.251235  0.786396  1
  Dy  Dy3  1  0.146532  0.250224  0.714234  1
  Dy  Dy4  1  0.811206  0.061633  0.557815  1
  Dy  Dy5  1  0.687768  0.938091  0.057309  1
  Dy  Dy6  1  0.188937  0.561481  0.442453  1
  Dy  Dy7  1  0.477118  0.250467  0.488973  1
  Dy  Dy8  1  0.977837  0.250251  0.010945  1
  Dy  Dy9  1  0.522814  0.750338  0.511227  1
  Dy  Dy10  1  0.022440  0.749877  0.988977  1
  Dy  Dy11  1  0.321793  0.249862  0.216796  1
  Dy  Dy12  1  0.821646  0.251082  0.282404  1
  Dy  Dy13  1  0.678581  0.749541  0.782642  1
  Dy  Dy14  1  0.178503  0.750655  0.717457  1
  Tm  Tm15  1  0.688330  0.565829  0.057012  1
  Tm  Tm16  1  0.188591  0.933939  0.442697  1
  Tm  Tm17  1  0.311900  0.065664  0.943019  1
  Tm  Tm18  1  0.811584  0.433996  0.557456  1
  Tm  Tm19  1  0.311296  0.435691  0.942553  1
  Bi  Bi20  1  0.570046  0.996405  0.325238  1
  Bi  Bi21  1  0.070167  0.504345  0.174524  1
  Bi  Bi22  1  0.429668  0.496415  0.675154  1
  Bi  Bi23  1  0.930151  0.004422  0.825392  1
  Bi  Bi24  1  0.429775  0.004621  0.674918  1
  Bi  Bi25  1  0.930074  0.495880  0.825582  1
  Bi  Bi26  1  0.570057  0.504580  0.325219  1
  Bi  Bi27  1  0.070395  0.995885  0.174535  1
  Te  Te28  1  0.402884  0.750036  0.956699  1
  Te  Te29  1  0.904446  0.746683  0.542560  1
  Te  Te30  1  0.596143  0.253589  0.042440  1
  Te  Te31  1  0.095549  0.246553  0.457680  1
