# generated using pymatgen
data_Ag2SbOsF12
_symmetry_space_group_name_H-M   'P 1'
_cell_length_a   5.53225382
_cell_length_b   5.52936201
_cell_length_c   10.73504700
_cell_angle_alpha   75.19174797
_cell_angle_beta   75.12899701
_cell_angle_gamma   59.94408741
_symmetry_Int_Tables_number   1
_chemical_formula_structural   Ag2SbOsF12
_chemical_formula_sum   'Ag2 Sb1 Os1 F12'
_cell_volume   271.52153768
_cell_formula_units_Z   1
loop_
 _symmetry_equiv_pos_site_id
 _symmetry_equiv_pos_as_xyz
  1  'x, y, z'
loop_
 _atom_site_type_symbol
 _atom_site_label
 _atom_site_symmetry_multiplicity
 _atom_site_fract_x
 _atom_site_fract_y
 _atom_site_fract_z
 _atom_site_occupancy
  Ag  Ag0  1  0.502249  0.503027  0.492129  1
  Ag  Ag1  1  0.996887  0.998098  0.007995  1
  Sb  Sb2  1  0.752805  0.745932  0.749991  1
  Os  Os3  1  0.247516  0.254039  0.249905  1
  F  F4  1  0.201255  0.506099  0.358753  1
  F  F5  1  0.771665  0.506651  0.641331  1
  F  F6  1  0.932448  0.208847  0.357801  1
  F  F7  1  0.081078  0.764890  0.641221  1
  F  F8  1  0.562851  0.298525  0.141782  1
  F  F9  1  0.424872  0.727337  0.859030  1
  F  F10  1  0.293135  0.002330  0.141076  1
  F  F11  1  0.733149  0.984670  0.859160  1
  F  F12  1  0.992116  0.417491  0.858617  1
  F  F13  1  0.995371  0.569248  0.141565  1
  F  F14  1  0.514684  0.073859  0.640963  1
  F  F15  1  0.497920  0.938956  0.358680  1
