# generated using pymatgen
data_Nd3Mn(Co4P3)2
_symmetry_space_group_name_H-M   'P 1'
_cell_length_a   3.76563800
_cell_length_b   10.70688300
_cell_length_c   12.40842600
_cell_angle_alpha   90.00000000
_cell_angle_beta   90.00000000
_cell_angle_gamma   90.00000000
_symmetry_Int_Tables_number   1
_chemical_formula_structural   Nd3Mn(Co4P3)2
_chemical_formula_sum   'Nd6 Mn2 Co16 P12'
_cell_volume   500.28596557
_cell_formula_units_Z   2
loop_
 _symmetry_equiv_pos_site_id
 _symmetry_equiv_pos_as_xyz
  1  'x, y, z'
loop_
 _atom_site_type_symbol
 _atom_site_label
 _atom_site_symmetry_multiplicity
 _atom_site_fract_x
 _atom_site_fract_y
 _atom_site_fract_z
 _atom_site_occupancy
  Nd  Nd0  1  0.000000  0.500000  0.522299  1
  Nd  Nd1  1  0.500000  0.000000  0.477701  1
  Nd  Nd2  1  0.500000  0.818809  0.205251  1
  Nd  Nd3  1  0.500000  0.181191  0.205251  1
  Nd  Nd4  1  0.000000  0.681191  0.794749  1
  Nd  Nd5  1  0.000000  0.318809  0.794749  1
  Mn  Mn6  1  0.500000  0.500000  0.157339  1
  Mn  Mn7  1  0.000000  0.000000  0.842661  1
  Co  Co8  1  0.500000  0.500000  0.704482  1
  Co  Co9  1  0.000000  0.000000  0.295518  1
  Co  Co10  1  0.000000  0.500000  0.988956  1
  Co  Co11  1  0.500000  0.000000  0.011044  1
  Co  Co12  1  0.500000  0.333365  0.996018  1
  Co  Co13  1  0.500000  0.666635  0.996018  1
  Co  Co14  1  0.000000  0.166635  0.003982  1
  Co  Co15  1  0.000000  0.833365  0.003982  1
  Co  Co16  1  0.500000  0.296401  0.429982  1
  Co  Co17  1  0.500000  0.703599  0.429982  1
  Co  Co18  1  0.000000  0.203599  0.570018  1
  Co  Co19  1  0.000000  0.796401  0.570018  1
  Co  Co20  1  0.500000  0.881654  0.710617  1
  Co  Co21  1  0.500000  0.118346  0.710617  1
  Co  Co22  1  0.000000  0.618346  0.289383  1
  Co  Co23  1  0.000000  0.381654  0.289383  1
  P  P24  1  0.500000  0.500000  0.887786  1
  P  P25  1  0.000000  0.000000  0.112214  1
  P  P26  1  0.500000  0.500000  0.341482  1
  P  P27  1  0.000000  0.000000  0.658518  1
  P  P28  1  0.500000  0.306858  0.614256  1
  P  P29  1  0.500000  0.693142  0.614256  1
  P  P30  1  0.000000  0.193142  0.385744  1
  P  P31  1  0.000000  0.806858  0.385744  1
  P  P32  1  0.500000  0.847356  0.895056  1
  P  P33  1  0.500000  0.152644  0.895056  1
  P  P34  1  0.000000  0.652644  0.104944  1
  P  P35  1  0.000000  0.347356  0.104944  1
