# generated using pymatgen
data_Yb7ErZn2(Si6Rh)2
_symmetry_space_group_name_H-M   'P 1'
_cell_length_a   8.20160000
_cell_length_b   8.20160141
_cell_length_c   8.22425100
_cell_angle_alpha   90.00000000
_cell_angle_beta   90.00000000
_cell_angle_gamma   120.00000239
_symmetry_Int_Tables_number   1
_chemical_formula_structural   Yb7ErZn2(Si6Rh)2
_chemical_formula_sum   'Yb7 Er1 Zn2 Si12 Rh2'
_cell_volume   479.09784910
_cell_formula_units_Z   1
loop_
 _symmetry_equiv_pos_site_id
 _symmetry_equiv_pos_as_xyz
  1  'x, y, z'
loop_
 _atom_site_type_symbol
 _atom_site_label
 _atom_site_symmetry_multiplicity
 _atom_site_fract_x
 _atom_site_fract_y
 _atom_site_fract_z
 _atom_site_occupancy
  Yb  Yb0  1  0.988510  0.494256  0.264640  1
  Yb  Yb1  1  0.505744  0.494256  0.264640  1
  Yb  Yb2  1  0.494038  0.988075  0.733258  1
  Yb  Yb3  1  0.011925  0.505962  0.733258  1
  Yb  Yb4  1  0.494038  0.505962  0.733258  1
  Yb  Yb5  1  0.505744  0.011490  0.264640  1
  Yb  Yb6  1  0.000000  0.000000  0.747951  1
  Er  Er7  1  0.000000  0.000000  0.251778  1
  Zn  Zn8  1  0.333333  0.666667  0.042812  1
  Zn  Zn9  1  0.666667  0.333333  0.963274  1
  Si  Si10  1  0.166103  0.833897  0.493395  1
  Si  Si11  1  0.166103  0.332204  0.493395  1
  Si  Si12  1  0.667796  0.833897  0.493395  1
  Si  Si13  1  0.328610  0.164306  0.011536  1
  Si  Si14  1  0.833539  0.667078  0.498363  1
  Si  Si15  1  0.835694  0.164306  0.011536  1
  Si  Si16  1  0.835694  0.671390  0.011536  1
  Si  Si17  1  0.164303  0.328604  0.996290  1
  Si  Si18  1  0.671396  0.835697  0.996290  1
  Si  Si19  1  0.332922  0.166461  0.498363  1
  Si  Si20  1  0.833539  0.166461  0.498363  1
  Si  Si21  1  0.164303  0.835697  0.996290  1
  Rh  Rh22  1  0.666667  0.333333  0.518352  1
  Rh  Rh23  1  0.333333  0.666667  0.483383  1
