# generated using pymatgen
data_Nd10AlSi5H2
_symmetry_space_group_name_H-M   'P 1'
_cell_length_a   9.00476087
_cell_length_b   9.00476160
_cell_length_c   9.00476016
_cell_angle_alpha   128.13653457
_cell_angle_beta   128.13652868
_cell_angle_gamma   76.40395232
_symmetry_Int_Tables_number   1
_chemical_formula_structural   Nd10AlSi5H2
_chemical_formula_sum   'Nd10 Al1 Si5 H2'
_cell_volume   438.90152615
_cell_formula_units_Z   1
loop_
 _symmetry_equiv_pos_site_id
 _symmetry_equiv_pos_as_xyz
  1  'x, y, z'
loop_
 _atom_site_type_symbol
 _atom_site_label
 _atom_site_symmetry_multiplicity
 _atom_site_fract_x
 _atom_site_fract_y
 _atom_site_fract_z
 _atom_site_occupancy
  Nd  Nd0  1  0.477494  0.477494  0.000000  1
  Nd  Nd1  1  0.022506  0.022506  0.000000  1
  Nd  Nd2  1  0.534426  0.016666  0.841547  1
  Nd  Nd3  1  0.175121  0.692881  0.158453  1
  Nd  Nd4  1  0.016666  0.175121  0.482240  1
  Nd  Nd5  1  0.692881  0.534426  0.517760  1
  Nd  Nd6  1  0.483334  0.965574  0.158453  1
  Nd  Nd7  1  0.807119  0.324879  0.841547  1
  Nd  Nd8  1  0.965574  0.807119  0.482240  1
  Nd  Nd9  1  0.324879  0.483334  0.517760  1
  Al  Al10  1  0.250000  0.250000  0.000000  1
  Si  Si11  1  0.750000  0.750000  0.000000  1
  Si  Si12  1  0.885054  0.385054  0.270108  1
  Si  Si13  1  0.114946  0.614946  0.729892  1
  Si  Si14  1  0.385054  0.114946  0.500000  1
  Si  Si15  1  0.614946  0.885054  0.500000  1
  H  H16  1  0.250000  0.750000  0.500000  1
  H  H17  1  0.750000  0.250000  0.500000  1
