# generated using pymatgen
data_Rb12Li4Si15Pb
_symmetry_space_group_name_H-M   'P 1'
_cell_length_a   7.95066759
_cell_length_b   9.99824800
_cell_length_c   13.00329020
_cell_angle_alpha   90.00000000
_cell_angle_beta   89.56286663
_cell_angle_gamma   90.00000000
_symmetry_Int_Tables_number   1
_chemical_formula_structural   Rb12Li4Si15Pb
_chemical_formula_sum   'Rb12 Li4 Si15 Pb1'
_cell_volume   1033.63716598
_cell_formula_units_Z   1
loop_
 _symmetry_equiv_pos_site_id
 _symmetry_equiv_pos_as_xyz
  1  'x, y, z'
loop_
 _atom_site_type_symbol
 _atom_site_label
 _atom_site_symmetry_multiplicity
 _atom_site_fract_x
 _atom_site_fract_y
 _atom_site_fract_z
 _atom_site_occupancy
  Rb  Rb0  1  0.655469  0.250000  0.403000  1
  Rb  Rb1  1  0.153670  0.250000  0.098967  1
  Rb  Rb2  1  0.342821  0.750000  0.587009  1
  Rb  Rb3  1  0.858982  0.750000  0.904274  1
  Rb  Rb4  1  0.652832  0.446685  0.694573  1
  Rb  Rb5  1  0.148932  0.065660  0.805782  1
  Rb  Rb6  1  0.344668  0.946980  0.308948  1
  Rb  Rb7  1  0.842387  0.554745  0.194378  1
  Rb  Rb8  1  0.344668  0.553020  0.308948  1
  Rb  Rb9  1  0.842387  0.945255  0.194378  1
  Rb  Rb10  1  0.652832  0.053315  0.694573  1
  Rb  Rb11  1  0.148932  0.434340  0.805782  1
  Li  Li12  1  0.500729  0.495454  0.004578  1
  Li  Li13  1  0.998942  0.999771  0.500303  1
  Li  Li14  1  0.500729  0.004546  0.004578  1
  Li  Li15  1  0.998942  0.500229  0.500303  1
  Si  Si16  1  0.863663  0.750000  0.593430  1
  Si  Si17  1  0.634255  0.250000  0.094765  1
  Si  Si18  1  0.136378  0.250000  0.405484  1
  Si  Si19  1  0.724816  0.630514  0.453043  1
  Si  Si20  1  0.224822  0.869492  0.052662  1
  Si  Si21  1  0.274040  0.130550  0.546324  1
  Si  Si22  1  0.776240  0.369511  0.954242  1
  Si  Si23  1  0.010373  0.250000  0.578290  1
  Si  Si24  1  0.514575  0.250000  0.920797  1
  Si  Si25  1  0.987548  0.750000  0.419566  1
  Si  Si26  1  0.487258  0.750000  0.084815  1
  Si  Si27  1  0.224822  0.630508  0.052662  1
  Si  Si28  1  0.724816  0.869486  0.453043  1
  Si  Si29  1  0.776240  0.130489  0.954242  1
  Si  Si30  1  0.274040  0.369450  0.546324  1
  Pb  Pb31  1  0.378190  0.750000  0.879937  1
