# generated using pymatgen
data_Rb16Hf3CrS16
_symmetry_space_group_name_H-M   'P 1'
_cell_length_a   8.39979280
_cell_length_b   9.99852100
_cell_length_c   14.82846900
_cell_angle_alpha   90.00000000
_cell_angle_beta   90.08291725
_cell_angle_gamma   90.00000000
_symmetry_Int_Tables_number   1
_chemical_formula_structural   Rb16Hf3CrS16
_chemical_formula_sum   'Rb16 Hf3 Cr1 S16'
_cell_volume   1245.37514828
_cell_formula_units_Z   1
loop_
 _symmetry_equiv_pos_site_id
 _symmetry_equiv_pos_as_xyz
  1  'x, y, z'
loop_
 _atom_site_type_symbol
 _atom_site_label
 _atom_site_symmetry_multiplicity
 _atom_site_fract_x
 _atom_site_fract_y
 _atom_site_fract_z
 _atom_site_occupancy
  Rb  Rb0  1  0.002713  0.005699  0.997664  1
  Rb  Rb1  1  0.499909  0.998038  0.500130  1
  Rb  Rb2  1  0.002713  0.494301  0.997664  1
  Rb  Rb3  1  0.499909  0.501962  0.500130  1
  Rb  Rb4  1  0.989986  0.750000  0.427373  1
  Rb  Rb5  1  0.484997  0.250000  0.069827  1
  Rb  Rb6  1  0.013544  0.250000  0.576374  1
  Rb  Rb7  1  0.506408  0.750000  0.924132  1
  Rb  Rb8  1  0.837382  0.057322  0.280225  1
  Rb  Rb9  1  0.337641  0.942986  0.219968  1
  Rb  Rb10  1  0.162196  0.551099  0.721479  1
  Rb  Rb11  1  0.662004  0.437537  0.781588  1
  Rb  Rb12  1  0.162196  0.948901  0.721479  1
  Rb  Rb13  1  0.662004  0.062463  0.781588  1
  Rb  Rb14  1  0.837382  0.442678  0.280225  1
  Rb  Rb15  1  0.337641  0.557014  0.219968  1
  Hf  Hf16  1  0.757112  0.750000  0.667634  1
  Hf  Hf17  1  0.243077  0.250000  0.333914  1
  Hf  Hf18  1  0.742611  0.750000  0.164824  1
  Cr  Cr19  1  0.258091  0.250000  0.833555  1
  S  S20  1  0.993970  0.250000  0.824415  1
  S  S21  1  0.527975  0.250000  0.325907  1
  S  S22  1  0.472043  0.750000  0.676030  1
  S  S23  1  0.027472  0.750000  0.174245  1
  S  S24  1  0.654345  0.553544  0.088709  1
  S  S25  1  0.156092  0.446430  0.409901  1
  S  S26  1  0.340965  0.069895  0.903916  1
  S  S27  1  0.842935  0.947007  0.591412  1
  S  S28  1  0.340965  0.430105  0.903916  1
  S  S29  1  0.842935  0.552993  0.591412  1
  S  S30  1  0.654345  0.946456  0.088709  1
  S  S31  1  0.156092  0.053570  0.409901  1
  S  S32  1  0.630812  0.750000  0.314751  1
  S  S33  1  0.130024  0.250000  0.184298  1
  S  S34  1  0.360907  0.250000  0.695281  1
  S  S35  1  0.868608  0.750000  0.817450  1
