# generated using pymatgen
data_Zr10Tl6S
_symmetry_space_group_name_H-M   'P 1'
_cell_length_a   5.90517802
_cell_length_b   8.67485560
_cell_length_c   8.67490303
_cell_angle_alpha   119.99856434
_cell_angle_beta   89.99100430
_cell_angle_gamma   90.00754499
_symmetry_Int_Tables_number   1
_chemical_formula_structural   Zr10Tl6S
_chemical_formula_sum   'Zr10 Tl6 S1'
_cell_volume   384.85469201
_cell_formula_units_Z   1
loop_
 _symmetry_equiv_pos_site_id
 _symmetry_equiv_pos_as_xyz
  1  'x, y, z'
loop_
 _atom_site_type_symbol
 _atom_site_label
 _atom_site_symmetry_multiplicity
 _atom_site_fract_x
 _atom_site_fract_y
 _atom_site_fract_z
 _atom_site_occupancy
  Zr  Zr0  1  0.499994  0.333325  0.666652  1
  Zr  Zr1  1  0.500003  0.666678  0.333349  1
  Zr  Zr2  1  0.999998  0.666661  0.333336  1
  Zr  Zr3  1  0.000005  0.333340  0.666664  1
  Zr  Zr4  1  0.757985  0.242468  0.000035  1
  Zr  Zr5  1  0.757994  0.757547  0.757511  1
  Zr  Zr6  1  0.757986  0.999967  0.242454  1
  Zr  Zr7  1  0.242019  0.757563  0.000034  1
  Zr  Zr8  1  0.242007  0.242485  0.242454  1
  Zr  Zr9  1  0.242014  0.999961  0.757514  1
  Tl  Tl10  1  0.750826  0.606300  0.000071  1
  Tl  Tl11  1  0.750821  0.393766  0.393694  1
  Tl  Tl12  1  0.750822  0.999931  0.606231  1
  Tl  Tl13  1  0.249180  0.393769  0.000069  1
  Tl  Tl14  1  0.249175  0.606305  0.606235  1
  Tl  Tl15  1  0.249176  0.999926  0.393696  1
  S  S16  1  0.499994  0.000010  0.000002  1
