# generated using pymatgen
data_Y3Ho13MgTl3Pd4
_symmetry_space_group_name_H-M   'P 1'
_cell_length_a   9.74718602
_cell_length_b   9.72555810
_cell_length_c   9.72205276
_cell_angle_alpha   59.83196782
_cell_angle_beta   59.86670163
_cell_angle_gamma   59.90729857
_symmetry_Int_Tables_number   1
_chemical_formula_structural   Y3Ho13MgTl3Pd4
_chemical_formula_sum   'Y3 Ho13 Mg1 Tl3 Pd4'
_cell_volume   649.74074747
_cell_formula_units_Z   1
loop_
 _symmetry_equiv_pos_site_id
 _symmetry_equiv_pos_as_xyz
  1  'x, y, z'
loop_
 _atom_site_type_symbol
 _atom_site_label
 _atom_site_symmetry_multiplicity
 _atom_site_fract_x
 _atom_site_fract_y
 _atom_site_fract_z
 _atom_site_occupancy
  Y  Y0  1  0.938103  0.562642  0.934798  1
  Y  Y1  1  0.564835  0.565339  0.934505  1
  Y  Y2  1  0.937166  0.934051  0.563372  1
  Ho  Ho3  1  0.349742  0.350341  0.350299  1
  Ho  Ho4  1  0.352241  0.351286  0.944772  1
  Ho  Ho5  1  0.352555  0.944520  0.351605  1
  Ho  Ho6  1  0.937871  0.353945  0.353836  1
  Ho  Ho7  1  0.808959  0.189569  0.190215  1
  Ho  Ho8  1  0.187474  0.811902  0.811824  1
  Ho  Ho9  1  0.186659  0.813464  0.188525  1
  Ho  Ho10  1  0.810554  0.190480  0.810206  1
  Ho  Ho11  1  0.186775  0.188093  0.813411  1
  Ho  Ho12  1  0.810835  0.810202  0.190855  1
  Ho  Ho13  1  0.938226  0.564827  0.564231  1
  Ho  Ho14  1  0.562259  0.938255  0.938182  1
  Ho  Ho15  1  0.564401  0.935595  0.564069  1
  Mg  Mg16  1  0.269587  0.576394  0.576409  1
  Tl  Tl17  1  0.583912  0.587732  0.586979  1
  Tl  Tl18  1  0.581637  0.586662  0.244461  1
  Tl  Tl19  1  0.581408  0.244144  0.586588  1
  Pd  Pd20  1  0.143189  0.145135  0.144963  1
  Pd  Pd21  1  0.141531  0.144766  0.567798  1
  Pd  Pd22  1  0.141572  0.567958  0.144883  1
  Pd  Pd23  1  0.568505  0.142700  0.143217  1
