# generated using pymatgen
data_Mg2TaGaPt12
_symmetry_space_group_name_H-M   'P 1'
_cell_length_a   5.61437645
_cell_length_b   5.61437767
_cell_length_c   7.92390500
_cell_angle_alpha   90.00000000
_cell_angle_beta   90.00000000
_cell_angle_gamma   90.02226778
_symmetry_Int_Tables_number   1
_chemical_formula_structural   Mg2TaGaPt12
_chemical_formula_sum   'Mg2 Ta1 Ga1 Pt12'
_cell_volume   249.77121132
_cell_formula_units_Z   1
loop_
 _symmetry_equiv_pos_site_id
 _symmetry_equiv_pos_as_xyz
  1  'x, y, z'
loop_
 _atom_site_type_symbol
 _atom_site_label
 _atom_site_symmetry_multiplicity
 _atom_site_fract_x
 _atom_site_fract_y
 _atom_site_fract_z
 _atom_site_occupancy
  Mg  Mg0  1  0.500000  0.000000  0.249859  1
  Mg  Mg1  1  0.500000  0.000000  0.750101  1
  Ta  Ta2  1  0.000000  0.500000  0.749856  1
  Ga  Ga3  1  0.000000  0.500000  0.249907  1
  Pt  Pt4  1  0.247175  0.252825  0.999101  1
  Pt  Pt5  1  0.752879  0.252879  0.500849  1
  Pt  Pt6  1  0.752729  0.252729  0.998804  1
  Pt  Pt7  1  0.752825  0.747175  0.999101  1
  Pt  Pt8  1  0.500000  0.500000  0.750015  1
  Pt  Pt9  1  0.247557  0.252443  0.501295  1
  Pt  Pt10  1  0.752443  0.747557  0.501295  1
  Pt  Pt11  1  0.247121  0.747121  0.500849  1
  Pt  Pt12  1  0.500000  0.500000  0.250074  1
  Pt  Pt13  1  0.000000  0.000000  0.750015  1
  Pt  Pt14  1  0.000000  0.000000  0.250074  1
  Pt  Pt15  1  0.247271  0.747271  0.998804  1
