# generated using pymatgen
data_Sr2Ir3O8
_symmetry_space_group_name_H-M   'P 1'
_cell_length_a   5.45721015
_cell_length_b   6.45165512
_cell_length_c   6.55870117
_cell_angle_alpha   119.46203516
_cell_angle_beta   108.16240481
_cell_angle_gamma   90.01143530
_symmetry_Int_Tables_number   1
_chemical_formula_structural   Sr2Ir3O8
_chemical_formula_sum   'Sr2 Ir3 O8'
_cell_volume   187.72187469
_cell_formula_units_Z   1
loop_
 _symmetry_equiv_pos_site_id
 _symmetry_equiv_pos_as_xyz
  1  'x, y, z'
loop_
 _atom_site_type_symbol
 _atom_site_label
 _atom_site_symmetry_multiplicity
 _atom_site_fract_x
 _atom_site_fract_y
 _atom_site_fract_z
 _atom_site_occupancy
  Sr  Sr0  1  0.666638  0.718628  0.437182  1
  Sr  Sr1  1  0.333363  0.281296  0.562819  1
  Ir  Ir2  1  0.999941  0.745829  0.000019  1
  Ir  Ir3  1  0.000055  0.254152  0.999983  1
  Ir  Ir4  1  0.500000  0.000014  0.999998  1
  O  O5  1  0.909179  0.091668  0.183308  1
  O  O6  1  0.957420  0.598542  0.197061  1
  O  O7  1  0.386508  0.314583  0.194104  1
  O  O8  1  0.386364  0.879618  0.194143  1
  O  O9  1  0.613576  0.685462  0.805931  1
  O  O10  1  0.613555  0.120389  0.805818  1
  O  O11  1  0.042582  0.401524  0.802940  1
  O  O12  1  0.090824  0.908295  0.816694  1
