# generated using pymatgen
data_Sc2Mn10Fe2P7
_symmetry_space_group_name_H-M   'P 1'
_cell_length_a   9.19646591
_cell_length_b   9.21733455
_cell_length_c   3.50653600
_cell_angle_alpha   90.00000000
_cell_angle_beta   90.00000000
_cell_angle_gamma   120.03720452
_symmetry_Int_Tables_number   1
_chemical_formula_structural   Sc2Mn10Fe2P7
_chemical_formula_sum   'Sc2 Mn10 Fe2 P7'
_cell_volume   257.31927085
_cell_formula_units_Z   1
loop_
 _symmetry_equiv_pos_site_id
 _symmetry_equiv_pos_as_xyz
  1  'x, y, z'
loop_
 _atom_site_type_symbol
 _atom_site_label
 _atom_site_symmetry_multiplicity
 _atom_site_fract_x
 _atom_site_fract_y
 _atom_site_fract_z
 _atom_site_occupancy
  Sc  Sc0  1  0.667231  0.332588  0.000000  1
  Sc  Sc1  1  0.000414  0.000149  0.500000  1
  Mn  Mn2  1  0.762483  0.045569  0.000000  1
  Mn  Mn3  1  0.956053  0.718289  0.000000  1
  Mn  Mn4  1  0.282822  0.238537  0.000000  1
  Mn  Mn5  1  0.492163  0.548246  0.000000  1
  Mn  Mn6  1  0.724217  0.620249  0.500000  1
  Mn  Mn7  1  0.377692  0.103658  0.500000  1
  Mn  Mn8  1  0.894404  0.273513  0.500000  1
  Mn  Mn9  1  0.563378  0.795415  0.500000  1
  Mn  Mn10  1  0.204274  0.768431  0.500000  1
  Mn  Mn11  1  0.232232  0.437050  0.500000  1
  Fe  Fe12  1  0.450737  0.942622  0.000000  1
  Fe  Fe13  1  0.057530  0.508511  0.000000  1
  P  P14  1  0.749273  0.793049  0.000000  1
  P  P15  1  0.208619  0.956356  0.000000  1
  P  P16  1  0.044290  0.253212  0.000000  1
  P  P17  1  0.464713  0.382049  0.500000  1
  P  P18  1  0.613104  0.078354  0.500000  1
  P  P19  1  0.921836  0.536150  0.500000  1
  P  P20  1  0.332533  0.668003  0.000000  1
