# generated using pymatgen
data_HoNpPd6
_symmetry_space_group_name_H-M   'P 1'
_cell_length_a   5.82597200
_cell_length_b   5.82597216
_cell_length_c   9.57707878
_cell_angle_alpha   89.96077563
_cell_angle_beta   90.03922202
_cell_angle_gamma   120.10365767
_symmetry_Int_Tables_number   1
_chemical_formula_structural   HoNpPd6
_chemical_formula_sum   'Ho2 Np2 Pd12'
_cell_volume   281.21972226
_cell_formula_units_Z   2
loop_
 _symmetry_equiv_pos_site_id
 _symmetry_equiv_pos_as_xyz
  1  'x, y, z'
loop_
 _atom_site_type_symbol
 _atom_site_label
 _atom_site_symmetry_multiplicity
 _atom_site_fract_x
 _atom_site_fract_y
 _atom_site_fract_z
 _atom_site_occupancy
  Ho  Ho0  1  0.999988  0.000012  0.502463  1
  Ho  Ho1  1  0.666423  0.333577  0.746370  1
  Np  Np2  1  0.999730  0.000270  0.995574  1
  Np  Np3  1  0.333333  0.666667  0.255618  1
  Pd  Pd4  1  0.499397  0.998763  0.499782  1
  Pd  Pd5  1  0.499418  0.500582  0.499705  1
  Pd  Pd6  1  0.001237  0.500603  0.499782  1
  Pd  Pd7  1  0.499925  0.999802  0.000050  1
  Pd  Pd8  1  0.499983  0.500017  0.000185  1
  Pd  Pd9  1  0.000198  0.500075  0.000050  1
  Pd  Pd10  1  0.171478  0.828522  0.754559  1
  Pd  Pd11  1  0.657353  0.828974  0.755067  1
  Pd  Pd12  1  0.171026  0.342647  0.755067  1
  Pd  Pd13  1  0.830406  0.169594  0.245581  1
  Pd  Pd14  1  0.339503  0.169399  0.245073  1
  Pd  Pd15  1  0.830601  0.660497  0.245073  1
