# generated using pymatgen
data_Ca(Al3Ni)3
_symmetry_space_group_name_H-M   'P 1'
_cell_length_a   10.14897218
_cell_length_b   10.14897183
_cell_length_c   10.14897193
_cell_angle_alpha   42.03449274
_cell_angle_beta   42.03449113
_cell_angle_gamma   42.03449952
_symmetry_Int_Tables_number   1
_chemical_formula_structural   Ca(Al3Ni)3
_chemical_formula_sum   'Ca2 Al18 Ni6'
_cell_volume   423.97550705
_cell_formula_units_Z   2
loop_
 _symmetry_equiv_pos_site_id
 _symmetry_equiv_pos_as_xyz
  1  'x, y, z'
loop_
 _atom_site_type_symbol
 _atom_site_label
 _atom_site_symmetry_multiplicity
 _atom_site_fract_x
 _atom_site_fract_y
 _atom_site_fract_z
 _atom_site_occupancy
  Ca  Ca0  1  0.166731  0.166731  0.166731  1
  Ca  Ca1  1  0.833269  0.833269  0.833269  1
  Al  Al2  1  0.103122  0.431461  0.760299  1
  Al  Al3  1  0.431461  0.760299  0.103122  1
  Al  Al4  1  0.568539  0.896878  0.239701  1
  Al  Al5  1  0.948210  0.948210  0.948210  1
  Al  Al6  1  0.051790  0.051790  0.051790  1
  Al  Al7  1  0.291571  0.708429  0.500000  1
  Al  Al8  1  0.896878  0.239701  0.568539  1
  Al  Al9  1  0.386164  0.386164  0.386164  1
  Al  Al10  1  0.500000  0.291571  0.708429  1
  Al  Al11  1  0.239701  0.568539  0.896878  1
  Al  Al12  1  0.718285  0.718285  0.718285  1
  Al  Al13  1  0.613836  0.613836  0.613836  1
  Al  Al14  1  0.333587  0.000000  0.666413  1
  Al  Al15  1  0.708429  0.500000  0.291571  1
  Al  Al16  1  0.666413  0.333587  0.000000  1
  Al  Al17  1  0.281715  0.281715  0.281715  1
  Al  Al18  1  0.000000  0.666413  0.333587  1
  Al  Al19  1  0.760299  0.103122  0.431461  1
  Ni  Ni20  1  0.417577  0.078383  0.756087  1
  Ni  Ni21  1  0.582423  0.243913  0.921617  1
  Ni  Ni22  1  0.078383  0.756087  0.417577  1
  Ni  Ni23  1  0.756087  0.417577  0.078383  1
  Ni  Ni24  1  0.921617  0.582423  0.243913  1
  Ni  Ni25  1  0.243913  0.921617  0.582423  1
