# generated using pymatgen
data_Er7Zn(Sn11Ru3)2
_symmetry_space_group_name_H-M   'P 1'
_cell_length_a   9.80864200
_cell_length_b   9.80864237
_cell_length_c   10.02945800
_cell_angle_alpha   90.00000000
_cell_angle_beta   90.00000000
_cell_angle_gamma   120.00000549
_symmetry_Int_Tables_number   1
_chemical_formula_structural   Er7Zn(Sn11Ru3)2
_chemical_formula_sum   'Er7 Zn1 Sn22 Ru6'
_cell_volume   835.65276719
_cell_formula_units_Z   1
loop_
 _symmetry_equiv_pos_site_id
 _symmetry_equiv_pos_as_xyz
  1  'x, y, z'
loop_
 _atom_site_type_symbol
 _atom_site_label
 _atom_site_symmetry_multiplicity
 _atom_site_fract_x
 _atom_site_fract_y
 _atom_site_fract_z
 _atom_site_occupancy
  Er  Er0  1  0.485213  0.514787  0.305313  1
  Er  Er1  1  0.514787  0.485213  0.694687  1
  Er  Er2  1  0.485213  0.970427  0.305313  1
  Er  Er3  1  0.514787  0.029573  0.694687  1
  Er  Er4  1  0.029573  0.514787  0.305313  1
  Er  Er5  1  0.970427  0.485213  0.694687  1
  Er  Er6  1  0.000000  0.000000  0.000000  1
  Zn  Zn7  1  0.000000  0.000000  0.500000  1
  Sn  Sn8  1  0.120172  0.879828  0.273917  1
  Sn  Sn9  1  0.879828  0.120172  0.726083  1
  Sn  Sn10  1  0.120172  0.240344  0.273917  1
  Sn  Sn11  1  0.879828  0.759656  0.726083  1
  Sn  Sn12  1  0.759656  0.879828  0.273917  1
  Sn  Sn13  1  0.240344  0.120172  0.726083  1
  Sn  Sn14  1  0.779792  0.220208  0.464414  1
  Sn  Sn15  1  0.220208  0.779792  0.535586  1
  Sn  Sn16  1  0.779792  0.559584  0.464414  1
  Sn  Sn17  1  0.220208  0.440416  0.535586  1
  Sn  Sn18  1  0.440416  0.220208  0.464414  1
  Sn  Sn19  1  0.559584  0.779792  0.535586  1
  Sn  Sn20  1  0.348924  0.000000  0.000000  1
  Sn  Sn21  1  0.651076  0.000000  0.000000  1
  Sn  Sn22  1  0.000000  0.348924  0.000000  1
  Sn  Sn23  1  0.000000  0.651076  0.000000  1
  Sn  Sn24  1  0.651076  0.651076  0.000000  1
  Sn  Sn25  1  0.348924  0.348924  0.000000  1
  Sn  Sn26  1  0.333333  0.666667  0.131967  1
  Sn  Sn27  1  0.666667  0.333333  0.868033  1
  Sn  Sn28  1  0.333333  0.666667  0.824542  1
  Sn  Sn29  1  0.666667  0.333333  0.175458  1
  Ru  Ru30  1  0.830706  0.169294  0.204725  1
  Ru  Ru31  1  0.169294  0.830706  0.795275  1
  Ru  Ru32  1  0.830706  0.661415  0.204725  1
  Ru  Ru33  1  0.169294  0.338585  0.795275  1
  Ru  Ru34  1  0.338585  0.169294  0.204725  1
  Ru  Ru35  1  0.661415  0.830706  0.795275  1
