# generated using pymatgen
data_Dy5In4CoRh
_symmetry_space_group_name_H-M   'P 1'
_cell_length_a   3.60918600
_cell_length_b   8.02177100
_cell_length_c   18.20044200
_cell_angle_alpha   90.00000000
_cell_angle_beta   90.00000000
_cell_angle_gamma   90.00000000
_symmetry_Int_Tables_number   1
_chemical_formula_structural   Dy5In4CoRh
_chemical_formula_sum   'Dy10 In8 Co2 Rh2'
_cell_volume   526.94035412
_cell_formula_units_Z   2
loop_
 _symmetry_equiv_pos_site_id
 _symmetry_equiv_pos_as_xyz
  1  'x, y, z'
loop_
 _atom_site_type_symbol
 _atom_site_label
 _atom_site_symmetry_multiplicity
 _atom_site_fract_x
 _atom_site_fract_y
 _atom_site_fract_z
 _atom_site_occupancy
  Dy  Dy0  1  0.500000  0.383509  0.589083  1
  Dy  Dy1  1  0.500000  0.884136  0.908549  1
  Dy  Dy2  1  0.500000  0.116491  0.089083  1
  Dy  Dy3  1  0.500000  0.759323  0.723134  1
  Dy  Dy4  1  0.500000  0.246829  0.779244  1
  Dy  Dy5  1  0.500000  0.499420  0.999931  1
  Dy  Dy6  1  0.500000  0.740677  0.223134  1
  Dy  Dy7  1  0.500000  0.253171  0.279244  1
  Dy  Dy8  1  0.500000  0.000580  0.499931  1
  Dy  Dy9  1  0.500000  0.615864  0.408549  1
  In  In10  1  0.000000  0.792883  0.068190  1
  In  In11  1  0.000000  0.928194  0.349378  1
  In  In12  1  0.000000  0.069187  0.651910  1
  In  In13  1  0.000000  0.571806  0.849378  1
  In  In14  1  0.000000  0.707117  0.568190  1
  In  In15  1  0.000000  0.204926  0.930184  1
  In  In16  1  0.000000  0.295074  0.430184  1
  In  In17  1  0.000000  0.430813  0.151910  1
  Co  Co18  1  0.000000  0.980080  0.805119  1
  Co  Co19  1  0.000000  0.519920  0.305119  1
  Rh  Rh20  1  0.000000  0.478546  0.695278  1
  Rh  Rh21  1  0.000000  0.021454  0.195278  1
