# generated using pymatgen
data_Mn3Re6Si6Ni
_symmetry_space_group_name_H-M   'P 1'
_cell_length_a   6.94663000
_cell_length_b   6.94662996
_cell_length_c   4.84142100
_cell_angle_alpha   90.00000000
_cell_angle_beta   90.00000000
_cell_angle_gamma   120.00000021
_symmetry_Int_Tables_number   1
_chemical_formula_structural   Mn3Re6Si6Ni
_chemical_formula_sum   'Mn3 Re6 Si6 Ni1'
_cell_volume   202.32605461
_cell_formula_units_Z   1
loop_
 _symmetry_equiv_pos_site_id
 _symmetry_equiv_pos_as_xyz
  1  'x, y, z'
loop_
 _atom_site_type_symbol
 _atom_site_label
 _atom_site_symmetry_multiplicity
 _atom_site_fract_x
 _atom_site_fract_y
 _atom_site_fract_z
 _atom_site_occupancy
  Mn  Mn0  1  0.666667  0.333333  0.000000  1
  Mn  Mn1  1  0.666667  0.333333  0.500000  1
  Mn  Mn2  1  0.333333  0.666667  0.000000  1
  Re  Re3  1  0.998577  0.761106  0.747057  1
  Re  Re4  1  0.998577  0.237471  0.252943  1
  Re  Re5  1  0.762529  0.761106  0.252943  1
  Re  Re6  1  0.762529  0.001423  0.747057  1
  Re  Re7  1  0.238894  0.237471  0.747057  1
  Re  Re8  1  0.238894  0.001423  0.252943  1
  Si  Si9  1  0.404724  0.996708  0.753686  1
  Si  Si10  1  0.404724  0.408016  0.246314  1
  Si  Si11  1  0.003292  0.595276  0.246314  1
  Si  Si12  1  0.003292  0.408016  0.753686  1
  Si  Si13  1  0.591984  0.595276  0.753686  1
  Si  Si14  1  0.591984  0.996708  0.246314  1
  Ni  Ni15  1  0.333333  0.666667  0.500000  1
