# generated using pymatgen
data_Dy3Er9Rh4
_symmetry_space_group_name_H-M   'P 1'
_cell_length_a   6.28978709
_cell_length_b   7.14318411
_cell_length_c   9.33327500
_cell_angle_alpha   90.00000000
_cell_angle_beta   90.00000000
_cell_angle_gamma   89.98009047
_symmetry_Int_Tables_number   1
_chemical_formula_structural   Dy3Er9Rh4
_chemical_formula_sum   'Dy3 Er9 Rh4'
_cell_volume   419.33568785
_cell_formula_units_Z   1
loop_
 _symmetry_equiv_pos_site_id
 _symmetry_equiv_pos_as_xyz
  1  'x, y, z'
loop_
 _atom_site_type_symbol
 _atom_site_label
 _atom_site_symmetry_multiplicity
 _atom_site_fract_x
 _atom_site_fract_y
 _atom_site_fract_z
 _atom_site_occupancy
  Dy  Dy0  1  0.867103  0.966139  0.750000  1
  Dy  Dy1  1  0.366792  0.534252  0.250000  1
  Dy  Dy2  1  0.632682  0.465827  0.750000  1
  Er  Er3  1  0.672626  0.177895  0.063312  1
  Er  Er4  1  0.171898  0.321721  0.936971  1
  Er  Er5  1  0.828031  0.678098  0.436790  1
  Er  Er6  1  0.327542  0.822153  0.562869  1
  Er  Er7  1  0.327542  0.822153  0.937131  1
  Er  Er8  1  0.828031  0.678098  0.063210  1
  Er  Er9  1  0.171898  0.321721  0.563029  1
  Er  Er10  1  0.672626  0.177895  0.436688  1
  Er  Er11  1  0.133348  0.034395  0.250000  1
  Rh  Rh12  1  0.054066  0.615771  0.750000  1
  Rh  Rh13  1  0.553178  0.884705  0.250000  1
  Rh  Rh14  1  0.445926  0.115746  0.750000  1
  Rh  Rh15  1  0.946712  0.383429  0.250000  1
