# generated using pymatgen
data_Tb3Dy(Ga3Os)2
_symmetry_space_group_name_H-M   'P 1'
_cell_length_a   5.47553300
_cell_length_b   5.47553216
_cell_length_c   8.73388400
_cell_angle_alpha   90.00000000
_cell_angle_beta   90.00000000
_cell_angle_gamma   119.99999901
_symmetry_Int_Tables_number   1
_chemical_formula_structural   Tb3Dy(Ga3Os)2
_chemical_formula_sum   'Tb3 Dy1 Ga6 Os2'
_cell_volume   226.77271029
_cell_formula_units_Z   1
loop_
 _symmetry_equiv_pos_site_id
 _symmetry_equiv_pos_as_xyz
  1  'x, y, z'
loop_
 _atom_site_type_symbol
 _atom_site_label
 _atom_site_symmetry_multiplicity
 _atom_site_fract_x
 _atom_site_fract_y
 _atom_site_fract_z
 _atom_site_occupancy
  Tb  Tb0  1  0.666667  0.333333  0.051737  1
  Tb  Tb1  1  0.666667  0.333333  0.448263  1
  Tb  Tb2  1  0.333334  0.666667  0.551732  1
  Dy  Dy3  1  0.333334  0.666667  0.948280  1
  Ga  Ga4  1  0.164880  0.329760  0.249931  1
  Ga  Ga5  1  0.164880  0.835120  0.249931  1
  Ga  Ga6  1  0.670240  0.835120  0.249931  1
  Ga  Ga7  1  0.329690  0.164845  0.750076  1
  Ga  Ga8  1  0.835156  0.164845  0.750076  1
  Ga  Ga9  1  0.835156  0.670310  0.750076  1
  Os  Os10  1  0.000000  0.000000  0.999894  1
  Os  Os11  1  0.000000  0.000000  0.500071  1
