# generated using pymatgen
data_Li13SnHg4
_symmetry_space_group_name_H-M   'P 1'
_cell_length_a   4.61169900
_cell_length_b   4.61169883
_cell_length_c   17.32487200
_cell_angle_alpha   90.00000000
_cell_angle_beta   90.00000000
_cell_angle_gamma   120.00000841
_symmetry_Int_Tables_number   1
_chemical_formula_structural   Li13SnHg4
_chemical_formula_sum   'Li13 Sn1 Hg4'
_cell_volume   319.09685258
_cell_formula_units_Z   1
loop_
 _symmetry_equiv_pos_site_id
 _symmetry_equiv_pos_as_xyz
  1  'x, y, z'
loop_
 _atom_site_type_symbol
 _atom_site_label
 _atom_site_symmetry_multiplicity
 _atom_site_fract_x
 _atom_site_fract_y
 _atom_site_fract_z
 _atom_site_occupancy
  Li  Li0  1  0.000000  0.000000  0.500000  1
  Li  Li1  1  0.000000  0.000000  0.667014  1
  Li  Li2  1  0.000000  0.000000  0.332986  1
  Li  Li3  1  0.000000  0.000000  0.837736  1
  Li  Li4  1  0.000000  0.000000  0.162264  1
  Li  Li5  1  0.333333  0.666667  0.944069  1
  Li  Li6  1  0.666667  0.333333  0.055931  1
  Li  Li7  1  0.333333  0.666667  0.445032  1
  Li  Li8  1  0.666667  0.333333  0.554968  1
  Li  Li9  1  0.333333  0.666667  0.277246  1
  Li  Li10  1  0.666667  0.333333  0.722754  1
  Li  Li11  1  0.333333  0.666667  0.098157  1
  Li  Li12  1  0.666667  0.333333  0.901843  1
  Sn  Sn13  1  0.000000  0.000000  0.000000  1
  Hg  Hg14  1  0.333333  0.666667  0.783420  1
  Hg  Hg15  1  0.666667  0.333333  0.216580  1
  Hg  Hg16  1  0.333333  0.666667  0.605971  1
  Hg  Hg17  1  0.666667  0.333333  0.394029  1
