# generated using pymatgen
data_TbNiAsH
_symmetry_space_group_name_H-M   'P 1'
_cell_length_a   4.02059300
_cell_length_b   8.20454000
_cell_length_c   7.01920700
_cell_angle_alpha   90.00000000
_cell_angle_beta   90.00000000
_cell_angle_gamma   90.00000000
_symmetry_Int_Tables_number   1
_chemical_formula_structural   TbNiAsH
_chemical_formula_sum   'Tb4 Ni4 As4 H4'
_cell_volume   231.54339618
_cell_formula_units_Z   4
loop_
 _symmetry_equiv_pos_site_id
 _symmetry_equiv_pos_as_xyz
  1  'x, y, z'
loop_
 _atom_site_type_symbol
 _atom_site_label
 _atom_site_symmetry_multiplicity
 _atom_site_fract_x
 _atom_site_fract_y
 _atom_site_fract_z
 _atom_site_occupancy
  Tb  Tb0  1  0.750000  0.506512  0.756393  1
  Tb  Tb1  1  0.250000  0.493488  0.243607  1
  Tb  Tb2  1  0.250000  0.993488  0.256393  1
  Tb  Tb3  1  0.750000  0.006512  0.743607  1
  Ni  Ni4  1  0.750000  0.234693  0.412348  1
  Ni  Ni5  1  0.250000  0.765307  0.587652  1
  Ni  Ni6  1  0.250000  0.265307  0.912348  1
  Ni  Ni7  1  0.750000  0.734693  0.087652  1
  As  As8  1  0.750000  0.234103  0.078222  1
  As  As9  1  0.250000  0.765897  0.921778  1
  As  As10  1  0.250000  0.265897  0.578222  1
  As  As11  1  0.750000  0.734103  0.421778  1
  H  H12  1  0.250000  0.958389  0.582781  1
  H  H13  1  0.750000  0.041611  0.417219  1
  H  H14  1  0.750000  0.541611  0.082781  1
  H  H15  1  0.250000  0.458389  0.917219  1
