# generated using pymatgen
data_Cs2Nd3Sm3(CBr6)2
_symmetry_space_group_name_H-M   'P 1'
_cell_length_a   9.03225049
_cell_length_b   9.07180513
_cell_length_c   9.68938015
_cell_angle_alpha   70.39609311
_cell_angle_beta   85.26586624
_cell_angle_gamma   89.25945149
_symmetry_Int_Tables_number   1
_chemical_formula_structural   Cs2Nd3Sm3(CBr6)2
_chemical_formula_sum   'Cs2 Nd3 Sm3 C2 Br12'
_cell_volume   745.27169041
_cell_formula_units_Z   1
loop_
 _symmetry_equiv_pos_site_id
 _symmetry_equiv_pos_as_xyz
  1  'x, y, z'
loop_
 _atom_site_type_symbol
 _atom_site_label
 _atom_site_symmetry_multiplicity
 _atom_site_fract_x
 _atom_site_fract_y
 _atom_site_fract_z
 _atom_site_occupancy
  Cs  Cs0  1  0.469830  0.358946  0.332016  1
  Cs  Cs1  1  0.530585  0.641389  0.668152  1
  Nd  Nd2  1  0.914378  0.737317  0.004795  1
  Nd  Nd3  1  0.084638  0.263075  0.995004  1
  Nd  Nd4  1  0.736948  0.086173  0.001118  1
  Sm  Sm5  1  0.260240  0.913827  0.998975  1
  Sm  Sm6  1  0.975851  0.883555  0.324919  1
  Sm  Sm7  1  0.025224  0.116460  0.674909  1
  C  C8  1  0.006909  0.026660  0.922733  1
  C  C9  1  0.995366  0.972782  0.077426  1
  Br  Br10  1  0.079862  0.193118  0.328742  1
  Br  Br11  1  0.920963  0.807030  0.671293  1
  Br  Br12  1  0.210623  0.593375  0.000635  1
  Br  Br13  1  0.789636  0.409524  0.999321  1
  Br  Br14  1  0.404500  0.200580  0.002460  1
  Br  Br15  1  0.592093  0.795527  0.997410  1
  Br  Br16  1  0.669652  0.997743  0.328918  1
  Br  Br17  1  0.330945  0.000780  0.675594  1
  Br  Br18  1  0.282299  0.773142  0.321006  1
  Br  Br19  1  0.719085  0.228379  0.674843  1
  Br  Br20  1  0.849709  0.588482  0.329661  1
  Br  Br21  1  0.150660  0.412137  0.670070  1
