# generated using pymatgen
data_Np2Te3Au
_symmetry_space_group_name_H-M   'P 1'
_cell_length_a   4.34823200
_cell_length_b   4.34823200
_cell_length_c   8.75353300
_cell_angle_alpha   90.00000000
_cell_angle_beta   90.00000000
_cell_angle_gamma   90.00000000
_symmetry_Int_Tables_number   1
_chemical_formula_structural   Np2Te3Au
_chemical_formula_sum   'Np2 Te3 Au1'
_cell_volume   165.50411221
_cell_formula_units_Z   1
loop_
 _symmetry_equiv_pos_site_id
 _symmetry_equiv_pos_as_xyz
  1  'x, y, z'
loop_
 _atom_site_type_symbol
 _atom_site_label
 _atom_site_symmetry_multiplicity
 _atom_site_fract_x
 _atom_site_fract_y
 _atom_site_fract_z
 _atom_site_occupancy
  Np  Np0  1  0.000000  0.500000  0.733889  1
  Np  Np1  1  0.500000  0.000000  0.266111  1
  Te  Te2  1  0.000000  0.500000  0.359814  1
  Te  Te3  1  0.500000  0.000000  0.640186  1
  Te  Te4  1  0.500000  0.500000  0.000000  1
  Au  Au5  1  0.000000  0.000000  0.000000  1
