# generated using pymatgen
data_Li2Pr2NdAl7
_symmetry_space_group_name_H-M   'P 1'
_cell_length_a   9.45240069
_cell_length_b   9.45240051
_cell_length_c   9.45240065
_cell_angle_alpha   34.93224175
_cell_angle_beta   34.93224428
_cell_angle_gamma   34.93224108
_symmetry_Int_Tables_number   1
_chemical_formula_structural   Li2Pr2NdAl7
_chemical_formula_sum   'Li2 Pr2 Nd1 Al7'
_cell_volume   247.21984501
_cell_formula_units_Z   1
loop_
 _symmetry_equiv_pos_site_id
 _symmetry_equiv_pos_as_xyz
  1  'x, y, z'
loop_
 _atom_site_type_symbol
 _atom_site_label
 _atom_site_symmetry_multiplicity
 _atom_site_fract_x
 _atom_site_fract_y
 _atom_site_fract_z
 _atom_site_occupancy
  Li  Li0  1  0.335319  0.335319  0.335319  1
  Li  Li1  1  0.664688  0.664688  0.664688  1
  Pr  Pr2  1  0.139848  0.139848  0.139848  1
  Pr  Pr3  1  0.000001  0.000001  0.000001  1
  Nd  Nd4  1  0.860155  0.860155  0.860155  1
  Al  Al5  1  0.584754  0.584754  0.075918  1
  Al  Al6  1  0.415279  0.923983  0.415279  1
  Al  Al7  1  0.584754  0.075918  0.584754  1
  Al  Al8  1  0.075918  0.584754  0.584754  1
  Al  Al9  1  0.415279  0.415279  0.923983  1
  Al  Al10  1  0.500023  0.500023  0.500023  1
  Al  Al11  1  0.923983  0.415279  0.415279  1
