# generated using pymatgen
data_La16Cd4Co2CuOs
_symmetry_space_group_name_H-M   'P 1'
_cell_length_a   10.10349974
_cell_length_b   10.02964637
_cell_length_c   9.99207768
_cell_angle_alpha   59.87554595
_cell_angle_beta   60.16330668
_cell_angle_gamma   60.24150569
_symmetry_Int_Tables_number   1
_chemical_formula_structural   La16Cd4Co2CuOs
_chemical_formula_sum   'La16 Cd4 Co2 Cu1 Os1'
_cell_volume   717.47562028
_cell_formula_units_Z   1
loop_
 _symmetry_equiv_pos_site_id
 _symmetry_equiv_pos_as_xyz
  1  'x, y, z'
loop_
 _atom_site_type_symbol
 _atom_site_label
 _atom_site_symmetry_multiplicity
 _atom_site_fract_x
 _atom_site_fract_y
 _atom_site_fract_z
 _atom_site_occupancy
  La  La0  1  0.936650  0.943631  0.560874  1
  La  La1  1  0.560956  0.937337  0.564371  1
  La  La2  1  0.560023  0.936622  0.940456  1
  La  La3  1  0.684505  0.692367  0.311512  1
  La  La4  1  0.159568  0.152958  0.534515  1
  La  La5  1  0.305990  0.706128  0.678387  1
  La  La6  1  0.153398  0.146347  0.159278  1
  La  La7  1  0.542451  0.147589  0.162371  1
  La  La8  1  0.310103  0.688668  0.312562  1
  La  La9  1  0.305990  0.309496  0.678387  1
  La  La10  1  0.700033  0.308508  0.682951  1
  La  La11  1  0.936650  0.558846  0.560874  1
  La  La12  1  0.560023  0.562900  0.940456  1
  La  La13  1  0.153398  0.540976  0.159278  1
  La  La14  1  0.684505  0.311615  0.311512  1
  La  La15  1  0.935418  0.558964  0.946653  1
  Cd  Cd16  1  0.237426  0.920982  0.920609  1
  Cd  Cd17  1  0.920577  0.921714  0.921211  1
  Cd  Cd18  1  0.920018  0.921149  0.237681  1
  Cd  Cd19  1  0.920577  0.236496  0.921211  1
  Co  Co20  1  0.363911  0.919481  0.357764  1
  Co  Co21  1  0.363911  0.358843  0.357764  1
  Cu  Cu22  1  0.361037  0.358444  0.922075  1
  Os  Os23  1  0.922875  0.359939  0.357248  1
