# generated using pymatgen
data_Sc6Sn6Ru11Au
_symmetry_space_group_name_H-M   'P 1'
_cell_length_a   4.56588400
_cell_length_b   6.45490200
_cell_length_c   13.69528000
_cell_angle_alpha   90.00000000
_cell_angle_beta   89.99917172
_cell_angle_gamma   90.00000000
_symmetry_Int_Tables_number   1
_chemical_formula_structural   Sc6Sn6Ru11Au
_chemical_formula_sum   'Sc6 Sn6 Ru11 Au1'
_cell_volume   403.63186312
_cell_formula_units_Z   1
loop_
 _symmetry_equiv_pos_site_id
 _symmetry_equiv_pos_as_xyz
  1  'x, y, z'
loop_
 _atom_site_type_symbol
 _atom_site_label
 _atom_site_symmetry_multiplicity
 _atom_site_fract_x
 _atom_site_fract_y
 _atom_site_fract_z
 _atom_site_occupancy
  Sc  Sc0  1  0.000000  0.512188  0.000000  1
  Sc  Sc1  1  0.499939  0.994891  0.171663  1
  Sc  Sc2  1  0.999952  0.499045  0.334488  1
  Sc  Sc3  1  0.500000  0.003232  0.500000  1
  Sc  Sc4  1  0.000048  0.499045  0.665512  1
  Sc  Sc5  1  0.500061  0.994891  0.828337  1
  Sn  Sn6  1  0.000000  0.986165  0.000000  1
  Sn  Sn7  1  0.499948  0.507496  0.172294  1
  Sn  Sn8  1  0.999938  0.999348  0.333776  1
  Sn  Sn9  1  0.500000  0.500068  0.500000  1
  Sn  Sn10  1  0.000062  0.999348  0.666224  1
  Sn  Sn11  1  0.500053  0.507496  0.827706  1
  Ru  Ru12  1  0.500000  0.743946  0.000000  1
  Ru  Ru13  1  0.999938  0.249154  0.164483  1
  Ru  Ru14  1  0.999939  0.750515  0.165606  1
  Ru  Ru15  1  0.499937  0.249935  0.332340  1
  Ru  Ru16  1  0.499947  0.751346  0.334459  1
  Ru  Ru17  1  0.000000  0.248911  0.500000  1
  Ru  Ru18  1  0.000000  0.750457  0.500000  1
  Ru  Ru19  1  0.500064  0.249935  0.667660  1
  Ru  Ru20  1  0.500054  0.751346  0.665541  1
  Ru  Ru21  1  0.000062  0.249154  0.835517  1
  Ru  Ru22  1  0.000061  0.750515  0.834394  1
  Au  Au23  1  0.500000  0.251579  0.000000  1
