# generated using pymatgen
data_Tb7Th(Si4W3)4
_symmetry_space_group_name_H-M   'P 1'
_cell_length_a   6.81944940
_cell_length_b   6.96554265
_cell_length_c   12.98363537
_cell_angle_alpha   89.91129957
_cell_angle_beta   90.01216575
_cell_angle_gamma   90.02137535
_symmetry_Int_Tables_number   1
_chemical_formula_structural   Tb7Th(Si4W3)4
_chemical_formula_sum   'Tb7 Th1 Si16 W12'
_cell_volume   616.73701856
_cell_formula_units_Z   1
loop_
 _symmetry_equiv_pos_site_id
 _symmetry_equiv_pos_as_xyz
  1  'x, y, z'
loop_
 _atom_site_type_symbol
 _atom_site_label
 _atom_site_symmetry_multiplicity
 _atom_site_fract_x
 _atom_site_fract_y
 _atom_site_fract_z
 _atom_site_occupancy
  Tb  Tb0  1  0.494930  0.667352  0.593513  1
  Tb  Tb1  1  0.995675  0.833428  0.906703  1
  Tb  Tb2  1  0.504097  0.332993  0.093972  1
  Tb  Tb3  1  0.004276  0.166764  0.404520  1
  Tb  Tb4  1  0.504513  0.332702  0.404586  1
  Tb  Tb5  1  0.003911  0.167505  0.093865  1
  Tb  Tb6  1  0.496113  0.666180  0.908290  1
  Th  Th7  1  0.996370  0.832395  0.593523  1
  Si  Si8  1  0.659333  0.957059  0.451030  1
  Si  Si9  1  0.160416  0.543007  0.047384  1
  Si  Si10  1  0.339490  0.042603  0.953296  1
  Si  Si11  1  0.835995  0.450293  0.545607  1
  Si  Si12  1  0.344062  0.047396  0.545591  1
  Si  Si13  1  0.840849  0.457827  0.952860  1
  Si  Si14  1  0.660225  0.957282  0.047286  1
  Si  Si15  1  0.162851  0.539748  0.451221  1
  Si  Si16  1  0.463534  0.368659  0.750028  1
  Si  Si17  1  0.962283  0.135401  0.752680  1
  Si  Si18  1  0.536868  0.631734  0.249332  1
  Si  Si19  1  0.037121  0.868695  0.249238  1
  Si  Si20  1  0.690709  0.869694  0.752831  1
  Si  Si21  1  0.199369  0.627721  0.753008  1
  Si  Si22  1  0.304101  0.131035  0.249286  1
  Si  Si23  1  0.803439  0.369106  0.249184  1
  W  W24  1  0.667315  0.161845  0.627035  1
  W  W25  1  0.168393  0.335876  0.875704  1
  W  W26  1  0.332636  0.835950  0.125315  1
  W  W27  1  0.833970  0.663662  0.373876  1
  W  W28  1  0.333225  0.836593  0.373781  1
  W  W29  1  0.833898  0.664310  0.125405  1
  W  W30  1  0.665509  0.165668  0.875413  1
  W  W31  1  0.166315  0.337489  0.626600  1
  W  W32  1  0.834165  0.501144  0.749085  1
  W  W33  1  0.332657  0.001520  0.749526  1
  W  W34  1  0.165551  0.501084  0.249993  1
  W  W35  1  0.665840  0.998277  0.249428  1
