# generated using pymatgen
data_Tb4Y3Er5Rh4
_symmetry_space_group_name_H-M   'P 1'
_cell_length_a   6.26551742
_cell_length_b   7.17241569
_cell_length_c   9.46956817
_cell_angle_alpha   89.92260906
_cell_angle_beta   89.60832415
_cell_angle_gamma   89.85188472
_symmetry_Int_Tables_number   1
_chemical_formula_structural   Tb4Y3Er5Rh4
_chemical_formula_sum   'Tb4 Y3 Er5 Rh4'
_cell_volume   425.54019024
_cell_formula_units_Z   1
loop_
 _symmetry_equiv_pos_site_id
 _symmetry_equiv_pos_as_xyz
  1  'x, y, z'
loop_
 _atom_site_type_symbol
 _atom_site_label
 _atom_site_symmetry_multiplicity
 _atom_site_fract_x
 _atom_site_fract_y
 _atom_site_fract_z
 _atom_site_occupancy
  Tb  Tb0  1  0.670197  0.175584  0.063131  1
  Tb  Tb1  1  0.170231  0.323633  0.937391  1
  Tb  Tb2  1  0.829517  0.678051  0.437965  1
  Tb  Tb3  1  0.133087  0.033485  0.251187  1
  Y  Y4  1  0.868659  0.966298  0.749855  1
  Y  Y5  1  0.368155  0.530645  0.250480  1
  Y  Y6  1  0.630690  0.469272  0.748549  1
  Er  Er7  1  0.329335  0.823228  0.562931  1
  Er  Er8  1  0.329052  0.823687  0.935764  1
  Er  Er9  1  0.829523  0.677906  0.063843  1
  Er  Er10  1  0.170507  0.323028  0.562429  1
  Er  Er11  1  0.669977  0.176411  0.438458  1
  Rh  Rh12  1  0.064379  0.616292  0.750874  1
  Rh  Rh13  1  0.558196  0.885115  0.250533  1
  Rh  Rh14  1  0.440126  0.114558  0.745641  1
  Rh  Rh15  1  0.938369  0.382806  0.250968  1
