# generated using pymatgen
data_Pr12GaBI17
_symmetry_space_group_name_H-M   'P 1'
_cell_length_a   9.99561987
_cell_length_b   11.95657057
_cell_length_c   11.72921570
_cell_angle_alpha   93.78656241
_cell_angle_beta   104.62277843
_cell_angle_gamma   115.65654562
_symmetry_Int_Tables_number   1
_chemical_formula_structural   Pr12GaBI17
_chemical_formula_sum   'Pr12 Ga1 B1 I17'
_cell_volume   1197.69701438
_cell_formula_units_Z   1
loop_
 _symmetry_equiv_pos_site_id
 _symmetry_equiv_pos_as_xyz
  1  'x, y, z'
loop_
 _atom_site_type_symbol
 _atom_site_label
 _atom_site_symmetry_multiplicity
 _atom_site_fract_x
 _atom_site_fract_y
 _atom_site_fract_z
 _atom_site_occupancy
  Pr  Pr0  1  0.053773  0.512370  0.325255  1
  Pr  Pr1  1  0.992236  0.815443  0.570902  1
  Pr  Pr2  1  0.644067  0.241053  0.276916  1
  Pr  Pr3  1  0.005550  0.194653  0.415434  1
  Pr  Pr4  1  0.214823  0.652048  0.010426  1
  Pr  Pr5  1  0.289196  0.004459  0.912729  1
  Pr  Pr6  1  0.374131  0.761659  0.717054  1
  Pr  Pr7  1  0.932828  0.468714  0.660476  1
  Pr  Pr8  1  0.732120  0.020908  0.097749  1
  Pr  Pr9  1  0.142611  0.291937  0.146693  1
  Pr  Pr10  1  0.783174  0.333785  0.009526  1
  Pr  Pr11  1  0.834955  0.706334  0.856160  1
  Ga  Ga12  1  0.106012  0.735915  0.788242  1
  B  B13  1  0.895949  0.263569  0.215806  1
  I  I14  1  0.772294  0.529403  0.411528  1
  I  I15  1  0.631073  0.411532  0.745867  1
  I  I16  1  0.838668  0.896394  0.317796  1
  I  I17  1  0.319111  0.211758  0.366580  1
  I  I18  1  0.162091  0.108067  0.680262  1
  I  I19  1  0.592463  0.059081  0.828498  1
  I  I20  1  0.734120  0.162565  0.531468  1
  I  I21  1  0.540693  0.696109  0.960165  1
  I  I22  1  0.374038  0.584506  0.263046  1
  I  I23  1  0.228591  0.471712  0.584445  1
  I  I24  1  0.053780  0.356988  0.884898  1
  I  I25  1  0.459807  0.312440  0.046528  1
  I  I26  1  0.001102  0.000222  0.000676  1
  I  I27  1  0.260072  0.827825  0.461663  1
  I  I28  1  0.413875  0.941418  0.171632  1
  I  I29  1  0.679851  0.789093  0.627731  1
  I  I30  1  0.936945  0.638038  0.113852  1
