# generated using pymatgen
data_Rb2NaDySb2
_symmetry_space_group_name_H-M   'P 1'
_cell_length_a   11.35260084
_cell_length_b   11.35260074
_cell_length_c   7.51437200
_cell_angle_alpha   90.00000000
_cell_angle_beta   90.00000000
_cell_angle_gamma   98.38135531
_symmetry_Int_Tables_number   1
_chemical_formula_structural   Rb2NaDySb2
_chemical_formula_sum   'Rb8 Na4 Dy4 Sb8'
_cell_volume   958.12050026
_cell_formula_units_Z   4
loop_
 _symmetry_equiv_pos_site_id
 _symmetry_equiv_pos_as_xyz
  1  'x, y, z'
loop_
 _atom_site_type_symbol
 _atom_site_label
 _atom_site_symmetry_multiplicity
 _atom_site_fract_x
 _atom_site_fract_y
 _atom_site_fract_z
 _atom_site_occupancy
  Rb  Rb0  1  0.070977  0.429023  0.250000  1
  Rb  Rb1  1  0.429023  0.070977  0.750000  1
  Rb  Rb2  1  0.929023  0.570977  0.750000  1
  Rb  Rb3  1  0.570977  0.929023  0.250000  1
  Rb  Rb4  1  0.676243  0.323757  0.215773  1
  Rb  Rb5  1  0.823757  0.176243  0.715773  1
  Rb  Rb6  1  0.323757  0.676243  0.784227  1
  Rb  Rb7  1  0.176243  0.823757  0.284227  1
  Na  Na8  1  0.381924  0.381924  0.000000  1
  Na  Na9  1  0.118076  0.118076  0.500000  1
  Na  Na10  1  0.618076  0.618076  0.000000  1
  Na  Na11  1  0.881924  0.881924  0.500000  1
  Dy  Dy12  1  0.131184  0.131184  0.000000  1
  Dy  Dy13  1  0.368816  0.368816  0.500000  1
  Dy  Dy14  1  0.868816  0.868816  0.000000  1
  Dy  Dy15  1  0.631184  0.631184  0.500000  1
  Sb  Sb16  1  0.846567  0.653432  0.250000  1
  Sb  Sb17  1  0.653432  0.846567  0.750000  1
  Sb  Sb18  1  0.153432  0.346567  0.750000  1
  Sb  Sb19  1  0.346567  0.153432  0.250000  1
  Sb  Sb20  1  0.900076  0.099924  0.211031  1
  Sb  Sb21  1  0.599924  0.400076  0.711031  1
  Sb  Sb22  1  0.099924  0.900076  0.788969  1
  Sb  Sb23  1  0.400076  0.599924  0.288969  1
