# generated using pymatgen
data_TbDy3Al18Ir5Au
_symmetry_space_group_name_H-M   'P 1'
_cell_length_a   7.58977666
_cell_length_b   7.58995951
_cell_length_c   9.47723136
_cell_angle_alpha   89.96810992
_cell_angle_beta   89.97537291
_cell_angle_gamma   119.59568841
_symmetry_Int_Tables_number   1
_chemical_formula_structural   TbDy3Al18Ir5Au
_chemical_formula_sum   'Tb1 Dy3 Al18 Ir5 Au1'
_cell_volume   474.71761413
_cell_formula_units_Z   1
loop_
 _symmetry_equiv_pos_site_id
 _symmetry_equiv_pos_as_xyz
  1  'x, y, z'
loop_
 _atom_site_type_symbol
 _atom_site_label
 _atom_site_symmetry_multiplicity
 _atom_site_fract_x
 _atom_site_fract_y
 _atom_site_fract_z
 _atom_site_occupancy
  Tb  Tb0  1  0.995690  0.672586  0.751041  1
  Dy  Dy1  1  0.004312  0.327395  0.248899  1
  Dy  Dy2  1  0.672587  0.995716  0.751096  1
  Dy  Dy3  1  0.327413  0.004315  0.248900  1
  Al  Al4  1  0.134384  0.134475  0.756167  1
  Al  Al5  1  0.865653  0.865671  0.243845  1
  Al  Al6  1  0.001326  0.343618  0.578744  1
  Al  Al7  1  0.998678  0.656232  0.421054  1
  Al  Al8  1  0.000163  0.664857  0.073718  1
  Al  Al9  1  0.335288  0.999981  0.926501  1
  Al  Al10  1  0.999840  0.335019  0.926492  1
  Al  Al11  1  0.664854  0.000162  0.073590  1
  Al  Al12  1  0.656249  0.998679  0.421166  1
  Al  Al13  1  0.343897  0.001447  0.578759  1
  Al  Al14  1  0.333318  0.333321  0.052818  1
  Al  Al15  1  0.666560  0.666680  0.947291  1
  Al  Al16  1  0.658058  0.658172  0.558665  1
  Al  Al17  1  0.341810  0.341813  0.441228  1
  Al  Al18  1  0.338912  0.549327  0.751187  1
  Al  Al19  1  0.661169  0.450630  0.248813  1
  Al  Al20  1  0.549197  0.338695  0.751184  1
  Al  Al21  1  0.450639  0.661183  0.248815  1
  Ir  Ir22  1  0.671703  0.328190  0.499935  1
  Ir  Ir23  1  0.328290  0.671752  0.499937  1
  Ir  Ir24  1  0.328231  0.671798  0.000059  1
  Ir  Ir25  1  0.671755  0.328140  0.000070  1
  Ir  Ir26  1  0.000018  0.000093  0.000073  1
  Au  Au27  1  0.000004  0.000054  0.499955  1
