# generated using pymatgen
data_ThSc7(Ta3Si4)4
_symmetry_space_group_name_H-M   'P 1'
_cell_length_a   6.93634732
_cell_length_b   6.93101680
_cell_length_c   12.79100733
_cell_angle_alpha   89.96406490
_cell_angle_beta   89.76852829
_cell_angle_gamma   90.07469086
_symmetry_Int_Tables_number   1
_chemical_formula_structural   ThSc7(Ta3Si4)4
_chemical_formula_sum   'Th1 Sc7 Ta12 Si16'
_cell_volume   614.93403486
_cell_formula_units_Z   1
loop_
 _symmetry_equiv_pos_site_id
 _symmetry_equiv_pos_as_xyz
  1  'x, y, z'
loop_
 _atom_site_type_symbol
 _atom_site_label
 _atom_site_symmetry_multiplicity
 _atom_site_fract_x
 _atom_site_fract_y
 _atom_site_fract_z
 _atom_site_occupancy
  Th  Th0  1  0.662900  0.007097  0.281628  1
  Sc  Sc1  1  0.002083  0.343431  0.217210  1
  Sc  Sc2  1  0.000039  0.659788  0.719821  1
  Sc  Sc3  1  0.160867  0.502508  0.472617  1
  Sc  Sc4  1  0.497365  0.839211  0.029098  1
  Sc  Sc5  1  0.841294  0.500972  0.967713  1
  Sc  Sc6  1  0.500792  0.159402  0.531892  1
  Sc  Sc7  1  0.341173  0.999410  0.780400  1
  Ta  Ta8  1  0.170227  0.171112  0.997463  1
  Ta  Ta9  1  0.831116  0.828649  0.501877  1
  Ta  Ta10  1  0.329263  0.671078  0.249535  1
  Ta  Ta11  1  0.670911  0.328282  0.750252  1
  Ta  Ta12  1  0.152989  0.992211  0.377562  1
  Ta  Ta13  1  0.849757  0.006036  0.874397  1
  Ta  Ta14  1  0.505474  0.650144  0.628420  1
  Ta  Ta15  1  0.348853  0.493560  0.873073  1
  Ta  Ta16  1  0.489315  0.347112  0.123480  1
  Ta  Ta17  1  0.652596  0.504326  0.375249  1
  Ta  Ta18  1  0.995058  0.151282  0.626229  1
  Ta  Ta19  1  0.001812  0.845597  0.120806  1
  Si  Si20  1  0.288893  0.043773  0.182380  1
  Si  Si21  1  0.697871  0.956181  0.686150  1
  Si  Si22  1  0.451570  0.794259  0.441396  1
  Si  Si23  1  0.198876  0.545178  0.062117  1
  Si  Si24  1  0.543162  0.197394  0.934640  1
  Si  Si25  1  0.802985  0.459848  0.566570  1
  Si  Si26  1  0.043495  0.303254  0.813921  1
  Si  Si27  1  0.961992  0.692518  0.314559  1
  Si  Si28  1  0.353989  0.301792  0.321082  1
  Si  Si29  1  0.639206  0.704641  0.821993  1
  Si  Si30  1  0.204330  0.861423  0.573650  1
  Si  Si31  1  0.138572  0.794797  0.926935  1
  Si  Si32  1  0.797032  0.141316  0.065919  1
  Si  Si33  1  0.873228  0.213843  0.435845  1
  Si  Si34  1  0.295115  0.360347  0.678723  1
  Si  Si35  1  0.705801  0.628229  0.175397  1
