# generated using pymatgen
data_Ca3YReTc3B16
_symmetry_space_group_name_H-M   'P 1'
_cell_length_a   3.57844000
_cell_length_b   6.00362967
_cell_length_c   11.61025833
_cell_angle_alpha   90.05635663
_cell_angle_beta   90.00000000
_cell_angle_gamma   90.00000000
_symmetry_Int_Tables_number   1
_chemical_formula_structural   Ca3YReTc3B16
_chemical_formula_sum   'Ca3 Y1 Re1 Tc3 B16'
_cell_volume   249.43035668
_cell_formula_units_Z   1
loop_
 _symmetry_equiv_pos_site_id
 _symmetry_equiv_pos_as_xyz
  1  'x, y, z'
loop_
 _atom_site_type_symbol
 _atom_site_label
 _atom_site_symmetry_multiplicity
 _atom_site_fract_x
 _atom_site_fract_y
 _atom_site_fract_z
 _atom_site_occupancy
  Ca  Ca0  1  0.000000  0.127288  0.150653  1
  Ca  Ca1  1  0.000000  0.872419  0.850365  1
  Ca  Ca2  1  0.000000  0.627630  0.348547  1
  Y  Y3  1  0.000000  0.371906  0.650337  1
  Re  Re4  1  0.000000  0.370415  0.916093  1
  Tc  Tc5  1  0.000000  0.131081  0.417625  1
  Tc  Tc6  1  0.000000  0.870950  0.584189  1
  Tc  Tc7  1  0.000000  0.630231  0.082812  1
  B  B8  1  0.500000  0.477326  0.192507  1
  B  B9  1  0.500000  0.524003  0.807352  1
  B  B10  1  0.500000  0.977418  0.307774  1
  B  B11  1  0.500000  0.023444  0.692343  1
  B  B12  1  0.500000  0.283872  0.315049  1
  B  B13  1  0.500000  0.715267  0.684397  1
  B  B14  1  0.500000  0.784776  0.184667  1
  B  B15  1  0.500000  0.214184  0.815031  1
  B  B16  1  0.500000  0.364184  0.468153  1
  B  B17  1  0.500000  0.635665  0.531781  1
  B  B18  1  0.500000  0.864864  0.032351  1
  B  B19  1  0.500000  0.134470  0.968225  1
  B  B20  1  0.500000  0.386129  0.047330  1
  B  B21  1  0.500000  0.614210  0.952509  1
  B  B22  1  0.500000  0.886099  0.452536  1
  B  B23  1  0.500000  0.112170  0.547376  1
