# generated using pymatgen
data_Hg3AuF12
_symmetry_space_group_name_H-M   'P 1'
_cell_length_a   5.74439164
_cell_length_b   6.11480961
_cell_length_c   8.39669255
_cell_angle_alpha   90.85309709
_cell_angle_beta   90.88511486
_cell_angle_gamma   90.23917602
_symmetry_Int_Tables_number   1
_chemical_formula_structural   Hg3AuF12
_chemical_formula_sum   'Hg3 Au1 F12'
_cell_volume   294.87031448
_cell_formula_units_Z   1
loop_
 _symmetry_equiv_pos_site_id
 _symmetry_equiv_pos_as_xyz
  1  'x, y, z'
loop_
 _atom_site_type_symbol
 _atom_site_label
 _atom_site_symmetry_multiplicity
 _atom_site_fract_x
 _atom_site_fract_y
 _atom_site_fract_z
 _atom_site_occupancy
  Hg  Hg0  1  0.000000  0.500000  0.000000  1
  Hg  Hg1  1  0.000000  0.500000  0.500000  1
  Hg  Hg2  1  0.500000  0.000000  0.000000  1
  Au  Au3  1  0.500000  0.000000  0.500000  1
  F  F4  1  0.121197  0.530939  0.729619  1
  F  F5  1  0.630618  0.718763  0.564226  1
  F  F6  1  0.695512  0.708042  0.953868  1
  F  F7  1  0.202909  0.801999  0.048393  1
  F  F8  1  0.213291  0.852533  0.426815  1
  F  F9  1  0.632178  0.960260  0.287916  1
  F  F10  1  0.367822  0.039740  0.712084  1
  F  F11  1  0.797091  0.198001  0.951607  1
  F  F12  1  0.786709  0.147467  0.573185  1
  F  F13  1  0.304488  0.291958  0.046132  1
  F  F14  1  0.369382  0.281237  0.435774  1
  F  F15  1  0.878803  0.469061  0.270381  1
