# generated using pymatgen
data_TbNdRe4(SiC)2
_symmetry_space_group_name_H-M   'P 1'
_cell_length_a   5.82251028
_cell_length_b   5.82251097
_cell_length_c   7.35841600
_cell_angle_alpha   90.00000000
_cell_angle_beta   90.00000000
_cell_angle_gamma   39.99302777
_symmetry_Int_Tables_number   1
_chemical_formula_structural   TbNdRe4(SiC)2
_chemical_formula_sum   'Tb1 Nd1 Re4 Si2 C2'
_cell_volume   160.32801746
_cell_formula_units_Z   1
loop_
 _symmetry_equiv_pos_site_id
 _symmetry_equiv_pos_as_xyz
  1  'x, y, z'
loop_
 _atom_site_type_symbol
 _atom_site_label
 _atom_site_symmetry_multiplicity
 _atom_site_fract_x
 _atom_site_fract_y
 _atom_site_fract_z
 _atom_site_occupancy
  Tb  Tb0  1  0.957318  0.957318  0.750000  1
  Nd  Nd1  1  0.042767  0.042767  0.250000  1
  Re  Re2  1  0.674045  0.674045  0.563115  1
  Re  Re3  1  0.326278  0.326278  0.059680  1
  Re  Re4  1  0.326278  0.326278  0.440320  1
  Re  Re5  1  0.674045  0.674045  0.936884  1
  Si  Si6  1  0.764149  0.764149  0.250000  1
  Si  Si7  1  0.236220  0.236220  0.750000  1
  C  C8  1  0.499449  0.499449  0.994667  1
  C  C9  1  0.499449  0.499449  0.505333  1
