# generated using pymatgen
data_Dy8Nb12Si15Ni
_symmetry_space_group_name_H-M   'P 1'
_cell_length_a   6.89107705
_cell_length_b   7.05671019
_cell_length_c   13.47757884
_cell_angle_alpha   89.87107899
_cell_angle_beta   90.01732579
_cell_angle_gamma   90.04045401
_symmetry_Int_Tables_number   1
_chemical_formula_structural   Dy8Nb12Si15Ni
_chemical_formula_sum   'Dy8 Nb12 Si15 Ni1'
_cell_volume   655.39034813
_cell_formula_units_Z   1
loop_
 _symmetry_equiv_pos_site_id
 _symmetry_equiv_pos_as_xyz
  1  'x, y, z'
loop_
 _atom_site_type_symbol
 _atom_site_label
 _atom_site_symmetry_multiplicity
 _atom_site_fract_x
 _atom_site_fract_y
 _atom_site_fract_z
 _atom_site_occupancy
  Dy  Dy0  1  0.503381  0.327643  0.096050  1
  Dy  Dy1  1  0.004381  0.171374  0.403134  1
  Dy  Dy2  1  0.490622  0.667849  0.595580  1
  Dy  Dy3  1  0.997436  0.829331  0.904881  1
  Dy  Dy4  1  0.497525  0.671744  0.904686  1
  Dy  Dy5  1  0.998497  0.826223  0.596822  1
  Dy  Dy6  1  0.504942  0.329150  0.401968  1
  Dy  Dy7  1  0.003713  0.170383  0.096026  1
  Nb  Nb8  1  0.662216  0.010589  0.749478  1
  Nb  Nb9  1  0.163799  0.491376  0.754135  1
  Nb  Nb10  1  0.337224  0.990928  0.249832  1
  Nb  Nb11  1  0.837128  0.509722  0.248735  1
  Nb  Nb12  1  0.836338  0.326737  0.625733  1
  Nb  Nb13  1  0.337959  0.176008  0.873983  1
  Nb  Nb14  1  0.160101  0.676107  0.126385  1
  Nb  Nb15  1  0.660732  0.823656  0.373313  1
  Nb  Nb16  1  0.165510  0.672888  0.376200  1
  Nb  Nb17  1  0.662849  0.823339  0.126114  1
  Nb  Nb18  1  0.839809  0.322500  0.874413  1
  Nb  Nb19  1  0.338341  0.185987  0.625598  1
  Si  Si20  1  0.795139  0.626946  0.749878  1
  Si  Si21  1  0.294316  0.874467  0.750152  1
  Si  Si22  1  0.204453  0.373500  0.249537  1
  Si  Si23  1  0.705291  0.125893  0.249910  1
  Si  Si24  1  0.542649  0.379568  0.751281  1
  Si  Si25  1  0.042263  0.124183  0.749413  1
  Si  Si26  1  0.458258  0.622104  0.249676  1
  Si  Si27  1  0.959479  0.876954  0.250977  1
  Si  Si28  1  0.662700  0.037771  0.540296  1
  Si  Si29  1  0.162304  0.463889  0.959631  1
  Si  Si30  1  0.337434  0.962683  0.040878  1
  Si  Si31  1  0.840473  0.538105  0.459935  1
  Si  Si32  1  0.338353  0.963773  0.458849  1
  Si  Si33  1  0.838069  0.535912  0.040690  1
  Si  Si34  1  0.662283  0.036562  0.959253  1
  Ni  Ni35  1  0.154030  0.454157  0.536577  1
