# generated using pymatgen
data_Yb4CrB16Os3
_symmetry_space_group_name_H-M   'P 1'
_cell_length_a   3.51227100
_cell_length_b   5.94843360
_cell_length_c   11.50846312
_cell_angle_alpha   89.91579640
_cell_angle_beta   90.00000000
_cell_angle_gamma   90.00000000
_symmetry_Int_Tables_number   1
_chemical_formula_structural   Yb4CrB16Os3
_chemical_formula_sum   'Yb4 Cr1 B16 Os3'
_cell_volume   240.44043067
_cell_formula_units_Z   1
loop_
 _symmetry_equiv_pos_site_id
 _symmetry_equiv_pos_as_xyz
  1  'x, y, z'
loop_
 _atom_site_type_symbol
 _atom_site_label
 _atom_site_symmetry_multiplicity
 _atom_site_fract_x
 _atom_site_fract_y
 _atom_site_fract_z
 _atom_site_occupancy
  Yb  Yb0  1  0.000000  0.129026  0.652073  1
  Yb  Yb1  1  0.000000  0.870769  0.349011  1
  Yb  Yb2  1  0.000000  0.626349  0.850262  1
  Yb  Yb3  1  0.000000  0.372609  0.149538  1
  Cr  Cr4  1  0.000000  0.128328  0.918285  1
  B  B5  1  0.500000  0.474162  0.692741  1
  B  B6  1  0.500000  0.525454  0.307628  1
  B  B7  1  0.500000  0.979174  0.808694  1
  B  B8  1  0.500000  0.023034  0.191591  1
  B  B9  1  0.500000  0.283456  0.816727  1
  B  B10  1  0.500000  0.715147  0.183735  1
  B  B11  1  0.500000  0.786046  0.685651  1
  B  B12  1  0.500000  0.214265  0.314281  1
  B  B13  1  0.500000  0.362920  0.967214  1
  B  B14  1  0.500000  0.635816  0.031344  1
  B  B15  1  0.500000  0.864235  0.530673  1
  B  B16  1  0.500000  0.135579  0.469513  1
  B  B17  1  0.500000  0.386151  0.547714  1
  B  B18  1  0.500000  0.613461  0.452293  1
  B  B19  1  0.500000  0.886456  0.951999  1
  B  B20  1  0.500000  0.114688  0.046809  1
  Os  Os21  1  0.000000  0.872650  0.082944  1
  Os  Os22  1  0.000000  0.635679  0.587247  1
  Os  Os23  1  0.000000  0.364545  0.412034  1
