# generated using pymatgen
data_Sm4GeCl6
_symmetry_space_group_name_H-M   'P 1'
_cell_length_a   4.05114900
_cell_length_b   13.30249000
_cell_length_c   13.76153700
_cell_angle_alpha   90.00000000
_cell_angle_beta   90.00000000
_cell_angle_gamma   90.00000000
_symmetry_Int_Tables_number   1
_chemical_formula_structural   Sm4GeCl6
_chemical_formula_sum   'Sm8 Ge2 Cl12'
_cell_volume   741.61430778
_cell_formula_units_Z   2
loop_
 _symmetry_equiv_pos_site_id
 _symmetry_equiv_pos_as_xyz
  1  'x, y, z'
loop_
 _atom_site_type_symbol
 _atom_site_label
 _atom_site_symmetry_multiplicity
 _atom_site_fract_x
 _atom_site_fract_y
 _atom_site_fract_z
 _atom_site_occupancy
  Sm  Sm0  1  0.000000  0.114846  0.091313  1
  Sm  Sm1  1  0.000000  0.885154  0.908687  1
  Sm  Sm2  1  0.000000  0.614846  0.408687  1
  Sm  Sm3  1  0.000000  0.385154  0.591313  1
  Sm  Sm4  1  0.500000  0.132440  0.844379  1
  Sm  Sm5  1  0.500000  0.867560  0.155621  1
  Sm  Sm6  1  0.500000  0.632440  0.655621  1
  Sm  Sm7  1  0.500000  0.367560  0.344379  1
  Ge  Ge8  1  0.500000  0.000000  0.000000  1
  Ge  Ge9  1  0.500000  0.500000  0.500000  1
  Cl  Cl10  1  0.500000  0.266065  0.683390  1
  Cl  Cl11  1  0.500000  0.733935  0.316610  1
  Cl  Cl12  1  0.500000  0.766065  0.816610  1
  Cl  Cl13  1  0.500000  0.233935  0.183390  1
  Cl  Cl14  1  0.000000  0.251713  0.928042  1
  Cl  Cl15  1  0.000000  0.748287  0.071958  1
  Cl  Cl16  1  0.000000  0.475820  0.247838  1
  Cl  Cl17  1  0.000000  0.524180  0.752162  1
  Cl  Cl18  1  0.000000  0.975820  0.252162  1
  Cl  Cl19  1  0.000000  0.024180  0.747838  1
  Cl  Cl20  1  0.000000  0.248287  0.428042  1
  Cl  Cl21  1  0.000000  0.751713  0.571958  1
