# generated using pymatgen
data_SrEuNbN3
_symmetry_space_group_name_H-M   'P 1'
_cell_length_a   6.23596024
_cell_length_b   6.37379789
_cell_length_c   12.41585400
_cell_angle_alpha   89.25422025
_cell_angle_beta   88.57919299
_cell_angle_gamma   122.93782656
_symmetry_Int_Tables_number   1
_chemical_formula_structural   SrEuNbN3
_chemical_formula_sum   'Sr4 Eu4 Nb4 N12'
_cell_volume   413.83294281
_cell_formula_units_Z   4
loop_
 _symmetry_equiv_pos_site_id
 _symmetry_equiv_pos_as_xyz
  1  'x, y, z'
loop_
 _atom_site_type_symbol
 _atom_site_label
 _atom_site_symmetry_multiplicity
 _atom_site_fract_x
 _atom_site_fract_y
 _atom_site_fract_z
 _atom_site_occupancy
  Sr  Sr0  1  0.049171  0.457441  0.855320  1
  Sr  Sr1  1  0.519119  0.927894  0.640416  1
  Sr  Sr2  1  0.491267  0.076468  0.358883  1
  Sr  Sr3  1  0.632045  0.864402  0.080290  1
  Eu  Eu4  1  0.954832  0.557116  0.135572  1
  Eu  Eu5  1  0.186204  0.413354  0.420725  1
  Eu  Eu6  1  0.374165  0.149383  0.920195  1
  Eu  Eu7  1  0.820748  0.589582  0.579861  1
  Nb  Nb8  1  0.799378  0.781275  0.339327  1
  Nb  Nb9  1  0.247013  0.245344  0.164751  1
  Nb  Nb10  1  0.208961  0.216623  0.660589  1
  Nb  Nb11  1  0.747177  0.754838  0.836868  1
  N  N12  1  0.470940  0.475637  0.755293  1
  N  N13  1  0.539244  0.515852  0.245289  1
  N  N14  1  0.068902  0.884077  0.743234  1
  N  N15  1  0.935481  0.120497  0.263278  1
  N  N16  1  0.988021  0.325575  0.614478  1
  N  N17  1  0.648696  0.988577  0.872826  1
  N  N18  1  0.023530  0.679355  0.388040  1
  N  N19  1  0.317743  0.995466  0.120384  1
  N  N20  1  0.790036  0.607100  0.964144  1
  N  N21  1  0.612111  0.783150  0.462707  1
  N  N22  1  0.179897  0.378208  0.040037  1
  N  N23  1  0.395320  0.212787  0.537495  1
