# generated using pymatgen
data_SrDy7(Si3Pt)4
_symmetry_space_group_name_H-M   'P 1'
_cell_length_a   8.16318100
_cell_length_b   8.16318151
_cell_length_c   8.28409500
_cell_angle_alpha   90.00000000
_cell_angle_beta   90.00000000
_cell_angle_gamma   119.99999388
_symmetry_Int_Tables_number   1
_chemical_formula_structural   SrDy7(Si3Pt)4
_chemical_formula_sum   'Sr1 Dy7 Si12 Pt4'
_cell_volume   478.07343111
_cell_formula_units_Z   1
loop_
 _symmetry_equiv_pos_site_id
 _symmetry_equiv_pos_as_xyz
  1  'x, y, z'
loop_
 _atom_site_type_symbol
 _atom_site_label
 _atom_site_symmetry_multiplicity
 _atom_site_fract_x
 _atom_site_fract_y
 _atom_site_fract_z
 _atom_site_occupancy
  Sr  Sr0  1  0.000000  0.000000  0.250000  1
  Dy  Dy1  1  0.000000  0.000000  0.750000  1
  Dy  Dy2  1  0.001782  0.500891  0.250000  1
  Dy  Dy3  1  0.499109  0.500891  0.250000  1
  Dy  Dy4  1  0.500916  0.001832  0.750000  1
  Dy  Dy5  1  0.499109  0.998218  0.250000  1
  Dy  Dy6  1  0.500916  0.499084  0.750000  1
  Dy  Dy7  1  0.998168  0.499084  0.750000  1
  Si  Si8  1  0.166269  0.332538  0.995460  1
  Si  Si9  1  0.667462  0.833731  0.995460  1
  Si  Si10  1  0.166269  0.332538  0.504540  1
  Si  Si11  1  0.332629  0.166315  0.996331  1
  Si  Si12  1  0.166269  0.833731  0.995460  1
  Si  Si13  1  0.667462  0.833731  0.504540  1
  Si  Si14  1  0.833685  0.667371  0.996331  1
  Si  Si15  1  0.332629  0.166315  0.503669  1
  Si  Si16  1  0.166269  0.833731  0.504540  1
  Si  Si17  1  0.833685  0.667371  0.503669  1
  Si  Si18  1  0.833685  0.166315  0.996331  1
  Si  Si19  1  0.833685  0.166315  0.503669  1
  Pt  Pt20  1  0.333333  0.666667  0.996239  1
  Pt  Pt21  1  0.333333  0.666667  0.503761  1
  Pt  Pt22  1  0.666667  0.333333  0.000388  1
  Pt  Pt23  1  0.666667  0.333333  0.499612  1
