# generated using pymatgen
data_MnCr20(MoC3)2
_symmetry_space_group_name_H-M   'P 1'
_cell_length_a   7.52461685
_cell_length_b   7.52402828
_cell_length_c   7.52405630
_cell_angle_alpha   60.02632282
_cell_angle_beta   59.99331698
_cell_angle_gamma   60.00295055
_symmetry_Int_Tables_number   1
_chemical_formula_structural   MnCr20(MoC3)2
_chemical_formula_sum   'Mn1 Cr20 Mo2 C6'
_cell_volume   301.26307746
_cell_formula_units_Z   1
loop_
 _symmetry_equiv_pos_site_id
 _symmetry_equiv_pos_as_xyz
  1  'x, y, z'
loop_
 _atom_site_type_symbol
 _atom_site_label
 _atom_site_symmetry_multiplicity
 _atom_site_fract_x
 _atom_site_fract_y
 _atom_site_fract_z
 _atom_site_occupancy
  Mn  Mn0  1  0.000000  0.000000  0.000000  1
  Cr  Cr1  1  0.616296  0.615941  0.151724  1
  Cr  Cr2  1  0.616302  0.151617  0.615902  1
  Cr  Cr3  1  0.151579  0.616244  0.616204  1
  Cr  Cr4  1  0.616050  0.616200  0.616021  1
  Cr  Cr5  1  0.383704  0.384059  0.848276  1
  Cr  Cr6  1  0.383698  0.848383  0.384098  1
  Cr  Cr7  1  0.848421  0.383756  0.383796  1
  Cr  Cr8  1  0.383950  0.383800  0.383979  1
  Cr  Cr9  1  0.999731  0.000082  0.335177  1
  Cr  Cr10  1  0.665116  0.999909  0.335292  1
  Cr  Cr11  1  0.999885  0.665136  0.334971  1
  Cr  Cr12  1  0.665227  0.335082  0.000028  1
  Cr  Cr13  1  0.999839  0.335170  0.000070  1
  Cr  Cr14  1  0.000115  0.334864  0.665029  1
  Cr  Cr15  1  0.334773  0.664918  0.999972  1
  Cr  Cr16  1  0.334884  0.000091  0.664708  1
  Cr  Cr17  1  0.334772  0.000173  0.000053  1
  Cr  Cr18  1  0.000269  0.999918  0.664823  1
  Cr  Cr19  1  0.000161  0.664830  0.999930  1
  Cr  Cr20  1  0.665228  0.999827  0.999947  1
  Mo  Mo21  1  0.750078  0.750241  0.749940  1
  Mo  Mo22  1  0.249922  0.249759  0.250060  1
  C  C23  1  0.724205  0.724173  0.275804  1
  C  C24  1  0.275768  0.724222  0.275945  1
  C  C25  1  0.724400  0.275623  0.275773  1
  C  C26  1  0.275795  0.275827  0.724196  1
  C  C27  1  0.724232  0.275778  0.724055  1
  C  C28  1  0.275600  0.724377  0.724227  1
