# generated using pymatgen
data_Yb2HoEr(B4Os)4
_symmetry_space_group_name_H-M   'P 1'
_cell_length_a   3.55039900
_cell_length_b   5.96164085
_cell_length_c   11.52246504
_cell_angle_alpha   89.84585048
_cell_angle_beta   90.00000000
_cell_angle_gamma   90.00000000
_symmetry_Int_Tables_number   1
_chemical_formula_structural   Yb2HoEr(B4Os)4
_chemical_formula_sum   'Yb2 Ho1 Er1 B16 Os4'
_cell_volume   243.88595966
_cell_formula_units_Z   1
loop_
 _symmetry_equiv_pos_site_id
 _symmetry_equiv_pos_as_xyz
  1  'x, y, z'
loop_
 _atom_site_type_symbol
 _atom_site_label
 _atom_site_symmetry_multiplicity
 _atom_site_fract_x
 _atom_site_fract_y
 _atom_site_fract_z
 _atom_site_occupancy
  Yb  Yb0  1  0.000000  0.628807  0.851037  1
  Yb  Yb1  1  0.000000  0.371193  0.148973  1
  Ho  Ho2  1  0.000000  0.128685  0.650702  1
  Er  Er3  1  0.000000  0.871268  0.349331  1
  B  B4  1  0.500000  0.474730  0.692120  1
  B  B5  1  0.500000  0.525406  0.307864  1
  B  B6  1  0.500000  0.975368  0.808808  1
  B  B7  1  0.500000  0.024595  0.191294  1
  B  B8  1  0.500000  0.288942  0.815373  1
  B  B9  1  0.500000  0.711070  0.184696  1
  B  B10  1  0.500000  0.787626  0.686178  1
  B  B11  1  0.500000  0.212206  0.313809  1
  B  B12  1  0.500000  0.363915  0.969489  1
  B  B13  1  0.500000  0.636094  0.030509  1
  B  B14  1  0.500000  0.863720  0.530230  1
  B  B15  1  0.500000  0.136200  0.469651  1
  B  B16  1  0.500000  0.387689  0.547486  1
  B  B17  1  0.500000  0.612520  0.452419  1
  B  B18  1  0.500000  0.886043  0.953231  1
  B  B19  1  0.500000  0.113948  0.046771  1
  Os  Os20  1  0.000000  0.136974  0.909131  1
  Os  Os21  1  0.000000  0.863034  0.090988  1
  Os  Os22  1  0.000000  0.641624  0.591541  1
  Os  Os23  1  0.000000  0.358343  0.408369  1
