# generated using pymatgen
data_Ba4SrCrN5
_symmetry_space_group_name_H-M   'P 1'
_cell_length_a   7.97196431
_cell_length_b   7.97196356
_cell_length_c   9.11049510
_cell_angle_alpha   76.17214698
_cell_angle_beta   76.17214867
_cell_angle_gamma   95.63954122
_symmetry_Int_Tables_number   1
_chemical_formula_structural   Ba4SrCrN5
_chemical_formula_sum   'Ba8 Sr2 Cr2 N10'
_cell_volume   538.45291502
_cell_formula_units_Z   2
loop_
 _symmetry_equiv_pos_site_id
 _symmetry_equiv_pos_as_xyz
  1  'x, y, z'
loop_
 _atom_site_type_symbol
 _atom_site_label
 _atom_site_symmetry_multiplicity
 _atom_site_fract_x
 _atom_site_fract_y
 _atom_site_fract_z
 _atom_site_occupancy
  Ba  Ba0  1  0.667397  0.667397  0.003130  1
  Ba  Ba1  1  0.332603  0.332603  0.996870  1
  Ba  Ba2  1  0.922549  0.922549  0.209424  1
  Ba  Ba3  1  0.077451  0.077451  0.790576  1
  Ba  Ba4  1  0.564421  0.091272  0.748018  1
  Ba  Ba5  1  0.908728  0.435579  0.251982  1
  Ba  Ba6  1  0.435579  0.908728  0.251982  1
  Ba  Ba7  1  0.091272  0.564421  0.748018  1
  Sr  Sr8  1  0.403367  0.403367  0.378597  1
  Sr  Sr9  1  0.596633  0.596633  0.621403  1
  Cr  Cr10  1  0.754019  0.245981  0.000000  1
  Cr  Cr11  1  0.245981  0.754019  0.000000  1
  N  N12  1  0.652911  0.652911  0.321768  1
  N  N13  1  0.347089  0.347089  0.678232  1
  N  N14  1  0.714787  0.027187  0.992376  1
  N  N15  1  0.972813  0.285213  0.007624  1
  N  N16  1  0.285213  0.972813  0.007624  1
  N  N17  1  0.027187  0.714787  0.992376  1
  N  N18  1  0.390547  0.725692  0.831195  1
  N  N19  1  0.274308  0.609453  0.168804  1
  N  N20  1  0.609453  0.274308  0.168804  1
  N  N21  1  0.725692  0.390547  0.831195  1
