# generated using pymatgen
data_Tb2Y2ReB12Ru
_symmetry_space_group_name_H-M   'P 1'
_cell_length_a   3.68140400
_cell_length_b   9.18095799
_cell_length_c   11.57404781
_cell_angle_alpha   89.79314963
_cell_angle_beta   90.00000000
_cell_angle_gamma   90.00000000
_symmetry_Int_Tables_number   1
_chemical_formula_structural   Tb2Y2ReB12Ru
_chemical_formula_sum   'Tb4 Y4 Re2 B24 Ru2'
_cell_volume   391.18655703
_cell_formula_units_Z   2
loop_
 _symmetry_equiv_pos_site_id
 _symmetry_equiv_pos_as_xyz
  1  'x, y, z'
loop_
 _atom_site_type_symbol
 _atom_site_label
 _atom_site_symmetry_multiplicity
 _atom_site_fract_x
 _atom_site_fract_y
 _atom_site_fract_z
 _atom_site_occupancy
  Tb  Tb0  1  0.000000  0.324909  0.415385  1
  Tb  Tb1  1  0.000000  0.675091  0.584615  1
  Tb  Tb2  1  0.000000  0.821495  0.087514  1
  Tb  Tb3  1  0.000000  0.178505  0.912486  1
  Y  Y4  1  0.000000  0.942809  0.370836  1
  Y  Y5  1  0.000000  0.057191  0.629164  1
  Y  Y6  1  0.000000  0.442664  0.129334  1
  Y  Y7  1  0.000000  0.557336  0.870666  1
  Re  Re8  1  0.000000  0.638278  0.320339  1
  Re  Re9  1  0.000000  0.361722  0.679661  1
  B  B10  1  0.500000  0.553151  0.432797  1
  B  B11  1  0.500000  0.446849  0.567203  1
  B  B12  1  0.500000  0.053913  0.067333  1
  B  B13  1  0.500000  0.946087  0.932667  1
  B  B14  1  0.500000  0.748314  0.418669  1
  B  B15  1  0.500000  0.251686  0.581331  1
  B  B16  1  0.500000  0.247974  0.081337  1
  B  B17  1  0.500000  0.752026  0.918663  1
  B  B18  1  0.500000  0.791214  0.265363  1
  B  B19  1  0.500000  0.208786  0.734637  1
  B  B20  1  0.500000  0.290059  0.233938  1
  B  B21  1  0.500000  0.709941  0.766062  1
  B  B22  1  0.500000  0.631276  0.185355  1
  B  B23  1  0.500000  0.368724  0.814645  1
  B  B24  1  0.500000  0.130962  0.313669  1
  B  B25  1  0.500000  0.869038  0.686331  1
  B  B26  1  0.500000  0.983557  0.211816  1
  B  B27  1  0.500000  0.016443  0.788184  1
  B  B28  1  0.500000  0.482920  0.287572  1
  B  B29  1  0.500000  0.517080  0.712428  1
  B  B30  1  0.500000  0.604180  0.028729  1
  B  B31  1  0.500000  0.395820  0.971271  1
  B  B32  1  0.500000  0.103714  0.471089  1
  B  B33  1  0.500000  0.896286  0.528911  1
  Ru  Ru34  1  0.000000  0.137655  0.178394  1
  Ru  Ru35  1  0.000000  0.862345  0.821606  1
