# generated using pymatgen
data_La17Ho3(IrPt2)4
_symmetry_space_group_name_H-M   'P 1'
_cell_length_a   11.53490000
_cell_length_b   11.53490000
_cell_length_c   6.54124000
_cell_angle_alpha   90.00000000
_cell_angle_beta   90.00000000
_cell_angle_gamma   90.00000000
_symmetry_Int_Tables_number   1
_chemical_formula_structural   La17Ho3(IrPt2)4
_chemical_formula_sum   'La17 Ho3 Ir4 Pt8'
_cell_volume   870.33761064
_cell_formula_units_Z   1
loop_
 _symmetry_equiv_pos_site_id
 _symmetry_equiv_pos_as_xyz
  1  'x, y, z'
loop_
 _atom_site_type_symbol
 _atom_site_label
 _atom_site_symmetry_multiplicity
 _atom_site_fract_x
 _atom_site_fract_y
 _atom_site_fract_z
 _atom_site_occupancy
  La  La0  1  0.293341  0.088404  0.375357  1
  La  La1  1  0.292834  0.911540  0.877479  1
  La  La2  1  0.707166  0.088460  0.877479  1
  La  La3  1  0.706659  0.911596  0.375357  1
  La  La4  1  0.588408  0.791612  0.877409  1
  La  La5  1  0.588040  0.207972  0.377559  1
  La  La6  1  0.411960  0.792028  0.377559  1
  La  La7  1  0.411592  0.208388  0.877409  1
  La  La8  1  0.207972  0.411960  0.622441  1
  La  La9  1  0.208388  0.588408  0.122591  1
  La  La10  1  0.791612  0.411592  0.122591  1
  La  La11  1  0.792028  0.588040  0.622441  1
  La  La12  1  0.911540  0.707166  0.122521  1
  La  La13  1  0.911596  0.293341  0.624643  1
  La  La14  1  0.088404  0.706659  0.624643  1
  La  La15  1  0.088460  0.292834  0.122521  1
  La  La16  1  0.000000  0.000000  0.500000  1
  Ho  Ho17  1  0.000000  0.000000  0.000000  1
  Ho  Ho18  1  0.500000  0.500000  0.000000  1
  Ho  Ho19  1  0.500000  0.500000  0.500000  1
  Ir  Ir20  1  0.500000  0.000000  0.117165  1
  Ir  Ir21  1  0.500000  0.000000  0.617014  1
  Ir  Ir22  1  0.000000  0.500000  0.882835  1
  Ir  Ir23  1  0.000000  0.500000  0.382986  1
  Pt  Pt24  1  0.848856  0.151887  0.245044  1
  Pt  Pt25  1  0.848113  0.848856  0.754956  1
  Pt  Pt26  1  0.151887  0.151144  0.754956  1
  Pt  Pt27  1  0.151144  0.848113  0.245044  1
  Pt  Pt28  1  0.647902  0.352342  0.750133  1
  Pt  Pt29  1  0.647658  0.647902  0.249867  1
  Pt  Pt30  1  0.352342  0.352098  0.249867  1
  Pt  Pt31  1  0.352098  0.647658  0.750133  1
