# generated using pymatgen
data_Tb7Ho9Cd2(HgPt2)2
_symmetry_space_group_name_H-M   'P 1'
_cell_length_a   9.66053546
_cell_length_b   9.66053591
_cell_length_c   9.65072100
_cell_angle_alpha   60.03360609
_cell_angle_beta   60.03360454
_cell_angle_gamma   60.12020956
_symmetry_Int_Tables_number   1
_chemical_formula_structural   Tb7Ho9Cd2(HgPt2)2
_chemical_formula_sum   'Tb7 Ho9 Cd2 Hg2 Pt4'
_cell_volume   637.76545209
_cell_formula_units_Z   1
loop_
 _symmetry_equiv_pos_site_id
 _symmetry_equiv_pos_as_xyz
  1  'x, y, z'
loop_
 _atom_site_type_symbol
 _atom_site_label
 _atom_site_symmetry_multiplicity
 _atom_site_fract_x
 _atom_site_fract_y
 _atom_site_fract_z
 _atom_site_occupancy
  Tb  Tb0  1  0.809776  0.809776  0.190224  1
  Tb  Tb1  1  0.935669  0.563132  0.564891  1
  Tb  Tb2  1  0.563132  0.935669  0.936309  1
  Tb  Tb3  1  0.563132  0.935669  0.564891  1
  Tb  Tb4  1  0.935669  0.563132  0.936309  1
  Tb  Tb5  1  0.563890  0.563890  0.936110  1
  Tb  Tb6  1  0.935974  0.935974  0.564026  1
  Ho  Ho7  1  0.352498  0.352498  0.350652  1
  Ho  Ho8  1  0.352498  0.352498  0.944352  1
  Ho  Ho9  1  0.354677  0.938896  0.353213  1
  Ho  Ho10  1  0.938896  0.354677  0.353213  1
  Ho  Ho11  1  0.810888  0.189112  0.190375  1
  Ho  Ho12  1  0.189112  0.810888  0.809625  1
  Ho  Ho13  1  0.189112  0.810888  0.190375  1
  Ho  Ho14  1  0.810888  0.189112  0.809625  1
  Ho  Ho15  1  0.189512  0.189512  0.810488  1
  Cd  Cd16  1  0.580455  0.255671  0.581936  1
  Cd  Cd17  1  0.255671  0.580455  0.581936  1
  Hg  Hg18  1  0.584774  0.584774  0.587598  1
  Hg  Hg19  1  0.584774  0.584774  0.242853  1
  Pt  Pt20  1  0.143190  0.143190  0.145077  1
  Pt  Pt21  1  0.143190  0.143190  0.568544  1
  Pt  Pt22  1  0.142792  0.569830  0.143690  1
  Pt  Pt23  1  0.569830  0.142792  0.143690  1
