# generated using pymatgen
data_La20AlSi9Bi2
_symmetry_space_group_name_H-M   'P 1'
_cell_length_a   7.96173800
_cell_length_b   7.96173800
_cell_length_c   14.92728300
_cell_angle_alpha   90.00000000
_cell_angle_beta   90.00000000
_cell_angle_gamma   90.00000000
_symmetry_Int_Tables_number   1
_chemical_formula_structural   La20AlSi9Bi2
_chemical_formula_sum   'La20 Al1 Si9 Bi2'
_cell_volume   946.22960202
_cell_formula_units_Z   1
loop_
 _symmetry_equiv_pos_site_id
 _symmetry_equiv_pos_as_xyz
  1  'x, y, z'
loop_
 _atom_site_type_symbol
 _atom_site_label
 _atom_site_symmetry_multiplicity
 _atom_site_fract_x
 _atom_site_fract_y
 _atom_site_fract_z
 _atom_site_occupancy
  La  La0  1  0.500000  0.000000  0.769882  1
  La  La1  1  0.335532  0.308641  0.108428  1
  La  La2  1  0.819110  0.827581  0.890140  1
  La  La3  1  0.000000  0.500000  0.230827  1
  La  La4  1  0.831038  0.186149  0.386904  1
  La  La5  1  0.180890  0.172419  0.890140  1
  La  La6  1  0.664468  0.691359  0.108428  1
  La  La7  1  0.000000  0.500000  0.731170  1
  La  La8  1  0.823813  0.824472  0.614044  1
  La  La9  1  0.313851  0.331038  0.386904  1
  La  La10  1  0.191359  0.835532  0.108428  1
  La  La11  1  0.176187  0.175528  0.614044  1
  La  La12  1  0.808641  0.164468  0.108428  1
  La  La13  1  0.324472  0.676187  0.614044  1
  La  La14  1  0.500000  0.000000  0.271270  1
  La  La15  1  0.672419  0.319110  0.890140  1
  La  La16  1  0.675528  0.323813  0.614044  1
  La  La17  1  0.327581  0.680890  0.890140  1
  La  La18  1  0.168962  0.813851  0.386904  1
  La  La19  1  0.686149  0.668962  0.386904  1
  Al  Al20  1  0.000000  0.500000  0.505465  1
  Si  Si21  1  0.613954  0.387703  0.247753  1
  Si  Si22  1  0.886520  0.114866  0.752372  1
  Si  Si23  1  0.887703  0.886046  0.247753  1
  Si  Si24  1  0.113480  0.885134  0.752372  1
  Si  Si25  1  0.385134  0.386520  0.752372  1
  Si  Si26  1  0.112297  0.113954  0.247753  1
  Si  Si27  1  0.386046  0.612297  0.247753  1
  Si  Si28  1  0.614866  0.613480  0.752372  1
  Si  Si29  1  0.500000  0.000000  0.991318  1
  Bi  Bi30  1  0.500000  0.000000  0.500817  1
  Bi  Bi31  1  0.000000  0.500000  0.000678  1
