# generated using pymatgen
data_Er3ThZnCo
_symmetry_space_group_name_H-M   'P 1'
_cell_length_a   9.35806473
_cell_length_b   9.35806560
_cell_length_c   9.35806600
_cell_angle_alpha   60.00000565
_cell_angle_beta   60.00000259
_cell_angle_gamma   60.00000275
_symmetry_Int_Tables_number   1
_chemical_formula_structural   Er3ThZnCo
_chemical_formula_sum   'Er12 Th4 Zn4 Co4'
_cell_volume   579.48643244
_cell_formula_units_Z   4
loop_
 _symmetry_equiv_pos_site_id
 _symmetry_equiv_pos_as_xyz
  1  'x, y, z'
loop_
 _atom_site_type_symbol
 _atom_site_label
 _atom_site_symmetry_multiplicity
 _atom_site_fract_x
 _atom_site_fract_y
 _atom_site_fract_z
 _atom_site_occupancy
  Er  Er0  1  0.060644  0.439356  0.439356  1
  Er  Er1  1  0.439356  0.060644  0.060644  1
  Er  Er2  1  0.439356  0.060644  0.439356  1
  Er  Er3  1  0.060644  0.439356  0.060644  1
  Er  Er4  1  0.439356  0.439356  0.060644  1
  Er  Er5  1  0.060644  0.060644  0.439356  1
  Er  Er6  1  0.185452  0.814548  0.814548  1
  Er  Er7  1  0.814548  0.185452  0.185452  1
  Er  Er8  1  0.814548  0.185452  0.814548  1
  Er  Er9  1  0.185452  0.814548  0.185452  1
  Er  Er10  1  0.814548  0.814548  0.185452  1
  Er  Er11  1  0.185452  0.185452  0.814548  1
  Th  Th12  1  0.600049  0.600049  0.600049  1
  Th  Th13  1  0.600049  0.600049  0.199855  1
  Th  Th14  1  0.600049  0.199855  0.600049  1
  Th  Th15  1  0.199855  0.600049  0.600049  1
  Zn  Zn16  1  0.830813  0.830813  0.830813  1
  Zn  Zn17  1  0.830813  0.830813  0.507563  1
  Zn  Zn18  1  0.830813  0.507563  0.830813  1
  Zn  Zn19  1  0.507563  0.830813  0.830813  1
  Co  Co20  1  0.394353  0.394353  0.394353  1
  Co  Co21  1  0.394353  0.394353  0.816941  1
  Co  Co22  1  0.394353  0.816941  0.394353  1
  Co  Co23  1  0.816941  0.394353  0.394353  1
