# generated using pymatgen
data_Sr4Sc7CrSe16
_symmetry_space_group_name_H-M   'P 1'
_cell_length_a   3.95768000
_cell_length_b   12.23485517
_cell_length_c   14.26915833
_cell_angle_alpha   89.77758761
_cell_angle_beta   90.00000000
_cell_angle_gamma   90.00000000
_symmetry_Int_Tables_number   1
_chemical_formula_structural   Sr4Sc7CrSe16
_chemical_formula_sum   'Sr4 Sc7 Cr1 Se16'
_cell_volume   690.93086515
_cell_formula_units_Z   1
loop_
 _symmetry_equiv_pos_site_id
 _symmetry_equiv_pos_as_xyz
  1  'x, y, z'
loop_
 _atom_site_type_symbol
 _atom_site_label
 _atom_site_symmetry_multiplicity
 _atom_site_fract_x
 _atom_site_fract_y
 _atom_site_fract_z
 _atom_site_occupancy
  Sr  Sr0  1  0.250000  0.759728  0.331752  1
  Sr  Sr1  1  0.250000  0.260819  0.171979  1
  Sr  Sr2  1  0.750000  0.235305  0.664502  1
  Sr  Sr3  1  0.750000  0.740033  0.830294  1
  Sc  Sc4  1  0.250000  0.437371  0.391450  1
  Sc  Sc5  1  0.250000  0.944525  0.115008  1
  Sc  Sc6  1  0.750000  0.557834  0.610234  1
  Sc  Sc7  1  0.750000  0.058724  0.890883  1
  Sc  Sc8  1  0.250000  0.418506  0.903611  1
  Sc  Sc9  1  0.250000  0.921302  0.593334  1
  Sc  Sc10  1  0.750000  0.580670  0.097330  1
  Cr  Cr11  1  0.750000  0.080416  0.402116  1
  Se  Se12  1  0.250000  0.203623  0.838920  1
  Se  Se13  1  0.250000  0.705113  0.656580  1
  Se  Se14  1  0.750000  0.797181  0.161071  1
  Se  Se15  1  0.750000  0.289103  0.344781  1
  Se  Se16  1  0.250000  0.121369  0.516397  1
  Se  Se17  1  0.250000  0.625008  0.971561  1
  Se  Se18  1  0.750000  0.884533  0.464752  1
  Se  Se19  1  0.750000  0.374955  0.029481  1
  Se  Se20  1  0.250000  0.033731  0.292487  1
  Se  Se21  1  0.250000  0.526770  0.216388  1
  Se  Se22  1  0.750000  0.973728  0.713252  1
  Se  Se23  1  0.750000  0.471334  0.785000  1
  Se  Se24  1  0.250000  0.409787  0.576847  1
  Se  Se25  1  0.250000  0.912074  0.927420  1
  Se  Se26  1  0.750000  0.586726  0.424929  1
  Se  Se27  1  0.750000  0.089732  0.077640  1
