# generated using pymatgen
data_Th6Al6Pd5Ru
_symmetry_space_group_name_H-M   'P 1'
_cell_length_a   7.27310400
_cell_length_b   7.27310365
_cell_length_c   8.47180200
_cell_angle_alpha   90.00000000
_cell_angle_beta   90.00000000
_cell_angle_gamma   119.99999250
_symmetry_Int_Tables_number   1
_chemical_formula_structural   Th6Al6Pd5Ru
_chemical_formula_sum   'Th6 Al6 Pd5 Ru1'
_cell_volume   388.10213868
_cell_formula_units_Z   1
loop_
 _symmetry_equiv_pos_site_id
 _symmetry_equiv_pos_as_xyz
  1  'x, y, z'
loop_
 _atom_site_type_symbol
 _atom_site_label
 _atom_site_symmetry_multiplicity
 _atom_site_fract_x
 _atom_site_fract_y
 _atom_site_fract_z
 _atom_site_occupancy
  Th  Th0  1  0.005218  0.580998  0.754355  1
  Th  Th1  1  0.004858  0.580664  0.245581  1
  Th  Th2  1  0.575806  0.995142  0.245581  1
  Th  Th3  1  0.575780  0.994782  0.754355  1
  Th  Th4  1  0.419336  0.424194  0.245581  1
  Th  Th5  1  0.419002  0.424220  0.754355  1
  Al  Al6  1  0.999076  0.231868  0.500058  1
  Al  Al7  1  0.764983  0.769350  0.000051  1
  Al  Al8  1  0.004368  0.235017  0.000051  1
  Al  Al9  1  0.232794  0.000924  0.500058  1
  Al  Al10  1  0.230650  0.995632  0.000051  1
  Al  Al11  1  0.768132  0.767206  0.500058  1
  Pd  Pd12  1  0.333333  0.666667  0.499750  1
  Pd  Pd13  1  0.666667  0.333333  0.500197  1
  Pd  Pd14  1  0.666667  0.333333  0.999821  1
  Pd  Pd15  1  0.000000  0.000000  0.249810  1
  Pd  Pd16  1  0.000000  0.000000  0.750373  1
  Ru  Ru17  1  0.333333  0.666667  0.999916  1
