# generated using pymatgen
data_Th3MgTl2(MoO4)8
_symmetry_space_group_name_H-M   'P 1'
_cell_length_a   13.18416917
_cell_length_b   13.18416975
_cell_length_c   9.58358673
_cell_angle_alpha   90.17014633
_cell_angle_beta   90.17015064
_cell_angle_gamma   88.41148146
_symmetry_Int_Tables_number   1
_chemical_formula_structural   Th3MgTl2(MoO4)8
_chemical_formula_sum   'Th6 Mg2 Tl4 Mo16 O64'
_cell_volume   1665.18683361
_cell_formula_units_Z   2
loop_
 _symmetry_equiv_pos_site_id
 _symmetry_equiv_pos_as_xyz
  1  'x, y, z'
loop_
 _atom_site_type_symbol
 _atom_site_label
 _atom_site_symmetry_multiplicity
 _atom_site_fract_x
 _atom_site_fract_y
 _atom_site_fract_z
 _atom_site_occupancy
  Th  Th0  1  0.129934  0.870066  0.250000  1
  Th  Th1  1  0.870066  0.129934  0.750000  1
  Th  Th2  1  0.869639  0.631836  0.659831  1
  Th  Th3  1  0.368164  0.130361  0.840169  1
  Th  Th4  1  0.130361  0.368164  0.340169  1
  Th  Th5  1  0.631836  0.869639  0.159831  1
  Mg  Mg6  1  0.590226  0.409774  0.250000  1
  Mg  Mg7  1  0.409774  0.590226  0.750000  1
  Tl  Tl8  1  0.144865  0.619616  0.934632  1
  Tl  Tl9  1  0.380384  0.855135  0.565368  1
  Tl  Tl10  1  0.855135  0.380384  0.065368  1
  Tl  Tl11  1  0.619616  0.144865  0.434632  1
  Mo  Mo12  1  0.905820  0.857283  0.951803  1
  Mo  Mo13  1  0.142717  0.094180  0.548197  1
  Mo  Mo14  1  0.094180  0.142717  0.048197  1
  Mo  Mo15  1  0.857283  0.905820  0.451803  1
  Mo  Mo16  1  0.169248  0.649809  0.529569  1
  Mo  Mo17  1  0.350191  0.830752  0.970431  1
  Mo  Mo18  1  0.830752  0.350191  0.470431  1
  Mo  Mo19  1  0.649809  0.169248  0.029569  1
  Mo  Mo20  1  0.967071  0.607520  0.246135  1
  Mo  Mo21  1  0.392480  0.032929  0.253865  1
  Mo  Mo22  1  0.032929  0.392480  0.753865  1
  Mo  Mo23  1  0.607520  0.967071  0.746135  1
  Mo  Mo24  1  0.654045  0.588041  0.963360  1
  Mo  Mo25  1  0.411959  0.345955  0.536640  1
  Mo  Mo26  1  0.345955  0.411959  0.036640  1
  Mo  Mo27  1  0.588041  0.654045  0.463360  1
  O  O28  1  0.917588  0.614345  0.421399  1
  O  O29  1  0.385655  0.082412  0.078601  1
  O  O30  1  0.082412  0.385655  0.578601  1
  O  O31  1  0.614345  0.917588  0.921399  1
  O  O32  1  0.200715  0.763094  0.431471  1
  O  O33  1  0.236906  0.799285  0.068529  1
  O  O34  1  0.799285  0.236906  0.568529  1
  O  O35  1  0.763094  0.200715  0.931471  1
  O  O36  1  0.759878  0.584666  0.842594  1
  O  O37  1  0.415334  0.240122  0.657406  1
  O  O38  1  0.240122  0.415334  0.157406  1
  O  O39  1  0.584666  0.759878  0.342594  1
  O  O40  1  0.152182  0.545250  0.411892  1
  O  O41  1  0.454750  0.847818  0.088108  1
  O  O42  1  0.847818  0.454750  0.588108  1
  O  O43  1  0.545250  0.152182  0.911892  1
  O  O44  1  0.911165  0.742042  0.851172  1
  O  O45  1  0.257958  0.088835  0.648828  1
  O  O46  1  0.088835  0.257958  0.148828  1
  O  O47  1  0.742042  0.911165  0.351172  1
  O  O48  1  0.668023  0.484164  0.083819  1
  O  O49  1  0.515836  0.331977  0.416181  1
  O  O50  1  0.331977  0.515836  0.916181  1
  O  O51  1  0.484164  0.668023  0.583819  1
  O  O52  1  0.804073  0.856648  0.074961  1
  O  O53  1  0.143352  0.195927  0.425039  1
  O  O54  1  0.195927  0.143352  0.925039  1
  O  O55  1  0.856648  0.804073  0.574961  1
  O  O56  1  0.018932  0.480799  0.205633  1
  O  O57  1  0.519201  0.981068  0.294367  1
  O  O58  1  0.981068  0.519201  0.794367  1
  O  O59  1  0.480799  0.018932  0.705633  1
  O  O60  1  0.267415  0.621764  0.652207  1
  O  O61  1  0.378236  0.732585  0.847793  1
  O  O62  1  0.732585  0.378236  0.347793  1
  O  O63  1  0.621764  0.267415  0.152207  1
  O  O64  1  0.060405  0.704071  0.214098  1
  O  O65  1  0.295929  0.939595  0.285902  1
  O  O66  1  0.939595  0.295929  0.785902  1
  O  O67  1  0.704071  0.060405  0.714098  1
  O  O68  1  0.542567  0.572094  0.863726  1
  O  O69  1  0.427906  0.457433  0.636274  1
  O  O70  1  0.457433  0.427906  0.136274  1
  O  O71  1  0.572094  0.542567  0.363726  1
  O  O72  1  0.025034  0.872943  0.037380  1
  O  O73  1  0.127057  0.974966  0.462620  1
  O  O74  1  0.974966  0.127057  0.962620  1
  O  O75  1  0.872943  0.025034  0.537380  1
  O  O76  1  0.883273  0.961774  0.834419  1
  O  O77  1  0.038226  0.116727  0.665581  1
  O  O78  1  0.116727  0.038226  0.165581  1
  O  O79  1  0.961774  0.883273  0.334419  1
  O  O80  1  0.642328  0.708207  0.054743  1
  O  O81  1  0.291793  0.357672  0.445257  1
  O  O82  1  0.357672  0.291793  0.945257  1
  O  O83  1  0.708207  0.642328  0.554743  1
  O  O84  1  0.055359  0.673562  0.626682  1
  O  O85  1  0.326438  0.944641  0.873318  1
  O  O86  1  0.944641  0.326438  0.373318  1
  O  O87  1  0.673562  0.055359  0.126682  1
  O  O88  1  0.865416  0.625744  0.132102  1
  O  O89  1  0.374256  0.134584  0.367898  1
  O  O90  1  0.134584  0.374256  0.867898  1
  O  O91  1  0.625744  0.865416  0.632102  1
