# generated using pymatgen
data_Hf2Zr4Si3Ge
_symmetry_space_group_name_H-M   'P 1'
_cell_length_a   7.11053704
_cell_length_b   7.11053744
_cell_length_c   3.72113200
_cell_angle_alpha   90.00000000
_cell_angle_beta   90.00000000
_cell_angle_gamma   89.85926916
_symmetry_Int_Tables_number   1
_chemical_formula_structural   Hf2Zr4Si3Ge
_chemical_formula_sum   'Hf2 Zr4 Si3 Ge1'
_cell_volume   188.13889831
_cell_formula_units_Z   1
loop_
 _symmetry_equiv_pos_site_id
 _symmetry_equiv_pos_as_xyz
  1  'x, y, z'
loop_
 _atom_site_type_symbol
 _atom_site_label
 _atom_site_symmetry_multiplicity
 _atom_site_fract_x
 _atom_site_fract_y
 _atom_site_fract_z
 _atom_site_occupancy
  Hf  Hf0  1  0.502321  0.499387  0.000000  1
  Hf  Hf1  1  0.999387  0.002321  0.000000  1
  Zr  Zr2  1  0.823142  0.672689  0.500000  1
  Zr  Zr3  1  0.330356  0.830356  0.500000  1
  Zr  Zr4  1  0.172689  0.323142  0.500000  1
  Zr  Zr5  1  0.672678  0.172678  0.500000  1
  Si  Si6  1  0.624128  0.876009  0.000000  1
  Si  Si7  1  0.376009  0.124128  0.000000  1
  Si  Si8  1  0.873338  0.373338  0.000000  1
  Ge  Ge9  1  0.125954  0.625954  0.000000  1
