# generated using pymatgen
data_LiYB6Ir
_symmetry_space_group_name_H-M   'P 1'
_cell_length_a   3.52731500
_cell_length_b   8.83150100
_cell_length_c   11.23529600
_cell_angle_alpha   90.00000000
_cell_angle_beta   90.00000000
_cell_angle_gamma   90.00000000
_symmetry_Int_Tables_number   1
_chemical_formula_structural   LiYB6Ir
_chemical_formula_sum   'Li4 Y4 B24 Ir4'
_cell_volume   349.99616549
_cell_formula_units_Z   4
loop_
 _symmetry_equiv_pos_site_id
 _symmetry_equiv_pos_as_xyz
  1  'x, y, z'
loop_
 _atom_site_type_symbol
 _atom_site_label
 _atom_site_symmetry_multiplicity
 _atom_site_fract_x
 _atom_site_fract_y
 _atom_site_fract_z
 _atom_site_occupancy
  Li  Li0  1  0.500000  0.446096  0.123263  1
  Li  Li1  1  0.500000  0.553904  0.876737  1
  Li  Li2  1  0.500000  0.053904  0.623263  1
  Li  Li3  1  0.500000  0.946096  0.376737  1
  Y  Y4  1  0.500000  0.316288  0.414533  1
  Y  Y5  1  0.500000  0.683712  0.585467  1
  Y  Y6  1  0.500000  0.183712  0.914533  1
  Y  Y7  1  0.500000  0.816288  0.085467  1
  B  B8  1  0.000000  0.090454  0.475180  1
  B  B9  1  0.000000  0.909546  0.524820  1
  B  B10  1  0.000000  0.409546  0.975180  1
  B  B11  1  0.000000  0.590454  0.024820  1
  B  B12  1  0.000000  0.124011  0.318668  1
  B  B13  1  0.000000  0.875989  0.681332  1
  B  B14  1  0.000000  0.375989  0.818668  1
  B  B15  1  0.000000  0.624011  0.181332  1
  B  B16  1  0.000000  0.055951  0.067975  1
  B  B17  1  0.000000  0.944049  0.932025  1
  B  B18  1  0.000000  0.444049  0.567975  1
  B  B19  1  0.000000  0.555951  0.432025  1
  B  B20  1  0.000000  0.479388  0.285143  1
  B  B21  1  0.000000  0.520612  0.714857  1
  B  B22  1  0.000000  0.020612  0.785143  1
  B  B23  1  0.000000  0.979388  0.214857  1
  B  B24  1  0.000000  0.258724  0.082475  1
  B  B25  1  0.000000  0.741276  0.917525  1
  B  B26  1  0.000000  0.241276  0.582475  1
  B  B27  1  0.000000  0.758724  0.417525  1
  B  B28  1  0.000000  0.293407  0.235751  1
  B  B29  1  0.000000  0.706593  0.764249  1
  B  B30  1  0.000000  0.206593  0.735751  1
  B  B31  1  0.000000  0.793407  0.264249  1
  Ir  Ir32  1  0.500000  0.140453  0.182081  1
  Ir  Ir33  1  0.500000  0.859547  0.817919  1
  Ir  Ir34  1  0.500000  0.359547  0.682081  1
  Ir  Ir35  1  0.500000  0.640453  0.317919  1
