# generated using pymatgen
data_Th4Co(Si2Rh)5
_symmetry_space_group_name_H-M   'P 1'
_cell_length_a   8.21225719
_cell_length_b   8.20701156
_cell_length_c   8.20701196
_cell_angle_alpha   137.69971041
_cell_angle_beta   105.72081147
_cell_angle_gamma   89.38439053
_symmetry_Int_Tables_number   1
_chemical_formula_structural   Th4Co(Si2Rh)5
_chemical_formula_sum   'Th4 Co1 Si10 Rh5'
_cell_volume   342.64491161
_cell_formula_units_Z   1
loop_
 _symmetry_equiv_pos_site_id
 _symmetry_equiv_pos_as_xyz
  1  'x, y, z'
loop_
 _atom_site_type_symbol
 _atom_site_label
 _atom_site_symmetry_multiplicity
 _atom_site_fract_x
 _atom_site_fract_y
 _atom_site_fract_z
 _atom_site_occupancy
  Th  Th0  1  0.863294  0.630385  0.232909  1
  Th  Th1  1  0.137722  0.370040  0.767682  1
  Th  Th2  1  0.605140  0.869572  0.735569  1
  Th  Th3  1  0.395915  0.131670  0.264244  1
  Co  Co4  1  0.246732  0.861364  0.385367  1
  Si  Si5  1  0.047695  0.890097  0.157599  1
  Si  Si6  1  0.963304  0.110038  0.853265  1
  Si  Si7  1  0.259841  0.609772  0.650069  1
  Si  Si8  1  0.742006  0.391147  0.350859  1
  Si  Si9  1  0.229190  0.972130  0.734339  1
  Si  Si10  1  0.775029  0.524715  0.752003  1
  Si  Si11  1  0.775029  0.023026  0.250315  1
  Si  Si12  1  0.489083  0.228882  0.730764  1
  Si  Si13  1  0.489083  0.758319  0.260201  1
  Si  Si14  1  0.229190  0.494850  0.257060  1
  Rh  Rh15  1  0.001886  0.249263  0.251734  1
  Rh  Rh16  1  0.748856  0.136807  0.612051  1
  Rh  Rh17  1  0.526467  0.635335  0.891131  1
  Rh  Rh18  1  0.472653  0.362438  0.110216  1
  Rh  Rh19  1  0.001886  0.750152  0.752623  1
