# generated using pymatgen
data_Sr2H7Pt2
_symmetry_space_group_name_H-M   'P 1'
_cell_length_a   4.61707788
_cell_length_b   7.89397892
_cell_length_c   8.15466789
_cell_angle_alpha   81.08231691
_cell_angle_beta   31.59661832
_cell_angle_gamma   72.34443693
_symmetry_Int_Tables_number   1
_chemical_formula_structural   Sr2H7Pt2
_chemical_formula_sum   'Sr2 H7 Pt2'
_cell_volume   145.17401362
_cell_formula_units_Z   1
loop_
 _symmetry_equiv_pos_site_id
 _symmetry_equiv_pos_as_xyz
  1  'x, y, z'
loop_
 _atom_site_type_symbol
 _atom_site_label
 _atom_site_symmetry_multiplicity
 _atom_site_fract_x
 _atom_site_fract_y
 _atom_site_fract_z
 _atom_site_occupancy
  Sr  Sr0  1  0.884157  0.211404  0.272942  1
  Sr  Sr1  1  0.512081  0.717923  0.689483  1
  H  H2  1  0.529032  0.056057  0.727715  1
  H  H3  1  0.036352  0.065058  0.725410  1
  H  H4  1  0.386898  0.863580  0.226217  1
  H  H5  1  0.198317  0.384660  0.331883  1
  H  H6  1  0.028434  0.471976  0.003969  1
  H  H7  1  0.132072  0.544728  0.661892  1
  H  H8  1  0.898439  0.871178  0.222281  1
  Pt  Pt9  1  0.213340  0.964052  0.475006  1
  Pt  Pt10  1  0.672570  0.465604  0.997661  1
