# generated using pymatgen
data_TmLu2In3Ag2Au
_symmetry_space_group_name_H-M   'P 1'
_cell_length_a   7.79457002
_cell_length_b   7.78110288
_cell_length_c   3.88420300
_cell_angle_alpha   90.00000000
_cell_angle_beta   90.00000000
_cell_angle_gamma   120.01260817
_symmetry_Int_Tables_number   1
_chemical_formula_structural   TmLu2In3Ag2Au
_chemical_formula_sum   'Tm1 Lu2 In3 Ag2 Au1'
_cell_volume   203.99084669
_cell_formula_units_Z   1
loop_
 _symmetry_equiv_pos_site_id
 _symmetry_equiv_pos_as_xyz
  1  'x, y, z'
loop_
 _atom_site_type_symbol
 _atom_site_label
 _atom_site_symmetry_multiplicity
 _atom_site_fract_x
 _atom_site_fract_y
 _atom_site_fract_z
 _atom_site_occupancy
  Tm  Tm0  1  0.007257  0.599309  0.500000  1
  Lu  Lu1  1  0.400671  0.408177  0.500000  1
  Lu  Lu2  1  0.591688  0.992054  0.500000  1
  In  In3  1  0.739140  0.733473  0.000000  1
  In  In4  1  0.266828  0.006314  0.000000  1
  In  In5  1  0.993895  0.260195  0.000000  1
  Ag  Ag6  1  0.665993  0.332920  0.000000  1
  Ag  Ag7  1  0.000048  0.000392  0.500000  1
  Au  Au8  1  0.334479  0.667165  0.000000  1
