# generated using pymatgen
data_Er16MgIn3IrRh3
_symmetry_space_group_name_H-M   'P 1'
_cell_length_a   9.57775347
_cell_length_b   9.60055434
_cell_length_c   9.57767957
_cell_angle_alpha   60.07230536
_cell_angle_beta   59.87990725
_cell_angle_gamma   60.07152628
_symmetry_Int_Tables_number   1
_chemical_formula_structural   Er16MgIn3IrRh3
_chemical_formula_sum   'Er16 Mg1 In3 Ir1 Rh3'
_cell_volume   622.84492190
_cell_formula_units_Z   1
loop_
 _symmetry_equiv_pos_site_id
 _symmetry_equiv_pos_as_xyz
  1  'x, y, z'
loop_
 _atom_site_type_symbol
 _atom_site_label
 _atom_site_symmetry_multiplicity
 _atom_site_fract_x
 _atom_site_fract_y
 _atom_site_fract_z
 _atom_site_occupancy
  Er  Er0  1  0.190019  0.191238  0.810638  1
  Er  Er1  1  0.437401  0.061908  0.062510  1
  Er  Er2  1  0.435293  0.063779  0.435266  1
  Er  Er3  1  0.061649  0.436989  0.061625  1
  Er  Er4  1  0.648635  0.050840  0.648614  1
  Er  Er5  1  0.189006  0.812105  0.811953  1
  Er  Er6  1  0.062567  0.061889  0.437344  1
  Er  Er7  1  0.810505  0.191403  0.189997  1
  Er  Er8  1  0.811873  0.812165  0.189089  1
  Er  Er9  1  0.649979  0.648776  0.047211  1
  Er  Er10  1  0.653297  0.651608  0.653249  1
  Er  Er11  1  0.062951  0.435015  0.438928  1
  Er  Er12  1  0.047169  0.648738  0.649996  1
  Er  Er13  1  0.809759  0.191703  0.809796  1
  Er  Er14  1  0.438992  0.435000  0.062958  1
  Er  Er15  1  0.187660  0.814546  0.187636  1
  Mg  Mg16  1  0.422528  0.733912  0.422396  1
  In  In17  1  0.416648  0.418697  0.748444  1
  In  In18  1  0.748424  0.418674  0.416659  1
  In  In19  1  0.416598  0.418034  0.416641  1
  Ir  Ir20  1  0.858138  0.425805  0.858156  1
  Rh  Rh21  1  0.857753  0.859247  0.426185  1
  Rh  Rh22  1  0.426201  0.859191  0.857818  1
  Rh  Rh23  1  0.856958  0.858741  0.856893  1
