# generated using pymatgen
data_Y4Ho6OsRu3
_symmetry_space_group_name_H-M   'P 1'
_cell_length_a   6.35490713
_cell_length_b   7.29802641
_cell_length_c   8.46726469
_cell_angle_alpha   96.86709809
_cell_angle_beta   112.04792812
_cell_angle_gamma   89.81034733
_symmetry_Int_Tables_number   1
_chemical_formula_structural   Y4Ho6OsRu3
_chemical_formula_sum   'Y4 Ho6 Os1 Ru3'
_cell_volume   360.99920553
_cell_formula_units_Z   1
loop_
 _symmetry_equiv_pos_site_id
 _symmetry_equiv_pos_as_xyz
  1  'x, y, z'
loop_
 _atom_site_type_symbol
 _atom_site_label
 _atom_site_symmetry_multiplicity
 _atom_site_fract_x
 _atom_site_fract_y
 _atom_site_fract_z
 _atom_site_occupancy
  Y  Y0  1  0.978449  0.917674  0.188058  1
  Y  Y1  1  0.792534  0.583765  0.815234  1
  Y  Y2  1  0.021625  0.083675  0.812660  1
  Y  Y3  1  0.209959  0.417120  0.188351  1
  Ho  Ho4  1  0.639261  0.815005  0.434200  1
  Ho  Ho5  1  0.201474  0.683767  0.564469  1
  Ho  Ho6  1  0.362002  0.183983  0.565618  1
  Ho  Ho7  1  0.795787  0.315155  0.434549  1
  Ho  Ho8  1  0.422323  0.749033  0.999947  1
  Ho  Ho9  1  0.578330  0.250965  0.000694  1
  Os  Os10  1  0.818540  0.576494  0.219604  1
  Ru  Ru11  1  0.596456  0.925612  0.776561  1
  Ru  Ru12  1  0.180023  0.423248  0.777600  1
  Ru  Ru13  1  0.403234  0.074504  0.222457  1
