# generated using pymatgen
data_Tb7P12Pd17
_symmetry_space_group_name_H-M   'P 1'
_cell_length_a   12.30803977
_cell_length_b   12.30803998
_cell_length_c   13.57592131
_cell_angle_alpha   68.32133889
_cell_angle_beta   68.32133833
_cell_angle_gamma   18.75324651
_symmetry_Int_Tables_number   1
_chemical_formula_structural   Tb7P12Pd17
_chemical_formula_sum   'Tb7 P12 Pd17'
_cell_volume   613.08843236
_cell_formula_units_Z   1
loop_
 _symmetry_equiv_pos_site_id
 _symmetry_equiv_pos_as_xyz
  1  'x, y, z'
loop_
 _atom_site_type_symbol
 _atom_site_label
 _atom_site_symmetry_multiplicity
 _atom_site_fract_x
 _atom_site_fract_y
 _atom_site_fract_z
 _atom_site_occupancy
  Tb  Tb0  1  0.500000  0.500000  0.500000  1
  Tb  Tb1  1  0.365072  0.365072  0.000646  1
  Tb  Tb2  1  0.634928  0.634928  0.999354  1
  Tb  Tb3  1  0.233794  0.233794  0.313457  1
  Tb  Tb4  1  0.766206  0.766206  0.686543  1
  Tb  Tb5  1  0.418350  0.418350  0.261140  1
  Tb  Tb6  1  0.581650  0.581650  0.738860  1
  P  P7  1  0.062073  0.062073  0.923705  1
  P  P8  1  0.937927  0.937927  0.076295  1
  P  P9  1  0.886693  0.886693  0.830069  1
  P  P10  1  0.113307  0.113307  0.169931  1
  P  P11  1  0.188545  0.188545  0.622058  1
  P  P12  1  0.811455  0.811455  0.377942  1
  P  P13  1  0.364341  0.364341  0.581626  1
  P  P14  1  0.635659  0.635659  0.418374  1
  P  P15  1  0.012185  0.012185  0.668422  1
  P  P16  1  0.987815  0.987815  0.331578  1
  P  P17  1  0.231379  0.231379  0.882162  1
  P  P18  1  0.768621  0.768621  0.117838  1
  Pd  Pd19  1  0.839083  0.839083  0.194041  1
  Pd  Pd20  1  0.160917  0.160917  0.805959  1
  Pd  Pd21  1  0.026282  0.026282  0.124070  1
  Pd  Pd22  1  0.973718  0.973718  0.875930  1
  Pd  Pd23  1  0.889072  0.889072  0.456296  1
  Pd  Pd24  1  0.110928  0.110928  0.543704  1
  Pd  Pd25  1  0.500000  0.500000  0.000000  1
  Pd  Pd26  1  0.545819  0.545819  0.254635  1
  Pd  Pd27  1  0.454181  0.454181  0.745365  1
  Pd  Pd28  1  0.296129  0.296129  0.489378  1
  Pd  Pd29  1  0.703871  0.703871  0.510622  1
  Pd  Pd30  1  0.667560  0.667560  0.224233  1
  Pd  Pd31  1  0.332440  0.332440  0.775767  1
  Pd  Pd32  1  0.909123  0.909123  0.641838  1
  Pd  Pd33  1  0.090877  0.090877  0.358162  1
  Pd  Pd34  1  0.216927  0.216927  0.068782  1
  Pd  Pd35  1  0.783073  0.783073  0.931218  1
