# generated using pymatgen
data_Cs8Y6ZnI20
_symmetry_space_group_name_H-M   'P 1'
_cell_length_a   13.71522042
_cell_length_b   13.71521984
_cell_length_c   13.71522000
_cell_angle_alpha   60.00000444
_cell_angle_beta   60.00000584
_cell_angle_gamma   60.00000806
_symmetry_Int_Tables_number   1
_chemical_formula_structural   Cs8Y6ZnI20
_chemical_formula_sum   'Cs8 Y6 Zn1 I20'
_cell_volume   1824.28801755
_cell_formula_units_Z   1
loop_
 _symmetry_equiv_pos_site_id
 _symmetry_equiv_pos_as_xyz
  1  'x, y, z'
loop_
 _atom_site_type_symbol
 _atom_site_label
 _atom_site_symmetry_multiplicity
 _atom_site_fract_x
 _atom_site_fract_y
 _atom_site_fract_z
 _atom_site_occupancy
  Cs  Cs0  1  0.359693  0.359693  0.359693  1
  Cs  Cs1  1  0.640307  0.640307  0.640307  1
  Cs  Cs2  1  0.359693  0.359693  0.920922  1
  Cs  Cs3  1  0.359693  0.920922  0.359693  1
  Cs  Cs4  1  0.640307  0.640307  0.079078  1
  Cs  Cs5  1  0.640307  0.079078  0.640307  1
  Cs  Cs6  1  0.920922  0.359693  0.359693  1
  Cs  Cs7  1  0.079078  0.640307  0.640307  1
  Y  Y8  1  0.851942  0.148058  0.148058  1
  Y  Y9  1  0.148058  0.851942  0.851942  1
  Y  Y10  1  0.148058  0.851942  0.148058  1
  Y  Y11  1  0.851942  0.148058  0.851942  1
  Y  Y12  1  0.148058  0.148058  0.851942  1
  Y  Y13  1  0.851942  0.851942  0.148058  1
  Zn  Zn14  1  0.000000  0.000000  0.000000  1
  I  I15  1  0.320629  0.000000  0.000000  1
  I  I16  1  0.679371  0.000000  0.000000  1
  I  I17  1  0.000000  0.320629  0.679371  1
  I  I18  1  0.000000  0.679371  0.320629  1
  I  I19  1  0.000000  0.320629  0.000000  1
  I  I20  1  0.679371  0.000000  0.320629  1
  I  I21  1  0.000000  0.679371  0.000000  1
  I  I22  1  0.320629  0.000000  0.679371  1
  I  I23  1  0.000000  0.000000  0.320629  1
  I  I24  1  0.000000  0.000000  0.679371  1
  I  I25  1  0.679371  0.320629  0.000000  1
  I  I26  1  0.320629  0.679371  0.000000  1
  I  I27  1  0.687985  0.312015  0.312015  1
  I  I28  1  0.312015  0.687985  0.687985  1
  I  I29  1  0.312015  0.687985  0.312015  1
  I  I30  1  0.687985  0.312015  0.687985  1
  I  I31  1  0.312015  0.312015  0.687985  1
  I  I32  1  0.687985  0.687985  0.312015  1
  I  I33  1  0.250000  0.250000  0.250000  1
  I  I34  1  0.750000  0.750000  0.750000  1
