# generated using pymatgen
data_Ce2B8IrRh
_symmetry_space_group_name_H-M   'P 1'
_cell_length_a   7.05826344
_cell_length_b   7.05826232
_cell_length_c   7.05826394
_cell_angle_alpha   111.86056851
_cell_angle_beta   111.67660215
_cell_angle_gamma   104.96824057
_symmetry_Int_Tables_number   1
_chemical_formula_structural   Ce2B8IrRh
_chemical_formula_sum   'Ce4 B16 Ir2 Rh2'
_cell_volume   269.44789872
_cell_formula_units_Z   2
loop_
 _symmetry_equiv_pos_site_id
 _symmetry_equiv_pos_as_xyz
  1  'x, y, z'
loop_
 _atom_site_type_symbol
 _atom_site_label
 _atom_site_symmetry_multiplicity
 _atom_site_fract_x
 _atom_site_fract_y
 _atom_site_fract_z
 _atom_site_occupancy
  Ce  Ce0  1  0.790701  0.790701  0.000000  1
  Ce  Ce1  1  0.209299  0.209299  0.000000  1
  Ce  Ce2  1  0.751427  0.251427  0.500000  1
  Ce  Ce3  1  0.248573  0.748573  0.500000  1
  B  B4  1  0.262930  0.107001  0.369932  1
  B  B5  1  0.737070  0.892999  0.630068  1
  B  B6  1  0.262930  0.892999  0.155929  1
  B  B7  1  0.737070  0.107001  0.844071  1
  B  B8  1  0.107268  0.735085  0.842353  1
  B  B9  1  0.892732  0.264915  0.157647  1
  B  B10  1  0.107268  0.264915  0.372182  1
  B  B11  1  0.892732  0.735085  0.627818  1
  B  B12  1  0.110966  0.110922  0.524971  1
  B  B13  1  0.585951  0.585995  0.475029  1
  B  B14  1  0.110966  0.585995  0.000043  1
  B  B15  1  0.585951  0.110922  0.999957  1
  B  B16  1  0.889034  0.889078  0.475029  1
  B  B17  1  0.414049  0.414005  0.524971  1
  B  B18  1  0.889034  0.414005  0.999957  1
  B  B19  1  0.414049  0.889078  0.000043  1
  Ir  Ir20  1  0.262776  0.500000  0.762776  1
  Ir  Ir21  1  0.737224  0.500000  0.237224  1
  Rh  Rh22  1  0.500000  0.739839  0.239839  1
  Rh  Rh23  1  0.500000  0.260161  0.760161  1
