# generated using pymatgen
data_Tb4Al15(GaRh2)3
_symmetry_space_group_name_H-M   'P 1'
_cell_length_a   7.53359098
_cell_length_b   7.53515703
_cell_length_c   9.55268000
_cell_angle_alpha   90.00000000
_cell_angle_beta   90.00000000
_cell_angle_gamma   119.33329437
_symmetry_Int_Tables_number   1
_chemical_formula_structural   Tb4Al15(GaRh2)3
_chemical_formula_sum   'Tb4 Al15 Ga3 Rh6'
_cell_volume   472.74706428
_cell_formula_units_Z   1
loop_
 _symmetry_equiv_pos_site_id
 _symmetry_equiv_pos_as_xyz
  1  'x, y, z'
loop_
 _atom_site_type_symbol
 _atom_site_label
 _atom_site_symmetry_multiplicity
 _atom_site_fract_x
 _atom_site_fract_y
 _atom_site_fract_z
 _atom_site_occupancy
  Tb  Tb0  1  0.997318  0.673688  0.250000  1
  Tb  Tb1  1  0.005405  0.326580  0.750000  1
  Tb  Tb2  1  0.670023  0.991609  0.250000  1
  Tb  Tb3  1  0.326378  0.004293  0.750000  1
  Al  Al4  1  0.001711  0.335125  0.072982  1
  Al  Al5  1  0.998289  0.664083  0.926507  1
  Al  Al6  1  0.998289  0.664083  0.573493  1
  Al  Al7  1  0.336114  0.003336  0.426838  1
  Al  Al8  1  0.001711  0.335125  0.427018  1
  Al  Al9  1  0.664245  0.998579  0.573297  1
  Al  Al10  1  0.664245  0.998579  0.926703  1
  Al  Al11  1  0.336114  0.003336  0.073162  1
  Al  Al12  1  0.334338  0.334354  0.553963  1
  Al  Al13  1  0.666026  0.665508  0.449729  1
  Al  Al14  1  0.666026  0.665508  0.050271  1
  Al  Al15  1  0.334338  0.334354  0.946037  1
  Al  Al16  1  0.662964  0.450914  0.750000  1
  Al  Al17  1  0.549801  0.338998  0.250000  1
  Al  Al18  1  0.451032  0.662577  0.750000  1
  Ga  Ga19  1  0.129330  0.129892  0.250000  1
  Ga  Ga20  1  0.867956  0.867701  0.750000  1
  Ga  Ga21  1  0.338402  0.547747  0.250000  1
  Rh  Rh22  1  0.671357  0.329077  0.000247  1
  Rh  Rh23  1  0.328452  0.672591  0.997952  1
  Rh  Rh24  1  0.328452  0.672591  0.502048  1
  Rh  Rh25  1  0.671357  0.329077  0.499753  1
  Rh  Rh26  1  0.000164  0.000346  0.999882  1
  Rh  Rh27  1  0.000164  0.000346  0.500118  1
