# generated using pymatgen
data_NdU5(Cu2Se7)2
_symmetry_space_group_name_H-M   'P 1'
_cell_length_a   10.15073527
_cell_length_b   10.20444666
_cell_length_c   6.01776021
_cell_angle_alpha   90.11839553
_cell_angle_beta   89.67087425
_cell_angle_gamma   119.89448007
_symmetry_Int_Tables_number   1
_chemical_formula_structural   NdU5(Cu2Se7)2
_chemical_formula_sum   'Nd1 U5 Cu4 Se14'
_cell_volume   540.38828081
_cell_formula_units_Z   1
loop_
 _symmetry_equiv_pos_site_id
 _symmetry_equiv_pos_as_xyz
  1  'x, y, z'
loop_
 _atom_site_type_symbol
 _atom_site_label
 _atom_site_symmetry_multiplicity
 _atom_site_fract_x
 _atom_site_fract_y
 _atom_site_fract_z
 _atom_site_occupancy
  Nd  Nd0  1  0.845602  0.622665  0.530631  1
  U  U1  1  0.227956  0.849696  0.028059  1
  U  U2  1  0.152719  0.379046  0.030089  1
  U  U3  1  0.378302  0.229049  0.524854  1
  U  U4  1  0.622755  0.774093  0.026857  1
  U  U5  1  0.774159  0.153954  0.524107  1
  Cu  Cu6  1  0.664860  0.331032  0.157180  1
  Cu  Cu7  1  0.000852  0.000270  0.999519  1
  Cu  Cu8  1  0.335159  0.667334  0.657469  1
  Cu  Cu9  1  0.999919  0.000611  0.500665  1
  Se  Se10  1  0.081040  0.564714  0.786221  1
  Se  Se11  1  0.264712  0.154131  0.011176  1
  Se  Se12  1  0.437371  0.513948  0.778258  1
  Se  Se13  1  0.659441  0.322023  0.754768  1
  Se  Se14  1  0.161756  0.898467  0.515373  1
  Se  Se15  1  0.891545  0.738241  0.018783  1
  Se  Se16  1  0.333765  0.667390  0.253076  1
  Se  Se17  1  0.109919  0.264139  0.514532  1
  Se  Se18  1  0.512226  0.076344  0.281972  1
  Se  Se19  1  0.922272  0.427857  0.276684  1
  Se  Se20  1  0.555707  0.482452  0.272356  1
  Se  Se21  1  0.733596  0.852140  0.507940  1
  Se  Se22  1  0.488262  0.921410  0.782953  1
  Se  Se23  1  0.846105  0.108993  0.008678  1
