# generated using pymatgen
data_Ti4Mn7Si
_symmetry_space_group_name_H-M   'P 1'
_cell_length_a   4.74864000
_cell_length_b   4.74831679
_cell_length_c   7.80249600
_cell_angle_alpha   89.99864484
_cell_angle_beta   90.00101345
_cell_angle_gamma   120.00266582
_symmetry_Int_Tables_number   1
_chemical_formula_structural   Ti4Mn7Si
_chemical_formula_sum   'Ti4 Mn7 Si1'
_cell_volume   152.35666298
_cell_formula_units_Z   1
loop_
 _symmetry_equiv_pos_site_id
 _symmetry_equiv_pos_as_xyz
  1  'x, y, z'
loop_
 _atom_site_type_symbol
 _atom_site_label
 _atom_site_symmetry_multiplicity
 _atom_site_fract_x
 _atom_site_fract_y
 _atom_site_fract_z
 _atom_site_occupancy
  Ti  Ti0  1  0.333334  0.666665  0.067208  1
  Ti  Ti1  1  0.333334  0.666665  0.437245  1
  Ti  Ti2  1  0.666665  0.333335  0.562755  1
  Ti  Ti3  1  0.666665  0.333335  0.932791  1
  Mn  Mn4  1  0.827799  0.172204  0.252335  1
  Mn  Mn5  1  0.344366  0.172177  0.252352  1
  Mn  Mn6  1  0.827811  0.655606  0.252343  1
  Mn  Mn7  1  0.000000  0.000000  0.500000  1
  Mn  Mn8  1  0.172188  0.344394  0.747656  1
  Mn  Mn9  1  0.655632  0.827825  0.747647  1
  Mn  Mn10  1  0.172204  0.827798  0.747664  1
  Si  Si11  1  0.000000  0.000000  0.000000  1
