# generated using pymatgen
data_Eu7Tm3(Pb3Cl)2
_symmetry_space_group_name_H-M   'P 1'
_cell_length_a   9.52668600
_cell_length_b   9.52668592
_cell_length_c   6.96437500
_cell_angle_alpha   90.00000000
_cell_angle_beta   90.00000000
_cell_angle_gamma   120.00000027
_symmetry_Int_Tables_number   1
_chemical_formula_structural   Eu7Tm3(Pb3Cl)2
_chemical_formula_sum   'Eu7 Tm3 Pb6 Cl2'
_cell_volume   547.38951823
_cell_formula_units_Z   1
loop_
 _symmetry_equiv_pos_site_id
 _symmetry_equiv_pos_as_xyz
  1  'x, y, z'
loop_
 _atom_site_type_symbol
 _atom_site_label
 _atom_site_symmetry_multiplicity
 _atom_site_fract_x
 _atom_site_fract_y
 _atom_site_fract_z
 _atom_site_occupancy
  Eu  Eu0  1  0.254182  0.000729  0.249281  1
  Eu  Eu1  1  0.746546  0.000729  0.750719  1
  Eu  Eu2  1  0.999271  0.253454  0.249281  1
  Eu  Eu3  1  0.999271  0.745818  0.750719  1
  Eu  Eu4  1  0.746546  0.745818  0.249281  1
  Eu  Eu5  1  0.254182  0.253454  0.750719  1
  Eu  Eu6  1  0.333333  0.666667  0.500000  1
  Tm  Tm7  1  0.333333  0.666667  0.000000  1
  Tm  Tm8  1  0.666667  0.333333  0.000000  1
  Tm  Tm9  1  0.666667  0.333333  0.500000  1
  Pb  Pb10  1  0.598798  0.006104  0.243294  1
  Pb  Pb11  1  0.407306  0.006104  0.756706  1
  Pb  Pb12  1  0.993896  0.592694  0.243294  1
  Pb  Pb13  1  0.993896  0.401202  0.756706  1
  Pb  Pb14  1  0.407306  0.401202  0.243294  1
  Pb  Pb15  1  0.598798  0.592694  0.756706  1
  Cl  Cl16  1  0.000000  0.000000  0.000000  1
  Cl  Cl17  1  0.000000  0.000000  0.500000  1
