# generated using pymatgen
data_NaLiNi9P7W3
_symmetry_space_group_name_H-M   'P 1'
_cell_length_a   9.16344000
_cell_length_b   9.16343978
_cell_length_c   3.63189800
_cell_angle_alpha   90.00000000
_cell_angle_beta   90.00000000
_cell_angle_gamma   120.00000800
_symmetry_Int_Tables_number   1
_chemical_formula_structural   NaLiNi9P7W3
_chemical_formula_sum   'Na1 Li1 Ni9 P7 W3'
_cell_volume   264.10785052
_cell_formula_units_Z   1
loop_
 _symmetry_equiv_pos_site_id
 _symmetry_equiv_pos_as_xyz
  1  'x, y, z'
loop_
 _atom_site_type_symbol
 _atom_site_label
 _atom_site_symmetry_multiplicity
 _atom_site_fract_x
 _atom_site_fract_y
 _atom_site_fract_z
 _atom_site_occupancy
  Na  Na0  1  0.666667  0.333333  0.500000  1
  Li  Li1  1  0.333333  0.666667  0.000000  1
  Ni  Ni2  1  0.712134  0.873789  0.000000  1
  Ni  Ni3  1  0.161655  0.287866  0.000000  1
  Ni  Ni4  1  0.126211  0.838345  0.000000  1
  Ni  Ni5  1  0.626912  0.566144  0.000000  1
  Ni  Ni6  1  0.939232  0.373088  0.000000  1
  Ni  Ni7  1  0.433856  0.060768  0.000000  1
  Ni  Ni8  1  0.556186  0.940771  0.500000  1
  Ni  Ni9  1  0.384585  0.443814  0.500000  1
  Ni  Ni10  1  0.059229  0.615415  0.500000  1
  P  P11  1  0.583589  0.707491  0.500000  1
  P  P12  1  0.123902  0.416411  0.500000  1
  P  P13  1  0.292509  0.876098  0.500000  1
  P  P14  1  0.000000  0.000000  0.000000  1
  P  P15  1  0.883614  0.586341  0.000000  1
  P  P16  1  0.702727  0.116386  0.000000  1
  P  P17  1  0.413659  0.297273  0.000000  1
  W  W18  1  0.877035  0.778983  0.500000  1
  W  W19  1  0.901947  0.122965  0.500000  1
  W  W20  1  0.221017  0.098053  0.500000  1
