# generated using pymatgen
data_TbNd4TmSi4
_symmetry_space_group_name_H-M   'P 1'
_cell_length_a   7.59247400
_cell_length_b   7.59247400
_cell_length_c   4.39839600
_cell_angle_alpha   90.00000000
_cell_angle_beta   90.00000000
_cell_angle_gamma   90.00000000
_symmetry_Int_Tables_number   1
_chemical_formula_structural   TbNd4TmSi4
_chemical_formula_sum   'Tb1 Nd4 Tm1 Si4'
_cell_volume   253.54844670
_cell_formula_units_Z   1
loop_
 _symmetry_equiv_pos_site_id
 _symmetry_equiv_pos_as_xyz
  1  'x, y, z'
loop_
 _atom_site_type_symbol
 _atom_site_label
 _atom_site_symmetry_multiplicity
 _atom_site_fract_x
 _atom_site_fract_y
 _atom_site_fract_z
 _atom_site_occupancy
  Tb  Tb0  1  0.000000  0.000000  0.000000  1
  Nd  Nd1  1  0.676207  0.177393  0.500000  1
  Nd  Nd2  1  0.323793  0.822607  0.500000  1
  Nd  Nd3  1  0.177393  0.323793  0.500000  1
  Nd  Nd4  1  0.822607  0.676207  0.500000  1
  Tm  Tm5  1  0.500000  0.500000  0.000000  1
  Si  Si6  1  0.114414  0.613742  0.000000  1
  Si  Si7  1  0.885586  0.386258  0.000000  1
  Si  Si8  1  0.613742  0.885586  0.000000  1
  Si  Si9  1  0.386258  0.114414  0.000000  1
