# generated using pymatgen
data_Er5BeSe4
_symmetry_space_group_name_H-M   'P 1'
_cell_length_a   6.98365498
_cell_length_b   6.98370688
_cell_length_c   6.98394644
_cell_angle_alpha   99.54298792
_cell_angle_beta   99.53975144
_cell_angle_gamma   131.94886488
_symmetry_Int_Tables_number   1
_chemical_formula_structural   Er5BeSe4
_chemical_formula_sum   'Er5 Be1 Se4'
_cell_volume   231.38710813
_cell_formula_units_Z   1
loop_
 _symmetry_equiv_pos_site_id
 _symmetry_equiv_pos_as_xyz
  1  'x, y, z'
loop_
 _atom_site_type_symbol
 _atom_site_label
 _atom_site_symmetry_multiplicity
 _atom_site_fract_x
 _atom_site_fract_y
 _atom_site_fract_z
 _atom_site_occupancy
  Er  Er0  1  0.405648  0.784585  0.190230  1
  Er  Er1  1  0.000000  0.000000  0.000000  1
  Er  Er2  1  0.594352  0.215415  0.809770  1
  Er  Er3  1  0.215417  0.405650  0.621059  1
  Er  Er4  1  0.784583  0.594350  0.378941  1
  Be  Be5  1  0.500000  0.500000  0.000000  1
  Se  Se6  1  0.095093  0.696642  0.791730  1
  Se  Se7  1  0.696635  0.904902  0.601549  1
  Se  Se8  1  0.303365  0.095098  0.398451  1
  Se  Se9  1  0.904907  0.303358  0.208270  1
