# generated using pymatgen
data_Li3CoNi8As7Ru2
_symmetry_space_group_name_H-M   'P 1'
_cell_length_a   9.38907104
_cell_length_b   9.44606829
_cell_length_c   3.71938400
_cell_angle_alpha   90.00000000
_cell_angle_beta   90.00000000
_cell_angle_gamma   120.47295421
_symmetry_Int_Tables_number   1
_chemical_formula_structural   Li3CoNi8As7Ru2
_chemical_formula_sum   'Li3 Co1 Ni8 As7 Ru2'
_cell_volume   284.30585523
_cell_formula_units_Z   1
loop_
 _symmetry_equiv_pos_site_id
 _symmetry_equiv_pos_as_xyz
  1  'x, y, z'
loop_
 _atom_site_type_symbol
 _atom_site_label
 _atom_site_symmetry_multiplicity
 _atom_site_fract_x
 _atom_site_fract_y
 _atom_site_fract_z
 _atom_site_occupancy
  Li  Li0  1  0.787702  0.233488  0.500000  1
  Li  Li1  1  0.332153  0.667252  0.000000  1
  Li  Li2  1  0.996116  0.998671  0.500000  1
  Co  Co3  1  0.499836  0.454694  0.000000  1
  Ni  Ni4  1  0.281374  0.381813  0.500000  1
  Ni  Ni5  1  0.622167  0.902700  0.500000  1
  Ni  Ni6  1  0.103710  0.720275  0.500000  1
  Ni  Ni7  1  0.551577  0.051944  0.000000  1
  Ni  Ni8  1  0.948775  0.493060  0.000000  1
  Ni  Ni9  1  0.721803  0.765044  0.000000  1
  Ni  Ni10  1  0.234815  0.956875  0.000000  1
  Ni  Ni11  1  0.049369  0.283855  0.000000  1
  As  As12  1  0.956819  0.748583  0.000000  1
  As  As13  1  0.248132  0.207174  0.000000  1
  As  As14  1  0.796943  0.037622  0.000000  1
  As  As15  1  0.662017  0.336260  0.000000  1
  As  As16  1  0.540071  0.623735  0.500000  1
  As  As17  1  0.378414  0.918197  0.500000  1
  As  As18  1  0.088847  0.464505  0.500000  1
  Ru  Ru19  1  0.754521  0.544716  0.500000  1
  Ru  Ru20  1  0.444839  0.209534  0.500000  1
