# generated using pymatgen
data_Ho8In3Au
_symmetry_space_group_name_H-M   'P 1'
_cell_length_a   10.59346600
_cell_length_b   10.59346629
_cell_length_c   6.87323200
_cell_angle_alpha   90.00000000
_cell_angle_beta   90.00000000
_cell_angle_gamma   119.99999911
_symmetry_Int_Tables_number   1
_chemical_formula_structural   Ho8In3Au
_chemical_formula_sum   'Ho16 In6 Au2'
_cell_volume   667.98668353
_cell_formula_units_Z   2
loop_
 _symmetry_equiv_pos_site_id
 _symmetry_equiv_pos_as_xyz
  1  'x, y, z'
loop_
 _atom_site_type_symbol
 _atom_site_label
 _atom_site_symmetry_multiplicity
 _atom_site_fract_x
 _atom_site_fract_y
 _atom_site_fract_z
 _atom_site_occupancy
  Ho  Ho0  1  0.524818  0.049637  0.511555  1
  Ho  Ho1  1  0.950363  0.475182  0.511555  1
  Ho  Ho2  1  0.524818  0.475182  0.511555  1
  Ho  Ho3  1  0.475182  0.950363  0.011555  1
  Ho  Ho4  1  0.049637  0.524818  0.011555  1
  Ho  Ho5  1  0.475182  0.524818  0.011555  1
  Ho  Ho6  1  0.172652  0.345304  0.723461  1
  Ho  Ho7  1  0.654696  0.827348  0.723461  1
  Ho  Ho8  1  0.172652  0.827348  0.723461  1
  Ho  Ho9  1  0.827348  0.654696  0.223461  1
  Ho  Ho10  1  0.345304  0.172652  0.223461  1
  Ho  Ho11  1  0.827348  0.172652  0.223461  1
  Ho  Ho12  1  0.666667  0.333333  0.868485  1
  Ho  Ho13  1  0.333333  0.666667  0.368485  1
  Ho  Ho14  1  0.000000  0.000000  0.487693  1
  Ho  Ho15  1  0.000000  0.000000  0.987693  1
  In  In16  1  0.836366  0.672731  0.745810  1
  In  In17  1  0.327269  0.163634  0.745810  1
  In  In18  1  0.836366  0.163634  0.745810  1
  In  In19  1  0.163634  0.327269  0.245810  1
  In  In20  1  0.672731  0.836366  0.245810  1
  In  In21  1  0.163634  0.836366  0.245810  1
  Au  Au22  1  0.666667  0.333333  0.280362  1
  Au  Au23  1  0.333333  0.666667  0.780362  1
