# generated using pymatgen
data_Sr3LaTm6(LuSe8)2
_symmetry_space_group_name_H-M   'P 1'
_cell_length_a   4.09177700
_cell_length_b   12.52109882
_cell_length_c   14.82209915
_cell_angle_alpha   90.21272238
_cell_angle_beta   90.00000000
_cell_angle_gamma   90.00000000
_symmetry_Int_Tables_number   1
_chemical_formula_structural   Sr3LaTm6(LuSe8)2
_chemical_formula_sum   'Sr3 La1 Tm6 Lu2 Se16'
_cell_volume   759.38343751
_cell_formula_units_Z   1
loop_
 _symmetry_equiv_pos_site_id
 _symmetry_equiv_pos_as_xyz
  1  'x, y, z'
loop_
 _atom_site_type_symbol
 _atom_site_label
 _atom_site_symmetry_multiplicity
 _atom_site_fract_x
 _atom_site_fract_y
 _atom_site_fract_z
 _atom_site_occupancy
  Sr  Sr0  1  0.250000  0.258029  0.165081  1
  Sr  Sr1  1  0.750000  0.239547  0.667071  1
  Sr  Sr2  1  0.750000  0.740993  0.832911  1
  La  La3  1  0.250000  0.759957  0.331319  1
  Tm  Tm4  1  0.250000  0.439125  0.389511  1
  Tm  Tm5  1  0.250000  0.935928  0.109878  1
  Tm  Tm6  1  0.750000  0.561621  0.610129  1
  Tm  Tm7  1  0.750000  0.061485  0.889726  1
  Tm  Tm8  1  0.250000  0.418158  0.902887  1
  Tm  Tm9  1  0.250000  0.915605  0.596398  1
  Lu  Lu10  1  0.750000  0.583982  0.097170  1
  Lu  Lu11  1  0.750000  0.082020  0.402779  1
  Se  Se12  1  0.250000  0.205345  0.833116  1
  Se  Se13  1  0.250000  0.704632  0.667188  1
  Se  Se14  1  0.750000  0.795283  0.172443  1
  Se  Se15  1  0.750000  0.294900  0.331102  1
  Se  Se16  1  0.250000  0.126885  0.529225  1
  Se  Se17  1  0.250000  0.629856  0.971301  1
  Se  Se18  1  0.750000  0.869218  0.467234  1
  Se  Se19  1  0.750000  0.373292  0.031898  1
  Se  Se20  1  0.250000  0.020925  0.286548  1
  Se  Se21  1  0.250000  0.536457  0.218009  1
  Se  Se22  1  0.750000  0.971986  0.715223  1
  Se  Se23  1  0.750000  0.472500  0.784159  1
  Se  Se24  1  0.250000  0.409823  0.575425  1
  Se  Se25  1  0.250000  0.909047  0.922802  1
  Se  Se26  1  0.750000  0.594107  0.421761  1
  Se  Se27  1  0.750000  0.089291  0.077706  1
