# generated using pymatgen
data_Pr8Tc3AsO24
_symmetry_space_group_name_H-M   'P 1'
_cell_length_a   10.32509888
_cell_length_b   10.29029238
_cell_length_c   5.63208915
_cell_angle_alpha   74.78179506
_cell_angle_beta   74.73440780
_cell_angle_gamma   69.20072416
_symmetry_Int_Tables_number   1
_chemical_formula_structural   Pr8Tc3AsO24
_chemical_formula_sum   'Pr8 Tc3 As1 O24'
_cell_volume   530.10373211
_cell_formula_units_Z   1
loop_
 _symmetry_equiv_pos_site_id
 _symmetry_equiv_pos_as_xyz
  1  'x, y, z'
loop_
 _atom_site_type_symbol
 _atom_site_label
 _atom_site_symmetry_multiplicity
 _atom_site_fract_x
 _atom_site_fract_y
 _atom_site_fract_z
 _atom_site_occupancy
  Pr  Pr0  1  0.631233  0.377709  0.739938  1
  Pr  Pr1  1  0.374580  0.642462  0.228658  1
  Pr  Pr2  1  0.112802  0.890712  0.746089  1
  Pr  Pr3  1  0.890031  0.110678  0.253569  1
  Pr  Pr4  1  0.710358  0.938973  0.888656  1
  Pr  Pr5  1  0.285567  0.052397  0.131329  1
  Pr  Pr6  1  0.059658  0.286902  0.629787  1
  Pr  Pr7  1  0.943898  0.716802  0.378857  1
  Tc  Tc8  1  0.494297  0.201740  0.454437  1
  Tc  Tc9  1  0.203249  0.493189  0.948642  1
  Tc  Tc10  1  0.800891  0.508041  0.050782  1
  As  As11  1  0.532001  0.787594  0.564999  1
  O  O12  1  0.686135  0.165991  0.591729  1
  O  O13  1  0.260044  0.843921  0.364748  1
  O  O14  1  0.835074  0.313280  0.910037  1
  O  O15  1  0.164555  0.681700  0.075484  1
  O  O16  1  0.395823  0.824589  0.820337  1
  O  O17  1  0.610529  0.171929  0.159407  1
  O  O18  1  0.175435  0.603490  0.650696  1
  O  O19  1  0.822578  0.388723  0.347710  1
  O  O20  1  0.687546  0.784652  0.631695  1
  O  O21  1  0.328495  0.211034  0.383574  1
  O  O22  1  0.214552  0.325315  0.879831  1
  O  O23  1  0.792577  0.672853  0.129939  1
  O  O24  1  0.473147  0.079319  0.748321  1
  O  O25  1  0.516728  0.909136  0.286311  1
  O  O26  1  0.930501  0.525763  0.766525  1
  O  O27  1  0.074575  0.471174  0.235928  1
  O  O28  1  0.538837  0.624703  0.516908  1
  O  O29  1  0.459212  0.383144  0.477602  1
  O  O30  1  0.382610  0.455284  0.981136  1
  O  O31  1  0.621966  0.542669  0.013127  1
  O  O32  1  0.889210  0.924874  0.080819  1
  O  O33  1  0.108852  0.078430  0.922879  1
  O  O34  1  0.071615  0.119021  0.424438  1
  O  O35  1  0.920838  0.891808  0.585079  1
