# generated using pymatgen
data_CaTmSi5Rh3
_symmetry_space_group_name_H-M   'P 1'
_cell_length_a   8.15178919
_cell_length_b   8.17336471
_cell_length_c   5.65159498
_cell_angle_alpha   71.16435733
_cell_angle_beta   71.38884417
_cell_angle_gamma   94.08395466
_symmetry_Int_Tables_number   1
_chemical_formula_structural   CaTmSi5Rh3
_chemical_formula_sum   'Ca2 Tm2 Si10 Rh6'
_cell_volume   331.31516746
_cell_formula_units_Z   2
loop_
 _symmetry_equiv_pos_site_id
 _symmetry_equiv_pos_as_xyz
  1  'x, y, z'
loop_
 _atom_site_type_symbol
 _atom_site_label
 _atom_site_symmetry_multiplicity
 _atom_site_fract_x
 _atom_site_fract_y
 _atom_site_fract_z
 _atom_site_occupancy
  Ca  Ca0  1  0.402776  0.132100  0.741165  1
  Ca  Ca1  1  0.597224  0.867900  0.258835  1
  Tm  Tm2  1  0.865877  0.597147  0.760440  1
  Tm  Tm3  1  0.134123  0.402853  0.239560  1
  Si  Si4  1  0.780459  0.222460  0.750005  1
  Si  Si5  1  0.219541  0.777540  0.249995  1
  Si  Si6  1  0.508861  0.489614  0.749558  1
  Si  Si7  1  0.491139  0.510386  0.250442  1
  Si  Si8  1  0.207006  0.788454  0.754618  1
  Si  Si9  1  0.792994  0.211546  0.245382  1
  Si  Si10  1  0.265847  0.062039  0.336339  1
  Si  Si11  1  0.734153  0.937961  0.663661  1
  Si  Si12  1  0.940517  0.733148  0.161684  1
  Si  Si13  1  0.059483  0.266852  0.838316  1
  Rh  Rh14  1  0.541594  0.262562  0.123160  1
  Rh  Rh15  1  0.742915  0.458609  0.375427  1
  Rh  Rh16  1  0.458406  0.737438  0.876840  1
  Rh  Rh17  1  0.257085  0.541391  0.624573  1
  Rh  Rh18  1  0.996051  0.000896  0.252411  1
  Rh  Rh19  1  0.003949  0.999104  0.747589  1
