# generated using pymatgen
data_Li2Er3MgSi2Ag
_symmetry_space_group_name_H-M   'P 1'
_cell_length_a   7.12078405
_cell_length_b   7.17845131
_cell_length_c   4.19851100
_cell_angle_alpha   90.00000000
_cell_angle_beta   90.00000000
_cell_angle_gamma   120.26825887
_symmetry_Int_Tables_number   1
_chemical_formula_structural   Li2Er3MgSi2Ag
_chemical_formula_sum   'Li2 Er3 Mg1 Si2 Ag1'
_cell_volume   185.35494550
_cell_formula_units_Z   1
loop_
 _symmetry_equiv_pos_site_id
 _symmetry_equiv_pos_as_xyz
  1  'x, y, z'
loop_
 _atom_site_type_symbol
 _atom_site_label
 _atom_site_symmetry_multiplicity
 _atom_site_fract_x
 _atom_site_fract_y
 _atom_site_fract_z
 _atom_site_occupancy
  Li  Li0  1  0.750226  0.749827  0.000000  1
  Li  Li1  1  0.249774  0.999601  0.000000  1
  Er  Er2  1  0.429273  0.427491  0.500000  1
  Er  Er3  1  0.570727  0.998218  0.500000  1
  Er  Er4  1  0.000000  0.580606  0.500000  1
  Mg  Mg5  1  0.000000  0.243779  0.000000  1
  Si  Si6  1  0.664902  0.334437  0.000000  1
  Si  Si7  1  0.335098  0.669537  0.000000  1
  Ag  Ag8  1  0.000000  0.996504  0.500000  1
