# generated using pymatgen
data_Hf12Ti4Os8O
_symmetry_space_group_name_H-M   'P 1'
_cell_length_a   8.58408925
_cell_length_b   8.58408922
_cell_length_c   8.58408898
_cell_angle_alpha   60.03999447
_cell_angle_beta   60.04000239
_cell_angle_gamma   60.04001130
_symmetry_Int_Tables_number   1
_chemical_formula_structural   Hf12Ti4Os8O
_chemical_formula_sum   'Hf12 Ti4 Os8 O1'
_cell_volume   447.67337974
_cell_formula_units_Z   1
loop_
 _symmetry_equiv_pos_site_id
 _symmetry_equiv_pos_as_xyz
  1  'x, y, z'
loop_
 _atom_site_type_symbol
 _atom_site_label
 _atom_site_symmetry_multiplicity
 _atom_site_fract_x
 _atom_site_fract_y
 _atom_site_fract_z
 _atom_site_occupancy
  Hf  Hf0  1  0.431945  0.431945  0.817031  1
  Hf  Hf1  1  0.817031  0.431945  0.431945  1
  Hf  Hf2  1  0.431945  0.817031  0.431945  1
  Hf  Hf3  1  0.818618  0.818618  0.431302  1
  Hf  Hf4  1  0.431302  0.818618  0.818618  1
  Hf  Hf5  1  0.818618  0.431302  0.818618  1
  Hf  Hf6  1  0.568055  0.568055  0.182969  1
  Hf  Hf7  1  0.182969  0.568055  0.568055  1
  Hf  Hf8  1  0.568055  0.182969  0.568055  1
  Hf  Hf9  1  0.181382  0.181382  0.568698  1
  Hf  Hf10  1  0.568698  0.181382  0.181382  1
  Hf  Hf11  1  0.181382  0.568698  0.181382  1
  Ti  Ti12  1  0.000000  0.000000  0.000000  1
  Ti  Ti13  1  0.000000  0.500000  0.000000  1
  Ti  Ti14  1  0.500000  0.000000  0.000000  1
  Ti  Ti15  1  0.000000  0.000000  0.500000  1
  Os  Os16  1  0.788487  0.788487  0.788487  1
  Os  Os17  1  0.790676  0.128912  0.790676  1
  Os  Os18  1  0.128912  0.790676  0.790676  1
  Os  Os19  1  0.790676  0.790676  0.128912  1
  Os  Os20  1  0.211513  0.211513  0.211513  1
  Os  Os21  1  0.209324  0.871088  0.209324  1
  Os  Os22  1  0.871088  0.209324  0.209324  1
  Os  Os23  1  0.209324  0.209324  0.871088  1
  O  O24  1  0.500000  0.500000  0.500000  1
