# generated using pymatgen
data_TmHf3(ZrSn)6
_symmetry_space_group_name_H-M   'P 1'
_cell_length_a   8.58754622
_cell_length_b   8.58822654
_cell_length_c   5.82303404
_cell_angle_alpha   89.98745708
_cell_angle_beta   90.00194465
_cell_angle_gamma   120.72045422
_symmetry_Int_Tables_number   1
_chemical_formula_structural   TmHf3(ZrSn)6
_chemical_formula_sum   'Tm1 Hf3 Zr6 Sn6'
_cell_volume   369.19315881
_cell_formula_units_Z   1
loop_
 _symmetry_equiv_pos_site_id
 _symmetry_equiv_pos_as_xyz
  1  'x, y, z'
loop_
 _atom_site_type_symbol
 _atom_site_label
 _atom_site_symmetry_multiplicity
 _atom_site_fract_x
 _atom_site_fract_y
 _atom_site_fract_z
 _atom_site_occupancy
  Tm  Tm0  1  0.765888  0.765827  0.750278  1
  Hf  Hf1  1  0.333154  0.665364  0.000505  1
  Hf  Hf2  1  0.333000  0.665198  0.499496  1
  Hf  Hf3  1  0.665287  0.332971  0.499611  1
  Zr  Zr4  1  0.250928  0.001605  0.750227  1
  Zr  Zr5  1  0.001534  0.251150  0.750428  1
  Zr  Zr6  1  0.238198  0.238047  0.249724  1
  Zr  Zr7  1  0.750284  0.999295  0.249618  1
  Zr  Zr8  1  0.999462  0.750656  0.249690  1
  Zr  Zr9  1  0.665336  0.333055  0.000686  1
  Sn  Sn10  1  0.392132  0.392736  0.749205  1
  Sn  Sn11  1  0.605571  0.001402  0.749275  1
  Sn  Sn12  1  0.002914  0.606337  0.749270  1
  Sn  Sn13  1  0.605044  0.605732  0.250617  1
  Sn  Sn14  1  0.391237  0.998691  0.250706  1
  Sn  Sn15  1  0.000035  0.391938  0.250664  1
