# generated using pymatgen
data_Tb3Sn3Rh2Au
_symmetry_space_group_name_H-M   'P 1'
_cell_length_a   7.72460900
_cell_length_b   7.72460771
_cell_length_c   3.85571700
_cell_angle_alpha   90.00000000
_cell_angle_beta   90.00000000
_cell_angle_gamma   119.99999269
_symmetry_Int_Tables_number   1
_chemical_formula_structural   Tb3Sn3Rh2Au
_chemical_formula_sum   'Tb3 Sn3 Rh2 Au1'
_cell_volume   199.24560606
_cell_formula_units_Z   1
loop_
 _symmetry_equiv_pos_site_id
 _symmetry_equiv_pos_as_xyz
  1  'x, y, z'
loop_
 _atom_site_type_symbol
 _atom_site_label
 _atom_site_symmetry_multiplicity
 _atom_site_fract_x
 _atom_site_fract_y
 _atom_site_fract_z
 _atom_site_occupancy
  Tb  Tb0  1  0.410812  0.014141  0.500000  1
  Tb  Tb1  1  0.985859  0.396671  0.500000  1
  Tb  Tb2  1  0.603329  0.589188  0.500000  1
  Sn  Sn3  1  0.745472  0.003880  0.000000  1
  Sn  Sn4  1  0.996120  0.741592  0.000000  1
  Sn  Sn5  1  0.258408  0.254528  0.000000  1
  Rh  Rh6  1  0.666667  0.333333  0.000000  1
  Rh  Rh7  1  0.000000  0.000000  0.500000  1
  Au  Au8  1  0.333333  0.666667  0.000000  1
