# generated using pymatgen
data_Nd16Ga6CoOs
_symmetry_space_group_name_H-M   'P 1'
_cell_length_a   10.38663600
_cell_length_b   10.38663682
_cell_length_c   7.26542700
_cell_angle_alpha   90.00000000
_cell_angle_beta   90.00000000
_cell_angle_gamma   120.00000377
_symmetry_Int_Tables_number   1
_chemical_formula_structural   Nd16Ga6CoOs
_chemical_formula_sum   'Nd16 Ga6 Co1 Os1'
_cell_volume   678.79966114
_cell_formula_units_Z   1
loop_
 _symmetry_equiv_pos_site_id
 _symmetry_equiv_pos_as_xyz
  1  'x, y, z'
loop_
 _atom_site_type_symbol
 _atom_site_label
 _atom_site_symmetry_multiplicity
 _atom_site_fract_x
 _atom_site_fract_y
 _atom_site_fract_z
 _atom_site_occupancy
  Nd  Nd0  1  0.830651  0.661302  0.483827  1
  Nd  Nd1  1  0.338698  0.169349  0.483827  1
  Nd  Nd2  1  0.830651  0.169349  0.483827  1
  Nd  Nd3  1  0.171673  0.343346  0.986603  1
  Nd  Nd4  1  0.656654  0.828327  0.986603  1
  Nd  Nd5  1  0.171673  0.828327  0.986603  1
  Nd  Nd6  1  0.666667  0.333333  0.163153  1
  Nd  Nd7  1  0.333333  0.666667  0.676572  1
  Nd  Nd8  1  0.538331  0.076660  0.793570  1
  Nd  Nd9  1  0.923340  0.461669  0.793570  1
  Nd  Nd10  1  0.538331  0.461669  0.793570  1
  Nd  Nd11  1  0.460440  0.920882  0.294872  1
  Nd  Nd12  1  0.079118  0.539560  0.294872  1
  Nd  Nd13  1  0.460440  0.539560  0.294872  1
  Nd  Nd14  1  0.000000  0.000000  0.772154  1
  Nd  Nd15  1  0.000000  0.000000  0.266637  1
  Ga  Ga16  1  0.837053  0.674106  0.043574  1
  Ga  Ga17  1  0.325894  0.162947  0.043574  1
  Ga  Ga18  1  0.837053  0.162947  0.043574  1
  Ga  Ga19  1  0.165081  0.330164  0.547181  1
  Ga  Ga20  1  0.669836  0.834919  0.547181  1
  Ga  Ga21  1  0.165081  0.834919  0.547181  1
  Co  Co22  1  0.333333  0.666667  0.051795  1
  Os  Os23  1  0.666667  0.333333  0.547050  1
