# generated using pymatgen
data_Gd3Zr2(ReN4)3
_symmetry_space_group_name_H-M   'P 1'
_cell_length_a   11.10360904
_cell_length_b   11.10360895
_cell_length_c   11.10360900
_cell_angle_alpha   109.47122073
_cell_angle_beta   109.47122056
_cell_angle_gamma   109.47121829
_symmetry_Int_Tables_number   1
_chemical_formula_structural   Gd3Zr2(ReN4)3
_chemical_formula_sum   'Gd12 Zr8 Re12 N48'
_cell_volume   1053.83010731
_cell_formula_units_Z   4
loop_
 _symmetry_equiv_pos_site_id
 _symmetry_equiv_pos_as_xyz
  1  'x, y, z'
loop_
 _atom_site_type_symbol
 _atom_site_label
 _atom_site_symmetry_multiplicity
 _atom_site_fract_x
 _atom_site_fract_y
 _atom_site_fract_z
 _atom_site_occupancy
  Gd  Gd0  1  0.250000  0.375001  0.125000  1
  Gd  Gd1  1  0.375000  0.750000  0.125000  1
  Gd  Gd2  1  0.375001  0.125000  0.250000  1
  Gd  Gd3  1  0.875000  0.625000  0.250000  1
  Gd  Gd4  1  0.750000  0.125000  0.375000  1
  Gd  Gd5  1  0.125000  0.250000  0.375001  1
  Gd  Gd6  1  0.875000  0.750000  0.625000  1
  Gd  Gd7  1  0.250000  0.875000  0.625000  1
  Gd  Gd8  1  0.125000  0.375000  0.750000  1
  Gd  Gd9  1  0.625000  0.875000  0.750000  1
  Gd  Gd10  1  0.625000  0.250000  0.875000  1
  Gd  Gd11  1  0.750000  0.625000  0.875000  1
  Zr  Zr12  1  0.000000  0.000000  0.000000  1
  Zr  Zr13  1  0.500001  0.000000  0.000000  1
  Zr  Zr14  1  0.000000  0.500001  0.000000  1
  Zr  Zr15  1  0.500000  0.500000  0.000000  1
  Zr  Zr16  1  0.000000  0.000000  0.500001  1
  Zr  Zr17  1  0.500000  0.000000  0.500000  1
  Zr  Zr18  1  0.000000  0.500000  0.500000  1
  Zr  Zr19  1  0.500001  0.500001  0.500001  1
  Re  Re20  1  0.875000  0.250000  0.124999  1
  Re  Re21  1  0.750000  0.875000  0.125000  1
  Re  Re22  1  0.625000  0.375000  0.250000  1
  Re  Re23  1  0.124999  0.875000  0.250000  1
  Re  Re24  1  0.250000  0.625000  0.375000  1
  Re  Re25  1  0.625000  0.750000  0.375001  1
  Re  Re26  1  0.375000  0.250000  0.625000  1
  Re  Re27  1  0.750000  0.375001  0.625000  1
  Re  Re28  1  0.875000  0.125000  0.750000  1
  Re  Re29  1  0.375001  0.625000  0.750000  1
  Re  Re30  1  0.250000  0.124999  0.875000  1
  Re  Re31  1  0.125000  0.750000  0.875000  1
  N  N32  1  0.310036  0.902342  0.024040  1
  N  N33  1  0.214006  0.121699  0.024041  1
  N  N34  1  0.878301  0.402342  0.092307  1
  N  N35  1  0.714006  0.689964  0.092307  1
  N  N36  1  0.975959  0.689964  0.097658  1
  N  N37  1  0.621699  0.407693  0.097658  1
  N  N38  1  0.597658  0.907693  0.121698  1
  N  N39  1  0.024041  0.214006  0.121699  1
  N  N40  1  0.214006  0.592307  0.189964  1
  N  N41  1  0.475960  0.597659  0.189964  1
  N  N42  1  0.592307  0.189964  0.214006  1
  N  N43  1  0.121699  0.024041  0.214006  1
  N  N44  1  0.475960  0.378302  0.285994  1
  N  N45  1  0.310036  0.907693  0.285994  1
  N  N46  1  0.902342  0.024040  0.310036  1
  N  N47  1  0.907693  0.285994  0.310036  1
  N  N48  1  0.285994  0.475960  0.378302  1
  N  N49  1  0.592307  0.902343  0.378302  1
  N  N50  1  0.810036  0.524041  0.402343  1
  N  N51  1  0.092307  0.878301  0.402342  1
  N  N52  1  0.097658  0.621699  0.407693  1
  N  N53  1  0.810036  0.785994  0.407693  1
  N  N54  1  0.597659  0.189964  0.475960  1
  N  N55  1  0.378302  0.285994  0.475960  1
  N  N56  1  0.621698  0.714005  0.524040  1
  N  N57  1  0.402343  0.810036  0.524041  1
  N  N58  1  0.189964  0.214006  0.592307  1
  N  N59  1  0.902343  0.378302  0.592307  1
  N  N60  1  0.907693  0.121698  0.597658  1
  N  N61  1  0.189964  0.475960  0.597659  1
  N  N62  1  0.407693  0.097658  0.621699  1
  N  N63  1  0.714005  0.524040  0.621698  1
  N  N64  1  0.092307  0.714006  0.689964  1
  N  N65  1  0.097658  0.975959  0.689964  1
  N  N66  1  0.689964  0.092307  0.714006  1
  N  N67  1  0.524040  0.621698  0.714005  1
  N  N68  1  0.407693  0.810036  0.785994  1
  N  N69  1  0.878302  0.975960  0.785995  1
  N  N70  1  0.524041  0.402343  0.810036  1
  N  N71  1  0.785994  0.407693  0.810036  1
  N  N72  1  0.402342  0.092307  0.878301  1
  N  N73  1  0.975960  0.785995  0.878302  1
  N  N74  1  0.024040  0.310036  0.902342  1
  N  N75  1  0.378302  0.592307  0.902343  1
  N  N76  1  0.285994  0.310036  0.907693  1
  N  N77  1  0.121698  0.597658  0.907693  1
  N  N78  1  0.689964  0.097658  0.975959  1
  N  N79  1  0.785995  0.878302  0.975960  1
