# generated using pymatgen
data_HfSc3Si6Ir6Rh
_symmetry_space_group_name_H-M   'P 1'
_cell_length_a   6.99226502
_cell_length_b   6.97204177
_cell_length_c   6.99274525
_cell_angle_alpha   109.43190043
_cell_angle_beta   109.54893130
_cell_angle_gamma   109.37136810
_symmetry_Int_Tables_number   1
_chemical_formula_structural   HfSc3Si6Ir6Rh
_chemical_formula_sum   'Hf1 Sc3 Si6 Ir6 Rh1'
_cell_volume   262.62245373
_cell_formula_units_Z   1
loop_
 _symmetry_equiv_pos_site_id
 _symmetry_equiv_pos_as_xyz
  1  'x, y, z'
loop_
 _atom_site_type_symbol
 _atom_site_label
 _atom_site_symmetry_multiplicity
 _atom_site_fract_x
 _atom_site_fract_y
 _atom_site_fract_z
 _atom_site_occupancy
  Hf  Hf0  1  0.000086  0.500086  0.000172  1
  Sc  Sc1  1  0.000020  0.999961  0.500002  1
  Sc  Sc2  1  0.499980  0.999980  0.999960  1
  Sc  Sc3  1  0.499982  0.500041  0.500002  1
  Si  Si4  1  0.681639  0.684324  0.999991  1
  Si  Si5  1  0.318829  0.002727  0.318830  1
  Si  Si6  1  0.000000  0.316102  0.318830  1
  Si  Si7  1  0.318352  0.315667  0.999991  1
  Si  Si8  1  0.681289  0.997398  0.681159  1
  Si  Si9  1  0.999870  0.683762  0.681159  1
  Ir  Ir10  1  0.751012  0.499961  0.249660  1
  Ir  Ir11  1  0.501655  0.250549  0.750327  1
  Ir  Ir12  1  0.248673  0.499778  0.750327  1
  Ir  Ir13  1  0.249211  0.749211  0.498422  1
  Ir  Ir14  1  0.498646  0.749698  0.249660  1
  Ir  Ir15  1  0.000010  0.000010  0.000021  1
  Rh  Rh16  1  0.750744  0.250744  0.501488  1
