# generated using pymatgen
data_YbEr3Tm4(B6Os)4
_symmetry_space_group_name_H-M   'P 1'
_cell_length_a   3.62301200
_cell_length_b   9.09352281
_cell_length_c   11.47606404
_cell_angle_alpha   89.91986408
_cell_angle_beta   90.00000000
_cell_angle_gamma   90.00000000
_symmetry_Int_Tables_number   1
_chemical_formula_structural   YbEr3Tm4(B6Os)4
_chemical_formula_sum   'Yb1 Er3 Tm4 B24 Os4'
_cell_volume   378.08937365
_cell_formula_units_Z   1
loop_
 _symmetry_equiv_pos_site_id
 _symmetry_equiv_pos_as_xyz
  1  'x, y, z'
loop_
 _atom_site_type_symbol
 _atom_site_label
 _atom_site_symmetry_multiplicity
 _atom_site_fract_x
 _atom_site_fract_y
 _atom_site_fract_z
 _atom_site_occupancy
  Yb  Yb0  1  0.000000  0.322499  0.413532  1
  Er  Er1  1  0.000000  0.676982  0.585129  1
  Er  Er2  1  0.000000  0.821776  0.086566  1
  Er  Er3  1  0.000000  0.178797  0.914363  1
  Tm  Tm4  1  0.000000  0.944260  0.372137  1
  Tm  Tm5  1  0.000000  0.057566  0.627073  1
  Tm  Tm6  1  0.000000  0.443139  0.128691  1
  Tm  Tm7  1  0.000000  0.556123  0.872857  1
  B  B8  1  0.500000  0.553670  0.432777  1
  B  B9  1  0.500000  0.446250  0.567219  1
  B  B10  1  0.500000  0.052972  0.066204  1
  B  B11  1  0.500000  0.946202  0.932929  1
  B  B12  1  0.500000  0.748836  0.419476  1
  B  B13  1  0.500000  0.251617  0.580838  1
  B  B14  1  0.500000  0.248157  0.080271  1
  B  B15  1  0.500000  0.751164  0.919856  1
  B  B16  1  0.500000  0.791944  0.266025  1
  B  B17  1  0.500000  0.209083  0.734321  1
  B  B18  1  0.500000  0.290392  0.233648  1
  B  B19  1  0.500000  0.708763  0.766220  1
  B  B20  1  0.500000  0.631396  0.185553  1
  B  B21  1  0.500000  0.369062  0.815486  1
  B  B22  1  0.500000  0.130710  0.314198  1
  B  B23  1  0.500000  0.868952  0.684904  1
  B  B24  1  0.500000  0.982241  0.212174  1
  B  B25  1  0.500000  0.017680  0.786913  1
  B  B26  1  0.500000  0.482758  0.287311  1
  B  B27  1  0.500000  0.517568  0.713129  1
  B  B28  1  0.500000  0.606275  0.029654  1
  B  B29  1  0.500000  0.393945  0.971008  1
  B  B30  1  0.500000  0.103150  0.471293  1
  B  B31  1  0.500000  0.895444  0.528944  1
  Os  Os32  1  0.000000  0.639362  0.320323  1
  Os  Os33  1  0.000000  0.362347  0.680375  1
  Os  Os34  1  0.000000  0.136553  0.177309  1
  Os  Os35  1  0.000000  0.862362  0.821295  1
