# generated using pymatgen
data_LaY5Ga2(SiIr3)4
_symmetry_space_group_name_H-M   'P 1'
_cell_length_a   5.59654500
_cell_length_b   5.59654649
_cell_length_c   15.48086200
_cell_angle_alpha   90.00000000
_cell_angle_beta   90.00000000
_cell_angle_gamma   120.00000891
_symmetry_Int_Tables_number   1
_chemical_formula_structural   LaY5Ga2(SiIr3)4
_chemical_formula_sum   'La1 Y5 Ga2 Si4 Ir12'
_cell_volume   419.91931177
_cell_formula_units_Z   1
loop_
 _symmetry_equiv_pos_site_id
 _symmetry_equiv_pos_as_xyz
  1  'x, y, z'
loop_
 _atom_site_type_symbol
 _atom_site_label
 _atom_site_symmetry_multiplicity
 _atom_site_fract_x
 _atom_site_fract_y
 _atom_site_fract_z
 _atom_site_occupancy
  La  La0  1  0.333333  0.666667  0.750000  1
  Y  Y1  1  0.333333  0.666667  0.538476  1
  Y  Y2  1  0.666667  0.333333  0.460166  1
  Y  Y3  1  0.666667  0.333333  0.039834  1
  Y  Y4  1  0.333333  0.666667  0.961524  1
  Y  Y5  1  0.666667  0.333333  0.250000  1
  Ga  Ga6  1  0.000000  0.000000  0.000360  1
  Ga  Ga7  1  0.000000  0.000000  0.499640  1
  Si  Si8  1  0.000000  0.000000  0.250000  1
  Si  Si9  1  0.000000  0.000000  0.750000  1
  Si  Si10  1  0.333333  0.666667  0.250000  1
  Si  Si11  1  0.666667  0.333333  0.750000  1
  Ir  Ir12  1  0.167956  0.335915  0.133652  1
  Ir  Ir13  1  0.831948  0.663895  0.867922  1
  Ir  Ir14  1  0.664085  0.832044  0.133652  1
  Ir  Ir15  1  0.831948  0.663895  0.632078  1
  Ir  Ir16  1  0.336105  0.168052  0.867922  1
  Ir  Ir17  1  0.167956  0.335915  0.366348  1
  Ir  Ir18  1  0.167956  0.832044  0.133652  1
  Ir  Ir19  1  0.336105  0.168052  0.632078  1
  Ir  Ir20  1  0.831948  0.168052  0.867922  1
  Ir  Ir21  1  0.664085  0.832044  0.366348  1
  Ir  Ir22  1  0.831948  0.168052  0.632078  1
  Ir  Ir23  1  0.167956  0.832044  0.366348  1
