# generated using pymatgen
data_DyHo5Co2(P3Rh4)4
_symmetry_space_group_name_H-M   'P 1'
_cell_length_a   3.86002800
_cell_length_b   11.13528900
_cell_length_c   12.78994600
_cell_angle_alpha   90.00000000
_cell_angle_beta   90.00000000
_cell_angle_gamma   90.00000000
_symmetry_Int_Tables_number   1
_chemical_formula_structural   DyHo5Co2(P3Rh4)4
_chemical_formula_sum   'Dy1 Ho5 Co2 P12 Rh16'
_cell_volume   549.74420347
_cell_formula_units_Z   1
loop_
 _symmetry_equiv_pos_site_id
 _symmetry_equiv_pos_as_xyz
  1  'x, y, z'
loop_
 _atom_site_type_symbol
 _atom_site_label
 _atom_site_symmetry_multiplicity
 _atom_site_fract_x
 _atom_site_fract_y
 _atom_site_fract_z
 _atom_site_occupancy
  Dy  Dy0  1  0.500000  0.000000  0.478036  1
  Ho  Ho1  1  0.000000  0.500000  0.521925  1
  Ho  Ho2  1  0.500000  0.814795  0.201779  1
  Ho  Ho3  1  0.500000  0.185205  0.201779  1
  Ho  Ho4  1  0.000000  0.685095  0.798183  1
  Ho  Ho5  1  0.000000  0.314905  0.798183  1
  Co  Co6  1  0.000000  0.500000  0.978984  1
  Co  Co7  1  0.500000  0.000000  0.020935  1
  P  P8  1  0.500000  0.500000  0.881092  1
  P  P9  1  0.000000  0.000000  0.118692  1
  P  P10  1  0.500000  0.500000  0.351845  1
  P  P11  1  0.000000  0.000000  0.648522  1
  P  P12  1  0.500000  0.315925  0.619645  1
  P  P13  1  0.500000  0.684075  0.619645  1
  P  P14  1  0.000000  0.184228  0.380267  1
  P  P15  1  0.000000  0.815772  0.380267  1
  P  P16  1  0.500000  0.853339  0.895790  1
  P  P17  1  0.500000  0.146661  0.895790  1
  P  P18  1  0.000000  0.646606  0.104250  1
  P  P19  1  0.000000  0.353394  0.104250  1
  Rh  Rh20  1  0.500000  0.500000  0.168125  1
  Rh  Rh21  1  0.000000  0.000000  0.832055  1
  Rh  Rh22  1  0.500000  0.500000  0.702862  1
  Rh  Rh23  1  0.000000  0.000000  0.296753  1
  Rh  Rh24  1  0.500000  0.336847  0.993707  1
  Rh  Rh25  1  0.500000  0.663153  0.993707  1
  Rh  Rh26  1  0.000000  0.163183  0.006301  1
  Rh  Rh27  1  0.000000  0.836817  0.006301  1
  Rh  Rh28  1  0.500000  0.294261  0.430612  1
  Rh  Rh29  1  0.500000  0.705739  0.430612  1
  Rh  Rh30  1  0.000000  0.206206  0.569492  1
  Rh  Rh31  1  0.000000  0.793794  0.569492  1
  Rh  Rh32  1  0.500000  0.872920  0.712295  1
  Rh  Rh33  1  0.500000  0.127080  0.712295  1
  Rh  Rh34  1  0.000000  0.627003  0.287766  1
  Rh  Rh35  1  0.000000  0.372997  0.287766  1
