# generated using pymatgen
data_Y7Sc(WC2)4
_symmetry_space_group_name_H-M   'P 1'
_cell_length_a   5.72324906
_cell_length_b   5.72324824
_cell_length_c   9.83587036
_cell_angle_alpha   89.39931797
_cell_angle_beta   90.60068383
_cell_angle_gamma   89.61187949
_symmetry_Int_Tables_number   1
_chemical_formula_structural   Y7Sc(WC2)4
_chemical_formula_sum   'Y7 Sc1 W4 C8'
_cell_volume   322.13654553
_cell_formula_units_Z   1
loop_
 _symmetry_equiv_pos_site_id
 _symmetry_equiv_pos_as_xyz
  1  'x, y, z'
loop_
 _atom_site_type_symbol
 _atom_site_label
 _atom_site_symmetry_multiplicity
 _atom_site_fract_x
 _atom_site_fract_y
 _atom_site_fract_z
 _atom_site_occupancy
  Y  Y0  1  0.198743  0.203354  0.339336  1
  Y  Y1  1  0.799904  0.800499  0.657198  1
  Y  Y2  1  0.303327  0.696673  0.845976  1
  Y  Y3  1  0.796646  0.801257  0.339336  1
  Y  Y4  1  0.199501  0.200096  0.657198  1
  Y  Y5  1  0.698149  0.301851  0.157455  1
  Y  Y6  1  0.701376  0.298624  0.842556  1
  Sc  Sc7  1  0.295483  0.704517  0.157735  1
  W  W8  1  0.180844  0.174193  0.002771  1
  W  W9  1  0.825807  0.819156  0.002771  1
  W  W10  1  0.319264  0.680736  0.496879  1
  W  W11  1  0.675365  0.324635  0.497047  1
  C  C12  1  0.007545  0.992455  0.155079  1
  C  C13  1  0.491377  0.508623  0.339965  1
  C  C14  1  0.498748  0.501252  0.651606  1
  C  C15  1  0.501125  0.991210  0.006497  1
  C  C16  1  0.008790  0.498875  0.006497  1
  C  C17  1  0.001895  0.998105  0.848167  1
  C  C18  1  0.498380  0.002268  0.497966  1
  C  C19  1  0.997732  0.501620  0.497966  1
