# generated using pymatgen
data_SmTmFe5Co3B8
_symmetry_space_group_name_H-M   'P 1'
_cell_length_a   6.95218932
_cell_length_b   6.96074732
_cell_length_c   3.81015134
_cell_angle_alpha   90.04148586
_cell_angle_beta   90.07095811
_cell_angle_gamma   90.11034881
_symmetry_Int_Tables_number   1
_chemical_formula_structural   SmTmFe5Co3B8
_chemical_formula_sum   'Sm1 Tm1 Fe5 Co3 B8'
_cell_volume   184.38196211
_cell_formula_units_Z   1
loop_
 _symmetry_equiv_pos_site_id
 _symmetry_equiv_pos_as_xyz
  1  'x, y, z'
loop_
 _atom_site_type_symbol
 _atom_site_label
 _atom_site_symmetry_multiplicity
 _atom_site_fract_x
 _atom_site_fract_y
 _atom_site_fract_z
 _atom_site_occupancy
  Sm  Sm0  1  0.501355  0.498987  0.502599  1
  Tm  Tm1  1  0.000072  0.000925  0.002993  1
  Fe  Fe2  1  0.384147  0.130385  0.892987  1
  Fe  Fe3  1  0.616320  0.868662  0.891944  1
  Fe  Fe4  1  0.366128  0.885329  0.392682  1
  Fe  Fe5  1  0.634665  0.113901  0.392325  1
  Fe  Fe6  1  0.115094  0.365495  0.608525  1
  Co  Co7  1  0.884989  0.639371  0.608275  1
  Co  Co8  1  0.133640  0.618254  0.108702  1
  Co  Co9  1  0.864377  0.384589  0.108885  1
  B  B10  1  0.799935  0.666896  0.102331  1
  B  B11  1  0.198364  0.331780  0.105007  1
  B  B12  1  0.841085  0.289733  0.605013  1
  B  B13  1  0.164597  0.702526  0.605552  1
  B  B14  1  0.701141  0.836826  0.391328  1
  B  B15  1  0.295238  0.164366  0.393529  1
  B  B16  1  0.667067  0.195100  0.893548  1
  B  B17  1  0.331783  0.806873  0.893774  1
