# generated using pymatgen
data_Pu3TaF20
_symmetry_space_group_name_H-M   'P 1'
_cell_length_a   9.36927900
_cell_length_b   9.36927874
_cell_length_c   5.46505712
_cell_angle_alpha   85.48647454
_cell_angle_beta   85.48647618
_cell_angle_gamma   112.69549144
_symmetry_Int_Tables_number   1
_chemical_formula_structural   Pu3TaF20
_chemical_formula_sum   'Pu3 Ta1 F20'
_cell_volume   438.10858799
_cell_formula_units_Z   1
loop_
 _symmetry_equiv_pos_site_id
 _symmetry_equiv_pos_as_xyz
  1  'x, y, z'
loop_
 _atom_site_type_symbol
 _atom_site_label
 _atom_site_symmetry_multiplicity
 _atom_site_fract_x
 _atom_site_fract_y
 _atom_site_fract_z
 _atom_site_occupancy
  Pu  Pu0  1  0.797722  0.202278  0.500000  1
  Pu  Pu1  1  0.752823  0.743573  0.256435  1
  Pu  Pu2  1  0.256427  0.247177  0.743565  1
  Ta  Ta3  1  0.201031  0.798969  0.500000  1
  F  F4  1  0.268418  0.453999  0.846657  1
  F  F5  1  0.360079  0.351933  0.406442  1
  F  F6  1  0.462800  0.264327  0.850068  1
  F  F7  1  0.025147  0.212862  0.620055  1
  F  F8  1  0.648067  0.639921  0.593558  1
  F  F9  1  0.546001  0.731582  0.153343  1
  F  F10  1  0.858908  0.856815  0.922253  1
  F  F11  1  0.989421  0.785680  0.386347  1
  F  F12  1  0.168447  0.607814  0.387013  1
  F  F13  1  0.910445  0.307681  0.167796  1
  F  F14  1  0.589806  0.164952  0.377200  1
  F  F15  1  0.835048  0.410194  0.622800  1
  F  F16  1  0.787138  0.974853  0.379945  1
  F  F17  1  0.692319  0.089555  0.832204  1
  F  F18  1  0.214320  0.010579  0.613653  1
  F  F19  1  0.392186  0.831553  0.612987  1
  F  F20  1  0.143185  0.141092  0.077747  1
  F  F21  1  0.735673  0.537200  0.149932  1
  F  F22  1  0.283797  0.919209  0.189305  1
  F  F23  1  0.080791  0.716203  0.810695  1
