# generated using pymatgen
data_Yb15Ho3(ErPt8)2
_symmetry_space_group_name_H-M   'P 1'
_cell_length_a   7.45469116
_cell_length_b   7.54209212
_cell_length_c   14.52109400
_cell_angle_alpha   90.05395249
_cell_angle_beta   90.01192078
_cell_angle_gamma   90.03933261
_symmetry_Int_Tables_number   1
_chemical_formula_structural   Yb15Ho3(ErPt8)2
_chemical_formula_sum   'Yb15 Ho3 Er2 Pt16'
_cell_volume   816.43294470
_cell_formula_units_Z   1
loop_
 _symmetry_equiv_pos_site_id
 _symmetry_equiv_pos_as_xyz
  1  'x, y, z'
loop_
 _atom_site_type_symbol
 _atom_site_label
 _atom_site_symmetry_multiplicity
 _atom_site_fract_x
 _atom_site_fract_y
 _atom_site_fract_z
 _atom_site_occupancy
  Yb  Yb0  1  0.850376  0.666250  0.122283  1
  Yb  Yb1  1  0.648638  0.166499  0.878000  1
  Yb  Yb2  1  0.148612  0.333439  0.621158  1
  Yb  Yb3  1  0.491506  0.675594  0.595021  1
  Yb  Yb4  1  0.991054  0.823089  0.905605  1
  Yb  Yb5  1  0.509141  0.321948  0.093883  1
  Yb  Yb6  1  0.006923  0.178236  0.405591  1
  Yb  Yb7  1  0.508118  0.322388  0.404538  1
  Yb  Yb8  1  0.006174  0.180771  0.094459  1
  Yb  Yb9  1  0.492311  0.679638  0.904454  1
  Yb  Yb10  1  0.992351  0.819382  0.595679  1
  Yb  Yb11  1  0.810029  0.506650  0.750180  1
  Yb  Yb12  1  0.309436  0.992033  0.749901  1
  Yb  Yb13  1  0.188404  0.489446  0.249264  1
  Yb  Yb14  1  0.693957  0.009012  0.249385  1
  Ho  Ho15  1  0.649871  0.162222  0.622751  1
  Ho  Ho16  1  0.150308  0.335971  0.876202  1
  Ho  Ho17  1  0.351050  0.835917  0.124011  1
  Er  Er18  1  0.851261  0.664492  0.376785  1
  Er  Er19  1  0.351097  0.834020  0.377041  1
  Pt  Pt20  1  0.683063  0.957515  0.458308  1
  Pt  Pt21  1  0.188145  0.539503  0.039645  1
  Pt  Pt22  1  0.311384  0.039761  0.960823  1
  Pt  Pt23  1  0.814088  0.459384  0.538324  1
  Pt  Pt24  1  0.323315  0.030264  0.540470  1
  Pt  Pt25  1  0.827188  0.466969  0.957209  1
  Pt  Pt26  1  0.673597  0.966919  0.043543  1
  Pt  Pt27  1  0.176575  0.542927  0.456845  1
  Pt  Pt28  1  0.444920  0.379667  0.746871  1
  Pt  Pt29  1  0.944598  0.118581  0.751417  1
  Pt  Pt30  1  0.552592  0.622764  0.252831  1
  Pt  Pt31  1  0.057823  0.878757  0.254386  1
  Pt  Pt32  1  0.681272  0.862474  0.747179  1
  Pt  Pt33  1  0.181587  0.636550  0.752804  1
  Pt  Pt34  1  0.323192  0.134656  0.250251  1
  Pt  Pt35  1  0.816043  0.366311  0.252904  1
