# generated using pymatgen
data_Lu2U2GeAs5Ru7
_symmetry_space_group_name_H-M   'P 1'
_cell_length_a   7.18044286
_cell_length_b   7.21686111
_cell_length_c   7.18044264
_cell_angle_alpha   109.21226395
_cell_angle_beta   109.58990748
_cell_angle_gamma   109.40790503
_symmetry_Int_Tables_number   1
_chemical_formula_structural   Lu2U2GeAs5Ru7
_chemical_formula_sum   'Lu2 U2 Ge1 As5 Ru7'
_cell_volume   287.15194113
_cell_formula_units_Z   1
loop_
 _symmetry_equiv_pos_site_id
 _symmetry_equiv_pos_as_xyz
  1  'x, y, z'
loop_
 _atom_site_type_symbol
 _atom_site_label
 _atom_site_symmetry_multiplicity
 _atom_site_fract_x
 _atom_site_fract_y
 _atom_site_fract_z
 _atom_site_occupancy
  Lu  Lu0  1  0.999608  0.998751  0.499038  1
  Lu  Lu1  1  0.499713  0.998751  0.999143  1
  U  U2  1  0.000122  0.498659  0.999267  1
  U  U3  1  0.499392  0.498659  0.498537  1
  Ge  Ge4  1  0.005485  0.693450  0.687964  1
  As  As5  1  0.687759  0.691975  0.004216  1
  As  As6  1  0.312073  0.999249  0.311128  1
  As  As7  1  0.995084  0.311522  0.316437  1
  As  As8  1  0.311940  0.305572  0.993632  1
  As  As9  1  0.688121  0.999249  0.687175  1
  Ru  Ru10  1  0.750515  0.257239  0.506722  1
  Ru  Ru11  1  0.748781  0.499738  0.249802  1
  Ru  Ru12  1  0.505631  0.255166  0.749534  1
  Ru  Ru13  1  0.249936  0.499738  0.750957  1
  Ru  Ru14  1  0.251438  0.745992  0.494555  1
  Ru  Ru15  1  0.494787  0.744538  0.249752  1
  Ru  Ru16  1  0.999611  0.001752  0.002141  1
