# generated using pymatgen
data_Tm4Co3Si4Ru
_symmetry_space_group_name_H-M   'P 1'
_cell_length_a   4.19164300
_cell_length_b   6.79398183
_cell_length_c   6.98734608
_cell_angle_alpha   90.21347605
_cell_angle_beta   90.00000000
_cell_angle_gamma   90.00000000
_symmetry_Int_Tables_number   1
_chemical_formula_structural   Tm4Co3Si4Ru
_chemical_formula_sum   'Tm4 Co3 Si4 Ru1'
_cell_volume   198.98388593
_cell_formula_units_Z   1
loop_
 _symmetry_equiv_pos_site_id
 _symmetry_equiv_pos_as_xyz
  1  'x, y, z'
loop_
 _atom_site_type_symbol
 _atom_site_label
 _atom_site_symmetry_multiplicity
 _atom_site_fract_x
 _atom_site_fract_y
 _atom_site_fract_z
 _atom_site_occupancy
  Tm  Tm0  1  0.250000  0.986756  0.804358  1
  Tm  Tm1  1  0.750000  0.012155  0.193979  1
  Tm  Tm2  1  0.250000  0.482648  0.686892  1
  Tm  Tm3  1  0.750000  0.510812  0.313951  1
  Co  Co4  1  0.750000  0.851305  0.568433  1
  Co  Co5  1  0.250000  0.155154  0.435795  1
  Co  Co6  1  0.750000  0.348849  0.933052  1
  Si  Si7  1  0.250000  0.297476  0.102924  1
  Si  Si8  1  0.750000  0.697135  0.888427  1
  Si  Si9  1  0.250000  0.805456  0.399363  1
  Si  Si10  1  0.750000  0.196677  0.606405  1
  Ru  Ru11  1  0.250000  0.655576  0.066421  1
