# generated using pymatgen
data_La13Th(IrPd2)2
_symmetry_space_group_name_H-M   'P 1'
_cell_length_a   6.60031975
_cell_length_b   10.31775206
_cell_length_c   10.31775110
_cell_angle_alpha   120.05531653
_cell_angle_beta   89.95342095
_cell_angle_gamma   90.04658090
_symmetry_Int_Tables_number   1
_chemical_formula_structural   La13Th(IrPd2)2
_chemical_formula_sum   'La13 Th1 Ir2 Pd4'
_cell_volume   608.16749099
_cell_formula_units_Z   1
loop_
 _symmetry_equiv_pos_site_id
 _symmetry_equiv_pos_as_xyz
  1  'x, y, z'
loop_
 _atom_site_type_symbol
 _atom_site_label
 _atom_site_symmetry_multiplicity
 _atom_site_fract_x
 _atom_site_fract_y
 _atom_site_fract_z
 _atom_site_occupancy
  La  La0  1  0.956426  0.666718  0.333282  1
  La  La1  1  0.247270  0.128447  0.871553  1
  La  La2  1  0.255185  0.740723  0.869999  1
  La  La3  1  0.255185  0.130001  0.259277  1
  La  La4  1  0.740777  0.875436  0.124564  1
  La  La5  1  0.742480  0.252000  0.133277  1
  La  La6  1  0.742480  0.866723  0.748000  1
  La  La7  1  0.444158  0.536777  0.463223  1
  La  La8  1  0.444459  0.928181  0.462418  1
  La  La9  1  0.444459  0.537582  0.071819  1
  La  La10  1  0.939702  0.458949  0.541051  1
  La  La11  1  0.942926  0.079082  0.534724  1
  La  La12  1  0.942926  0.465276  0.920918  1
  Th  Th13  1  0.474251  0.336688  0.663312  1
  Ir  Ir14  1  0.683918  0.616632  0.809184  1
  Ir  Ir15  1  0.683918  0.190816  0.383368  1
  Pd  Pd16  1  0.191319  0.811649  0.188351  1
  Pd  Pd17  1  0.191877  0.376028  0.187290  1
  Pd  Pd18  1  0.191877  0.812710  0.623972  1
  Pd  Pd19  1  0.686401  0.189580  0.810420  1
