# generated using pymatgen
data_NdHf2Zr(Al3Rh)6
_symmetry_space_group_name_H-M   'P 1'
_cell_length_a   7.50507807
_cell_length_b   7.49310175
_cell_length_c   9.32916200
_cell_angle_alpha   90.00000000
_cell_angle_beta   90.00000000
_cell_angle_gamma   119.67394853
_symmetry_Int_Tables_number   1
_chemical_formula_structural   NdHf2Zr(Al3Rh)6
_chemical_formula_sum   'Nd1 Hf2 Zr1 Al18 Rh6'
_cell_volume   455.83496408
_cell_formula_units_Z   1
loop_
 _symmetry_equiv_pos_site_id
 _symmetry_equiv_pos_as_xyz
  1  'x, y, z'
loop_
 _atom_site_type_symbol
 _atom_site_label
 _atom_site_symmetry_multiplicity
 _atom_site_fract_x
 _atom_site_fract_y
 _atom_site_fract_z
 _atom_site_occupancy
  Nd  Nd0  1  0.329556  0.006758  0.250000  1
  Hf  Hf1  1  0.993684  0.671644  0.750000  1
  Hf  Hf2  1  0.672123  0.994590  0.750000  1
  Zr  Zr3  1  0.005825  0.329793  0.250000  1
  Al  Al4  1  0.120907  0.122960  0.750000  1
  Al  Al5  1  0.870064  0.875970  0.250000  1
  Al  Al6  1  0.996167  0.334696  0.578474  1
  Al  Al7  1  0.998687  0.661137  0.429697  1
  Al  Al8  1  0.998687  0.661137  0.070303  1
  Al  Al9  1  0.335081  0.996901  0.915876  1
  Al  Al10  1  0.996167  0.334696  0.921526  1
  Al  Al11  1  0.669801  0.002452  0.070533  1
  Al  Al12  1  0.669801  0.002452  0.429467  1
  Al  Al13  1  0.335081  0.996901  0.584124  1
  Al  Al14  1  0.331250  0.334976  0.049130  1
  Al  Al15  1  0.669063  0.669092  0.937098  1
  Al  Al16  1  0.669063  0.669092  0.562902  1
  Al  Al17  1  0.331250  0.334976  0.450870  1
  Al  Al18  1  0.337696  0.554173  0.750000  1
  Al  Al19  1  0.669499  0.454140  0.250000  1
  Al  Al20  1  0.555877  0.339682  0.750000  1
  Al  Al21  1  0.445564  0.653438  0.250000  1
  Rh  Rh22  1  0.673581  0.328458  0.503052  1
  Rh  Rh23  1  0.328534  0.673342  0.503434  1
  Rh  Rh24  1  0.328534  0.673342  0.996566  1
  Rh  Rh25  1  0.673581  0.328458  0.996948  1
  Rh  Rh26  1  0.997440  0.997372  0.503684  1
  Rh  Rh27  1  0.997440  0.997372  0.996316  1
