# generated using pymatgen
data_Rb2Pr(IO3)5
_symmetry_space_group_name_H-M   'P 1'
_cell_length_a   8.41553300
_cell_length_b   8.49423999
_cell_length_c   12.67283500
_cell_angle_alpha   109.58078954
_cell_angle_beta   90.00000000
_cell_angle_gamma   90.00000000
_symmetry_Int_Tables_number   1
_chemical_formula_structural   Rb2Pr(IO3)5
_chemical_formula_sum   'Rb4 Pr2 I10 O30'
_cell_volume   853.51104818
_cell_formula_units_Z   2
loop_
 _symmetry_equiv_pos_site_id
 _symmetry_equiv_pos_as_xyz
  1  'x, y, z'
loop_
 _atom_site_type_symbol
 _atom_site_label
 _atom_site_symmetry_multiplicity
 _atom_site_fract_x
 _atom_site_fract_y
 _atom_site_fract_z
 _atom_site_occupancy
  Rb  Rb0  1  0.000000  0.649488  0.000000  1
  Rb  Rb1  1  0.000000  0.149488  0.000000  1
  Rb  Rb2  1  0.523079  0.385328  0.500000  1
  Rb  Rb3  1  0.476921  0.885328  0.500000  1
  Pr  Pr4  1  0.500000  0.720137  0.000000  1
  Pr  Pr5  1  0.500000  0.220137  0.000000  1
  I  I6  1  0.757568  0.741799  0.732041  1
  I  I7  1  0.242432  0.009757  0.267959  1
  I  I8  1  0.242432  0.241799  0.732041  1
  I  I9  1  0.757568  0.509757  0.267959  1
  I  I10  1  0.728926  0.996565  0.210968  1
  I  I11  1  0.271074  0.785598  0.789032  1
  I  I12  1  0.271074  0.496565  0.210968  1
  I  I13  1  0.728926  0.285598  0.789032  1
  I  I14  1  0.061233  0.442981  0.500000  1
  I  I15  1  0.938767  0.942981  0.500000  1
  O  O16  1  0.932592  0.987910  0.161671  1
  O  O17  1  0.067408  0.826238  0.838329  1
  O  O18  1  0.067408  0.487910  0.161671  1
  O  O19  1  0.932592  0.326238  0.838329  1
  O  O20  1  0.557226  0.734248  0.674349  1
  O  O21  1  0.442774  0.059899  0.325651  1
  O  O22  1  0.442774  0.234248  0.674349  1
  O  O23  1  0.557226  0.559899  0.325651  1
  O  O24  1  0.620721  0.017470  0.085617  1
  O  O25  1  0.379279  0.931853  0.914383  1
  O  O26  1  0.379279  0.517470  0.085617  1
  O  O27  1  0.620721  0.431853  0.914383  1
  O  O28  1  0.686494  0.768980  0.159779  1
  O  O29  1  0.313506  0.609202  0.840221  1
  O  O30  1  0.313506  0.268980  0.159779  1
  O  O31  1  0.686494  0.109202  0.840221  1
  O  O32  1  0.713608  0.747521  0.875352  1
  O  O33  1  0.286392  0.872171  0.124648  1
  O  O34  1  0.286392  0.247521  0.875352  1
  O  O35  1  0.713608  0.372171  0.124648  1
  O  O36  1  0.809464  0.519934  0.669394  1
  O  O37  1  0.190535  0.850539  0.330606  1
  O  O38  1  0.190535  0.019934  0.669394  1
  O  O39  1  0.809464  0.350539  0.330606  1
  O  O40  1  0.098553  0.228950  0.500000  1
  O  O41  1  0.901447  0.728950  0.500000  1
  O  O42  1  0.197017  0.553528  0.614521  1
  O  O43  1  0.802983  0.939008  0.385479  1
  O  O44  1  0.802983  0.053528  0.614521  1
  O  O45  1  0.197017  0.439008  0.385479  1
