# generated using pymatgen
data_Lu8Cd2NiRu
_symmetry_space_group_name_H-M   'P 1'
_cell_length_a   9.38646055
_cell_length_b   9.38646137
_cell_length_c   9.47020900
_cell_angle_alpha   59.70441892
_cell_angle_beta   59.70441599
_cell_angle_gamma   59.22121872
_symmetry_Int_Tables_number   1
_chemical_formula_structural   Lu8Cd2NiRu
_chemical_formula_sum   'Lu16 Cd4 Ni2 Ru2'
_cell_volume   583.84127745
_cell_formula_units_Z   2
loop_
 _symmetry_equiv_pos_site_id
 _symmetry_equiv_pos_as_xyz
  1  'x, y, z'
loop_
 _atom_site_type_symbol
 _atom_site_label
 _atom_site_symmetry_multiplicity
 _atom_site_fract_x
 _atom_site_fract_y
 _atom_site_fract_z
 _atom_site_occupancy
  Lu  Lu0  1  0.348910  0.348910  0.344078  1
  Lu  Lu1  1  0.348910  0.348910  0.958101  1
  Lu  Lu2  1  0.351648  0.955796  0.346278  1
  Lu  Lu3  1  0.955796  0.351648  0.346278  1
  Lu  Lu4  1  0.811445  0.186992  0.188208  1
  Lu  Lu5  1  0.186992  0.811445  0.813355  1
  Lu  Lu6  1  0.186992  0.811445  0.188208  1
  Lu  Lu7  1  0.811445  0.186992  0.813355  1
  Lu  Lu8  1  0.187692  0.187692  0.812308  1
  Lu  Lu9  1  0.811906  0.811906  0.188094  1
  Lu  Lu10  1  0.937765  0.560830  0.564825  1
  Lu  Lu11  1  0.560830  0.937765  0.936580  1
  Lu  Lu12  1  0.560830  0.937765  0.564825  1
  Lu  Lu13  1  0.937765  0.560830  0.936580  1
  Lu  Lu14  1  0.564148  0.564148  0.935852  1
  Lu  Lu15  1  0.939664  0.939664  0.560336  1
  Cd  Cd16  1  0.580271  0.580271  0.582201  1
  Cd  Cd17  1  0.580271  0.580271  0.257257  1
  Cd  Cd18  1  0.580321  0.255815  0.581932  1
  Cd  Cd19  1  0.255815  0.580321  0.581932  1
  Ni  Ni20  1  0.142330  0.573633  0.142019  1
  Ni  Ni21  1  0.573633  0.142330  0.142019  1
  Ru  Ru22  1  0.142310  0.142310  0.141506  1
  Ru  Ru23  1  0.142310  0.142310  0.573874  1
