# generated using pymatgen
data_Pm2SiB3
_symmetry_space_group_name_H-M   'P 1'
_cell_length_a   5.49093818
_cell_length_b   5.49123736
_cell_length_c   5.49123770
_cell_angle_alpha   143.33754004
_cell_angle_beta   113.45447041
_cell_angle_gamma   78.45272405
_symmetry_Int_Tables_number   1
_chemical_formula_structural   Pm2SiB3
_chemical_formula_sum   'Pm2 Si1 B3'
_cell_volume   88.52477750
_cell_formula_units_Z   1
loop_
 _symmetry_equiv_pos_site_id
 _symmetry_equiv_pos_as_xyz
  1  'x, y, z'
loop_
 _atom_site_type_symbol
 _atom_site_label
 _atom_site_symmetry_multiplicity
 _atom_site_fract_x
 _atom_site_fract_y
 _atom_site_fract_z
 _atom_site_occupancy
  Pm  Pm0  1  0.004653  0.004217  0.000436  1
  Pm  Pm1  1  0.496220  0.495751  0.000469  1
  Si  Si2  1  0.585097  0.249960  0.335137  1
  B  B3  1  0.083903  0.750015  0.333891  1
  B  B4  1  0.940440  0.249983  0.690457  1
  B  B5  1  0.389688  0.750077  0.639612  1
