# generated using pymatgen
data_CaAlIO6
_symmetry_space_group_name_H-M   'P 1'
_cell_length_a   5.05549800
_cell_length_b   5.05549690
_cell_length_c   5.12940100
_cell_angle_alpha   90.00000000
_cell_angle_beta   90.00000000
_cell_angle_gamma   119.99999413
_symmetry_Int_Tables_number   1
_chemical_formula_structural   CaAlIO6
_chemical_formula_sum   'Ca1 Al1 I1 O6'
_cell_volume   113.53378079
_cell_formula_units_Z   1
loop_
 _symmetry_equiv_pos_site_id
 _symmetry_equiv_pos_as_xyz
  1  'x, y, z'
loop_
 _atom_site_type_symbol
 _atom_site_label
 _atom_site_symmetry_multiplicity
 _atom_site_fract_x
 _atom_site_fract_y
 _atom_site_fract_z
 _atom_site_occupancy
  Ca  Ca0  1  0.000000  0.000000  0.000000  1
  Al  Al1  1  0.333333  0.666667  0.500000  1
  I  I2  1  0.666667  0.333333  0.500000  1
  O  O3  1  0.374495  0.002833  0.707537  1
  O  O4  1  0.997167  0.371663  0.707537  1
  O  O5  1  0.628337  0.625505  0.707537  1
  O  O6  1  0.997167  0.625505  0.292463  1
  O  O7  1  0.628337  0.002833  0.292463  1
  O  O8  1  0.374495  0.371663  0.292463  1
