# generated using pymatgen
data_Pr12HgIr2RhI12
_symmetry_space_group_name_H-M   'P 1'
_cell_length_a   11.09859810
_cell_length_b   11.09859868
_cell_length_c   11.10399495
_cell_angle_alpha   110.08949237
_cell_angle_beta   110.08949862
_cell_angle_gamma   109.97316370
_symmetry_Int_Tables_number   1
_chemical_formula_structural   Pr12HgIr2RhI12
_chemical_formula_sum   'Pr12 Hg1 Ir2 Rh1 I12'
_cell_volume   1029.70505942
_cell_formula_units_Z   1
loop_
 _symmetry_equiv_pos_site_id
 _symmetry_equiv_pos_as_xyz
  1  'x, y, z'
loop_
 _atom_site_type_symbol
 _atom_site_label
 _atom_site_symmetry_multiplicity
 _atom_site_fract_x
 _atom_site_fract_y
 _atom_site_fract_z
 _atom_site_occupancy
  Pr  Pr0  1  0.461843  0.492807  0.221233  1
  Pr  Pr1  1  0.751698  0.228252  0.273465  1
  Pr  Pr2  1  0.750934  0.019635  0.481417  1
  Pr  Pr3  1  0.221622  0.462138  0.492853  1
  Pr  Pr4  1  0.271748  0.748302  0.226535  1
  Pr  Pr5  1  0.037862  0.278378  0.007147  1
  Pr  Pr6  1  0.007193  0.038157  0.278767  1
  Pr  Pr7  1  0.480365  0.749066  0.018583  1
  Pr  Pr8  1  0.492547  0.221824  0.462080  1
  Pr  Pr9  1  0.019369  0.480631  0.750000  1
  Pr  Pr10  1  0.278176  0.007453  0.037920  1
  Pr  Pr11  1  0.227004  0.272996  0.750000  1
  Hg  Hg12  1  0.250294  0.249706  0.250000  1
  Ir  Ir13  1  0.995982  0.249456  0.502340  1
  Ir  Ir14  1  0.250544  0.504018  0.997660  1
  Rh  Rh15  1  0.502728  0.997272  0.250000  1
  I  I16  1  0.250089  0.761432  0.738911  1
  I  I17  1  0.513885  0.504423  0.754368  1
  I  I18  1  0.986527  0.745856  0.995623  1
  I  I19  1  0.738568  0.249911  0.761089  1
  I  I20  1  0.995577  0.986115  0.745632  1
  I  I21  1  0.250256  0.995532  0.504571  1
  I  I22  1  0.754144  0.513473  0.504377  1
  I  I23  1  0.504468  0.249744  0.995429  1
  I  I24  1  0.761214  0.738786  0.250000  1
  I  I25  1  0.745705  0.995689  0.986424  1
  I  I26  1  0.995344  0.504656  0.250000  1
  I  I27  1  0.504311  0.754295  0.513576  1
