# generated using pymatgen
data_TbZr(NiP)2
_symmetry_space_group_name_H-M   'P 1'
_cell_length_a   3.86134400
_cell_length_b   3.86134487
_cell_length_c   14.74514600
_cell_angle_alpha   90.00000000
_cell_angle_beta   90.00000000
_cell_angle_gamma   119.99999256
_symmetry_Int_Tables_number   1
_chemical_formula_structural   TbZr(NiP)2
_chemical_formula_sum   'Tb2 Zr2 Ni4 P4'
_cell_volume   190.39556451
_cell_formula_units_Z   2
loop_
 _symmetry_equiv_pos_site_id
 _symmetry_equiv_pos_as_xyz
  1  'x, y, z'
loop_
 _atom_site_type_symbol
 _atom_site_label
 _atom_site_symmetry_multiplicity
 _atom_site_fract_x
 _atom_site_fract_y
 _atom_site_fract_z
 _atom_site_occupancy
  Tb  Tb0  1  0.000000  0.000000  0.000000  1
  Tb  Tb1  1  0.000000  0.000000  0.500000  1
  Zr  Zr2  1  0.000000  0.000000  0.250000  1
  Zr  Zr3  1  0.000000  0.000000  0.750000  1
  Ni  Ni4  1  0.333333  0.666667  0.146035  1
  Ni  Ni5  1  0.666667  0.333333  0.853965  1
  Ni  Ni6  1  0.666667  0.333333  0.646035  1
  Ni  Ni7  1  0.333333  0.666667  0.353965  1
  P  P8  1  0.333333  0.666667  0.625658  1
  P  P9  1  0.666667  0.333333  0.374342  1
  P  P10  1  0.666667  0.333333  0.125658  1
  P  P11  1  0.333333  0.666667  0.874342  1
