# generated using pymatgen
data_Ce2Lu2Al5Tc3
_symmetry_space_group_name_H-M   'P 1'
_cell_length_a   5.40353714
_cell_length_b   5.44974354
_cell_length_c   8.93199248
_cell_angle_alpha   89.99999952
_cell_angle_beta   91.41516509
_cell_angle_gamma   120.28327029
_symmetry_Int_Tables_number   1
_chemical_formula_structural   Ce2Lu2Al5Tc3
_chemical_formula_sum   'Ce2 Lu2 Al5 Tc3'
_cell_volume   227.04333387
_cell_formula_units_Z   1
loop_
 _symmetry_equiv_pos_site_id
 _symmetry_equiv_pos_as_xyz
  1  'x, y, z'
loop_
 _atom_site_type_symbol
 _atom_site_label
 _atom_site_symmetry_multiplicity
 _atom_site_fract_x
 _atom_site_fract_y
 _atom_site_fract_z
 _atom_site_occupancy
  Ce  Ce0  1  0.357831  0.678916  0.460127  1
  Ce  Ce1  1  0.656149  0.328074  0.548155  1
  Lu  Lu2  1  0.660859  0.330429  0.938798  1
  Lu  Lu3  1  0.335708  0.667854  0.057733  1
  Al  Al4  1  0.842356  0.168289  0.244921  1
  Al  Al5  1  0.842356  0.674067  0.244921  1
  Al  Al6  1  0.329347  0.164673  0.240299  1
  Al  Al7  1  0.167895  0.833779  0.756033  1
  Al  Al8  1  0.167895  0.334116  0.756033  1
  Tc  Tc9  1  0.001092  0.000546  0.500188  1
  Tc  Tc10  1  0.974050  0.987025  0.993695  1
  Tc  Tc11  1  0.664464  0.832232  0.759098  1
