# generated using pymatgen
data_BaEu7Ta4O18
_symmetry_space_group_name_H-M   'P 1'
_cell_length_a   5.92749208
_cell_length_b   5.93054069
_cell_length_c   15.69672593
_cell_angle_alpha   89.97949147
_cell_angle_beta   90.02982985
_cell_angle_gamma   60.00192139
_symmetry_Int_Tables_number   1
_chemical_formula_structural   BaEu7Ta4O18
_chemical_formula_sum   'Ba1 Eu7 Ta4 O18'
_cell_volume   477.87379714
_cell_formula_units_Z   1
loop_
 _symmetry_equiv_pos_site_id
 _symmetry_equiv_pos_as_xyz
  1  'x, y, z'
loop_
 _atom_site_type_symbol
 _atom_site_label
 _atom_site_symmetry_multiplicity
 _atom_site_fract_x
 _atom_site_fract_y
 _atom_site_fract_z
 _atom_site_occupancy
  Ba  Ba0  1  0.000050  0.999786  0.249540  1
  Eu  Eu1  1  0.000161  0.999584  0.501658  1
  Eu  Eu2  1  0.000014  0.000371  0.997689  1
  Eu  Eu3  1  0.666793  0.666342  0.363196  1
  Eu  Eu4  1  0.666808  0.666330  0.135703  1
  Eu  Eu5  1  0.333034  0.334418  0.861309  1
  Eu  Eu6  1  0.333519  0.332764  0.638510  1
  Eu  Eu7  1  0.999999  0.000021  0.747436  1
  Ta  Ta8  1  0.666220  0.667619  0.846070  1
  Ta  Ta9  1  0.666928  0.666156  0.654922  1
  Ta  Ta10  1  0.333358  0.333096  0.346841  1
  Ta  Ta11  1  0.333555  0.333056  0.152953  1
  O  O12  1  0.598508  0.961927  0.749967  1
  O  O13  1  0.925903  0.724417  0.601826  1
  O  O14  1  0.926731  0.723447  0.898924  1
  O  O15  1  0.349139  0.925264  0.601939  1
  O  O16  1  0.350821  0.927747  0.899154  1
  O  O17  1  0.961347  0.439937  0.750360  1
  O  O18  1  0.439645  0.598703  0.750308  1
  O  O19  1  0.273624  0.648230  0.098359  1
  O  O20  1  0.274606  0.647767  0.401480  1
  O  O21  1  0.725344  0.348232  0.602233  1
  O  O22  1  0.721303  0.353061  0.899827  1
  O  O23  1  0.530411  0.434499  0.249901  1
  O  O24  1  0.035260  0.529928  0.249860  1
  O  O25  1  0.648602  0.077727  0.098458  1
  O  O26  1  0.648256  0.077127  0.401551  1
  O  O27  1  0.077673  0.273506  0.098532  1
  O  O28  1  0.077628  0.274072  0.401552  1
  O  O29  1  0.434760  0.034865  0.249941  1
