# generated using pymatgen
data_Lu5GaBiIr
_symmetry_space_group_name_H-M   'P 1'
_cell_length_a   8.57278914
_cell_length_b   8.57278937
_cell_length_c   8.66745636
_cell_angle_alpha   126.13694667
_cell_angle_beta   126.13693558
_cell_angle_gamma   78.90370488
_symmetry_Int_Tables_number   1
_chemical_formula_structural   Lu5GaBiIr
_chemical_formula_sum   'Lu10 Ga2 Bi2 Ir2'
_cell_volume   403.51915440
_cell_formula_units_Z   2
loop_
 _symmetry_equiv_pos_site_id
 _symmetry_equiv_pos_as_xyz
  1  'x, y, z'
loop_
 _atom_site_type_symbol
 _atom_site_label
 _atom_site_symmetry_multiplicity
 _atom_site_fract_x
 _atom_site_fract_y
 _atom_site_fract_z
 _atom_site_occupancy
  Lu  Lu0  1  0.000000  0.000000  0.000000  1
  Lu  Lu1  1  0.500000  0.500000  0.000000  1
  Lu  Lu2  1  0.781503  0.281503  0.793778  1
  Lu  Lu3  1  0.218497  0.718497  0.206222  1
  Lu  Lu4  1  0.487725  0.987725  0.206222  1
  Lu  Lu5  1  0.306269  0.463367  0.500000  1
  Lu  Lu6  1  0.036633  0.193731  0.500000  1
  Lu  Lu7  1  0.512275  0.012275  0.793778  1
  Lu  Lu8  1  0.693731  0.536633  0.500000  1
  Lu  Lu9  1  0.963367  0.806269  0.500000  1
  Ga  Ga10  1  0.136779  0.636779  0.773558  1
  Ga  Ga11  1  0.863221  0.363221  0.226442  1
  Bi  Bi12  1  0.250000  0.250000  0.000000  1
  Bi  Bi13  1  0.750000  0.750000  0.000000  1
  Ir  Ir14  1  0.637208  0.862792  0.500000  1
  Ir  Ir15  1  0.362792  0.137208  0.500000  1
