# generated using pymatgen
data_Nd9MgSi5Hg
_symmetry_space_group_name_H-M   'P 1'
_cell_length_a   9.13618126
_cell_length_b   9.13618084
_cell_length_c   9.13618100
_cell_angle_alpha   129.75324358
_cell_angle_beta   129.75324952
_cell_angle_gamma   73.80154213
_symmetry_Int_Tables_number   1
_chemical_formula_structural   Nd9MgSi5Hg
_chemical_formula_sum   'Nd9 Mg1 Si5 Hg1'
_cell_volume   439.70837028
_cell_formula_units_Z   1
loop_
 _symmetry_equiv_pos_site_id
 _symmetry_equiv_pos_as_xyz
  1  'x, y, z'
loop_
 _atom_site_type_symbol
 _atom_site_label
 _atom_site_symmetry_multiplicity
 _atom_site_fract_x
 _atom_site_fract_y
 _atom_site_fract_z
 _atom_site_occupancy
  Nd  Nd0  1  0.542536  0.033494  0.857780  1
  Nd  Nd1  1  0.175710  0.684753  0.142217  1
  Nd  Nd2  1  0.033495  0.175712  0.490960  1
  Nd  Nd3  1  0.684757  0.542541  0.509043  1
  Nd  Nd4  1  0.481108  0.945166  0.148396  1
  Nd  Nd5  1  0.796773  0.332715  0.851607  1
  Nd  Nd6  1  0.945163  0.796771  0.464057  1
  Nd  Nd7  1  0.332714  0.481107  0.535943  1
  Nd  Nd8  1  0.027644  0.027643  0.999999  1
  Mg  Mg9  1  0.486875  0.486875  0.999999  1
  Si  Si10  1  0.755072  0.755073  0.000000  1
  Si  Si11  1  0.885112  0.380590  0.271519  1
  Si  Si12  1  0.109072  0.613593  0.728480  1
  Si  Si13  1  0.380591  0.109075  0.495481  1
  Si  Si14  1  0.613593  0.885110  0.504517  1
  Hg  Hg15  1  0.249780  0.249779  0.000000  1
