# generated using pymatgen
data_Cr2IrOs4Rh
_symmetry_space_group_name_H-M   'P 1'
_cell_length_a   5.44257920
_cell_length_b   5.44402286
_cell_length_c   4.27469200
_cell_angle_alpha   90.00000000
_cell_angle_beta   90.00000000
_cell_angle_gamma   119.98244523
_symmetry_Int_Tables_number   1
_chemical_formula_structural   Cr2IrOs4Rh
_chemical_formula_sum   'Cr2 Ir1 Os4 Rh1'
_cell_volume   109.70766074
_cell_formula_units_Z   1
loop_
 _symmetry_equiv_pos_site_id
 _symmetry_equiv_pos_as_xyz
  1  'x, y, z'
loop_
 _atom_site_type_symbol
 _atom_site_label
 _atom_site_symmetry_multiplicity
 _atom_site_fract_x
 _atom_site_fract_y
 _atom_site_fract_z
 _atom_site_occupancy
  Cr  Cr0  1  0.336495  0.666339  0.750000  1
  Cr  Cr1  1  0.661221  0.323879  0.250000  1
  Ir  Ir2  1  0.831190  0.169703  0.750000  1
  Os  Os3  1  0.659957  0.834543  0.250000  1
  Os  Os4  1  0.177856  0.837021  0.250000  1
  Os  Os5  1  0.824884  0.659178  0.750000  1
  Os  Os6  1  0.338858  0.170802  0.750000  1
  Rh  Rh7  1  0.169538  0.338537  0.250000  1
