# generated using pymatgen
data_Tb6Al24Os5Pt3
_symmetry_space_group_name_H-M   'P 1'
_cell_length_a   8.83570784
_cell_length_b   8.85144180
_cell_length_c   9.56723764
_cell_angle_alpha   90.15024572
_cell_angle_beta   89.78411182
_cell_angle_gamma   119.48454201
_symmetry_Int_Tables_number   1
_chemical_formula_structural   Tb6Al24Os5Pt3
_chemical_formula_sum   'Tb6 Al24 Os5 Pt3'
_cell_volume   651.33095851
_cell_formula_units_Z   1
loop_
 _symmetry_equiv_pos_site_id
 _symmetry_equiv_pos_as_xyz
  1  'x, y, z'
loop_
 _atom_site_type_symbol
 _atom_site_label
 _atom_site_symmetry_multiplicity
 _atom_site_fract_x
 _atom_site_fract_y
 _atom_site_fract_z
 _atom_site_occupancy
  Tb  Tb0  1  0.187866  0.382606  0.250381  1
  Tb  Tb1  1  0.812134  0.617394  0.749619  1
  Tb  Tb2  1  0.614767  0.813834  0.252194  1
  Tb  Tb3  1  0.385233  0.186166  0.747806  1
  Tb  Tb4  1  0.193514  0.809506  0.251453  1
  Tb  Tb5  1  0.806486  0.190494  0.748547  1
  Al  Al6  1  0.335399  0.671811  0.028778  1
  Al  Al7  1  0.664601  0.328189  0.971222  1
  Al  Al8  1  0.669387  0.331154  0.527968  1
  Al  Al9  1  0.330613  0.668846  0.472032  1
  Al  Al10  1  0.158094  0.325872  0.574019  1
  Al  Al11  1  0.841906  0.674128  0.425981  1
  Al  Al12  1  0.673481  0.840979  0.574965  1
  Al  Al13  1  0.836596  0.676003  0.077462  1
  Al  Al14  1  0.326519  0.159021  0.425035  1
  Al  Al15  1  0.163404  0.323997  0.922538  1
  Al  Al16  1  0.163865  0.834916  0.576147  1
  Al  Al17  1  0.325529  0.158365  0.076017  1
  Al  Al18  1  0.836135  0.165084  0.423853  1
  Al  Al19  1  0.674471  0.841635  0.923983  1
  Al  Al20  1  0.831305  0.158754  0.077974  1
  Al  Al21  1  0.168695  0.841246  0.922026  1
  Al  Al22  1  0.560494  0.124788  0.250013  1
  Al  Al23  1  0.439506  0.875212  0.749987  1
  Al  Al24  1  0.873626  0.437596  0.252856  1
  Al  Al25  1  0.126374  0.562404  0.747144  1
  Al  Al26  1  0.562828  0.436336  0.249769  1
  Al  Al27  1  0.437172  0.563664  0.750231  1
  Al  Al28  1  0.998389  0.002821  0.250249  1
  Al  Al29  1  0.001611  0.997179  0.749751  1
  Os  Os30  1  0.500000  0.000000  0.000000  1
  Os  Os31  1  0.500000  0.000000  0.500000  1
  Os  Os32  1  0.000000  0.500000  0.500000  1
  Os  Os33  1  0.000000  0.000000  0.000000  1
  Os  Os34  1  0.000000  0.000000  0.500000  1
  Pt  Pt35  1  0.000000  0.500000  0.000000  1
  Pt  Pt36  1  0.500000  0.500000  0.000000  1
  Pt  Pt37  1  0.500000  0.500000  0.500000  1
