# generated using pymatgen
data_Mg4In8CoRh3
_symmetry_space_group_name_H-M   'P 1'
_cell_length_a   7.08889900
_cell_length_b   7.08889933
_cell_length_c   6.97209400
_cell_angle_alpha   90.00000000
_cell_angle_beta   90.00000000
_cell_angle_gamma   90.45582349
_symmetry_Int_Tables_number   1
_chemical_formula_structural   Mg4In8CoRh3
_chemical_formula_sum   'Mg4 In8 Co1 Rh3'
_cell_volume   350.35400619
_cell_formula_units_Z   1
loop_
 _symmetry_equiv_pos_site_id
 _symmetry_equiv_pos_as_xyz
  1  'x, y, z'
loop_
 _atom_site_type_symbol
 _atom_site_label
 _atom_site_symmetry_multiplicity
 _atom_site_fract_x
 _atom_site_fract_y
 _atom_site_fract_z
 _atom_site_occupancy
  Mg  Mg0  1  0.004233  0.500331  0.000000  1
  Mg  Mg1  1  0.500331  0.004233  0.000000  1
  Mg  Mg2  1  0.999444  0.500407  0.500000  1
  Mg  Mg3  1  0.500407  0.999444  0.500000  1
  In  In4  1  0.331650  0.331650  0.255763  1
  In  In5  1  0.164790  0.846335  0.762616  1
  In  In6  1  0.164790  0.846335  0.237384  1
  In  In7  1  0.846335  0.164790  0.237384  1
  In  In8  1  0.846335  0.164790  0.762616  1
  In  In9  1  0.658131  0.658131  0.257775  1
  In  In10  1  0.658131  0.658131  0.742225  1
  In  In11  1  0.331650  0.331650  0.744237  1
  Co  Co12  1  0.144739  0.144739  0.000000  1
  Rh  Rh13  1  0.645623  0.349795  0.500000  1
  Rh  Rh14  1  0.349795  0.645623  0.500000  1
  Rh  Rh15  1  0.853616  0.853616  0.000000  1
