# generated using pymatgen
data_Dy9HoOsRu3
_symmetry_space_group_name_H-M   'P 1'
_cell_length_a   6.35255243
_cell_length_b   7.30356826
_cell_length_c   8.47639997
_cell_angle_alpha   96.76713116
_cell_angle_beta   112.10370312
_cell_angle_gamma   89.86245510
_symmetry_Int_Tables_number   1
_chemical_formula_structural   Dy9HoOsRu3
_chemical_formula_sum   'Dy9 Ho1 Os1 Ru3'
_cell_volume   361.45511665
_cell_formula_units_Z   1
loop_
 _symmetry_equiv_pos_site_id
 _symmetry_equiv_pos_as_xyz
  1  'x, y, z'
loop_
 _atom_site_type_symbol
 _atom_site_label
 _atom_site_symmetry_multiplicity
 _atom_site_fract_x
 _atom_site_fract_y
 _atom_site_fract_z
 _atom_site_occupancy
  Dy  Dy0  1  0.978564  0.916363  0.186220  1
  Dy  Dy1  1  0.792414  0.584473  0.815141  1
  Dy  Dy2  1  0.021703  0.084939  0.814035  1
  Dy  Dy3  1  0.208703  0.415588  0.186587  1
  Dy  Dy4  1  0.641115  0.814604  0.434210  1
  Dy  Dy5  1  0.204464  0.684279  0.564478  1
  Dy  Dy6  1  0.359833  0.185044  0.565570  1
  Dy  Dy7  1  0.793753  0.315081  0.434612  1
  Dy  Dy8  1  0.420865  0.749243  0.000251  1
  Ho  Ho9  1  0.579966  0.250807  0.000469  1
  Os  Os10  1  0.821945  0.576412  0.219244  1
  Ru  Ru11  1  0.603301  0.924824  0.778993  1
  Ru  Ru12  1  0.176445  0.422814  0.779598  1
  Ru  Ru13  1  0.396926  0.075529  0.220593  1
