# generated using pymatgen
data_Hf9NbFeOs3
_symmetry_space_group_name_H-M   'P 1'
_cell_length_a   8.48030400
_cell_length_b   8.59746829
_cell_length_c   8.59746703
_cell_angle_alpha   119.99044900
_cell_angle_beta   90.00000000
_cell_angle_gamma   90.00000000
_symmetry_Int_Tables_number   1
_chemical_formula_structural   Hf9NbFeOs3
_chemical_formula_sum   'Hf18 Nb2 Fe2 Os6'
_cell_volume   542.90637782
_cell_formula_units_Z   2
loop_
 _symmetry_equiv_pos_site_id
 _symmetry_equiv_pos_as_xyz
  1  'x, y, z'
loop_
 _atom_site_type_symbol
 _atom_site_label
 _atom_site_symmetry_multiplicity
 _atom_site_fract_x
 _atom_site_fract_y
 _atom_site_fract_z
 _atom_site_occupancy
  Hf  Hf0  1  0.558783  0.797839  0.595714  1
  Hf  Hf1  1  0.558790  0.797875  0.202125  1
  Hf  Hf2  1  0.558783  0.404286  0.202161  1
  Hf  Hf3  1  0.441217  0.202161  0.404286  1
  Hf  Hf4  1  0.441210  0.202125  0.797875  1
  Hf  Hf5  1  0.441217  0.595714  0.797839  1
  Hf  Hf6  1  0.058783  0.202161  0.404286  1
  Hf  Hf7  1  0.058790  0.202125  0.797875  1
  Hf  Hf8  1  0.058783  0.595714  0.797839  1
  Hf  Hf9  1  0.941217  0.797839  0.595714  1
  Hf  Hf10  1  0.941210  0.797875  0.202125  1
  Hf  Hf11  1  0.941217  0.404286  0.202161  1
  Hf  Hf12  1  0.750000  0.459871  0.919730  1
  Hf  Hf13  1  0.750000  0.459844  0.540156  1
  Hf  Hf14  1  0.750000  0.080270  0.540128  1
  Hf  Hf15  1  0.250000  0.540128  0.080270  1
  Hf  Hf16  1  0.250000  0.540156  0.459844  1
  Hf  Hf17  1  0.250000  0.919730  0.459871  1
  Nb  Nb18  1  0.500000  0.000000  0.000000  1
  Nb  Nb19  1  0.000000  0.000000  0.000000  1
  Fe  Fe20  1  0.750000  0.666640  0.333360  1
  Fe  Fe21  1  0.250000  0.333360  0.666640  1
  Os  Os22  1  0.750000  0.115155  0.230346  1
  Os  Os23  1  0.750000  0.115158  0.884842  1
  Os  Os24  1  0.750000  0.769654  0.884845  1
  Os  Os25  1  0.250000  0.884845  0.769654  1
  Os  Os26  1  0.250000  0.884842  0.115158  1
  Os  Os27  1  0.250000  0.230346  0.115155  1
