# generated using pymatgen
data_La4HoLu5Si8
_symmetry_space_group_name_H-M   'P 1'
_cell_length_a   7.75514000
_cell_length_b   7.75429701
_cell_length_c   14.24634600
_cell_angle_alpha   89.97073254
_cell_angle_beta   90.00000000
_cell_angle_gamma   90.00000000
_symmetry_Int_Tables_number   1
_chemical_formula_structural   La4HoLu5Si8
_chemical_formula_sum   'La8 Ho2 Lu10 Si16'
_cell_volume   856.71329224
_cell_formula_units_Z   2
loop_
 _symmetry_equiv_pos_site_id
 _symmetry_equiv_pos_as_xyz
  1  'x, y, z'
loop_
 _atom_site_type_symbol
 _atom_site_label
 _atom_site_symmetry_multiplicity
 _atom_site_fract_x
 _atom_site_fract_y
 _atom_site_fract_z
 _atom_site_occupancy
  La  La0  1  0.991984  0.647029  0.038357  1
  La  La1  1  0.007649  0.353551  0.540677  1
  La  La2  1  0.647302  0.992516  0.960640  1
  La  La3  1  0.147302  0.507484  0.789360  1
  La  La4  1  0.853131  0.492664  0.289277  1
  La  La5  1  0.507649  0.146449  0.209323  1
  La  La6  1  0.491984  0.852971  0.711643  1
  La  La7  1  0.353131  0.007336  0.460723  1
  Ho  Ho8  1  0.357101  0.493518  0.375488  1
  Ho  Ho9  1  0.857101  0.006482  0.374512  1
  Lu  Lu10  1  0.994239  0.141817  0.123932  1
  Lu  Lu11  1  0.004926  0.857668  0.625991  1
  Lu  Lu12  1  0.642781  0.504874  0.874946  1
  Lu  Lu13  1  0.494239  0.358183  0.626068  1
  Lu  Lu14  1  0.504926  0.642332  0.124009  1
  Lu  Lu15  1  0.142781  0.995126  0.875054  1
  Lu  Lu16  1  0.680246  0.680260  0.500434  1
  Lu  Lu17  1  0.820623  0.179940  0.750329  1
  Lu  Lu18  1  0.180246  0.819740  0.249566  1
  Lu  Lu19  1  0.320623  0.320060  0.999671  1
  Si  Si20  1  0.059931  0.711199  0.437965  1
  Si  Si21  1  0.939589  0.288920  0.936530  1
  Si  Si22  1  0.710176  0.061198  0.564492  1
  Si  Si23  1  0.210177  0.438802  0.185508  1
  Si  Si24  1  0.788933  0.560859  0.687260  1
  Si  Si25  1  0.439589  0.211081  0.813470  1
  Si  Si26  1  0.559931  0.788801  0.312035  1
  Si  Si27  1  0.288933  0.939141  0.062740  1
  Si  Si28  1  0.853324  0.795050  0.811536  1
  Si  Si29  1  0.148423  0.203443  0.308499  1
  Si  Si30  1  0.794613  0.851721  0.187460  1
  Si  Si31  1  0.294613  0.648279  0.562540  1
  Si  Si32  1  0.705028  0.353040  0.060572  1
  Si  Si33  1  0.648423  0.296557  0.441501  1
  Si  Si34  1  0.353324  0.704950  0.938464  1
  Si  Si35  1  0.205028  0.146960  0.689428  1
