# generated using pymatgen
data_Dy5YAl24(CuRu3)2
_symmetry_space_group_name_H-M   'P 1'
_cell_length_a   8.80409777
_cell_length_b   8.80409697
_cell_length_c   9.46909800
_cell_angle_alpha   90.00000000
_cell_angle_beta   90.00000000
_cell_angle_gamma   119.45806809
_symmetry_Int_Tables_number   1
_chemical_formula_structural   Dy5YAl24(CuRu3)2
_chemical_formula_sum   'Dy5 Y1 Al24 Cu2 Ru6'
_cell_volume   639.07927188
_cell_formula_units_Z   1
loop_
 _symmetry_equiv_pos_site_id
 _symmetry_equiv_pos_as_xyz
  1  'x, y, z'
loop_
 _atom_site_type_symbol
 _atom_site_label
 _atom_site_symmetry_multiplicity
 _atom_site_fract_x
 _atom_site_fract_y
 _atom_site_fract_z
 _atom_site_occupancy
  Dy  Dy0  1  0.188621  0.383572  0.250000  1
  Dy  Dy1  1  0.616428  0.811379  0.250000  1
  Dy  Dy2  1  0.806354  0.193646  0.750000  1
  Dy  Dy3  1  0.811491  0.616254  0.750000  1
  Dy  Dy4  1  0.383746  0.188509  0.750000  1
  Y  Y5  1  0.193638  0.806362  0.250000  1
  Al  Al6  1  0.560652  0.439348  0.250000  1
  Al  Al7  1  0.560199  0.121870  0.250000  1
  Al  Al8  1  0.878130  0.439801  0.250000  1
  Al  Al9  1  0.439287  0.560713  0.750000  1
  Al  Al10  1  0.439866  0.878099  0.750000  1
  Al  Al11  1  0.121901  0.560134  0.750000  1
  Al  Al12  1  0.324009  0.157316  0.422050  1
  Al  Al13  1  0.836352  0.163648  0.423065  1
  Al  Al14  1  0.842684  0.675991  0.422050  1
  Al  Al15  1  0.675967  0.842790  0.577890  1
  Al  Al16  1  0.163675  0.836325  0.576942  1
  Al  Al17  1  0.157210  0.324033  0.577890  1
  Al  Al18  1  0.675967  0.842790  0.922110  1
  Al  Al19  1  0.163675  0.836325  0.923058  1
  Al  Al20  1  0.157210  0.324033  0.922110  1
  Al  Al21  1  0.324009  0.157316  0.077950  1
  Al  Al22  1  0.836352  0.163648  0.076935  1
  Al  Al23  1  0.842684  0.675991  0.077950  1
  Al  Al24  1  0.668035  0.331965  0.520040  1
  Al  Al25  1  0.332025  0.667975  0.480009  1
  Al  Al26  1  0.332025  0.667975  0.019991  1
  Al  Al27  1  0.668035  0.331965  0.979960  1
  Al  Al28  1  0.997883  0.002117  0.250000  1
  Al  Al29  1  0.001952  0.998048  0.750000  1
  Cu  Cu30  1  0.500009  0.499991  0.500013  1
  Cu  Cu31  1  0.500009  0.499991  0.999987  1
  Ru  Ru32  1  0.000023  0.999977  0.499978  1
  Ru  Ru33  1  0.000023  0.999977  0.000022  1
  Ru  Ru34  1  0.500137  0.000202  0.500124  1
  Ru  Ru35  1  0.999798  0.499863  0.500124  1
  Ru  Ru36  1  0.500137  0.000202  0.999876  1
  Ru  Ru37  1  0.999798  0.499863  0.999876  1
