# generated using pymatgen
data_LiEr2Co8P6Os
_symmetry_space_group_name_H-M   'P 1'
_cell_length_a   3.68897300
_cell_length_b   10.31186800
_cell_length_c   11.79112700
_cell_angle_alpha   90.00000000
_cell_angle_beta   90.00000000
_cell_angle_gamma   90.00000000
_symmetry_Int_Tables_number   1
_chemical_formula_structural   LiEr2Co8P6Os
_chemical_formula_sum   'Li2 Er4 Co16 P12 Os2'
_cell_volume   448.53686033
_cell_formula_units_Z   2
loop_
 _symmetry_equiv_pos_site_id
 _symmetry_equiv_pos_as_xyz
  1  'x, y, z'
loop_
 _atom_site_type_symbol
 _atom_site_label
 _atom_site_symmetry_multiplicity
 _atom_site_fract_x
 _atom_site_fract_y
 _atom_site_fract_z
 _atom_site_occupancy
  Li  Li0  1  0.750000  0.296386  0.009323  1
  Li  Li1  1  0.750000  0.203614  0.509323  1
  Er  Er2  1  0.250000  0.580651  0.701977  1
  Er  Er3  1  0.250000  0.919349  0.201977  1
  Er  Er4  1  0.750000  0.415436  0.295480  1
  Er  Er5  1  0.750000  0.084564  0.795480  1
  Co  Co6  1  0.250000  0.408217  0.485758  1
  Co  Co7  1  0.250000  0.091783  0.985758  1
  Co  Co8  1  0.750000  0.594203  0.510786  1
  Co  Co9  1  0.750000  0.905797  0.010786  1
  Co  Co10  1  0.250000  0.217796  0.175671  1
  Co  Co11  1  0.250000  0.282204  0.675671  1
  Co  Co12  1  0.750000  0.776412  0.823611  1
  Co  Co13  1  0.750000  0.723588  0.323611  1
  Co  Co14  1  0.250000  0.885126  0.702689  1
  Co  Co15  1  0.250000  0.614874  0.202689  1
  Co  Co16  1  0.750000  0.116224  0.301125  1
  Co  Co17  1  0.750000  0.383776  0.801125  1
  Co  Co18  1  0.250000  0.465230  0.934066  1
  Co  Co19  1  0.250000  0.034770  0.434066  1
  Co  Co20  1  0.750000  0.536179  0.069740  1
  Co  Co21  1  0.750000  0.963821  0.569740  1
  P  P22  1  0.250000  0.417914  0.115672  1
  P  P23  1  0.250000  0.082086  0.615672  1
  P  P24  1  0.750000  0.576773  0.886615  1
  P  P25  1  0.750000  0.923227  0.386615  1
  P  P26  1  0.250000  0.270429  0.863595  1
  P  P27  1  0.250000  0.229571  0.363595  1
  P  P28  1  0.750000  0.732073  0.133713  1
  P  P29  1  0.750000  0.767927  0.633713  1
  P  P30  1  0.250000  0.594725  0.390807  1
  P  P31  1  0.250000  0.905275  0.890807  1
  P  P32  1  0.750000  0.398744  0.607513  1
  P  P33  1  0.750000  0.101256  0.107513  1
  Os  Os34  1  0.250000  0.712184  0.991857  1
  Os  Os35  1  0.250000  0.787816  0.491857  1
