# generated using pymatgen
data_Tb2Co8CuP6Ru
_symmetry_space_group_name_H-M   'P 1'
_cell_length_a   3.69775900
_cell_length_b   10.33212800
_cell_length_c   11.81012700
_cell_angle_alpha   90.00000000
_cell_angle_beta   90.00000000
_cell_angle_gamma   90.00000000
_symmetry_Int_Tables_number   1
_chemical_formula_structural   Tb2Co8CuP6Ru
_chemical_formula_sum   'Tb4 Co16 Cu2 P12 Ru2'
_cell_volume   451.21439707
_cell_formula_units_Z   2
loop_
 _symmetry_equiv_pos_site_id
 _symmetry_equiv_pos_as_xyz
  1  'x, y, z'
loop_
 _atom_site_type_symbol
 _atom_site_label
 _atom_site_symmetry_multiplicity
 _atom_site_fract_x
 _atom_site_fract_y
 _atom_site_fract_z
 _atom_site_occupancy
  Tb  Tb0  1  0.250000  0.582200  0.702333  1
  Tb  Tb1  1  0.250000  0.917800  0.202333  1
  Tb  Tb2  1  0.750000  0.416007  0.296137  1
  Tb  Tb3  1  0.750000  0.083993  0.796137  1
  Co  Co4  1  0.250000  0.407236  0.485821  1
  Co  Co5  1  0.250000  0.092764  0.985821  1
  Co  Co6  1  0.750000  0.592820  0.510588  1
  Co  Co7  1  0.750000  0.907180  0.010588  1
  Co  Co8  1  0.250000  0.220294  0.175434  1
  Co  Co9  1  0.250000  0.279706  0.675434  1
  Co  Co10  1  0.750000  0.778336  0.823668  1
  Co  Co11  1  0.750000  0.721664  0.323668  1
  Co  Co12  1  0.250000  0.884785  0.702224  1
  Co  Co13  1  0.250000  0.615215  0.202224  1
  Co  Co14  1  0.750000  0.116409  0.301700  1
  Co  Co15  1  0.750000  0.383591  0.801700  1
  Co  Co16  1  0.250000  0.463861  0.933473  1
  Co  Co17  1  0.250000  0.036139  0.433473  1
  Co  Co18  1  0.750000  0.533849  0.068955  1
  Co  Co19  1  0.750000  0.966151  0.568955  1
  Cu  Cu20  1  0.750000  0.287511  0.009381  1
  Cu  Cu21  1  0.750000  0.212489  0.509381  1
  P  P22  1  0.250000  0.420199  0.114649  1
  P  P23  1  0.250000  0.079801  0.614649  1
  P  P24  1  0.750000  0.578753  0.887579  1
  P  P25  1  0.750000  0.921247  0.387579  1
  P  P26  1  0.250000  0.271591  0.862622  1
  P  P27  1  0.250000  0.228409  0.362622  1
  P  P28  1  0.750000  0.729141  0.133276  1
  P  P29  1  0.750000  0.770859  0.633276  1
  P  P30  1  0.250000  0.596439  0.391331  1
  P  P31  1  0.250000  0.903561  0.891331  1
  P  P32  1  0.750000  0.399516  0.608931  1
  P  P33  1  0.750000  0.100484  0.108931  1
  Ru  Ru34  1  0.250000  0.712822  0.991900  1
  Ru  Ru35  1  0.250000  0.787178  0.491900  1
