# generated using pymatgen
data_HoTm3Si4(NiRu)2
_symmetry_space_group_name_H-M   'P 1'
_cell_length_a   4.20027000
_cell_length_b   6.83985800
_cell_length_c   7.15840635
_cell_angle_alpha   91.41725173
_cell_angle_beta   90.00000000
_cell_angle_gamma   90.00000000
_symmetry_Int_Tables_number   1
_chemical_formula_structural   HoTm3Si4(NiRu)2
_chemical_formula_sum   'Ho1 Tm3 Si4 Ni2 Ru2'
_cell_volume   205.59273550
_cell_formula_units_Z   1
loop_
 _symmetry_equiv_pos_site_id
 _symmetry_equiv_pos_as_xyz
  1  'x, y, z'
loop_
 _atom_site_type_symbol
 _atom_site_label
 _atom_site_symmetry_multiplicity
 _atom_site_fract_x
 _atom_site_fract_y
 _atom_site_fract_z
 _atom_site_occupancy
  Ho  Ho0  1  0.250000  0.992847  0.798978  1
  Tm  Tm1  1  0.750000  0.007777  0.202062  1
  Tm  Tm2  1  0.250000  0.491269  0.685472  1
  Tm  Tm3  1  0.750000  0.509872  0.314475  1
  Si  Si4  1  0.250000  0.298335  0.100528  1
  Si  Si5  1  0.750000  0.701490  0.901748  1
  Si  Si6  1  0.250000  0.803251  0.399912  1
  Si  Si7  1  0.750000  0.198021  0.598191  1
  Ni  Ni8  1  0.750000  0.830752  0.574300  1
  Ni  Ni9  1  0.250000  0.167030  0.422776  1
  Ru  Ru10  1  0.750000  0.342390  0.931223  1
  Ru  Ru11  1  0.250000  0.656967  0.070335  1
