# generated using pymatgen
data_Sc6Al12Mo3Os7W
_symmetry_space_group_name_H-M   'P 1'
_cell_length_a   8.79496936
_cell_length_b   8.79488640
_cell_length_c   8.79898430
_cell_angle_alpha   60.01182461
_cell_angle_beta   60.01183810
_cell_angle_gamma   59.99671962
_symmetry_Int_Tables_number   1
_chemical_formula_structural   Sc6Al12Mo3Os7W
_chemical_formula_sum   'Sc6 Al12 Mo3 Os7 W1'
_cell_volume   481.33670487
_cell_formula_units_Z   1
loop_
 _symmetry_equiv_pos_site_id
 _symmetry_equiv_pos_as_xyz
  1  'x, y, z'
loop_
 _atom_site_type_symbol
 _atom_site_label
 _atom_site_symmetry_multiplicity
 _atom_site_fract_x
 _atom_site_fract_y
 _atom_site_fract_z
 _atom_site_occupancy
  Sc  Sc0  1  0.706950  0.706955  0.292560  1
  Sc  Sc1  1  0.293563  0.706942  0.292487  1
  Sc  Sc2  1  0.706944  0.293570  0.292476  1
  Sc  Sc3  1  0.292616  0.292627  0.707573  1
  Sc  Sc4  1  0.707184  0.292657  0.707604  1
  Sc  Sc5  1  0.292659  0.707177  0.707598  1
  Al  Al6  1  0.121150  0.121159  0.636627  1
  Al  Al7  1  0.121257  0.636688  0.120882  1
  Al  Al8  1  0.636695  0.121267  0.120876  1
  Al  Al9  1  0.121199  0.121211  0.120837  1
  Al  Al10  1  0.659207  0.659183  0.022238  1
  Al  Al11  1  0.658296  0.023655  0.659608  1
  Al  Al12  1  0.023648  0.658276  0.659621  1
  Al  Al13  1  0.658355  0.658326  0.659683  1
  Al  Al14  1  0.334603  0.334610  0.996229  1
  Al  Al15  1  0.334669  0.995964  0.334736  1
  Al  Al16  1  0.995954  0.334679  0.334737  1
  Al  Al17  1  0.334668  0.334675  0.334732  1
  Mo  Mo18  1  0.879415  0.361886  0.879323  1
  Mo  Mo19  1  0.361901  0.879413  0.879316  1
  Mo  Mo20  1  0.879362  0.879365  0.879309  1
  Os  Os21  1  0.999733  0.999734  0.000797  1
  Os  Os22  1  0.996212  0.996213  0.502268  1
  Os  Os23  1  0.505308  0.996241  0.502206  1
  Os  Os24  1  0.996245  0.505311  0.502195  1
  Os  Os25  1  0.503112  0.503120  0.996911  1
  Os  Os26  1  0.996831  0.503183  0.996888  1
  Os  Os27  1  0.503181  0.996830  0.996883  1
  W  W28  1  0.879079  0.879080  0.362798  1
