# generated using pymatgen
data_UTlBr6
_symmetry_space_group_name_H-M   'P 1'
_cell_length_a   8.00989535
_cell_length_b   8.00989542
_cell_length_c   7.39296900
_cell_angle_alpha   79.54236274
_cell_angle_beta   79.54236265
_cell_angle_gamma   119.53954088
_symmetry_Int_Tables_number   1
_chemical_formula_structural   UTlBr6
_chemical_formula_sum   'U1 Tl1 Br6'
_cell_volume   384.91713617
_cell_formula_units_Z   1
loop_
 _symmetry_equiv_pos_site_id
 _symmetry_equiv_pos_as_xyz
  1  'x, y, z'
loop_
 _atom_site_type_symbol
 _atom_site_label
 _atom_site_symmetry_multiplicity
 _atom_site_fract_x
 _atom_site_fract_y
 _atom_site_fract_z
 _atom_site_occupancy
  U  U0  1  0.166855  0.833145  0.000000  1
  Tl  Tl1  1  0.832893  0.167107  0.000000  1
  Br  Br2  1  0.233178  0.178407  0.771109  1
  Br  Br3  1  0.085823  0.479606  0.227716  1
  Br  Br4  1  0.821593  0.766822  0.228891  1
  Br  Br5  1  0.969928  0.630662  0.775005  1
  Br  Br6  1  0.369338  0.030072  0.224995  1
  Br  Br7  1  0.520394  0.914177  0.772284  1
