# generated using pymatgen
data_Ac2Y2Zn4Si3Ge
_symmetry_space_group_name_H-M   'P 1'
_cell_length_a   4.27385800
_cell_length_b   4.27385821
_cell_length_c   16.96731300
_cell_angle_alpha   90.00000000
_cell_angle_beta   90.00000000
_cell_angle_gamma   119.99996740
_symmetry_Int_Tables_number   1
_chemical_formula_structural   Ac2Y2Zn4Si3Ge
_chemical_formula_sum   'Ac2 Y2 Zn4 Si3 Ge1'
_cell_volume   268.40094738
_cell_formula_units_Z   1
loop_
 _symmetry_equiv_pos_site_id
 _symmetry_equiv_pos_as_xyz
  1  'x, y, z'
loop_
 _atom_site_type_symbol
 _atom_site_label
 _atom_site_symmetry_multiplicity
 _atom_site_fract_x
 _atom_site_fract_y
 _atom_site_fract_z
 _atom_site_occupancy
  Ac  Ac0  1  0.000000  0.000000  0.001619  1
  Ac  Ac1  1  0.000000  0.000000  0.499527  1
  Y  Y2  1  0.000000  0.000000  0.250609  1
  Y  Y3  1  0.000000  0.000000  0.748428  1
  Zn  Zn4  1  0.333333  0.666667  0.152172  1
  Zn  Zn5  1  0.666667  0.333333  0.845322  1
  Zn  Zn6  1  0.666667  0.333333  0.650404  1
  Zn  Zn7  1  0.333333  0.666667  0.349160  1
  Si  Si8  1  0.333333  0.666667  0.627604  1
  Si  Si9  1  0.666667  0.333333  0.371531  1
  Si  Si10  1  0.666667  0.333333  0.128967  1
  Ge  Ge11  1  0.333333  0.666667  0.874657  1
