# generated using pymatgen
data_Cs2Ru(OF2)2
_symmetry_space_group_name_H-M   'P 1'
_cell_length_a   5.16797161
_cell_length_b   6.36558044
_cell_length_c   6.41808331
_cell_angle_alpha   120.69325462
_cell_angle_beta   90.16199577
_cell_angle_gamma   91.09320487
_symmetry_Int_Tables_number   1
_chemical_formula_structural   Cs2Ru(OF2)2
_chemical_formula_sum   'Cs2 Ru1 O2 F4'
_cell_volume   181.50651910
_cell_formula_units_Z   1
loop_
 _symmetry_equiv_pos_site_id
 _symmetry_equiv_pos_as_xyz
  1  'x, y, z'
loop_
 _atom_site_type_symbol
 _atom_site_label
 _atom_site_symmetry_multiplicity
 _atom_site_fract_x
 _atom_site_fract_y
 _atom_site_fract_z
 _atom_site_occupancy
  Cs  Cs0  1  0.295064  0.676523  0.839342  1
  Cs  Cs1  1  0.704936  0.323477  0.160658  1
  Ru  Ru2  1  0.000000  0.000000  0.500000  1
  O  O3  1  0.790554  0.245110  0.616915  1
  O  O4  1  0.209446  0.754890  0.383085  1
  F  F5  1  0.797112  0.828261  0.185237  1
  F  F6  1  0.202888  0.171739  0.814763  1
  F  F7  1  0.213462  0.161713  0.356691  1
  F  F8  1  0.786538  0.838287  0.643309  1
