# generated using pymatgen
data_Dy5Co(As2Ru3)6
_symmetry_space_group_name_H-M   'P 1'
_cell_length_a   12.93910100
_cell_length_b   12.93910110
_cell_length_c   4.05937800
_cell_angle_alpha   90.00000000
_cell_angle_beta   90.00000000
_cell_angle_gamma   120.00000229
_symmetry_Int_Tables_number   1
_chemical_formula_structural   Dy5Co(As2Ru3)6
_chemical_formula_sum   'Dy5 Co1 As12 Ru18'
_cell_volume   588.57027480
_cell_formula_units_Z   1
loop_
 _symmetry_equiv_pos_site_id
 _symmetry_equiv_pos_as_xyz
  1  'x, y, z'
loop_
 _atom_site_type_symbol
 _atom_site_label
 _atom_site_symmetry_multiplicity
 _atom_site_fract_x
 _atom_site_fract_y
 _atom_site_fract_z
 _atom_site_occupancy
  Dy  Dy0  1  0.666667  0.333333  0.000000  1
  Dy  Dy1  1  0.333333  0.666667  0.000000  1
  Dy  Dy2  1  0.814823  0.814823  0.500000  1
  Dy  Dy3  1  0.185177  0.000000  0.500000  1
  Dy  Dy4  1  0.000000  0.185177  0.500000  1
  Co  Co5  1  0.000000  0.000000  0.000000  1
  As  As6  1  0.688974  0.167868  0.500000  1
  As  As7  1  0.832132  0.521108  0.500000  1
  As  As8  1  0.478892  0.311026  0.500000  1
  As  As9  1  0.167868  0.688974  0.500000  1
  As  As10  1  0.521108  0.832132  0.500000  1
  As  As11  1  0.311026  0.478892  0.500000  1
  As  As12  1  0.174845  0.174845  0.000000  1
  As  As13  1  0.825155  0.000000  0.000000  1
  As  As14  1  0.000000  0.825155  0.000000  1
  As  As15  1  0.628651  0.628651  0.000000  1
  As  As16  1  0.371349  0.000000  0.000000  1
  As  As17  1  0.000000  0.371349  0.000000  1
  Ru  Ru18  1  0.875734  0.362116  0.500000  1
  Ru  Ru19  1  0.637884  0.513619  0.500000  1
  Ru  Ru20  1  0.486381  0.124266  0.500000  1
  Ru  Ru21  1  0.362116  0.875734  0.500000  1
  Ru  Ru22  1  0.513619  0.637884  0.500000  1
  Ru  Ru23  1  0.124266  0.486381  0.500000  1
  Ru  Ru24  1  0.440952  0.440952  0.000000  1
  Ru  Ru25  1  0.559048  0.000000  0.000000  1
  Ru  Ru26  1  0.000000  0.559048  0.000000  1
  Ru  Ru27  1  0.807519  0.182523  0.000000  1
  Ru  Ru28  1  0.817477  0.624996  0.000000  1
  Ru  Ru29  1  0.375004  0.192481  0.000000  1
  Ru  Ru30  1  0.182523  0.807519  0.000000  1
  Ru  Ru31  1  0.624996  0.817477  0.000000  1
  Ru  Ru32  1  0.192481  0.375004  0.000000  1
  Ru  Ru33  1  0.279098  0.279098  0.500000  1
  Ru  Ru34  1  0.720902  0.000000  0.500000  1
  Ru  Ru35  1  0.000000  0.720902  0.500000  1
