# generated using pymatgen
data_PrPa3(Rh2Pb)2
_symmetry_space_group_name_H-M   'P 1'
_cell_length_a   7.86593453
_cell_length_b   7.86593372
_cell_length_c   3.62963300
_cell_angle_alpha   90.00000000
_cell_angle_beta   90.00000000
_cell_angle_gamma   92.31167755
_symmetry_Int_Tables_number   1
_chemical_formula_structural   PrPa3(Rh2Pb)2
_chemical_formula_sum   'Pr1 Pa3 Rh4 Pb2'
_cell_volume   224.39323000
_cell_formula_units_Z   1
loop_
 _symmetry_equiv_pos_site_id
 _symmetry_equiv_pos_as_xyz
  1  'x, y, z'
loop_
 _atom_site_type_symbol
 _atom_site_label
 _atom_site_symmetry_multiplicity
 _atom_site_fract_x
 _atom_site_fract_y
 _atom_site_fract_z
 _atom_site_occupancy
  Pr  Pr0  1  0.828112  0.671888  0.500000  1
  Pa  Pa1  1  0.672448  0.169434  0.500000  1
  Pa  Pa2  1  0.330566  0.827552  0.500000  1
  Pa  Pa3  1  0.169066  0.330934  0.500000  1
  Rh  Rh4  1  0.153024  0.622668  0.000000  1
  Rh  Rh5  1  0.877332  0.346976  0.000000  1
  Rh  Rh6  1  0.605599  0.894401  0.000000  1
  Rh  Rh7  1  0.357246  0.142754  0.000000  1
  Pb  Pb8  1  0.001003  0.994398  0.000000  1
  Pb  Pb9  1  0.505602  0.498997  0.000000  1
