# generated using pymatgen
data_K5HoO4
_symmetry_space_group_name_H-M   'P 1'
_cell_length_a   6.33267300
_cell_length_b   8.30883800
_cell_length_c   8.69282400
_cell_angle_alpha   90.00000000
_cell_angle_beta   90.00000000
_cell_angle_gamma   90.00000000
_symmetry_Int_Tables_number   1
_chemical_formula_structural   K5HoO4
_chemical_formula_sum   'K10 Ho2 O8'
_cell_volume   457.39165966
_cell_formula_units_Z   2
loop_
 _symmetry_equiv_pos_site_id
 _symmetry_equiv_pos_as_xyz
  1  'x, y, z'
loop_
 _atom_site_type_symbol
 _atom_site_label
 _atom_site_symmetry_multiplicity
 _atom_site_fract_x
 _atom_site_fract_y
 _atom_site_fract_z
 _atom_site_occupancy
  K  K0  1  0.257434  0.763346  0.810314  1
  K  K1  1  0.257434  0.236654  0.810314  1
  K  K2  1  0.815312  0.500000  0.000000  1
  K  K3  1  0.257434  0.763346  0.189686  1
  K  K4  1  0.257434  0.236654  0.189686  1
  K  K5  1  0.742566  0.736654  0.310314  1
  K  K6  1  0.742566  0.263346  0.310314  1
  K  K7  1  0.184688  0.000000  0.500000  1
  K  K8  1  0.742566  0.736654  0.689686  1
  K  K9  1  0.742566  0.263346  0.689686  1
  Ho  Ho10  1  0.780694  0.000000  0.000000  1
  Ho  Ho11  1  0.219306  0.500000  0.500000  1
  O  O12  1  0.965891  0.000000  0.789291  1
  O  O13  1  0.599300  0.780081  0.000000  1
  O  O14  1  0.599300  0.219919  0.000000  1
  O  O15  1  0.965891  0.000000  0.210709  1
  O  O16  1  0.034109  0.500000  0.289291  1
  O  O17  1  0.400700  0.719919  0.500000  1
  O  O18  1  0.400700  0.280081  0.500000  1
  O  O19  1  0.034109  0.500000  0.710709  1
