# generated using pymatgen
data_Nd2Ho6Si12Ir3Rh
_symmetry_space_group_name_H-M   'P 1'
_cell_length_a   8.18925900
_cell_length_b   8.18925896
_cell_length_c   8.00436500
_cell_angle_alpha   90.00000000
_cell_angle_beta   90.00000000
_cell_angle_gamma   120.00000419
_symmetry_Int_Tables_number   1
_chemical_formula_structural   Nd2Ho6Si12Ir3Rh
_chemical_formula_sum   'Nd2 Ho6 Si12 Ir3 Rh1'
_cell_volume   464.88625836
_cell_formula_units_Z   1
loop_
 _symmetry_equiv_pos_site_id
 _symmetry_equiv_pos_as_xyz
  1  'x, y, z'
loop_
 _atom_site_type_symbol
 _atom_site_label
 _atom_site_symmetry_multiplicity
 _atom_site_fract_x
 _atom_site_fract_y
 _atom_site_fract_z
 _atom_site_occupancy
  Nd  Nd0  1  0.000000  0.000000  0.249439  1
  Nd  Nd1  1  0.000000  0.000000  0.750248  1
  Ho  Ho2  1  0.509159  0.490841  0.250171  1
  Ho  Ho3  1  0.509159  0.018318  0.250171  1
  Ho  Ho4  1  0.981682  0.490841  0.250171  1
  Ho  Ho5  1  0.491144  0.508856  0.749879  1
  Ho  Ho6  1  0.491144  0.982288  0.749879  1
  Ho  Ho7  1  0.017712  0.508856  0.749879  1
  Si  Si8  1  0.168190  0.831810  0.500389  1
  Si  Si9  1  0.168190  0.336379  0.500389  1
  Si  Si10  1  0.663621  0.831810  0.500389  1
  Si  Si11  1  0.831859  0.168141  0.499329  1
  Si  Si12  1  0.831859  0.663719  0.499329  1
  Si  Si13  1  0.336281  0.168141  0.499329  1
  Si  Si14  1  0.832054  0.167946  0.000597  1
  Si  Si15  1  0.832054  0.664109  0.000597  1
  Si  Si16  1  0.335891  0.167946  0.000597  1
  Si  Si17  1  0.168494  0.831506  0.999148  1
  Si  Si18  1  0.168494  0.336988  0.999148  1
  Si  Si19  1  0.663012  0.831506  0.999148  1
  Ir  Ir20  1  0.333333  0.666667  0.466520  1
  Ir  Ir21  1  0.666667  0.333333  0.534439  1
  Ir  Ir22  1  0.666667  0.333333  0.965254  1
  Rh  Rh23  1  0.333333  0.666667  0.035565  1
