# generated using pymatgen
data_RbZrCrS4
_symmetry_space_group_name_H-M   'P 1'
_cell_length_a   3.68545500
_cell_length_b   8.23470706
_cell_length_c   6.12090604
_cell_angle_alpha   75.95212256
_cell_angle_beta   90.00000000
_cell_angle_gamma   90.00000000
_symmetry_Int_Tables_number   1
_chemical_formula_structural   RbZrCrS4
_chemical_formula_sum   'Rb1 Zr1 Cr1 S4'
_cell_volume   180.20567142
_cell_formula_units_Z   1
loop_
 _symmetry_equiv_pos_site_id
 _symmetry_equiv_pos_as_xyz
  1  'x, y, z'
loop_
 _atom_site_type_symbol
 _atom_site_label
 _atom_site_symmetry_multiplicity
 _atom_site_fract_x
 _atom_site_fract_y
 _atom_site_fract_z
 _atom_site_occupancy
  Rb  Rb0  1  0.500000  0.494072  0.652389  1
  Zr  Zr1  1  0.000000  0.999137  0.002766  1
  Cr  Cr2  1  0.500000  0.002270  0.503010  1
  S  S3  1  0.000000  0.830722  0.412432  1
  S  S4  1  0.500000  0.819507  0.884060  1
  S  S5  1  0.000000  0.172651  0.592282  1
  S  S6  1  0.500000  0.180762  0.120020  1
