# generated using pymatgen
data_PrYEr2(MoN3)4
_symmetry_space_group_name_H-M   'P 1'
_cell_length_a   7.30181272
_cell_length_b   7.30181290
_cell_length_c   6.24245248
_cell_angle_alpha   74.72096210
_cell_angle_beta   74.72095548
_cell_angle_gamma   82.56525231
_symmetry_Int_Tables_number   1
_chemical_formula_structural   PrYEr2(MoN3)4
_chemical_formula_sum   'Pr1 Y1 Er2 Mo4 N12'
_cell_volume   309.06968813
_cell_formula_units_Z   1
loop_
 _symmetry_equiv_pos_site_id
 _symmetry_equiv_pos_as_xyz
  1  'x, y, z'
loop_
 _atom_site_type_symbol
 _atom_site_label
 _atom_site_symmetry_multiplicity
 _atom_site_fract_x
 _atom_site_fract_y
 _atom_site_fract_z
 _atom_site_occupancy
  Pr  Pr0  1  0.697195  0.302805  0.250000  1
  Y  Y1  1  0.298752  0.701248  0.750000  1
  Er  Er2  1  0.917451  0.082549  0.750000  1
  Er  Er3  1  0.089042  0.910958  0.250000  1
  Mo  Mo4  1  0.801692  0.620198  0.754602  1
  Mo  Mo5  1  0.197355  0.381833  0.241064  1
  Mo  Mo6  1  0.618167  0.802645  0.258936  1
  Mo  Mo7  1  0.379802  0.198308  0.745398  1
  N  N8  1  0.218734  0.997201  0.853166  1
  N  N9  1  0.350600  0.358178  0.461608  1
  N  N10  1  0.638958  0.641063  0.545010  1
  N  N11  1  0.621662  0.110661  0.671232  1
  N  N12  1  0.002799  0.781266  0.646834  1
  N  N13  1  0.789086  0.993708  0.146070  1
  N  N14  1  0.104480  0.622167  0.162431  1
  N  N15  1  0.889339  0.378338  0.828768  1
  N  N16  1  0.006292  0.210914  0.353930  1
  N  N17  1  0.358937  0.361042  0.954990  1
  N  N18  1  0.641822  0.649400  0.038392  1
  N  N19  1  0.377833  0.895520  0.337569  1
