# generated using pymatgen
data_DyHo5Co8(P6Rh5)2
_symmetry_space_group_name_H-M   'P 1'
_cell_length_a   3.77577900
_cell_length_b   10.93033600
_cell_length_c   12.52621300
_cell_angle_alpha   90.00000000
_cell_angle_beta   90.00000000
_cell_angle_gamma   90.00000000
_symmetry_Int_Tables_number   1
_chemical_formula_structural   DyHo5Co8(P6Rh5)2
_chemical_formula_sum   'Dy1 Ho5 Co8 P12 Rh10'
_cell_volume   516.96348863
_cell_formula_units_Z   1
loop_
 _symmetry_equiv_pos_site_id
 _symmetry_equiv_pos_as_xyz
  1  'x, y, z'
loop_
 _atom_site_type_symbol
 _atom_site_label
 _atom_site_symmetry_multiplicity
 _atom_site_fract_x
 _atom_site_fract_y
 _atom_site_fract_z
 _atom_site_occupancy
  Dy  Dy0  1  0.500000  0.000000  0.476011  1
  Ho  Ho1  1  0.000000  0.500000  0.518048  1
  Ho  Ho2  1  0.500000  0.815741  0.197753  1
  Ho  Ho3  1  0.500000  0.184259  0.197753  1
  Ho  Ho4  1  0.000000  0.680249  0.803863  1
  Ho  Ho5  1  0.000000  0.319751  0.803863  1
  Co  Co6  1  0.000000  0.500000  0.992205  1
  Co  Co7  1  0.500000  0.000000  0.011769  1
  Co  Co8  1  0.000000  0.620585  0.283894  1
  Co  Co9  1  0.000000  0.379415  0.283894  1
  Co  Co10  1  0.500000  0.334345  0.997165  1
  Co  Co11  1  0.500000  0.665655  0.997165  1
  Co  Co12  1  0.000000  0.168586  0.007328  1
  Co  Co13  1  0.000000  0.831414  0.007328  1
  P  P14  1  0.500000  0.316799  0.619374  1
  P  P15  1  0.500000  0.683201  0.619374  1
  P  P16  1  0.000000  0.192439  0.372325  1
  P  P17  1  0.000000  0.807561  0.372325  1
  P  P18  1  0.500000  0.500000  0.894458  1
  P  P19  1  0.000000  0.000000  0.107493  1
  P  P20  1  0.500000  0.840327  0.905019  1
  P  P21  1  0.500000  0.159673  0.905019  1
  P  P22  1  0.000000  0.656586  0.104040  1
  P  P23  1  0.000000  0.343414  0.104040  1
  P  P24  1  0.500000  0.500000  0.341245  1
  P  P25  1  0.000000  0.000000  0.652486  1
  Rh  Rh26  1  0.500000  0.301353  0.425889  1
  Rh  Rh27  1  0.500000  0.698647  0.425889  1
  Rh  Rh28  1  0.000000  0.204897  0.568561  1
  Rh  Rh29  1  0.000000  0.795103  0.568561  1
  Rh  Rh30  1  0.500000  0.872395  0.716648  1
  Rh  Rh31  1  0.500000  0.127605  0.716648  1
  Rh  Rh32  1  0.500000  0.500000  0.157521  1
  Rh  Rh33  1  0.000000  0.000000  0.843233  1
  Rh  Rh34  1  0.500000  0.500000  0.708674  1
  Rh  Rh35  1  0.000000  0.000000  0.293137  1
