# generated using pymatgen
data_Be(AlB14)2
_symmetry_space_group_name_H-M   'P 1'
_cell_length_a   7.13141736
_cell_length_b   7.13141629
_cell_length_c   5.87511921
_cell_angle_alpha   65.98729651
_cell_angle_beta   65.98730235
_cell_angle_gamma   91.87714166
_symmetry_Int_Tables_number   1
_chemical_formula_structural   Be(AlB14)2
_chemical_formula_sum   'Be1 Al2 B28'
_cell_volume   242.16483557
_cell_formula_units_Z   1
loop_
 _symmetry_equiv_pos_site_id
 _symmetry_equiv_pos_as_xyz
  1  'x, y, z'
loop_
 _atom_site_type_symbol
 _atom_site_label
 _atom_site_symmetry_multiplicity
 _atom_site_fract_x
 _atom_site_fract_y
 _atom_site_fract_z
 _atom_site_occupancy
  Be  Be0  1  0.793558  0.793558  0.292228  1
  Al  Al1  1  0.474110  0.474110  0.556827  1
  Al  Al2  1  0.152105  0.152105  0.461861  1
  B  B3  1  0.412822  0.736318  0.180201  1
  B  B4  1  0.597533  0.265292  0.830410  1
  B  B5  1  0.265292  0.597533  0.830410  1
  B  B6  1  0.736318  0.412822  0.180201  1
  B  B7  1  0.692798  0.860263  0.983087  1
  B  B8  1  0.314081  0.142734  0.031008  1
  B  B9  1  0.142734  0.314081  0.031008  1
  B  B10  1  0.860263  0.692798  0.983087  1
  B  B11  1  0.534676  0.879075  0.299978  1
  B  B12  1  0.478074  0.131201  0.202224  1
  B  B13  1  0.131201  0.478074  0.202224  1
  B  B14  1  0.879075  0.534676  0.299978  1
  B  B15  1  0.470382  0.121219  0.713856  1
  B  B16  1  0.537482  0.871322  0.805643  1
  B  B17  1  0.871322  0.537482  0.805643  1
  B  B18  1  0.121219  0.470382  0.713856  1
  B  B19  1  0.735344  0.104490  0.997878  1
  B  B20  1  0.277087  0.900686  0.325019  1
  B  B21  1  0.900686  0.277087  0.325019  1
  B  B22  1  0.104490  0.735344  0.997878  1
  B  B23  1  0.275645  0.900515  0.016110  1
  B  B24  1  0.734397  0.100833  0.689736  1
  B  B25  1  0.100833  0.734397  0.689736  1
  B  B26  1  0.900515  0.275645  0.016110  1
  B  B27  1  0.269613  0.468272  0.390561  1
  B  B28  1  0.729431  0.538644  0.628829  1
  B  B29  1  0.538644  0.729431  0.628829  1
  B  B30  1  0.468272  0.269613  0.390561  1
