# generated using pymatgen
data_Y2P7PdRu11
_symmetry_space_group_name_H-M   'P 1'
_cell_length_a   9.36537722
_cell_length_b   9.48051741
_cell_length_c   3.94484400
_cell_angle_alpha   90.00000000
_cell_angle_beta   90.00000000
_cell_angle_gamma   119.44947077
_symmetry_Int_Tables_number   1
_chemical_formula_structural   Y2P7PdRu11
_chemical_formula_sum   'Y2 P7 Pd1 Ru11'
_cell_volume   305.00039015
_cell_formula_units_Z   1
loop_
 _symmetry_equiv_pos_site_id
 _symmetry_equiv_pos_as_xyz
  1  'x, y, z'
loop_
 _atom_site_type_symbol
 _atom_site_label
 _atom_site_symmetry_multiplicity
 _atom_site_fract_x
 _atom_site_fract_y
 _atom_site_fract_z
 _atom_site_occupancy
  Y  Y0  1  0.671120  0.336339  0.500000  1
  Y  Y1  1  0.328922  0.658554  0.000000  1
  P  P2  1  0.599080  0.704360  0.500000  1
  P  P3  1  0.996132  0.999881  0.000000  1
  P  P4  1  0.272826  0.880581  0.500000  1
  P  P5  1  0.117008  0.401255  0.500000  1
  P  P6  1  0.888391  0.580303  0.000000  1
  P  P7  1  0.425750  0.307927  0.000000  1
  P  P8  1  0.705557  0.125653  0.000000  1
  Pd  Pd9  1  0.547692  0.940481  0.500000  1
  Ru  Ru10  1  0.388982  0.436905  0.500000  1
  Ru  Ru11  1  0.909909  0.128673  0.500000  1
  Ru  Ru12  1  0.210267  0.086916  0.500000  1
  Ru  Ru13  1  0.876818  0.794234  0.500000  1
  Ru  Ru14  1  0.722065  0.890487  0.000000  1
  Ru  Ru15  1  0.111166  0.840415  0.000000  1
  Ru  Ru16  1  0.162033  0.268304  0.000000  1
  Ru  Ru17  1  0.432379  0.066685  0.000000  1
  Ru  Ru18  1  0.940206  0.367025  0.000000  1
  Ru  Ru19  1  0.640580  0.574076  0.000000  1
  Ru  Ru20  1  0.053120  0.610943  0.500000  1
