# generated using pymatgen
data_Th3Ga24Pd8W
_symmetry_space_group_name_H-M   'P 1'
_cell_length_a   8.53102876
_cell_length_b   8.53102816
_cell_length_c   8.53102810
_cell_angle_alpha   89.90536679
_cell_angle_beta   89.90537761
_cell_angle_gamma   89.90537871
_symmetry_Int_Tables_number   1
_chemical_formula_structural   Th3Ga24Pd8W
_chemical_formula_sum   'Th3 Ga24 Pd8 W1'
_cell_volume   620.87243571
_cell_formula_units_Z   1
loop_
 _symmetry_equiv_pos_site_id
 _symmetry_equiv_pos_as_xyz
  1  'x, y, z'
loop_
 _atom_site_type_symbol
 _atom_site_label
 _atom_site_symmetry_multiplicity
 _atom_site_fract_x
 _atom_site_fract_y
 _atom_site_fract_z
 _atom_site_occupancy
  Th  Th0  1  0.000000  0.500000  0.000000  1
  Th  Th1  1  0.500000  0.000000  0.000000  1
  Th  Th2  1  0.000000  0.000000  0.500000  1
  Ga  Ga3  1  0.988933  0.643757  0.643757  1
  Ga  Ga4  1  0.643757  0.643757  0.988933  1
  Ga  Ga5  1  0.643757  0.988933  0.643757  1
  Ga  Ga6  1  0.011067  0.356243  0.356243  1
  Ga  Ga7  1  0.356243  0.356243  0.011067  1
  Ga  Ga8  1  0.356243  0.011067  0.356243  1
  Ga  Ga9  1  0.733443  0.500000  0.266557  1
  Ga  Ga10  1  0.266557  0.500000  0.733443  1
  Ga  Ga11  1  0.500000  0.266557  0.733443  1
  Ga  Ga12  1  0.500000  0.733443  0.266557  1
  Ga  Ga13  1  0.266557  0.733443  0.500000  1
  Ga  Ga14  1  0.733443  0.266557  0.500000  1
  Ga  Ga15  1  0.838198  0.142844  0.838198  1
  Ga  Ga16  1  0.142844  0.838198  0.838198  1
  Ga  Ga17  1  0.838198  0.838198  0.142844  1
  Ga  Ga18  1  0.161802  0.857156  0.161802  1
  Ga  Ga19  1  0.857156  0.161802  0.161802  1
  Ga  Ga20  1  0.161802  0.161802  0.857156  1
  Ga  Ga21  1  0.728258  0.490245  0.728258  1
  Ga  Ga22  1  0.490245  0.728258  0.728258  1
  Ga  Ga23  1  0.728258  0.728258  0.490245  1
  Ga  Ga24  1  0.271742  0.509755  0.271742  1
  Ga  Ga25  1  0.509755  0.271742  0.271742  1
  Ga  Ga26  1  0.271742  0.271742  0.509755  1
  Pd  Pd27  1  0.837736  0.837736  0.837736  1
  Pd  Pd28  1  0.162264  0.162264  0.162264  1
  Pd  Pd29  1  0.665220  0.334780  0.000000  1
  Pd  Pd30  1  0.000000  0.334780  0.665220  1
  Pd  Pd31  1  0.334780  0.000000  0.665220  1
  Pd  Pd32  1  0.334780  0.665220  0.000000  1
  Pd  Pd33  1  0.000000  0.665220  0.334780  1
  Pd  Pd34  1  0.665220  0.000000  0.334780  1
  W  W35  1  0.500000  0.500000  0.500000  1
