# generated using pymatgen
data_TbEr3(CO3)6
_symmetry_space_group_name_H-M   'P 1'
_cell_length_a   8.17631738
_cell_length_b   8.38959042
_cell_length_c   8.42665000
_cell_angle_alpha   119.86921002
_cell_angle_beta   90.04369895
_cell_angle_gamma   89.97462422
_symmetry_Int_Tables_number   1
_chemical_formula_structural   TbEr3(CO3)6
_chemical_formula_sum   'Tb1 Er3 C6 O18'
_cell_volume   501.25050272
_cell_formula_units_Z   1
loop_
 _symmetry_equiv_pos_site_id
 _symmetry_equiv_pos_as_xyz
  1  'x, y, z'
loop_
 _atom_site_type_symbol
 _atom_site_label
 _atom_site_symmetry_multiplicity
 _atom_site_fract_x
 _atom_site_fract_y
 _atom_site_fract_z
 _atom_site_occupancy
  Tb  Tb0  1  0.033237  0.334540  0.667803  1
  Er  Er1  1  0.966419  0.665583  0.332318  1
  Er  Er2  1  0.533759  0.667213  0.333267  1
  Er  Er3  1  0.466964  0.332789  0.666736  1
  C  C4  1  0.250775  0.964007  0.376769  1
  C  C5  1  0.251397  0.413172  0.036584  1
  C  C6  1  0.748451  0.375946  0.410829  1
  C  C7  1  0.251519  0.624219  0.586815  1
  C  C8  1  0.748594  0.589216  0.965993  1
  C  C9  1  0.749288  0.033402  0.622958  1
  O  O10  1  0.112068  0.880951  0.328537  1
  O  O11  1  0.387359  0.878026  0.322809  1
  O  O12  1  0.748927  0.658924  0.144305  1
  O  O13  1  0.387467  0.446613  0.123559  1
  O  O14  1  0.112235  0.447044  0.118251  1
  O  O15  1  0.748796  0.484352  0.339987  1
  O  O16  1  0.750278  0.854513  0.513452  1
  O  O17  1  0.112327  0.671112  0.551383  1
  O  O18  1  0.387603  0.678364  0.553861  1
  O  O19  1  0.610863  0.326981  0.446812  1
  O  O20  1  0.885963  0.322592  0.442010  1
  O  O21  1  0.252736  0.143109  0.484904  1
  O  O22  1  0.254202  0.517310  0.659310  1
  O  O23  1  0.886090  0.559802  0.882295  1
  O  O24  1  0.611095  0.552616  0.881023  1
  O  O25  1  0.254035  0.341770  0.858085  1
  O  O26  1  0.611231  0.117425  0.671825  1
  O  O27  1  0.886323  0.118409  0.677519  1
