# generated using pymatgen
data_Y7HoTaTi11Si16
_symmetry_space_group_name_H-M   'P 1'
_cell_length_a   7.05230880
_cell_length_b   7.05181991
_cell_length_c   12.97602057
_cell_angle_alpha   89.98277909
_cell_angle_beta   90.02347311
_cell_angle_gamma   90.05325845
_symmetry_Int_Tables_number   1
_chemical_formula_structural   Y7HoTaTi11Si16
_chemical_formula_sum   'Y7 Ho1 Ta1 Ti11 Si16'
_cell_volume   645.31805256
_cell_formula_units_Z   1
loop_
 _symmetry_equiv_pos_site_id
 _symmetry_equiv_pos_as_xyz
  1  'x, y, z'
loop_
 _atom_site_type_symbol
 _atom_site_label
 _atom_site_symmetry_multiplicity
 _atom_site_fract_x
 _atom_site_fract_y
 _atom_site_fract_z
 _atom_site_occupancy
  Y  Y0  1  0.340669  0.002773  0.466634  1
  Y  Y1  1  0.497169  0.840711  0.716783  1
  Y  Y2  1  0.502664  0.158743  0.216394  1
  Y  Y3  1  0.840759  0.497149  0.283181  1
  Y  Y4  1  0.158651  0.502693  0.783590  1
  Y  Y5  1  0.658994  0.997359  0.966747  1
  Y  Y6  1  0.002768  0.340665  0.533378  1
  Ho  Ho7  1  0.998005  0.658543  0.033333  1
  Ta  Ta8  1  0.326424  0.326823  0.999999  1
  Ti  Ti9  1  0.173597  0.826457  0.249819  1
  Ti  Ti10  1  0.826635  0.173683  0.750087  1
  Ti  Ti11  1  0.673073  0.673085  0.500010  1
  Ti  Ti12  1  0.152881  0.008890  0.876525  1
  Ti  Ti13  1  0.491308  0.651202  0.125250  1
  Ti  Ti14  1  0.508338  0.348764  0.626101  1
  Ti  Ti15  1  0.651318  0.491523  0.874864  1
  Ti  Ti16  1  0.348747  0.508305  0.373866  1
  Ti  Ti17  1  0.848062  0.991898  0.376011  1
  Ti  Ti18  1  0.008904  0.153015  0.123581  1
  Ti  Ti19  1  0.991907  0.848036  0.623961  1
  Si  Si20  1  0.202269  0.130522  0.684592  1
  Si  Si21  1  0.368838  0.702122  0.934740  1
  Si  Si22  1  0.630515  0.297616  0.434670  1
  Si  Si23  1  0.702660  0.369823  0.065390  1
  Si  Si24  1  0.297621  0.630523  0.565315  1
  Si  Si25  1  0.797779  0.868827  0.184356  1
  Si  Si26  1  0.130524  0.202305  0.315401  1
  Si  Si27  1  0.869385  0.797278  0.815522  1
  Si  Si28  1  0.290159  0.952276  0.064668  1
  Si  Si29  1  0.547426  0.790578  0.314682  1
  Si  Si30  1  0.453052  0.208871  0.814140  1
  Si  Si31  1  0.790588  0.547385  0.685308  1
  Si  Si32  1  0.208461  0.453395  0.185660  1
  Si  Si33  1  0.709748  0.047367  0.564602  1
  Si  Si34  1  0.952748  0.291046  0.935439  1
  Si  Si35  1  0.047353  0.709746  0.435401  1
