# generated using pymatgen
data_Er3Lu13In6CoPt
_symmetry_space_group_name_H-M   'P 1'
_cell_length_a   10.25058800
_cell_length_b   10.25058697
_cell_length_c   6.88339900
_cell_angle_alpha   90.00000000
_cell_angle_beta   90.00000000
_cell_angle_gamma   119.99999687
_symmetry_Int_Tables_number   1
_chemical_formula_structural   Er3Lu13In6CoPt
_chemical_formula_sum   'Er3 Lu13 In6 Co1 Pt1'
_cell_volume   626.37022191
_cell_formula_units_Z   1
loop_
 _symmetry_equiv_pos_site_id
 _symmetry_equiv_pos_as_xyz
  1  'x, y, z'
loop_
 _atom_site_type_symbol
 _atom_site_label
 _atom_site_symmetry_multiplicity
 _atom_site_fract_x
 _atom_site_fract_y
 _atom_site_fract_z
 _atom_site_occupancy
  Er  Er0  1  0.333333  0.666667  0.682213  1
  Er  Er1  1  0.000000  0.000000  0.778166  1
  Er  Er2  1  0.000000  0.000000  0.277371  1
  Lu  Lu3  1  0.530981  0.061961  0.795686  1
  Lu  Lu4  1  0.938039  0.469019  0.795686  1
  Lu  Lu5  1  0.530981  0.469019  0.795686  1
  Lu  Lu6  1  0.464534  0.929069  0.291975  1
  Lu  Lu7  1  0.070931  0.535466  0.291975  1
  Lu  Lu8  1  0.464534  0.535466  0.291975  1
  Lu  Lu9  1  0.823978  0.647957  0.499188  1
  Lu  Lu10  1  0.352043  0.176022  0.499188  1
  Lu  Lu11  1  0.823978  0.176022  0.499188  1
  Lu  Lu12  1  0.178773  0.357545  0.000856  1
  Lu  Lu13  1  0.642455  0.821227  0.000856  1
  Lu  Lu14  1  0.178773  0.821227  0.000856  1
  Lu  Lu15  1  0.666667  0.333333  0.171333  1
  In  In16  1  0.837469  0.674938  0.037567  1
  In  In17  1  0.325062  0.162531  0.037567  1
  In  In18  1  0.837469  0.162531  0.037567  1
  In  In19  1  0.162936  0.325872  0.537782  1
  In  In20  1  0.674128  0.837064  0.537782  1
  In  In21  1  0.162936  0.837064  0.537782  1
  Co  Co22  1  0.333333  0.666667  0.068473  1
  Pt  Pt23  1  0.666667  0.333333  0.569187  1
