# generated using pymatgen
data_La3Y5(Sc3Ga4)4
_symmetry_space_group_name_H-M   'P 1'
_cell_length_a   7.26036460
_cell_length_b   7.56000473
_cell_length_c   14.45389100
_cell_angle_alpha   89.97577815
_cell_angle_beta   90.02324861
_cell_angle_gamma   90.00715664
_symmetry_Int_Tables_number   1
_chemical_formula_structural   La3Y5(Sc3Ga4)4
_chemical_formula_sum   'La3 Y5 Sc12 Ga16'
_cell_volume   793.35067443
_cell_formula_units_Z   1
loop_
 _symmetry_equiv_pos_site_id
 _symmetry_equiv_pos_as_xyz
  1  'x, y, z'
loop_
 _atom_site_type_symbol
 _atom_site_label
 _atom_site_symmetry_multiplicity
 _atom_site_fract_x
 _atom_site_fract_y
 _atom_site_fract_z
 _atom_site_occupancy
  La  La0  1  0.008475  0.171340  0.406392  1
  La  La1  1  0.511075  0.327603  0.405420  1
  La  La2  1  0.492659  0.673398  0.595834  1
  Y  Y3  1  0.009302  0.179365  0.092580  1
  Y  Y4  1  0.989097  0.821563  0.907122  1
  Y  Y5  1  0.489601  0.678760  0.906184  1
  Y  Y6  1  0.991824  0.821625  0.599748  1
  Y  Y7  1  0.510181  0.321947  0.092914  1
  Sc  Sc8  1  0.163570  0.501229  0.752615  1
  Sc  Sc9  1  0.838196  0.501410  0.246841  1
  Sc  Sc10  1  0.335937  0.000339  0.246422  1
  Sc  Sc11  1  0.662431  0.998528  0.752090  1
  Sc  Sc12  1  0.326731  0.171848  0.626955  1
  Sc  Sc13  1  0.668107  0.827897  0.372600  1
  Sc  Sc14  1  0.170564  0.674444  0.373081  1
  Sc  Sc15  1  0.669090  0.827163  0.120547  1
  Sc  Sc16  1  0.832286  0.328396  0.629029  1
  Sc  Sc17  1  0.327828  0.171832  0.877920  1
  Sc  Sc18  1  0.830572  0.326119  0.877185  1
  Sc  Sc19  1  0.171793  0.672225  0.120177  1
  Ga  Ga20  1  0.031067  0.117045  0.752322  1
  Ga  Ga21  1  0.967363  0.877337  0.244728  1
  Ga  Ga22  1  0.468106  0.620835  0.245602  1
  Ga  Ga23  1  0.532073  0.377996  0.753982  1
  Ga  Ga24  1  0.283333  0.874272  0.753449  1
  Ga  Ga25  1  0.713639  0.123952  0.244019  1
  Ga  Ga26  1  0.213907  0.375952  0.243863  1
  Ga  Ga27  1  0.787529  0.626438  0.755247  1
  Ga  Ga28  1  0.153282  0.465223  0.543407  1
  Ga  Ga29  1  0.848270  0.547976  0.460568  1
  Ga  Ga30  1  0.342612  0.957596  0.460848  1
  Ga  Ga31  1  0.837044  0.534398  0.039470  1
  Ga  Ga32  1  0.662130  0.038398  0.543529  1
  Ga  Ga33  1  0.161852  0.464757  0.958562  1
  Ga  Ga34  1  0.661401  0.035073  0.958800  1
  Ga  Ga35  1  0.337071  0.965724  0.039947  1
