# generated using pymatgen
data_La4CrFe3H20
_symmetry_space_group_name_H-M   'P 1'
_cell_length_a   4.45499572
_cell_length_b   4.75511462
_cell_length_c   11.59881989
_cell_angle_alpha   89.98676606
_cell_angle_beta   89.76529267
_cell_angle_gamma   89.94256947
_symmetry_Int_Tables_number   1
_chemical_formula_structural   La4CrFe3H20
_chemical_formula_sum   'La4 Cr1 Fe3 H20'
_cell_volume   245.70738685
_cell_formula_units_Z   1
loop_
 _symmetry_equiv_pos_site_id
 _symmetry_equiv_pos_as_xyz
  1  'x, y, z'
loop_
 _atom_site_type_symbol
 _atom_site_label
 _atom_site_symmetry_multiplicity
 _atom_site_fract_x
 _atom_site_fract_y
 _atom_site_fract_z
 _atom_site_occupancy
  La  La0  1  0.267703  0.251148  0.646727  1
  La  La1  1  0.762234  0.249276  0.354057  1
  La  La2  1  0.230752  0.749889  0.140893  1
  La  La3  1  0.731938  0.749798  0.859851  1
  Cr  Cr4  1  0.716431  0.751254  0.572670  1
  Fe  Fe5  1  0.302105  0.249593  0.920683  1
  Fe  Fe6  1  0.800781  0.251137  0.079859  1
  Fe  Fe7  1  0.193797  0.747294  0.417645  1
  H  H8  1  0.485996  0.533769  0.494018  1
  H  H9  1  0.005463  0.967063  0.501033  1
  H  H10  1  0.005140  0.451966  0.996177  1
  H  H11  1  0.504558  0.048707  0.004572  1
  H  H12  1  0.199392  0.007201  0.832704  1
  H  H13  1  0.699325  0.495566  0.168109  1
  H  H14  1  0.296251  0.987396  0.328094  1
  H  H15  1  0.804862  0.505118  0.675189  1
  H  H16  1  0.200816  0.493898  0.833149  1
  H  H17  1  0.698681  0.006439  0.167681  1
  H  H18  1  0.292579  0.505767  0.327983  1
  H  H19  1  0.805276  0.996791  0.675243  1
  H  H20  1  0.580201  0.249734  0.838654  1
  H  H21  1  0.078636  0.250307  0.161768  1
  H  H22  1  0.911799  0.749176  0.337649  1
  H  H23  1  0.424914  0.751297  0.669129  1
  H  H24  1  0.005057  0.049249  0.996200  1
  H  H25  1  0.504832  0.450509  0.004549  1
  H  H26  1  0.487428  0.969749  0.494617  1
  H  H27  1  0.003052  0.530911  0.501098  1
