# generated using pymatgen
data_Ba6Hf2Fe2O13
_symmetry_space_group_name_H-M   'P 1'
_cell_length_a   11.41367739
_cell_length_b   11.41367716
_cell_length_c   5.82353500
_cell_angle_alpha   90.00000000
_cell_angle_beta   90.00000000
_cell_angle_gamma   150.34434886
_symmetry_Int_Tables_number   1
_chemical_formula_structural   Ba6Hf2Fe2O13
_chemical_formula_sum   'Ba6 Hf2 Fe2 O13'
_cell_volume   375.36642062
_cell_formula_units_Z   1
loop_
 _symmetry_equiv_pos_site_id
 _symmetry_equiv_pos_as_xyz
  1  'x, y, z'
loop_
 _atom_site_type_symbol
 _atom_site_label
 _atom_site_symmetry_multiplicity
 _atom_site_fract_x
 _atom_site_fract_y
 _atom_site_fract_z
 _atom_site_occupancy
  Ba  Ba0  1  0.500000  0.500000  0.000000  1
  Ba  Ba1  1  0.000000  0.000000  0.500000  1
  Ba  Ba2  1  0.182616  0.817384  0.500000  1
  Ba  Ba3  1  0.683429  0.316571  0.000000  1
  Ba  Ba4  1  0.316571  0.683429  0.000000  1
  Ba  Ba5  1  0.817384  0.182616  0.500000  1
  Hf  Hf6  1  0.905572  0.094428  0.000000  1
  Hf  Hf7  1  0.094428  0.905572  0.000000  1
  Fe  Fe8  1  0.391694  0.608306  0.500000  1
  Fe  Fe9  1  0.608306  0.391694  0.500000  1
  O  O10  1  0.651730  0.834283  0.743271  1
  O  O11  1  0.165717  0.348270  0.256729  1
  O  O12  1  0.834283  0.651730  0.743271  1
  O  O13  1  0.348270  0.165717  0.256729  1
  O  O14  1  0.165717  0.348270  0.743271  1
  O  O15  1  0.651730  0.834283  0.256729  1
  O  O16  1  0.348270  0.165717  0.743271  1
  O  O17  1  0.834283  0.651730  0.256729  1
  O  O18  1  0.304997  0.695003  0.500000  1
  O  O19  1  0.811048  0.188952  0.000000  1
  O  O20  1  0.188952  0.811048  0.000000  1
  O  O21  1  0.695003  0.304997  0.500000  1
  O  O22  1  0.000000  0.000000  0.000000  1
