# generated using pymatgen
data_Dy2LuMgIr8
_symmetry_space_group_name_H-M   'P 1'
_cell_length_a   5.31666000
_cell_length_b   5.31665946
_cell_length_c   8.63310000
_cell_angle_alpha   90.00000000
_cell_angle_beta   90.00000000
_cell_angle_gamma   120.00000336
_symmetry_Int_Tables_number   1
_chemical_formula_structural   Dy2LuMgIr8
_chemical_formula_sum   'Dy2 Lu1 Mg1 Ir8'
_cell_volume   211.33679681
_cell_formula_units_Z   1
loop_
 _symmetry_equiv_pos_site_id
 _symmetry_equiv_pos_as_xyz
  1  'x, y, z'
loop_
 _atom_site_type_symbol
 _atom_site_label
 _atom_site_symmetry_multiplicity
 _atom_site_fract_x
 _atom_site_fract_y
 _atom_site_fract_z
 _atom_site_occupancy
  Dy  Dy0  1  0.333333  0.666667  0.077881  1
  Dy  Dy1  1  0.666667  0.333333  0.559407  1
  Lu  Lu2  1  0.666667  0.333333  0.930732  1
  Mg  Mg3  1  0.333333  0.666667  0.439726  1
  Ir  Ir4  1  0.000000  0.000000  0.997085  1
  Ir  Ir5  1  0.000000  0.000000  0.497537  1
  Ir  Ir6  1  0.830282  0.660565  0.249990  1
  Ir  Ir7  1  0.170650  0.829350  0.749222  1
  Ir  Ir8  1  0.658701  0.829350  0.749222  1
  Ir  Ir9  1  0.339435  0.169718  0.249990  1
  Ir  Ir10  1  0.830282  0.169718  0.249990  1
  Ir  Ir11  1  0.170650  0.341299  0.749222  1
