# generated using pymatgen
data_ZnNi6Ir
_symmetry_space_group_name_H-M   'P 1'
_cell_length_a   5.05791100
_cell_length_b   5.05791089
_cell_length_c   4.16983900
_cell_angle_alpha   90.00000000
_cell_angle_beta   90.00000000
_cell_angle_gamma   120.00000726
_symmetry_Int_Tables_number   1
_chemical_formula_structural   ZnNi6Ir
_chemical_formula_sum   'Zn1 Ni6 Ir1'
_cell_volume   92.38303881
_cell_formula_units_Z   1
loop_
 _symmetry_equiv_pos_site_id
 _symmetry_equiv_pos_as_xyz
  1  'x, y, z'
loop_
 _atom_site_type_symbol
 _atom_site_label
 _atom_site_symmetry_multiplicity
 _atom_site_fract_x
 _atom_site_fract_y
 _atom_site_fract_z
 _atom_site_occupancy
  Zn  Zn0  1  0.666667  0.333333  0.250000  1
  Ni  Ni1  1  0.166265  0.332529  0.250000  1
  Ni  Ni2  1  0.166266  0.833734  0.250000  1
  Ni  Ni3  1  0.667469  0.833734  0.250000  1
  Ni  Ni4  1  0.327137  0.163569  0.750001  1
  Ni  Ni5  1  0.836431  0.163569  0.750001  1
  Ni  Ni6  1  0.836431  0.672863  0.750001  1
  Ir  Ir7  1  0.333333  0.666667  0.750001  1
