# generated using pymatgen
data_DyTm(IrO4)2
_symmetry_space_group_name_H-M   'P 1'
_cell_length_a   5.32406849
_cell_length_b   7.37232198
_cell_length_c   7.60476140
_cell_angle_alpha   81.08319421
_cell_angle_beta   87.55333055
_cell_angle_gamma   89.42830939
_symmetry_Int_Tables_number   1
_chemical_formula_structural   DyTm(IrO4)2
_chemical_formula_sum   'Dy2 Tm2 Ir4 O16'
_cell_volume   294.61458979
_cell_formula_units_Z   2
loop_
 _symmetry_equiv_pos_site_id
 _symmetry_equiv_pos_as_xyz
  1  'x, y, z'
loop_
 _atom_site_type_symbol
 _atom_site_label
 _atom_site_symmetry_multiplicity
 _atom_site_fract_x
 _atom_site_fract_y
 _atom_site_fract_z
 _atom_site_occupancy
  Dy  Dy0  1  0.766247  0.386685  0.366534  1
  Dy  Dy1  1  0.233753  0.613315  0.633466  1
  Tm  Tm2  1  0.704474  0.891080  0.337941  1
  Tm  Tm3  1  0.295526  0.108920  0.662059  1
  Ir  Ir4  1  0.779836  0.300440  0.838146  1
  Ir  Ir5  1  0.220164  0.699560  0.161854  1
  Ir  Ir6  1  0.264223  0.200921  0.160604  1
  Ir  Ir7  1  0.735777  0.799079  0.839396  1
  O  O8  1  0.898067  0.806522  0.064795  1
  O  O9  1  0.101933  0.193478  0.935205  1
  O  O10  1  0.370176  0.943675  0.167225  1
  O  O11  1  0.629824  0.056325  0.832775  1
  O  O12  1  0.112045  0.445434  0.171579  1
  O  O13  1  0.887955  0.554566  0.828421  1
  O  O14  1  0.586514  0.310196  0.058574  1
  O  O15  1  0.413486  0.689804  0.941426  1
  O  O16  1  0.996796  0.320131  0.608167  1
  O  O17  1  0.003204  0.679869  0.391833  1
  O  O18  1  0.458117  0.170065  0.389337  1
  O  O19  1  0.541883  0.829935  0.610663  1
  O  O20  1  0.492336  0.619456  0.325536  1
  O  O21  1  0.507664  0.380544  0.674464  1
  O  O22  1  0.961001  0.119459  0.299479  1
  O  O23  1  0.038999  0.880541  0.700521  1
