# generated using pymatgen
data_Pa8Nb11Si16Os
_symmetry_space_group_name_H-M   'P 1'
_cell_length_a   7.02148201
_cell_length_b   7.02833276
_cell_length_c   12.95429500
_cell_angle_alpha   89.89601156
_cell_angle_beta   90.00247250
_cell_angle_gamma   90.01299896
_symmetry_Int_Tables_number   1
_chemical_formula_structural   Pa8Nb11Si16Os
_chemical_formula_sum   'Pa8 Nb11 Si16 Os1'
_cell_volume   639.28447556
_cell_formula_units_Z   1
loop_
 _symmetry_equiv_pos_site_id
 _symmetry_equiv_pos_as_xyz
  1  'x, y, z'
loop_
 _atom_site_type_symbol
 _atom_site_label
 _atom_site_symmetry_multiplicity
 _atom_site_fract_x
 _atom_site_fract_y
 _atom_site_fract_z
 _atom_site_occupancy
  Pa  Pa0  1  0.000301  0.336260  0.220815  1
  Pa  Pa1  1  0.001395  0.667249  0.717170  1
  Pa  Pa2  1  0.163944  0.501879  0.469442  1
  Pa  Pa3  1  0.499041  0.833176  0.033241  1
  Pa  Pa4  1  0.832921  0.501837  0.969152  1
  Pa  Pa5  1  0.498608  0.163306  0.528844  1
  Pa  Pa6  1  0.333479  0.998767  0.780213  1
  Pa  Pa7  1  0.668117  0.000050  0.280015  1
  Nb  Nb8  1  0.167287  0.167938  0.001267  1
  Nb  Nb9  1  0.831871  0.832562  0.499707  1
  Nb  Nb10  1  0.328025  0.666453  0.250582  1
  Nb  Nb11  1  0.668313  0.330568  0.749725  1
  Nb  Nb12  1  0.840945  0.997977  0.873634  1
  Nb  Nb13  1  0.492925  0.661185  0.623108  1
  Nb  Nb14  1  0.341317  0.502470  0.875839  1
  Nb  Nb15  1  0.500058  0.335375  0.126509  1
  Nb  Nb16  1  0.662711  0.492541  0.375165  1
  Nb  Nb17  1  0.002498  0.159311  0.626187  1
  Nb  Nb18  1  0.993734  0.838497  0.122427  1
  Si  Si19  1  0.287649  0.035067  0.189734  1
  Si  Si20  1  0.706344  0.958940  0.683593  1
  Si  Si21  1  0.458250  0.791575  0.431889  1
  Si  Si22  1  0.207361  0.538125  0.065996  1
  Si  Si23  1  0.539957  0.205783  0.935065  1
  Si  Si24  1  0.790379  0.458975  0.565318  1
  Si  Si25  1  0.041186  0.293982  0.815762  1
  Si  Si26  1  0.964970  0.720243  0.316162  1
  Si  Si27  1  0.373176  0.293012  0.317507  1
  Si  Si28  1  0.626556  0.705969  0.815722  1
  Si  Si29  1  0.203451  0.874975  0.563579  1
  Si  Si30  1  0.126806  0.793776  0.932333  1
  Si  Si31  1  0.793970  0.128279  0.066909  1
  Si  Si32  1  0.881349  0.200255  0.432824  1
  Si  Si33  1  0.294613  0.372873  0.682674  1
  Si  Si34  1  0.705397  0.622859  0.183514  1
  Os  Os35  1  0.171093  0.017910  0.378374  1
