# generated using pymatgen
data_Li4Dy3Sn3Bi
_symmetry_space_group_name_H-M   'P 1'
_cell_length_a   4.61031569
_cell_length_b   7.19708085
_cell_length_c   8.69499000
_cell_angle_alpha   114.44777417
_cell_angle_beta   105.37368511
_cell_angle_gamma   90.00000569
_symmetry_Int_Tables_number   1
_chemical_formula_structural   Li4Dy3Sn3Bi
_chemical_formula_sum   'Li4 Dy3 Sn3 Bi1'
_cell_volume   251.25482124
_cell_formula_units_Z   1
loop_
 _symmetry_equiv_pos_site_id
 _symmetry_equiv_pos_as_xyz
  1  'x, y, z'
loop_
 _atom_site_type_symbol
 _atom_site_label
 _atom_site_symmetry_multiplicity
 _atom_site_fract_x
 _atom_site_fract_y
 _atom_site_fract_z
 _atom_site_occupancy
  Li  Li0  1  0.327860  0.014414  0.655716  1
  Li  Li1  1  0.673007  0.978929  0.346016  1
  Li  Li2  1  0.327860  0.641302  0.655716  1
  Li  Li3  1  0.673007  0.367086  0.346016  1
  Dy  Dy4  1  0.876718  0.376718  0.753435  1
  Dy  Dy5  1  0.126861  0.626861  0.253722  1
  Dy  Dy6  1  0.996417  0.996417  0.992835  1
  Sn  Sn7  1  0.784186  0.784186  0.568373  1
  Sn  Sn8  1  0.499749  0.297482  0.999499  1
  Sn  Sn9  1  0.499749  0.702016  0.999499  1
  Bi  Bi10  1  0.214588  0.214588  0.429176  1
