# generated using pymatgen
data_YbY2ScPdPt3O14
_symmetry_space_group_name_H-M   'P 1'
_cell_length_a   7.19437344
_cell_length_b   7.21727227
_cell_length_c   7.19437500
_cell_angle_alpha   60.26258679
_cell_angle_beta   60.33683819
_cell_angle_gamma   60.26259152
_symmetry_Int_Tables_number   1
_chemical_formula_structural   YbY2ScPdPt3O14
_chemical_formula_sum   'Yb1 Y2 Sc1 Pd1 Pt3 O14'
_cell_volume   265.86345111
_cell_formula_units_Z   1
loop_
 _symmetry_equiv_pos_site_id
 _symmetry_equiv_pos_as_xyz
  1  'x, y, z'
loop_
 _atom_site_type_symbol
 _atom_site_label
 _atom_site_symmetry_multiplicity
 _atom_site_fract_x
 _atom_site_fract_y
 _atom_site_fract_z
 _atom_site_occupancy
  Yb  Yb0  1  0.625000  0.125000  0.625000  1
  Y  Y1  1  0.625000  0.625000  0.125000  1
  Y  Y2  1  0.125000  0.625000  0.625000  1
  Sc  Sc3  1  0.625000  0.625000  0.625000  1
  Pd  Pd4  1  0.125000  0.625000  0.125000  1
  Pt  Pt5  1  0.625000  0.125000  0.125000  1
  Pt  Pt6  1  0.125000  0.125000  0.125000  1
  Pt  Pt7  1  0.125000  0.125000  0.625000  1
  O  O8  1  0.027789  0.464930  0.465995  1
  O  O9  1  0.784005  0.785070  0.222211  1
  O  O10  1  0.785773  0.217949  0.209757  1
  O  O11  1  0.034007  0.465538  0.034007  1
  O  O12  1  0.462476  0.024572  0.462476  1
  O  O13  1  0.744747  0.738556  0.744747  1
  O  O14  1  0.040243  0.032051  0.464227  1
  O  O15  1  0.787524  0.225428  0.787524  1
  O  O16  1  0.505253  0.511444  0.505253  1
  O  O17  1  0.209757  0.217949  0.785773  1
  O  O18  1  0.215993  0.784462  0.215993  1
  O  O19  1  0.464227  0.032051  0.040243  1
  O  O20  1  0.465995  0.464930  0.027789  1
  O  O21  1  0.222211  0.785070  0.784005  1
