# generated using pymatgen
data_Sm8Si(PdPt7)3
_symmetry_space_group_name_H-M   'P 1'
_cell_length_a   8.42461300
_cell_length_b   8.42242500
_cell_length_c   8.44060300
_cell_angle_alpha   90.00000000
_cell_angle_beta   90.00000000
_cell_angle_gamma   90.00000000
_symmetry_Int_Tables_number   1
_chemical_formula_structural   Sm8Si(PdPt7)3
_chemical_formula_sum   'Sm8 Si1 Pd3 Pt21'
_cell_volume   598.90865075
_cell_formula_units_Z   1
loop_
 _symmetry_equiv_pos_site_id
 _symmetry_equiv_pos_as_xyz
  1  'x, y, z'
loop_
 _atom_site_type_symbol
 _atom_site_label
 _atom_site_symmetry_multiplicity
 _atom_site_fract_x
 _atom_site_fract_y
 _atom_site_fract_z
 _atom_site_occupancy
  Sm  Sm0  1  0.253063  0.253038  0.253123  1
  Sm  Sm1  1  0.746927  0.746867  0.746859  1
  Sm  Sm2  1  0.746927  0.746867  0.253141  1
  Sm  Sm3  1  0.746927  0.253133  0.746859  1
  Sm  Sm4  1  0.253063  0.253038  0.746877  1
  Sm  Sm5  1  0.253063  0.746962  0.253123  1
  Sm  Sm6  1  0.253063  0.746962  0.746877  1
  Sm  Sm7  1  0.746927  0.253133  0.253141  1
  Si  Si8  1  0.000255  0.000000  0.000000  1
  Pd  Pd9  1  0.742521  0.000000  0.500000  1
  Pd  Pd10  1  0.999960  0.500000  0.257718  1
  Pd  Pd11  1  0.999960  0.500000  0.742282  1
  Pt  Pt12  1  0.257350  0.500000  0.000000  1
  Pt  Pt13  1  0.742747  0.500000  0.000000  1
  Pt  Pt14  1  0.000044  0.257738  0.500000  1
  Pt  Pt15  1  0.500004  0.257684  0.000000  1
  Pt  Pt16  1  0.000044  0.742262  0.500000  1
  Pt  Pt17  1  0.500004  0.742316  0.000000  1
  Pt  Pt18  1  0.499900  0.000000  0.257622  1
  Pt  Pt19  1  0.257521  0.000000  0.500000  1
  Pt  Pt20  1  0.499900  0.000000  0.742378  1
  Pt  Pt21  1  0.251741  0.500000  0.500000  1
  Pt  Pt22  1  0.748218  0.500000  0.500000  1
  Pt  Pt23  1  0.499925  0.252012  0.500000  1
  Pt  Pt24  1  0.499925  0.747988  0.500000  1
  Pt  Pt25  1  0.500079  0.500000  0.252030  1
  Pt  Pt26  1  0.500079  0.500000  0.747970  1
  Pt  Pt27  1  0.281393  0.000000  0.000000  1
  Pt  Pt28  1  0.718552  0.000000  0.000000  1
  Pt  Pt29  1  0.999952  0.281796  0.000000  1
  Pt  Pt30  1  0.999952  0.718204  0.000000  1
  Pt  Pt31  1  0.000007  0.000000  0.281703  1
  Pt  Pt32  1  0.000007  0.000000  0.718297  1
