# generated using pymatgen
data_Lu2Al8ZnPd3
_symmetry_space_group_name_H-M   'P 1'
_cell_length_a   7.57831800
_cell_length_b   7.57831794
_cell_length_c   9.47476200
_cell_angle_alpha   90.00000000
_cell_angle_beta   90.00000000
_cell_angle_gamma   119.17789392
_symmetry_Int_Tables_number   1
_chemical_formula_structural   Lu2Al8ZnPd3
_chemical_formula_sum   'Lu4 Al16 Zn2 Pd6'
_cell_volume   475.09782081
_cell_formula_units_Z   2
loop_
 _symmetry_equiv_pos_site_id
 _symmetry_equiv_pos_as_xyz
  1  'x, y, z'
loop_
 _atom_site_type_symbol
 _atom_site_label
 _atom_site_symmetry_multiplicity
 _atom_site_fract_x
 _atom_site_fract_y
 _atom_site_fract_z
 _atom_site_occupancy
  Lu  Lu0  1  0.994222  0.671233  0.250000  1
  Lu  Lu1  1  0.005778  0.328767  0.750000  1
  Lu  Lu2  1  0.671233  0.994222  0.250000  1
  Lu  Lu3  1  0.328767  0.005778  0.750000  1
  Al  Al4  1  0.000482  0.332635  0.079978  1
  Al  Al5  1  0.999518  0.667365  0.920022  1
  Al  Al6  1  0.999518  0.667365  0.579978  1
  Al  Al7  1  0.332635  0.000482  0.420022  1
  Al  Al8  1  0.000482  0.332635  0.420022  1
  Al  Al9  1  0.667365  0.999518  0.579978  1
  Al  Al10  1  0.667365  0.999518  0.920022  1
  Al  Al11  1  0.332635  0.000482  0.079978  1
  Al  Al12  1  0.332295  0.332295  0.558625  1
  Al  Al13  1  0.667705  0.667705  0.441375  1
  Al  Al14  1  0.667705  0.667705  0.058625  1
  Al  Al15  1  0.332295  0.332295  0.941375  1
  Al  Al16  1  0.338496  0.547755  0.250000  1
  Al  Al17  1  0.661504  0.452245  0.750000  1
  Al  Al18  1  0.547755  0.338496  0.250000  1
  Al  Al19  1  0.452245  0.661504  0.750000  1
  Zn  Zn20  1  0.137061  0.137061  0.250000  1
  Zn  Zn21  1  0.862939  0.862939  0.750000  1
  Pd  Pd22  1  0.672362  0.327638  0.000000  1
  Pd  Pd23  1  0.327638  0.672362  0.000000  1
  Pd  Pd24  1  0.327638  0.672362  0.500000  1
  Pd  Pd25  1  0.672362  0.327638  0.500000  1
  Pd  Pd26  1  0.000000  0.000000  0.000000  1
  Pd  Pd27  1  0.000000  0.000000  0.500000  1
