# generated using pymatgen
data_Zr4Ti2CuRh9
_symmetry_space_group_name_H-M   'P 1'
_cell_length_a   4.26877400
_cell_length_b   5.54054518
_cell_length_c   10.90573867
_cell_angle_alpha   91.03047666
_cell_angle_beta   90.00000000
_cell_angle_gamma   90.00000000
_symmetry_Int_Tables_number   1
_chemical_formula_structural   Zr4Ti2CuRh9
_chemical_formula_sum   'Zr4 Ti2 Cu1 Rh9'
_cell_volume   257.89356548
_cell_formula_units_Z   1
loop_
 _symmetry_equiv_pos_site_id
 _symmetry_equiv_pos_as_xyz
  1  'x, y, z'
loop_
 _atom_site_type_symbol
 _atom_site_label
 _atom_site_symmetry_multiplicity
 _atom_site_fract_x
 _atom_site_fract_y
 _atom_site_fract_z
 _atom_site_occupancy
  Zr  Zr0  1  0.500000  0.354408  0.141891  1
  Zr  Zr1  1  0.500000  0.664153  0.855946  1
  Zr  Zr2  1  0.500000  0.825683  0.359166  1
  Zr  Zr3  1  0.500000  0.154413  0.643645  1
  Ti  Ti4  1  0.000000  0.016124  0.995144  1
  Ti  Ti5  1  0.000000  0.484251  0.499990  1
  Cu  Cu6  1  0.000000  0.093501  0.253506  1
  Rh  Rh7  1  0.000000  0.985328  0.498323  1
  Rh  Rh8  1  0.000000  0.506251  0.999229  1
  Rh  Rh9  1  0.000000  0.902443  0.763358  1
  Rh  Rh10  1  0.000000  0.594958  0.256748  1
  Rh  Rh11  1  0.000000  0.402626  0.735357  1
  Rh  Rh12  1  0.500000  0.314178  0.392857  1
  Rh  Rh13  1  0.500000  0.668971  0.602964  1
  Rh  Rh14  1  0.500000  0.850589  0.106189  1
  Rh  Rh15  1  0.500000  0.182121  0.895687  1
