# generated using pymatgen
data_Y12Co6Hg
_symmetry_space_group_name_H-M   'P 1'
_cell_length_a   8.39569707
_cell_length_b   8.39569661
_cell_length_c   8.39569700
_cell_angle_alpha   109.47122400
_cell_angle_beta   109.47122287
_cell_angle_gamma   109.47122293
_symmetry_Int_Tables_number   1
_chemical_formula_structural   Y12Co6Hg
_chemical_formula_sum   'Y12 Co6 Hg1'
_cell_volume   455.56286955
_cell_formula_units_Z   1
loop_
 _symmetry_equiv_pos_site_id
 _symmetry_equiv_pos_as_xyz
  1  'x, y, z'
loop_
 _atom_site_type_symbol
 _atom_site_label
 _atom_site_symmetry_multiplicity
 _atom_site_fract_x
 _atom_site_fract_y
 _atom_site_fract_z
 _atom_site_occupancy
  Y  Y0  1  0.806309  0.697904  0.504213  1
  Y  Y1  1  0.193691  0.302096  0.495787  1
  Y  Y2  1  0.193691  0.697904  0.891595  1
  Y  Y3  1  0.806309  0.302096  0.108405  1
  Y  Y4  1  0.697904  0.504213  0.806309  1
  Y  Y5  1  0.302096  0.495787  0.193691  1
  Y  Y6  1  0.697904  0.891595  0.193691  1
  Y  Y7  1  0.302096  0.108405  0.806309  1
  Y  Y8  1  0.504213  0.806309  0.697904  1
  Y  Y9  1  0.495787  0.193691  0.302096  1
  Y  Y10  1  0.108405  0.806309  0.302096  1
  Y  Y11  1  0.891595  0.193691  0.697904  1
  Co  Co12  1  0.887610  0.387610  0.500000  1
  Co  Co13  1  0.112390  0.612390  0.500000  1
  Co  Co14  1  0.387610  0.500000  0.887610  1
  Co  Co15  1  0.612390  0.500000  0.112390  1
  Co  Co16  1  0.500000  0.887610  0.387610  1
  Co  Co17  1  0.500000  0.112390  0.612390  1
  Hg  Hg18  1  0.000000  0.000000  0.000000  1
