# generated using pymatgen
data_La4Pr2PaO12
_symmetry_space_group_name_H-M   'P 1'
_cell_length_a   6.93114274
_cell_length_b   6.93940877
_cell_length_c   6.93518312
_cell_angle_alpha   99.07660208
_cell_angle_beta   99.03745810
_cell_angle_gamma   98.92567599
_symmetry_Int_Tables_number   1
_chemical_formula_structural   La4Pr2PaO12
_chemical_formula_sum   'La4 Pr2 Pa1 O12'
_cell_volume   319.71774709
_cell_formula_units_Z   1
loop_
 _symmetry_equiv_pos_site_id
 _symmetry_equiv_pos_as_xyz
  1  'x, y, z'
loop_
 _atom_site_type_symbol
 _atom_site_label
 _atom_site_symmetry_multiplicity
 _atom_site_fract_x
 _atom_site_fract_y
 _atom_site_fract_z
 _atom_site_occupancy
  La  La0  1  0.394129  0.859699  0.697496  1
  La  La1  1  0.697637  0.393575  0.859450  1
  La  La2  1  0.860334  0.697804  0.393992  1
  La  La3  1  0.140762  0.303277  0.605500  1
  Pr  Pr4  1  0.302465  0.608880  0.140127  1
  Pr  Pr5  1  0.607777  0.139401  0.302473  1
  Pa  Pa6  1  0.000889  0.000847  0.000922  1
  O  O7  1  0.436849  0.175545  0.586684  1
  O  O8  1  0.933831  0.695033  0.052355  1
  O  O9  1  0.176223  0.588900  0.436387  1
  O  O10  1  0.821655  0.409593  0.561810  1
  O  O11  1  0.562631  0.821929  0.409280  1
  O  O12  1  0.585724  0.436406  0.175927  1
  O  O13  1  0.411398  0.563384  0.823233  1
  O  O14  1  0.944752  0.067825  0.305658  1
  O  O15  1  0.052167  0.932235  0.695649  1
  O  O16  1  0.694933  0.052818  0.933437  1
  O  O17  1  0.069273  0.305904  0.949675  1
  O  O18  1  0.306572  0.946942  0.069944  1
