# generated using pymatgen
data_La8Nd8Cd4IrPt3
_symmetry_space_group_name_H-M   'P 1'
_cell_length_a   10.12627083
_cell_length_b   10.08698738
_cell_length_c   10.09696100
_cell_angle_alpha   59.96728994
_cell_angle_beta   60.09570431
_cell_angle_gamma   60.56499301
_symmetry_Int_Tables_number   1
_chemical_formula_structural   La8Nd8Cd4IrPt3
_chemical_formula_sum   'La8 Nd8 Cd4 Ir1 Pt3'
_cell_volume   732.67969852
_cell_formula_units_Z   1
loop_
 _symmetry_equiv_pos_site_id
 _symmetry_equiv_pos_as_xyz
  1  'x, y, z'
loop_
 _atom_site_type_symbol
 _atom_site_label
 _atom_site_symmetry_multiplicity
 _atom_site_fract_x
 _atom_site_fract_y
 _atom_site_fract_z
 _atom_site_occupancy
  La  La0  1  0.351162  0.346921  0.348404  1
  La  La1  1  0.351162  0.346921  0.953514  1
  La  La2  1  0.354286  0.952062  0.346826  1
  La  La3  1  0.945973  0.353063  0.350482  1
  La  La4  1  0.805781  0.189949  0.190787  1
  La  La5  1  0.192488  0.808540  0.807532  1
  La  La6  1  0.192488  0.808540  0.191441  1
  La  La7  1  0.805781  0.189949  0.813484  1
  Nd  Nd8  1  0.193989  0.192839  0.806586  1
  Nd  Nd9  1  0.804608  0.810564  0.192414  1
  Nd  Nd10  1  0.937170  0.564126  0.566029  1
  Nd  Nd11  1  0.566024  0.935917  0.933587  1
  Nd  Nd12  1  0.566024  0.935917  0.564471  1
  Nd  Nd13  1  0.937170  0.564126  0.932675  1
  Nd  Nd14  1  0.566690  0.563445  0.934933  1
  Nd  Nd15  1  0.936256  0.934039  0.564853  1
  Cd  Cd16  1  0.580773  0.581441  0.580099  1
  Cd  Cd17  1  0.580773  0.581441  0.257686  1
  Cd  Cd18  1  0.579638  0.257229  0.581566  1
  Cd  Cd19  1  0.258154  0.579737  0.581053  1
  Ir  Ir20  1  0.572697  0.144033  0.141635  1
  Pt  Pt21  1  0.140116  0.143012  0.144123  1
  Pt  Pt22  1  0.140116  0.143012  0.572749  1
  Pt  Pt23  1  0.140686  0.573175  0.143069  1
