# generated using pymatgen
data_Hf5Sc3Co11Si16Ir
_symmetry_space_group_name_H-M   'P 1'
_cell_length_a   5.23514404
_cell_length_b   6.78156040
_cell_length_c   13.71290166
_cell_angle_alpha   89.93742440
_cell_angle_beta   89.98556211
_cell_angle_gamma   89.80566692
_symmetry_Int_Tables_number   1
_chemical_formula_structural   Hf5Sc3Co11Si16Ir
_chemical_formula_sum   'Hf5 Sc3 Co11 Si16 Ir1'
_cell_volume   486.83843811
_cell_formula_units_Z   1
loop_
 _symmetry_equiv_pos_site_id
 _symmetry_equiv_pos_as_xyz
  1  'x, y, z'
loop_
 _atom_site_type_symbol
 _atom_site_label
 _atom_site_symmetry_multiplicity
 _atom_site_fract_x
 _atom_site_fract_y
 _atom_site_fract_z
 _atom_site_occupancy
  Hf  Hf0  1  0.764437  0.402672  0.643026  1
  Hf  Hf1  1  0.232829  0.598943  0.355689  1
  Hf  Hf2  1  0.732728  0.900127  0.355636  1
  Hf  Hf3  1  0.263281  0.904336  0.854383  1
  Hf  Hf4  1  0.770302  0.600837  0.852653  1
  Sc  Sc5  1  0.234250  0.399574  0.147012  1
  Sc  Sc6  1  0.730403  0.099395  0.145259  1
  Sc  Sc7  1  0.269630  0.100071  0.642521  1
  Co  Co8  1  0.505456  0.226584  0.481856  1
  Co  Co9  1  0.771388  0.001166  0.748978  1
  Co  Co10  1  0.495269  0.223709  0.981020  1
  Co  Co11  1  0.727810  0.501662  0.253120  1
  Co  Co12  1  0.495794  0.771012  0.518528  1
  Co  Co13  1  0.004770  0.273823  0.482045  1
  Co  Co14  1  0.005846  0.724424  0.019460  1
  Co  Co15  1  0.226659  0.996815  0.253174  1
  Co  Co16  1  0.275405  0.505120  0.749746  1
  Co  Co17  1  0.505711  0.772585  0.019158  1
  Co  Co18  1  0.993482  0.724143  0.517880  1
  Si  Si19  1  0.223241  0.012093  0.071776  1
  Si  Si20  1  0.718384  0.518646  0.432030  1
  Si  Si21  1  0.781657  0.018265  0.567768  1
  Si  Si22  1  0.482424  0.752560  0.188886  1
  Si  Si23  1  0.020085  0.254921  0.803564  1
  Si  Si24  1  0.515465  0.248074  0.810888  1
  Si  Si25  1  0.219347  0.979827  0.433168  1
  Si  Si26  1  0.292457  0.527340  0.931085  1
  Si  Si27  1  0.980865  0.747278  0.188273  1
  Si  Si28  1  0.710726  0.485644  0.071457  1
  Si  Si29  1  0.280473  0.480028  0.567774  1
  Si  Si30  1  0.481547  0.246160  0.313632  1
  Si  Si31  1  0.016330  0.748144  0.686465  1
  Si  Si32  1  0.774109  0.972865  0.930898  1
  Si  Si33  1  0.520057  0.754670  0.687575  1
  Si  Si34  1  0.981425  0.252103  0.313316  1
  Ir  Ir35  1  0.995961  0.274386  0.980298  1
