# generated using pymatgen
data_Ca7ThBi6
_symmetry_space_group_name_H-M   'P 1'
_cell_length_a   8.34008659
_cell_length_b   8.44220144
_cell_length_c   8.44220208
_cell_angle_alpha   109.71495048
_cell_angle_beta   109.22637924
_cell_angle_gamma   109.22637564
_symmetry_Int_Tables_number   1
_chemical_formula_structural   Ca7ThBi6
_chemical_formula_sum   'Ca7 Th1 Bi6'
_cell_volume   458.94803356
_cell_formula_units_Z   1
loop_
 _symmetry_equiv_pos_site_id
 _symmetry_equiv_pos_as_xyz
  1  'x, y, z'
loop_
 _atom_site_type_symbol
 _atom_site_label
 _atom_site_symmetry_multiplicity
 _atom_site_fract_x
 _atom_site_fract_y
 _atom_site_fract_z
 _atom_site_occupancy
  Ca  Ca0  1  0.645800  0.500000  0.000000  1
  Ca  Ca1  1  0.500204  0.000216  0.648071  1
  Ca  Ca2  1  0.358493  0.354851  0.359893  1
  Ca  Ca3  1  0.503642  0.005042  0.145149  1
  Ca  Ca4  1  0.999988  0.647855  0.499784  1
  Ca  Ca5  1  0.852133  0.851929  0.852145  1
  Ca  Ca6  1  0.998600  0.140107  0.494958  1
  Th  Th7  1  0.145259  0.500000  0.000000  1
  Bi  Bi8  1  0.371165  0.623672  0.754312  1
  Bi  Bi9  1  0.879146  0.251675  0.125391  1
  Bi  Bi10  1  0.616853  0.745688  0.369360  1
  Bi  Bi11  1  0.127471  0.873716  0.248325  1
  Bi  Bi12  1  0.247493  0.130640  0.876328  1
  Bi  Bi13  1  0.753754  0.374609  0.626284  1
