# generated using pymatgen
data_Pa3Ti(Co2Sn)2
_symmetry_space_group_name_H-M   'P 1'
_cell_length_a   7.11528100
_cell_length_b   7.11528048
_cell_length_c   3.40269400
_cell_angle_alpha   90.00000000
_cell_angle_beta   90.00000000
_cell_angle_gamma   87.35114566
_symmetry_Int_Tables_number   1
_chemical_formula_structural   Pa3Ti(Co2Sn)2
_chemical_formula_sum   'Pa3 Ti1 Co4 Sn2'
_cell_volume   172.08487318
_cell_formula_units_Z   1
loop_
 _symmetry_equiv_pos_site_id
 _symmetry_equiv_pos_as_xyz
  1  'x, y, z'
loop_
 _atom_site_type_symbol
 _atom_site_label
 _atom_site_symmetry_multiplicity
 _atom_site_fract_x
 _atom_site_fract_y
 _atom_site_fract_z
 _atom_site_occupancy
  Pa  Pa0  1  0.828586  0.675663  0.500000  1
  Pa  Pa1  1  0.175663  0.328586  0.500000  1
  Pa  Pa2  1  0.666422  0.166422  0.500000  1
  Ti  Ti3  1  0.326368  0.826368  0.500000  1
  Co  Co4  1  0.372205  0.131375  0.000000  1
  Co  Co5  1  0.864122  0.364122  0.000000  1
  Co  Co6  1  0.121671  0.621671  0.000000  1
  Co  Co7  1  0.631375  0.872205  0.000000  1
  Sn  Sn8  1  0.023507  0.990083  0.000000  1
  Sn  Sn9  1  0.490083  0.523507  0.000000  1
