# generated using pymatgen
data_Tb5In2BiCl
_symmetry_space_group_name_H-M   'P 1'
_cell_length_a   9.21636715
_cell_length_b   9.21636791
_cell_length_c   6.67947700
_cell_angle_alpha   90.00000000
_cell_angle_beta   90.00000000
_cell_angle_gamma   119.97912548
_symmetry_Int_Tables_number   1
_chemical_formula_structural   Tb5In2BiCl
_chemical_formula_sum   'Tb10 In4 Bi2 Cl2'
_cell_volume   491.45524485
_cell_formula_units_Z   2
loop_
 _symmetry_equiv_pos_site_id
 _symmetry_equiv_pos_as_xyz
  1  'x, y, z'
loop_
 _atom_site_type_symbol
 _atom_site_label
 _atom_site_symmetry_multiplicity
 _atom_site_fract_x
 _atom_site_fract_y
 _atom_site_fract_z
 _atom_site_occupancy
  Tb  Tb0  1  0.736364  0.742264  0.250000  1
  Tb  Tb1  1  0.994204  0.739098  0.750000  1
  Tb  Tb2  1  0.744638  0.000931  0.750000  1
  Tb  Tb3  1  0.336394  0.663606  0.500000  1
  Tb  Tb4  1  0.257736  0.263636  0.750000  1
  Tb  Tb5  1  0.999069  0.255362  0.250000  1
  Tb  Tb6  1  0.666323  0.333677  0.500000  1
  Tb  Tb7  1  0.260902  0.005796  0.250000  1
  Tb  Tb8  1  0.336394  0.663606  0.000000  1
  Tb  Tb9  1  0.666323  0.333677  0.000000  1
  In  In10  1  0.608100  0.001146  0.250000  1
  In  In11  1  0.998854  0.391900  0.750000  1
  In  In12  1  0.394293  0.393333  0.250000  1
  In  In13  1  0.606667  0.605707  0.750000  1
  Bi  Bi14  1  0.389678  0.999021  0.750000  1
  Bi  Bi15  1  0.000979  0.610322  0.250000  1
  Cl  Cl16  1  0.001541  0.998459  0.500000  1
  Cl  Cl17  1  0.001541  0.998459  0.000000  1
