# generated using pymatgen
data_Th2Sc3Ga4
_symmetry_space_group_name_H-M   'P 1'
_cell_length_a   7.41548600
_cell_length_b   7.68499500
_cell_length_c   14.59780600
_cell_angle_alpha   90.00000000
_cell_angle_beta   90.00000000
_cell_angle_gamma   90.00000000
_symmetry_Int_Tables_number   1
_chemical_formula_structural   Th2Sc3Ga4
_chemical_formula_sum   'Th8 Sc12 Ga16'
_cell_volume   831.89937174
_cell_formula_units_Z   4
loop_
 _symmetry_equiv_pos_site_id
 _symmetry_equiv_pos_as_xyz
  1  'x, y, z'
loop_
 _atom_site_type_symbol
 _atom_site_label
 _atom_site_symmetry_multiplicity
 _atom_site_fract_x
 _atom_site_fract_y
 _atom_site_fract_z
 _atom_site_occupancy
  Th  Th0  1  0.989266  0.175181  0.095969  1
  Th  Th1  1  0.489266  0.324819  0.404031  1
  Th  Th2  1  0.510734  0.675181  0.904031  1
  Th  Th3  1  0.010734  0.824819  0.595969  1
  Th  Th4  1  0.010734  0.824819  0.904031  1
  Th  Th5  1  0.510734  0.675181  0.595969  1
  Th  Th6  1  0.489266  0.324819  0.095969  1
  Th  Th7  1  0.989266  0.175181  0.404031  1
  Sc  Sc8  1  0.663309  0.002084  0.250000  1
  Sc  Sc9  1  0.163309  0.497916  0.250000  1
  Sc  Sc10  1  0.836691  0.502084  0.750000  1
  Sc  Sc11  1  0.336691  0.997916  0.750000  1
  Sc  Sc12  1  0.829070  0.674620  0.124636  1
  Sc  Sc13  1  0.329070  0.825380  0.375364  1
  Sc  Sc14  1  0.670930  0.174620  0.875364  1
  Sc  Sc15  1  0.170930  0.325380  0.624636  1
  Sc  Sc16  1  0.170930  0.325380  0.875364  1
  Sc  Sc17  1  0.670930  0.174620  0.624636  1
  Sc  Sc18  1  0.329070  0.825380  0.124636  1
  Sc  Sc19  1  0.829070  0.674620  0.375364  1
  Ga  Ga20  1  0.788666  0.376813  0.250000  1
  Ga  Ga21  1  0.288666  0.123187  0.250000  1
  Ga  Ga22  1  0.711334  0.876813  0.750000  1
  Ga  Ga23  1  0.211334  0.623187  0.750000  1
  Ga  Ga24  1  0.032026  0.878147  0.250000  1
  Ga  Ga25  1  0.532026  0.621853  0.250000  1
  Ga  Ga26  1  0.467974  0.378147  0.750000  1
  Ga  Ga27  1  0.967974  0.121853  0.750000  1
  Ga  Ga28  1  0.841938  0.462905  0.959912  1
  Ga  Ga29  1  0.341938  0.037095  0.540088  1
  Ga  Ga30  1  0.658062  0.962905  0.040088  1
  Ga  Ga31  1  0.158062  0.537095  0.459912  1
  Ga  Ga32  1  0.158062  0.537095  0.040088  1
  Ga  Ga33  1  0.658062  0.962905  0.459912  1
  Ga  Ga34  1  0.341938  0.037095  0.959912  1
  Ga  Ga35  1  0.841938  0.462905  0.540088  1
