# generated using pymatgen
data_Gd5GeWO12
_symmetry_space_group_name_H-M   'P 1'
_cell_length_a   6.93290559
_cell_length_b   6.93290467
_cell_length_c   7.39731431
_cell_angle_alpha   74.48937313
_cell_angle_beta   74.48937540
_cell_angle_gamma   51.27929606
_symmetry_Int_Tables_number   1
_chemical_formula_structural   Gd5GeWO12
_chemical_formula_sum   'Gd5 Ge1 W1 O12'
_cell_volume   264.91935689
_cell_formula_units_Z   1
loop_
 _symmetry_equiv_pos_site_id
 _symmetry_equiv_pos_as_xyz
  1  'x, y, z'
loop_
 _atom_site_type_symbol
 _atom_site_label
 _atom_site_symmetry_multiplicity
 _atom_site_fract_x
 _atom_site_fract_y
 _atom_site_fract_z
 _atom_site_occupancy
  Gd  Gd0  1  0.314298  0.291494  0.360613  1
  Gd  Gd1  1  0.708506  0.685702  0.639387  1
  Gd  Gd2  1  0.309381  0.303251  0.831026  1
  Gd  Gd3  1  0.696749  0.690619  0.168974  1
  Gd  Gd4  1  0.998445  0.001555  0.500000  1
  Ge  Ge5  1  0.748668  0.251332  0.000000  1
  W  W6  1  0.235454  0.764546  0.000000  1
  O  O7  1  0.895997  0.422019  0.920322  1
  O  O8  1  0.424336  0.898893  0.919654  1
  O  O9  1  0.101107  0.575664  0.080346  1
  O  O10  1  0.577981  0.104003  0.079678  1
  O  O11  1  0.101669  0.594805  0.575460  1
  O  O12  1  0.598879  0.089975  0.577290  1
  O  O13  1  0.910025  0.401121  0.422710  1
  O  O14  1  0.405195  0.898331  0.424540  1
  O  O15  1  0.984563  0.016666  0.820852  1
  O  O16  1  0.983334  0.015437  0.179148  1
  O  O17  1  0.502162  0.496752  0.820132  1
  O  O18  1  0.503248  0.497838  0.179868  1
