# generated using pymatgen
data_Ho2ZrGa5
_symmetry_space_group_name_H-M   'P 1'
_cell_length_a   5.96435200
_cell_length_b   9.42992800
_cell_length_c   11.34980400
_cell_angle_alpha   90.00000000
_cell_angle_beta   90.00000000
_cell_angle_gamma   90.00000000
_symmetry_Int_Tables_number   1
_chemical_formula_structural   Ho2ZrGa5
_chemical_formula_sum   'Ho8 Zr4 Ga20'
_cell_volume   638.35167896
_cell_formula_units_Z   4
loop_
 _symmetry_equiv_pos_site_id
 _symmetry_equiv_pos_as_xyz
  1  'x, y, z'
loop_
 _atom_site_type_symbol
 _atom_site_label
 _atom_site_symmetry_multiplicity
 _atom_site_fract_x
 _atom_site_fract_y
 _atom_site_fract_z
 _atom_site_occupancy
  Ho  Ho0  1  0.886326  0.506974  0.352563  1
  Ho  Ho1  1  0.613674  0.993026  0.852563  1
  Ho  Ho2  1  0.113674  0.006974  0.647437  1
  Ho  Ho3  1  0.386326  0.493026  0.147437  1
  Ho  Ho4  1  0.113674  0.493026  0.647437  1
  Ho  Ho5  1  0.386326  0.006974  0.147437  1
  Ho  Ho6  1  0.886326  0.993026  0.352563  1
  Ho  Ho7  1  0.613674  0.506974  0.852563  1
  Zr  Zr8  1  0.857622  0.750000  0.075082  1
  Zr  Zr9  1  0.642378  0.750000  0.575082  1
  Zr  Zr10  1  0.142378  0.250000  0.924918  1
  Zr  Zr11  1  0.357622  0.250000  0.424918  1
  Ga  Ga12  1  0.875085  0.053073  0.088721  1
  Ga  Ga13  1  0.624915  0.446927  0.588721  1
  Ga  Ga14  1  0.124915  0.553073  0.911279  1
  Ga  Ga15  1  0.375085  0.946927  0.411279  1
  Ga  Ga16  1  0.124915  0.946927  0.911279  1
  Ga  Ga17  1  0.375085  0.553073  0.411279  1
  Ga  Ga18  1  0.875085  0.446927  0.088721  1
  Ga  Ga19  1  0.624915  0.053073  0.588721  1
  Ga  Ga20  1  0.161390  0.750000  0.254512  1
  Ga  Ga21  1  0.338610  0.750000  0.754512  1
  Ga  Ga22  1  0.838610  0.250000  0.745488  1
  Ga  Ga23  1  0.661390  0.250000  0.245488  1
  Ga  Ga24  1  0.390231  0.750000  0.002026  1
  Ga  Ga25  1  0.109769  0.750000  0.502026  1
  Ga  Ga26  1  0.609769  0.250000  0.997974  1
  Ga  Ga27  1  0.890231  0.250000  0.497974  1
  Ga  Ga28  1  0.604924  0.750000  0.293660  1
  Ga  Ga29  1  0.895076  0.750000  0.793660  1
  Ga  Ga30  1  0.395076  0.250000  0.706340  1
  Ga  Ga31  1  0.104924  0.250000  0.206340  1
