# generated using pymatgen
data_Cd3Ge(O2F)2
_symmetry_space_group_name_H-M   'P 1'
_cell_length_a   11.53080300
_cell_length_b   9.82723600
_cell_length_c   5.21281800
_cell_angle_alpha   90.00000000
_cell_angle_beta   90.00000000
_cell_angle_gamma   90.00000000
_symmetry_Int_Tables_number   1
_chemical_formula_structural   Cd3Ge(O2F)2
_chemical_formula_sum   'Cd12 Ge4 O16 F8'
_cell_volume   590.69527972
_cell_formula_units_Z   4
loop_
 _symmetry_equiv_pos_site_id
 _symmetry_equiv_pos_as_xyz
  1  'x, y, z'
loop_
 _atom_site_type_symbol
 _atom_site_label
 _atom_site_symmetry_multiplicity
 _atom_site_fract_x
 _atom_site_fract_y
 _atom_site_fract_z
 _atom_site_occupancy
  Cd  Cd0  1  0.912569  0.250000  0.009697  1
  Cd  Cd1  1  0.362158  0.569602  0.009558  1
  Cd  Cd2  1  0.362158  0.930398  0.009558  1
  Cd  Cd3  1  0.862158  0.569602  0.490443  1
  Cd  Cd4  1  0.862158  0.930398  0.490443  1
  Cd  Cd5  1  0.412570  0.250000  0.490304  1
  Cd  Cd6  1  0.587430  0.750000  0.509696  1
  Cd  Cd7  1  0.137842  0.069602  0.509559  1
  Cd  Cd8  1  0.137842  0.430398  0.509559  1
  Cd  Cd9  1  0.637842  0.069602  0.990441  1
  Cd  Cd10  1  0.637842  0.430398  0.990441  1
  Cd  Cd11  1  0.087431  0.750000  0.990302  1
  Ge  Ge12  1  0.222973  0.250000  0.069274  1
  Ge  Ge13  1  0.722972  0.250000  0.430726  1
  Ge  Ge14  1  0.277027  0.750000  0.569275  1
  Ge  Ge15  1  0.777027  0.750000  0.930725  1
  O  O16  1  0.083095  0.250000  0.221102  1
  O  O17  1  0.293416  0.109037  0.225189  1
  O  O18  1  0.293416  0.390964  0.225189  1
  O  O19  1  0.273558  0.750000  0.232149  1
  O  O20  1  0.773558  0.750000  0.267850  1
  O  O21  1  0.793416  0.109037  0.274811  1
  O  O22  1  0.793416  0.390964  0.274811  1
  O  O23  1  0.583095  0.250000  0.278899  1
  O  O24  1  0.416905  0.750000  0.721102  1
  O  O25  1  0.206584  0.609037  0.725190  1
  O  O26  1  0.206584  0.890963  0.725190  1
  O  O27  1  0.226442  0.250000  0.732149  1
  O  O28  1  0.726442  0.250000  0.767851  1
  O  O29  1  0.706584  0.609037  0.774810  1
  O  O30  1  0.706584  0.890963  0.774810  1
  O  O31  1  0.916905  0.750000  0.778898  1
  F  F32  1  0.531111  0.583603  0.232725  1
  F  F33  1  0.531111  0.916397  0.232725  1
  F  F34  1  0.031112  0.583603  0.267275  1
  F  F35  1  0.031112  0.916397  0.267275  1
  F  F36  1  0.968888  0.083603  0.732724  1
  F  F37  1  0.968888  0.416396  0.732724  1
  F  F38  1  0.468888  0.083603  0.767276  1
  F  F39  1  0.468888  0.416396  0.767276  1
