# generated using pymatgen
data_Li4AcLa3Rh4
_symmetry_space_group_name_H-M   'P 1'
_cell_length_a   4.04388500
_cell_length_b   7.17828280
_cell_length_c   8.72425400
_cell_angle_alpha   90.39293224
_cell_angle_beta   90.00000000
_cell_angle_gamma   90.00000000
_symmetry_Int_Tables_number   1
_chemical_formula_structural   Li4AcLa3Rh4
_chemical_formula_sum   'Li4 Ac1 La3 Rh4'
_cell_volume   253.24299973
_cell_formula_units_Z   1
loop_
 _symmetry_equiv_pos_site_id
 _symmetry_equiv_pos_as_xyz
  1  'x, y, z'
loop_
 _atom_site_type_symbol
 _atom_site_label
 _atom_site_symmetry_multiplicity
 _atom_site_fract_x
 _atom_site_fract_y
 _atom_site_fract_z
 _atom_site_occupancy
  Li  Li0  1  0.750000  0.374124  0.051556  1
  Li  Li1  1  0.250000  0.623544  0.951551  1
  Li  Li2  1  0.750000  0.878290  0.449883  1
  Li  Li3  1  0.250000  0.121962  0.548464  1
  Ac  Ac4  1  0.750000  0.454788  0.680818  1
  La  La5  1  0.250000  0.042786  0.180718  1
  La  La6  1  0.750000  0.954150  0.820944  1
  La  La7  1  0.250000  0.545552  0.317325  1
  Rh  Rh8  1  0.250000  0.748583  0.631276  1
  Rh  Rh9  1  0.750000  0.262779  0.363165  1
  Rh  Rh10  1  0.250000  0.232980  0.870615  1
  Rh  Rh11  1  0.750000  0.760463  0.133686  1
