# generated using pymatgen
data_CeY7AlPt24
_symmetry_space_group_name_H-M   'P 1'
_cell_length_a   8.38309138
_cell_length_b   8.38309070
_cell_length_c   8.38309106
_cell_angle_alpha   89.97312916
_cell_angle_beta   90.02686756
_cell_angle_gamma   90.02686513
_symmetry_Int_Tables_number   1
_chemical_formula_structural   CeY7AlPt24
_chemical_formula_sum   'Ce1 Y7 Al1 Pt24'
_cell_volume   589.13171892
_cell_formula_units_Z   1
loop_
 _symmetry_equiv_pos_site_id
 _symmetry_equiv_pos_as_xyz
  1  'x, y, z'
loop_
 _atom_site_type_symbol
 _atom_site_label
 _atom_site_symmetry_multiplicity
 _atom_site_fract_x
 _atom_site_fract_y
 _atom_site_fract_z
 _atom_site_occupancy
  Ce  Ce0  1  0.748165  0.251835  0.251835  1
  Y  Y1  1  0.250391  0.250933  0.250933  1
  Y  Y2  1  0.749445  0.748906  0.748906  1
  Y  Y3  1  0.749067  0.749609  0.250933  1
  Y  Y4  1  0.749067  0.250933  0.749609  1
  Y  Y5  1  0.251094  0.250555  0.748906  1
  Y  Y6  1  0.251094  0.748906  0.250555  1
  Y  Y7  1  0.250940  0.749060  0.749060  1
  Al  Al8  1  0.000613  0.999387  0.999387  1
  Pt  Pt9  1  0.261506  0.499821  0.999467  1
  Pt  Pt10  1  0.738315  0.499455  0.000915  1
  Pt  Pt11  1  0.999085  0.261685  0.499455  1
  Pt  Pt12  1  0.500545  0.261685  0.000915  1
  Pt  Pt13  1  0.000533  0.738494  0.499821  1
  Pt  Pt14  1  0.500179  0.738494  0.999467  1
  Pt  Pt15  1  0.500545  0.000915  0.261685  1
  Pt  Pt16  1  0.261506  0.999467  0.499821  1
  Pt  Pt17  1  0.500179  0.999467  0.738494  1
  Pt  Pt18  1  0.738315  0.000915  0.499455  1
  Pt  Pt19  1  0.999085  0.499455  0.261685  1
  Pt  Pt20  1  0.000533  0.499821  0.738494  1
  Pt  Pt21  1  0.253345  0.500200  0.500200  1
  Pt  Pt22  1  0.746034  0.499717  0.499717  1
  Pt  Pt23  1  0.500283  0.253966  0.499717  1
  Pt  Pt24  1  0.499800  0.746655  0.500200  1
  Pt  Pt25  1  0.500283  0.499717  0.253966  1
  Pt  Pt26  1  0.499800  0.500200  0.746655  1
  Pt  Pt27  1  0.293344  0.999939  0.999939  1
  Pt  Pt28  1  0.706837  0.000026  0.000026  1
  Pt  Pt29  1  0.999974  0.293163  0.000026  1
  Pt  Pt30  1  0.000061  0.706656  0.999939  1
  Pt  Pt31  1  0.999974  0.000026  0.293163  1
  Pt  Pt32  1  0.000061  0.999939  0.706656  1
