# generated using pymatgen
data_Sr3(SnRh)2
_symmetry_space_group_name_H-M   'P 1'
_cell_length_a   6.25252500
_cell_length_b   8.54335700
_cell_length_c   14.48362000
_cell_angle_alpha   90.00000000
_cell_angle_beta   90.00000000
_cell_angle_gamma   90.00000000
_symmetry_Int_Tables_number   1
_chemical_formula_structural   Sr3(SnRh)2
_chemical_formula_sum   'Sr12 Sn8 Rh8'
_cell_volume   773.67954226
_cell_formula_units_Z   4
loop_
 _symmetry_equiv_pos_site_id
 _symmetry_equiv_pos_as_xyz
  1  'x, y, z'
loop_
 _atom_site_type_symbol
 _atom_site_label
 _atom_site_symmetry_multiplicity
 _atom_site_fract_x
 _atom_site_fract_y
 _atom_site_fract_z
 _atom_site_occupancy
  Sr  Sr0  1  0.634504  0.241949  0.250000  1
  Sr  Sr1  1  0.365496  0.758051  0.750000  1
  Sr  Sr2  1  0.365496  0.741949  0.250000  1
  Sr  Sr3  1  0.634504  0.258051  0.750000  1
  Sr  Sr4  1  0.150586  0.396726  0.094949  1
  Sr  Sr5  1  0.849414  0.603274  0.905051  1
  Sr  Sr6  1  0.849414  0.603274  0.594949  1
  Sr  Sr7  1  0.849414  0.896726  0.405051  1
  Sr  Sr8  1  0.150586  0.396726  0.405051  1
  Sr  Sr9  1  0.150586  0.103274  0.594949  1
  Sr  Sr10  1  0.150586  0.103274  0.905051  1
  Sr  Sr11  1  0.849414  0.896726  0.094949  1
  Sn  Sn12  1  0.152464  0.092092  0.250000  1
  Sn  Sn13  1  0.847536  0.907908  0.750000  1
  Sn  Sn14  1  0.847536  0.592092  0.250000  1
  Sn  Sn15  1  0.152464  0.407908  0.750000  1
  Sn  Sn16  1  0.620841  0.250000  0.000000  1
  Sn  Sn17  1  0.379159  0.750000  0.000000  1
  Sn  Sn18  1  0.379159  0.750000  0.500000  1
  Sn  Sn19  1  0.620841  0.250000  0.500000  1
  Rh  Rh20  1  0.371937  0.031603  0.091293  1
  Rh  Rh21  1  0.628063  0.968397  0.908707  1
  Rh  Rh22  1  0.628063  0.968397  0.591293  1
  Rh  Rh23  1  0.628063  0.531603  0.408707  1
  Rh  Rh24  1  0.371937  0.031603  0.408707  1
  Rh  Rh25  1  0.371937  0.468397  0.591293  1
  Rh  Rh26  1  0.371937  0.468397  0.908707  1
  Rh  Rh27  1  0.628063  0.531603  0.091293  1
