# generated using pymatgen
data_Tm3Mg2CdPb2Au
_symmetry_space_group_name_H-M   'P 1'
_cell_length_a   7.49710900
_cell_length_b   7.45810611
_cell_length_c   4.52465400
_cell_angle_alpha   90.00000000
_cell_angle_beta   90.00000000
_cell_angle_gamma   120.17315830
_symmetry_Int_Tables_number   1
_chemical_formula_structural   Tm3Mg2CdPb2Au
_chemical_formula_sum   'Tm3 Mg2 Cd1 Pb2 Au1'
_cell_volume   218.71469309
_cell_formula_units_Z   1
loop_
 _symmetry_equiv_pos_site_id
 _symmetry_equiv_pos_as_xyz
  1  'x, y, z'
loop_
 _atom_site_type_symbol
 _atom_site_label
 _atom_site_symmetry_multiplicity
 _atom_site_fract_x
 _atom_site_fract_y
 _atom_site_fract_z
 _atom_site_occupancy
  Tm  Tm0  1  0.591686  0.000000  0.000000  1
  Tm  Tm1  1  0.003214  0.598549  0.000000  1
  Tm  Tm2  1  0.404666  0.401451  0.000000  1
  Mg  Mg3  1  0.000683  0.230624  0.500000  1
  Mg  Mg4  1  0.770059  0.769376  0.500000  1
  Cd  Cd5  1  0.234924  0.000000  0.500000  1
  Pb  Pb6  1  0.335020  0.662271  0.500000  1
  Pb  Pb7  1  0.672749  0.337729  0.500000  1
  Au  Au8  1  0.986998  0.000000  0.000000  1
