# generated using pymatgen
data_Dy6Sn2B2PtRh11
_symmetry_space_group_name_H-M   'P 1'
_cell_length_a   5.81992937
_cell_length_b   5.84714106
_cell_length_c   13.82815053
_cell_angle_alpha   89.99999890
_cell_angle_beta   89.92887675
_cell_angle_gamma   120.15478670
_symmetry_Int_Tables_number   1
_chemical_formula_structural   Dy6Sn2B2PtRh11
_chemical_formula_sum   'Dy6 Sn2 B2 Pt1 Rh11'
_cell_volume   406.88911234
_cell_formula_units_Z   1
loop_
 _symmetry_equiv_pos_site_id
 _symmetry_equiv_pos_as_xyz
  1  'x, y, z'
loop_
 _atom_site_type_symbol
 _atom_site_label
 _atom_site_symmetry_multiplicity
 _atom_site_fract_x
 _atom_site_fract_y
 _atom_site_fract_z
 _atom_site_occupancy
  Dy  Dy0  1  0.000921  0.000460  0.750556  1
  Dy  Dy1  1  0.993980  0.996990  0.247387  1
  Dy  Dy2  1  0.334805  0.667403  0.412128  1
  Dy  Dy3  1  0.665743  0.332871  0.910721  1
  Dy  Dy4  1  0.671983  0.335991  0.592001  1
  Dy  Dy5  1  0.330391  0.665196  0.088047  1
  Sn  Sn6  1  0.333550  0.666775  0.750531  1
  Sn  Sn7  1  0.672967  0.336483  0.248139  1
  B  B8  1  0.995536  0.997768  0.501994  1
  B  B9  1  0.000278  0.000139  0.999305  1
  Pt  Pt10  1  0.346125  0.173063  0.412688  1
  Rh  Rh11  1  0.829858  0.172490  0.413161  1
  Rh  Rh12  1  0.829858  0.657369  0.413161  1
  Rh  Rh13  1  0.171504  0.343764  0.913064  1
  Rh  Rh14  1  0.655560  0.827779  0.587754  1
  Rh  Rh15  1  0.655604  0.827801  0.913247  1
  Rh  Rh16  1  0.342011  0.171006  0.087095  1
  Rh  Rh17  1  0.173143  0.343905  0.587320  1
  Rh  Rh18  1  0.173143  0.829237  0.587320  1
  Rh  Rh19  1  0.825768  0.170567  0.085658  1
  Rh  Rh20  1  0.825768  0.655202  0.085658  1
  Rh  Rh21  1  0.171504  0.827739  0.913064  1
