# generated using pymatgen
data_DyPa(BeGe)2
_symmetry_space_group_name_H-M   'P 1'
_cell_length_a   3.90545000
_cell_length_b   3.90545008
_cell_length_c   8.12195900
_cell_angle_alpha   90.00000000
_cell_angle_beta   90.00000000
_cell_angle_gamma   119.99999936
_symmetry_Int_Tables_number   1
_chemical_formula_structural   DyPa(BeGe)2
_chemical_formula_sum   'Dy1 Pa1 Be2 Ge2'
_cell_volume   107.28366461
_cell_formula_units_Z   1
loop_
 _symmetry_equiv_pos_site_id
 _symmetry_equiv_pos_as_xyz
  1  'x, y, z'
loop_
 _atom_site_type_symbol
 _atom_site_label
 _atom_site_symmetry_multiplicity
 _atom_site_fract_x
 _atom_site_fract_y
 _atom_site_fract_z
 _atom_site_occupancy
  Dy  Dy0  1  0.000000  0.000000  0.500001  1
  Pa  Pa1  1  0.000000  0.000000  0.000000  1
  Be  Be2  1  0.666667  0.333334  0.238321  1
  Be  Be3  1  0.333334  0.666667  0.761679  1
  Ge  Ge4  1  0.333334  0.666667  0.254042  1
  Ge  Ge5  1  0.666667  0.333334  0.745958  1
