# generated using pymatgen
data_TbY7Sc12Si15Hg
_symmetry_space_group_name_H-M   'P 1'
_cell_length_a   7.14049689
_cell_length_b   7.39893530
_cell_length_c   14.09464993
_cell_angle_alpha   89.94085784
_cell_angle_beta   89.59805667
_cell_angle_gamma   90.19904018
_symmetry_Int_Tables_number   1
_chemical_formula_structural   TbY7Sc12Si15Hg
_chemical_formula_sum   'Tb1 Y7 Sc12 Si15 Hg1'
_cell_volume   744.62636323
_cell_formula_units_Z   1
loop_
 _symmetry_equiv_pos_site_id
 _symmetry_equiv_pos_as_xyz
  1  'x, y, z'
loop_
 _atom_site_type_symbol
 _atom_site_label
 _atom_site_symmetry_multiplicity
 _atom_site_fract_x
 _atom_site_fract_y
 _atom_site_fract_z
 _atom_site_occupancy
  Tb  Tb0  1  0.495929  0.681178  0.600372  1
  Y  Y1  1  0.012511  0.175353  0.097594  1
  Y  Y2  1  0.987208  0.825512  0.903876  1
  Y  Y3  1  0.487202  0.676250  0.903428  1
  Y  Y4  1  0.988143  0.831727  0.598485  1
  Y  Y5  1  0.512359  0.324136  0.096888  1
  Y  Y6  1  0.008242  0.170973  0.398116  1
  Y  Y7  1  0.512327  0.322710  0.398859  1
  Sc  Sc8  1  0.162282  0.500875  0.754369  1
  Sc  Sc9  1  0.837281  0.498986  0.250070  1
  Sc  Sc10  1  0.337823  0.000555  0.248730  1
  Sc  Sc11  1  0.664494  0.997403  0.751673  1
  Sc  Sc12  1  0.341532  0.168302  0.628873  1
  Sc  Sc13  1  0.665005  0.824401  0.373019  1
  Sc  Sc14  1  0.167121  0.677970  0.370844  1
  Sc  Sc15  1  0.669763  0.823584  0.124235  1
  Sc  Sc16  1  0.824661  0.324965  0.626359  1
  Sc  Sc17  1  0.328673  0.174993  0.876136  1
  Sc  Sc18  1  0.829895  0.322781  0.876087  1
  Sc  Sc19  1  0.169272  0.676684  0.124977  1
  Si  Si20  1  0.035004  0.121749  0.751398  1
  Si  Si21  1  0.964407  0.882504  0.247984  1
  Si  Si22  1  0.466093  0.616740  0.247982  1
  Si  Si23  1  0.533467  0.384362  0.752138  1
  Si  Si24  1  0.284806  0.872986  0.751744  1
  Si  Si25  1  0.713016  0.126336  0.247810  1
  Si  Si26  1  0.213780  0.372951  0.248254  1
  Si  Si27  1  0.788761  0.626985  0.752555  1
  Si  Si28  1  0.833690  0.538962  0.459037  1
  Si  Si29  1  0.340398  0.962307  0.460076  1
  Si  Si30  1  0.844495  0.535495  0.038916  1
  Si  Si31  1  0.658378  0.037647  0.537735  1
  Si  Si32  1  0.155244  0.463882  0.961834  1
  Si  Si33  1  0.655365  0.035148  0.960345  1
  Si  Si34  1  0.343654  0.964654  0.039681  1
  Hg  Hg35  1  0.167721  0.457953  0.539519  1
