# generated using pymatgen
data_Tb2Er5Tm5Co4BiOs
_symmetry_space_group_name_H-M   'P 1'
_cell_length_a   8.25835624
_cell_length_b   8.25627884
_cell_length_c   8.24599162
_cell_angle_alpha   110.58858473
_cell_angle_beta   111.29829487
_cell_angle_gamma   106.60140326
_symmetry_Int_Tables_number   1
_chemical_formula_structural   Tb2Er5Tm5Co4BiOs
_chemical_formula_sum   'Tb2 Er5 Tm5 Co4 Bi1 Os1'
_cell_volume   431.78643709
_cell_formula_units_Z   1
loop_
 _symmetry_equiv_pos_site_id
 _symmetry_equiv_pos_as_xyz
  1  'x, y, z'
loop_
 _atom_site_type_symbol
 _atom_site_label
 _atom_site_symmetry_multiplicity
 _atom_site_fract_x
 _atom_site_fract_y
 _atom_site_fract_z
 _atom_site_occupancy
  Tb  Tb0  1  0.279956  0.180925  0.461302  1
  Tb  Tb1  1  0.720023  0.818679  0.538551  1
  Er  Er2  1  0.278408  0.817894  0.096565  1
  Er  Er3  1  0.721497  0.182212  0.903537  1
  Er  Er4  1  0.621944  0.310962  0.308853  1
  Er  Er5  1  0.378067  0.689184  0.691111  1
  Er  Er6  1  0.002167  0.313100  0.691291  1
  Tm  Tm7  1  0.998092  0.686919  0.309065  1
  Tm  Tm8  1  0.214436  0.412058  0.195838  1
  Tm  Tm9  1  0.785467  0.588132  0.804402  1
  Tm  Tm10  1  0.215937  0.018606  0.803870  1
  Tm  Tm11  1  0.783997  0.981067  0.195855  1
  Co  Co12  1  0.999482  0.374752  0.373924  1
  Co  Co13  1  0.000452  0.625531  0.625657  1
  Co  Co14  1  0.388383  0.888484  0.499913  1
  Co  Co15  1  0.611326  0.111194  0.500078  1
  Bi  Bi16  1  0.500158  0.500062  0.000090  1
  Os  Os17  1  0.000210  0.000239  0.000098  1
