# generated using pymatgen
data_Hf16Fe4CuIr3
_symmetry_space_group_name_H-M   'P 1'
_cell_length_a   8.60139009
_cell_length_b   8.60139087
_cell_length_c   8.60139100
_cell_angle_alpha   59.76580583
_cell_angle_beta   59.76580281
_cell_angle_gamma   59.76580173
_symmetry_Int_Tables_number   1
_chemical_formula_structural   Hf16Fe4CuIr3
_chemical_formula_sum   'Hf16 Fe4 Cu1 Ir3'
_cell_volume   447.58493252
_cell_formula_units_Z   1
loop_
 _symmetry_equiv_pos_site_id
 _symmetry_equiv_pos_as_xyz
  1  'x, y, z'
loop_
 _atom_site_type_symbol
 _atom_site_label
 _atom_site_symmetry_multiplicity
 _atom_site_fract_x
 _atom_site_fract_y
 _atom_site_fract_z
 _atom_site_occupancy
  Hf  Hf0  1  0.185039  0.604796  0.604796  1
  Hf  Hf1  1  0.604796  0.185039  0.604796  1
  Hf  Hf2  1  0.604796  0.604796  0.185039  1
  Hf  Hf3  1  0.603425  0.603425  0.603425  1
  Hf  Hf4  1  0.811628  0.811628  0.194640  1
  Hf  Hf5  1  0.189370  0.189370  0.811498  1
  Hf  Hf6  1  0.811628  0.194640  0.811628  1
  Hf  Hf7  1  0.189370  0.811498  0.189370  1
  Hf  Hf8  1  0.194640  0.811628  0.811628  1
  Hf  Hf9  1  0.811498  0.189370  0.189370  1
  Hf  Hf10  1  0.445471  0.445471  0.054912  1
  Hf  Hf11  1  0.055265  0.055265  0.442371  1
  Hf  Hf12  1  0.445471  0.054912  0.445471  1
  Hf  Hf13  1  0.055265  0.442371  0.055265  1
  Hf  Hf14  1  0.054912  0.445471  0.445471  1
  Hf  Hf15  1  0.442371  0.055265  0.055265  1
  Fe  Fe16  1  0.825576  0.390836  0.390836  1
  Fe  Fe17  1  0.390836  0.825576  0.390836  1
  Fe  Fe18  1  0.390836  0.390836  0.825576  1
  Fe  Fe19  1  0.392682  0.392682  0.392682  1
  Cu  Cu20  1  0.829815  0.829815  0.829815  1
  Ir  Ir21  1  0.496987  0.834163  0.834163  1
  Ir  Ir22  1  0.834163  0.496987  0.834163  1
  Ir  Ir23  1  0.834163  0.834163  0.496987  1
