# generated using pymatgen
data_Hf3Zr5(Co4As3)4
_symmetry_space_group_name_H-M   'P 1'
_cell_length_a   12.55093600
_cell_length_b   12.55273200
_cell_length_c   3.77580700
_cell_angle_alpha   90.00000000
_cell_angle_beta   90.00000000
_cell_angle_gamma   120.07458147
_symmetry_Int_Tables_number   1
_chemical_formula_structural   Hf3Zr5(Co4As3)4
_chemical_formula_sum   'Hf3 Zr5 Co16 As12'
_cell_volume   514.78740603
_cell_formula_units_Z   1
loop_
 _symmetry_equiv_pos_site_id
 _symmetry_equiv_pos_as_xyz
  1  'x, y, z'
loop_
 _atom_site_type_symbol
 _atom_site_label
 _atom_site_symmetry_multiplicity
 _atom_site_fract_x
 _atom_site_fract_y
 _atom_site_fract_z
 _atom_site_occupancy
  Hf  Hf0  1  0.825685  0.825971  0.500000  1
  Hf  Hf1  1  0.442657  0.442585  0.000000  1
  Hf  Hf2  1  0.557804  0.999756  0.000000  1
  Zr  Zr3  1  0.999947  0.175190  0.500000  1
  Zr  Zr4  1  0.333523  0.666644  0.000000  1
  Zr  Zr5  1  0.666432  0.333118  0.000000  1
  Zr  Zr6  1  0.999887  0.557098  0.000000  1
  Zr  Zr7  1  0.175575  0.000242  0.500000  1
  Co  Co8  1  0.627086  0.822099  0.000000  1
  Co  Co9  1  0.373812  0.195889  0.000000  1
  Co  Co10  1  0.999572  0.719777  0.500000  1
  Co  Co11  1  0.281669  0.281727  0.500000  1
  Co  Co12  1  0.876284  0.355265  0.500000  1
  Co  Co13  1  0.718464  0.999579  0.500000  1
  Co  Co14  1  0.821628  0.627721  0.000000  1
  Co  Co15  1  0.178159  0.805162  0.000000  1
  Co  Co16  1  0.357074  0.877251  0.500000  1
  Co  Co17  1  0.123658  0.479001  0.500000  1
  Co  Co18  1  0.643056  0.520299  0.500000  1
  Co  Co19  1  0.998642  0.998590  0.000000  1
  Co  Co20  1  0.520384  0.643627  0.500000  1
  Co  Co21  1  0.479628  0.123024  0.500000  1
  Co  Co22  1  0.196172  0.373822  0.000000  1
  Co  Co23  1  0.803725  0.177328  0.000000  1
  As  As24  1  0.000063  0.345138  0.000000  1
  As  As25  1  0.824660  0.514818  0.500000  1
  As  As26  1  0.689070  0.174088  0.500000  1
  As  As27  1  0.175427  0.175366  0.000000  1
  As  As28  1  0.654411  0.654821  0.000000  1
  As  As29  1  0.823676  0.999386  0.000000  1
  As  As30  1  0.514924  0.825496  0.500000  1
  As  As31  1  0.175241  0.690245  0.500000  1
  As  As32  1  0.346689  0.000469  0.000000  1
  As  As33  1  0.484926  0.310493  0.500000  1
  As  As34  1  0.999476  0.823823  0.000000  1
  As  As35  1  0.310912  0.485091  0.500000  1
