# generated using pymatgen
data_Er5Lu5GaSb5
_symmetry_space_group_name_H-M   'P 1'
_cell_length_a   8.76137700
_cell_length_b   8.77275181
_cell_length_c   6.25142000
_cell_angle_alpha   90.00000000
_cell_angle_beta   90.00000000
_cell_angle_gamma   119.95711410
_symmetry_Int_Tables_number   1
_chemical_formula_structural   Er5Lu5GaSb5
_chemical_formula_sum   'Er5 Lu5 Ga1 Sb5'
_cell_volume   416.29868341
_cell_formula_units_Z   1
loop_
 _symmetry_equiv_pos_site_id
 _symmetry_equiv_pos_as_xyz
  1  'x, y, z'
loop_
 _atom_site_type_symbol
 _atom_site_label
 _atom_site_symmetry_multiplicity
 _atom_site_fract_x
 _atom_site_fract_y
 _atom_site_fract_z
 _atom_site_occupancy
  Er  Er0  1  0.247363  0.000000  0.250000  1
  Er  Er1  1  0.988107  0.234066  0.250000  1
  Er  Er2  1  0.754041  0.765934  0.250000  1
  Er  Er3  1  0.243624  0.242348  0.750000  1
  Er  Er4  1  0.001273  0.757652  0.750000  1
  Lu  Lu5  1  0.339630  0.674540  0.002078  1
  Lu  Lu6  1  0.665090  0.325460  0.497922  1
  Lu  Lu7  1  0.665090  0.325460  0.002078  1
  Lu  Lu8  1  0.339630  0.674540  0.497922  1
  Lu  Lu9  1  0.758729  0.000000  0.750000  1
  Ga  Ga10  1  0.603314  0.000000  0.250000  1
  Sb  Sb11  1  0.394922  0.000000  0.750000  1
  Sb  Sb12  1  0.997847  0.608059  0.250000  1
  Sb  Sb13  1  0.389787  0.391941  0.250000  1
  Sb  Sb14  1  0.608887  0.606223  0.750000  1
  Sb  Sb15  1  0.002664  0.393777  0.750000  1
