# generated using pymatgen
data_YHo4Re2C7
_symmetry_space_group_name_H-M   'P 1'
_cell_length_a   8.31220978
_cell_length_b   8.31220934
_cell_length_c   3.41282700
_cell_angle_alpha   90.00000000
_cell_angle_beta   90.00000000
_cell_angle_gamma   122.52268342
_symmetry_Int_Tables_number   1
_chemical_formula_structural   YHo4Re2C7
_chemical_formula_sum   'Y1 Ho4 Re2 C7'
_cell_volume   198.82310384
_cell_formula_units_Z   1
loop_
 _symmetry_equiv_pos_site_id
 _symmetry_equiv_pos_as_xyz
  1  'x, y, z'
loop_
 _atom_site_type_symbol
 _atom_site_label
 _atom_site_symmetry_multiplicity
 _atom_site_fract_x
 _atom_site_fract_y
 _atom_site_fract_z
 _atom_site_occupancy
  Y  Y0  1  0.500000  0.500000  0.000000  1
  Ho  Ho1  1  0.076106  0.335353  0.500000  1
  Ho  Ho2  1  0.923894  0.664647  0.500000  1
  Ho  Ho3  1  0.664647  0.923894  0.500000  1
  Ho  Ho4  1  0.335353  0.076106  0.500000  1
  Re  Re5  1  0.714918  0.285082  0.000000  1
  Re  Re6  1  0.285082  0.714918  0.000000  1
  C  C7  1  0.627161  0.372839  0.500000  1
  C  C8  1  0.372839  0.627161  0.500000  1
  C  C9  1  0.000000  0.000000  0.000000  1
  C  C10  1  0.169658  0.169658  0.000000  1
  C  C11  1  0.830342  0.830342  0.000000  1
  C  C12  1  0.000000  0.500000  0.000000  1
  C  C13  1  0.500000  0.000000  0.000000  1
