# generated using pymatgen
data_Pr3Nd3Al24Ru7Pt
_symmetry_space_group_name_H-M   'P 1'
_cell_length_a   8.92897197
_cell_length_b   8.92602132
_cell_length_c   9.68862600
_cell_angle_alpha   89.83888309
_cell_angle_beta   90.15878187
_cell_angle_gamma   119.84467189
_symmetry_Int_Tables_number   1
_chemical_formula_structural   Pr3Nd3Al24Ru7Pt
_chemical_formula_sum   'Pr3 Nd3 Al24 Ru7 Pt1'
_cell_volume   669.77289785
_cell_formula_units_Z   1
loop_
 _symmetry_equiv_pos_site_id
 _symmetry_equiv_pos_as_xyz
  1  'x, y, z'
loop_
 _atom_site_type_symbol
 _atom_site_label
 _atom_site_symmetry_multiplicity
 _atom_site_fract_x
 _atom_site_fract_y
 _atom_site_fract_z
 _atom_site_occupancy
  Pr  Pr0  1  0.191206  0.384248  0.250393  1
  Pr  Pr1  1  0.808674  0.615610  0.749609  1
  Pr  Pr2  1  0.615725  0.808781  0.250405  1
  Nd  Nd3  1  0.384265  0.191204  0.749570  1
  Nd  Nd4  1  0.193299  0.806681  0.250127  1
  Nd  Nd5  1  0.806598  0.193344  0.749861  1
  Al  Al6  1  0.330825  0.669192  0.011772  1
  Al  Al7  1  0.668968  0.330716  0.988033  1
  Al  Al8  1  0.666886  0.332819  0.510081  1
  Al  Al9  1  0.332925  0.667078  0.490113  1
  Al  Al10  1  0.162307  0.324856  0.577289  1
  Al  Al11  1  0.837843  0.675062  0.422805  1
  Al  Al12  1  0.675084  0.837843  0.577216  1
  Al  Al13  1  0.841812  0.676231  0.076787  1
  Al  Al14  1  0.324959  0.162166  0.422999  1
  Al  Al15  1  0.158318  0.323701  0.923135  1
  Al  Al16  1  0.163034  0.837315  0.576238  1
  Al  Al17  1  0.323801  0.158210  0.076598  1
  Al  Al18  1  0.837113  0.162909  0.423858  1
  Al  Al19  1  0.676254  0.841815  0.923198  1
  Al  Al20  1  0.837350  0.162647  0.076324  1
  Al  Al21  1  0.162789  0.837566  0.923584  1
  Al  Al22  1  0.561828  0.125087  0.249065  1
  Al  Al23  1  0.438125  0.875266  0.750921  1
  Al  Al24  1  0.874936  0.438176  0.249085  1
  Al  Al25  1  0.125068  0.561838  0.750916  1
  Al  Al26  1  0.563316  0.436658  0.252666  1
  Al  Al27  1  0.436652  0.562968  0.747337  1
  Al  Al28  1  0.999900  0.000085  0.250059  1
  Al  Al29  1  0.000418  0.000089  0.749939  1
  Ru  Ru30  1  0.499916  0.000101  0.999859  1
  Ru  Ru31  1  0.999945  0.499965  0.999962  1
  Ru  Ru32  1  0.499927  0.000108  0.500127  1
  Ru  Ru33  1  0.999919  0.499956  0.500049  1
  Ru  Ru34  1  0.499927  0.499803  0.500143  1
  Ru  Ru35  1  0.000082  0.000040  0.999912  1
  Ru  Ru36  1  0.000072  0.000027  0.500088  1
  Pt  Pt37  1  0.499932  0.499842  0.999876  1
