# generated using pymatgen
data_Tb8Lu2In8Pt3Rh
_symmetry_space_group_name_H-M   'P 1'
_cell_length_a   3.64458900
_cell_length_b   8.13501704
_cell_length_c   18.22041661
_cell_angle_alpha   89.70376281
_cell_angle_beta   90.00000000
_cell_angle_gamma   90.00000000
_symmetry_Int_Tables_number   1
_chemical_formula_structural   Tb8Lu2In8Pt3Rh
_chemical_formula_sum   'Tb8 Lu2 In8 Pt3 Rh1'
_cell_volume   540.20615120
_cell_formula_units_Z   1
loop_
 _symmetry_equiv_pos_site_id
 _symmetry_equiv_pos_as_xyz
  1  'x, y, z'
loop_
 _atom_site_type_symbol
 _atom_site_label
 _atom_site_symmetry_multiplicity
 _atom_site_fract_x
 _atom_site_fract_y
 _atom_site_fract_z
 _atom_site_occupancy
  Tb  Tb0  1  0.000000  0.383456  0.914994  1
  Tb  Tb1  1  0.000000  0.617056  0.086445  1
  Tb  Tb2  1  0.000000  0.237508  0.222599  1
  Tb  Tb3  1  0.000000  0.759314  0.779540  1
  Tb  Tb4  1  0.000000  0.260098  0.717445  1
  Tb  Tb5  1  0.000000  0.748009  0.281663  1
  Tb  Tb6  1  0.000000  0.000215  0.000015  1
  Tb  Tb7  1  0.000000  0.500021  0.499723  1
  Lu  Lu8  1  0.000000  0.112453  0.411916  1
  Lu  Lu9  1  0.000000  0.884027  0.585440  1
  In  In10  1  0.500000  0.417052  0.352438  1
  In  In11  1  0.500000  0.581627  0.647555  1
  In  In12  1  0.500000  0.077731  0.849308  1
  In  In13  1  0.500000  0.927858  0.151150  1
  In  In14  1  0.500000  0.291689  0.067791  1
  In  In15  1  0.500000  0.708342  0.933835  1
  In  In16  1  0.500000  0.201457  0.562606  1
  In  In17  1  0.500000  0.797142  0.434340  1
  Pt  Pt18  1  0.500000  0.975748  0.693180  1
  Pt  Pt19  1  0.500000  0.476389  0.802602  1
  Pt  Pt20  1  0.500000  0.522118  0.198346  1
  Rh  Rh21  1  0.500000  0.020690  0.307070  1
