# generated using pymatgen
data_La3ThTe7Pd
_symmetry_space_group_name_H-M   'P 1'
_cell_length_a   4.41468995
_cell_length_b   9.03137700
_cell_length_c   9.20085867
_cell_angle_alpha   90.00000000
_cell_angle_beta   90.01503342
_cell_angle_gamma   90.00000000
_symmetry_Int_Tables_number   1
_chemical_formula_structural   La3ThTe7Pd
_chemical_formula_sum   'La3 Th1 Te7 Pd1'
_cell_volume   366.84493207
_cell_formula_units_Z   1
loop_
 _symmetry_equiv_pos_site_id
 _symmetry_equiv_pos_as_xyz
  1  'x, y, z'
loop_
 _atom_site_type_symbol
 _atom_site_label
 _atom_site_symmetry_multiplicity
 _atom_site_fract_x
 _atom_site_fract_y
 _atom_site_fract_z
 _atom_site_occupancy
  La  La0  1  0.000532  0.250000  0.747086  1
  La  La1  1  0.499939  0.003091  0.264936  1
  La  La2  1  0.499939  0.496909  0.264936  1
  Th  Th3  1  0.001125  0.750000  0.721537  1
  Te  Te4  1  0.999368  0.953412  0.997261  1
  Te  Te5  1  0.999368  0.546588  0.997261  1
  Te  Te6  1  0.500254  0.250000  0.003902  1
  Te  Te7  1  0.999821  0.750000  0.365825  1
  Te  Te8  1  0.999910  0.250000  0.375887  1
  Te  Te9  1  0.500624  0.994139  0.635758  1
  Te  Te10  1  0.500624  0.505861  0.635758  1
  Pd  Pd11  1  0.498495  0.750000  0.990778  1
