# generated using pymatgen
data_TbEr11Co4BiRh
_symmetry_space_group_name_H-M   'P 1'
_cell_length_a   8.26574414
_cell_length_b   8.26606472
_cell_length_c   8.26095136
_cell_angle_alpha   110.74663626
_cell_angle_beta   110.97711548
_cell_angle_gamma   106.74800853
_symmetry_Int_Tables_number   1
_chemical_formula_structural   TbEr11Co4BiRh
_chemical_formula_sum   'Tb1 Er11 Co4 Bi1 Rh1'
_cell_volume   433.63278466
_cell_formula_units_Z   1
loop_
 _symmetry_equiv_pos_site_id
 _symmetry_equiv_pos_as_xyz
  1  'x, y, z'
loop_
 _atom_site_type_symbol
 _atom_site_label
 _atom_site_symmetry_multiplicity
 _atom_site_fract_x
 _atom_site_fract_y
 _atom_site_fract_z
 _atom_site_occupancy
  Tb  Tb0  1  0.287831  0.184430  0.472281  1
  Er  Er1  1  0.712502  0.816219  0.528721  1
  Er  Er2  1  0.287705  0.815377  0.103033  1
  Er  Er3  1  0.712775  0.183953  0.896725  1
  Er  Er4  1  0.620510  0.311677  0.308385  1
  Er  Er5  1  0.380116  0.689339  0.691577  1
  Er  Er6  1  0.002272  0.311457  0.691581  1
  Er  Er7  1  0.996797  0.687935  0.308470  1
  Er  Er8  1  0.211035  0.409391  0.197181  1
  Er  Er9  1  0.789413  0.591596  0.802823  1
  Er  Er10  1  0.211185  0.013374  0.802830  1
  Er  Er11  1  0.787767  0.986126  0.197169  1
  Co  Co12  1  0.999299  0.376354  0.375671  1
  Co  Co13  1  0.000102  0.623896  0.624002  1
  Co  Co14  1  0.389263  0.887963  0.500155  1
  Co  Co15  1  0.612217  0.110932  0.500164  1
  Bi  Bi16  1  0.500030  0.500041  0.000091  1
  Rh  Rh17  1  0.999180  0.999943  0.999145  1
