# generated using pymatgen
data_Y3ErFeTc7
_symmetry_space_group_name_H-M   'P 1'
_cell_length_a   5.41345938
_cell_length_b   5.41346429
_cell_length_c   8.83376201
_cell_angle_alpha   89.99678289
_cell_angle_beta   90.00350846
_cell_angle_gamma   121.63206153
_symmetry_Int_Tables_number   1
_chemical_formula_structural   Y3ErFeTc7
_chemical_formula_sum   'Y3 Er1 Fe1 Tc7'
_cell_volume   220.41778396
_cell_formula_units_Z   1
loop_
 _symmetry_equiv_pos_site_id
 _symmetry_equiv_pos_as_xyz
  1  'x, y, z'
loop_
 _atom_site_type_symbol
 _atom_site_label
 _atom_site_symmetry_multiplicity
 _atom_site_fract_x
 _atom_site_fract_y
 _atom_site_fract_z
 _atom_site_occupancy
  Y  Y0  1  0.334642  0.665357  0.436480  1
  Y  Y1  1  0.666428  0.333572  0.561613  1
  Y  Y2  1  0.666467  0.333537  0.938629  1
  Er  Er3  1  0.334763  0.665232  0.063136  1
  Fe  Fe4  1  0.828436  0.171560  0.249636  1
  Tc  Tc5  1  0.002735  0.997267  0.492130  1
  Tc  Tc6  1  0.002631  0.997379  0.008055  1
  Tc  Tc7  1  0.823949  0.658578  0.249558  1
  Tc  Tc8  1  0.341421  0.176048  0.249557  1
  Tc  Tc9  1  0.169133  0.830865  0.750401  1
  Tc  Tc10  1  0.169918  0.340523  0.750404  1
  Tc  Tc11  1  0.659477  0.830082  0.750401  1
