# generated using pymatgen
data_Pr5Nd5Sn20Pd5Rh3
_symmetry_space_group_name_H-M   'P 1'
_cell_length_a   14.31049095
_cell_length_b   14.31837222
_cell_length_c   4.65207300
_cell_angle_alpha   90.00000000
_cell_angle_beta   90.00000000
_cell_angle_gamma   90.00285765
_symmetry_Int_Tables_number   1
_chemical_formula_structural   Pr5Nd5Sn20Pd5Rh3
_chemical_formula_sum   'Pr5 Nd5 Sn20 Pd5 Rh3'
_cell_volume   953.22341542
_cell_formula_units_Z   1
loop_
 _symmetry_equiv_pos_site_id
 _symmetry_equiv_pos_as_xyz
  1  'x, y, z'
loop_
 _atom_site_type_symbol
 _atom_site_label
 _atom_site_symmetry_multiplicity
 _atom_site_fract_x
 _atom_site_fract_y
 _atom_site_fract_z
 _atom_site_occupancy
  Pr  Pr0  1  0.000921  0.999810  0.000000  1
  Pr  Pr1  1  0.892346  0.390427  0.500000  1
  Pr  Pr2  1  0.107007  0.609848  0.500000  1
  Pr  Pr3  1  0.391956  0.110046  0.500000  1
  Pr  Pr4  1  0.608936  0.890852  0.500000  1
  Nd  Nd5  1  0.500792  0.497308  0.000000  1
  Nd  Nd6  1  0.678271  0.180213  0.500000  1
  Nd  Nd7  1  0.320116  0.821344  0.500000  1
  Nd  Nd8  1  0.177393  0.319991  0.500000  1
  Nd  Nd9  1  0.822090  0.679390  0.500000  1
  Sn  Sn10  1  0.567753  0.071869  0.000000  1
  Sn  Sn11  1  0.432067  0.932093  0.000000  1
  Sn  Sn12  1  0.067427  0.428884  0.000000  1
  Sn  Sn13  1  0.932763  0.571168  0.000000  1
  Sn  Sn14  1  0.653818  0.700214  0.000000  1
  Sn  Sn15  1  0.347506  0.298054  0.000000  1
  Sn  Sn16  1  0.151475  0.798592  0.000000  1
  Sn  Sn17  1  0.848021  0.201372  0.000000  1
  Sn  Sn18  1  0.299599  0.653792  0.000000  1
  Sn  Sn19  1  0.698157  0.345995  0.000000  1
  Sn  Sn20  1  0.197726  0.153947  0.000000  1
  Sn  Sn21  1  0.802635  0.846832  0.000000  1
  Sn  Sn22  1  0.662471  0.501271  0.500000  1
  Sn  Sn23  1  0.338049  0.495973  0.500000  1
  Sn  Sn24  1  0.162228  0.997538  0.500000  1
  Sn  Sn25  1  0.838050  0.003362  0.500000  1
  Sn  Sn26  1  0.497355  0.661540  0.500000  1
  Sn  Sn27  1  0.504104  0.336035  0.500000  1
  Sn  Sn28  1  0.004449  0.163642  0.500000  1
  Sn  Sn29  1  0.995341  0.835992  0.500000  1
  Pd  Pd30  1  0.745933  0.530127  0.000000  1
  Pd  Pd31  1  0.254170  0.469815  0.000000  1
  Pd  Pd32  1  0.245670  0.969546  0.000000  1
  Pd  Pd33  1  0.753741  0.030182  0.000000  1
  Pd  Pd34  1  0.469511  0.746092  0.000000  1
  Rh  Rh35  1  0.530535  0.256800  0.000000  1
  Rh  Rh36  1  0.030517  0.243975  0.000000  1
  Rh  Rh37  1  0.969097  0.756071  0.000000  1
