# generated using pymatgen
data_Nd4Er6Si7Rh
_symmetry_space_group_name_H-M   'P 1'
_cell_length_a   7.46039715
_cell_length_b   14.67755261
_cell_length_c   7.79444619
_cell_angle_alpha   90.17996556
_cell_angle_beta   90.04866265
_cell_angle_gamma   90.33322866
_symmetry_Int_Tables_number   1
_chemical_formula_structural   Nd4Er6Si7Rh
_chemical_formula_sum   'Nd8 Er12 Si14 Rh2'
_cell_volume   853.47578881
_cell_formula_units_Z   2
loop_
 _symmetry_equiv_pos_site_id
 _symmetry_equiv_pos_as_xyz
  1  'x, y, z'
loop_
 _atom_site_type_symbol
 _atom_site_label
 _atom_site_symmetry_multiplicity
 _atom_site_fract_x
 _atom_site_fract_y
 _atom_site_fract_z
 _atom_site_occupancy
  Nd  Nd0  1  0.020336  0.097501  0.180634  1
  Nd  Nd1  1  0.023957  0.399246  0.183700  1
  Nd  Nd2  1  0.519237  0.097652  0.323408  1
  Nd  Nd3  1  0.522948  0.403575  0.318949  1
  Nd  Nd4  1  0.480835  0.596581  0.682128  1
  Nd  Nd5  1  0.474805  0.902961  0.677349  1
  Nd  Nd6  1  0.978046  0.596582  0.825949  1
  Nd  Nd7  1  0.978915  0.904176  0.820965  1
  Er  Er8  1  0.346281  0.251001  0.012396  1
  Er  Er9  1  0.322602  0.624173  0.169327  1
  Er  Er10  1  0.308555  0.873778  0.172446  1
  Er  Er11  1  0.826204  0.621286  0.311397  1
  Er  Er12  1  0.825331  0.874826  0.316324  1
  Er  Er13  1  0.845776  0.251386  0.496206  1
  Er  Er14  1  0.148570  0.747036  0.509092  1
  Er  Er15  1  0.180237  0.124321  0.678251  1
  Er  Er16  1  0.180273  0.375469  0.679698  1
  Er  Er17  1  0.677923  0.123394  0.822867  1
  Er  Er18  1  0.680207  0.380679  0.837265  1
  Er  Er19  1  0.663072  0.747945  0.990686  1
  Si  Si20  1  0.643333  0.961078  0.031211  1
  Si  Si21  1  0.727994  0.248255  0.126118  1
  Si  Si22  1  0.227997  0.249141  0.378111  1
  Si  Si23  1  0.524805  0.750914  0.391753  1
  Si  Si24  1  0.151410  0.537649  0.468925  1
  Si  Si25  1  0.148378  0.961017  0.470540  1
  Si  Si26  1  0.853383  0.039583  0.531167  1
  Si  Si27  1  0.857987  0.460388  0.534040  1
  Si  Si28  1  0.477208  0.251389  0.615276  1
  Si  Si29  1  0.765889  0.752270  0.616867  1
  Si  Si30  1  0.271323  0.751369  0.869592  1
  Si  Si31  1  0.972188  0.249006  0.888705  1
  Si  Si32  1  0.351459  0.039437  0.967802  1
  Si  Si33  1  0.348269  0.458845  0.969303  1
  Rh  Rh34  1  0.648552  0.545771  0.025943  1
  Rh  Rh35  1  0.025715  0.750312  0.105609  1
