# generated using pymatgen
data_Dy5Tm3(P3Ir4)4
_symmetry_space_group_name_H-M   'P 1'
_cell_length_a   12.95348500
_cell_length_b   12.95348605
_cell_length_c   3.99478700
_cell_angle_alpha   90.00000000
_cell_angle_beta   90.00000000
_cell_angle_gamma   119.99999988
_symmetry_Int_Tables_number   1
_chemical_formula_structural   Dy5Tm3(P3Ir4)4
_chemical_formula_sum   'Dy5 Tm3 P12 Ir16'
_cell_volume   580.49375028
_cell_formula_units_Z   1
loop_
 _symmetry_equiv_pos_site_id
 _symmetry_equiv_pos_as_xyz
  1  'x, y, z'
loop_
 _atom_site_type_symbol
 _atom_site_label
 _atom_site_symmetry_multiplicity
 _atom_site_fract_x
 _atom_site_fract_y
 _atom_site_fract_z
 _atom_site_occupancy
  Dy  Dy0  1  0.333333  0.666667  0.500000  1
  Dy  Dy1  1  0.666667  0.333333  0.500000  1
  Dy  Dy2  1  0.000000  0.814333  0.000000  1
  Dy  Dy3  1  0.185667  0.185667  0.000000  1
  Dy  Dy4  1  0.814333  0.000000  0.000000  1
  Tm  Tm5  1  0.000000  0.446236  0.500000  1
  Tm  Tm6  1  0.553764  0.553764  0.500000  1
  Tm  Tm7  1  0.446236  0.000000  0.500000  1
  P  P8  1  0.000000  0.652139  0.500000  1
  P  P9  1  0.347861  0.347861  0.500000  1
  P  P10  1  0.652139  0.000000  0.500000  1
  P  P11  1  0.516797  0.688287  0.000000  1
  P  P12  1  0.311713  0.828510  0.000000  1
  P  P13  1  0.171490  0.483203  0.000000  1
  P  P14  1  0.483203  0.171490  0.000000  1
  P  P15  1  0.688287  0.516797  0.000000  1
  P  P16  1  0.828510  0.311713  0.000000  1
  P  P17  1  0.000000  0.176548  0.500000  1
  P  P18  1  0.823452  0.823452  0.500000  1
  P  P19  1  0.176548  0.000000  0.500000  1
  Ir  Ir20  1  0.509285  0.865968  0.000000  1
  Ir  Ir21  1  0.134032  0.643317  0.000000  1
  Ir  Ir22  1  0.356683  0.490715  0.000000  1
  Ir  Ir23  1  0.490715  0.356683  0.000000  1
  Ir  Ir24  1  0.865968  0.509285  0.000000  1
  Ir  Ir25  1  0.643317  0.134032  0.000000  1
  Ir  Ir26  1  0.000000  0.275448  0.000000  1
  Ir  Ir27  1  0.724552  0.724552  0.000000  1
  Ir  Ir28  1  0.275448  0.000000  0.000000  1
  Ir  Ir29  1  0.629957  0.808674  0.500000  1
  Ir  Ir30  1  0.191326  0.821283  0.500000  1
  Ir  Ir31  1  0.178717  0.370043  0.500000  1
  Ir  Ir32  1  0.370043  0.178717  0.500000  1
  Ir  Ir33  1  0.808674  0.629957  0.500000  1
  Ir  Ir34  1  0.821283  0.191326  0.500000  1
  Ir  Ir35  1  0.000000  0.000000  0.500000  1
