# generated using pymatgen
data_Ce2Tc3Ni
_symmetry_space_group_name_H-M   'P 1'
_cell_length_a   5.21896365
_cell_length_b   5.21896375
_cell_length_c   5.49404059
_cell_angle_alpha   61.64287409
_cell_angle_beta   61.64287429
_cell_angle_gamma   59.99999914
_symmetry_Int_Tables_number   1
_chemical_formula_structural   Ce2Tc3Ni
_chemical_formula_sum   'Ce2 Tc3 Ni1'
_cell_volume   108.36644832
_cell_formula_units_Z   1
loop_
 _symmetry_equiv_pos_site_id
 _symmetry_equiv_pos_as_xyz
  1  'x, y, z'
loop_
 _atom_site_type_symbol
 _atom_site_label
 _atom_site_symmetry_multiplicity
 _atom_site_fract_x
 _atom_site_fract_y
 _atom_site_fract_z
 _atom_site_occupancy
  Ce  Ce0  1  0.500143  0.500143  0.499570  1
  Ce  Ce1  1  0.749857  0.749857  0.750430  1
  Tc  Tc2  1  0.125000  0.125000  0.125000  1
  Tc  Tc3  1  0.625000  0.125000  0.125000  1
  Tc  Tc4  1  0.125000  0.625000  0.125000  1
  Ni  Ni5  1  0.125000  0.125000  0.625000  1
