# generated using pymatgen
data_LiDy8Sc10Si16Ru
_symmetry_space_group_name_H-M   'P 1'
_cell_length_a   6.96825702
_cell_length_b   7.35638825
_cell_length_c   13.92822100
_cell_angle_alpha   90.00000000
_cell_angle_beta   90.00000000
_cell_angle_gamma   89.98972955
_symmetry_Int_Tables_number   1
_chemical_formula_structural   LiDy8Sc10Si16Ru
_chemical_formula_sum   'Li1 Dy8 Sc10 Si16 Ru1'
_cell_volume   713.97736745
_cell_formula_units_Z   1
loop_
 _symmetry_equiv_pos_site_id
 _symmetry_equiv_pos_as_xyz
  1  'x, y, z'
loop_
 _atom_site_type_symbol
 _atom_site_label
 _atom_site_symmetry_multiplicity
 _atom_site_fract_x
 _atom_site_fract_y
 _atom_site_fract_z
 _atom_site_occupancy
  Li  Li0  1  0.842218  0.494760  0.250000  1
  Dy  Dy1  1  0.010772  0.184698  0.095752  1
  Dy  Dy2  1  0.992708  0.818813  0.901060  1
  Dy  Dy3  1  0.488683  0.672978  0.902522  1
  Dy  Dy4  1  0.992708  0.818813  0.598940  1
  Dy  Dy5  1  0.515956  0.325586  0.096346  1
  Dy  Dy6  1  0.010772  0.184698  0.404248  1
  Dy  Dy7  1  0.515956  0.325586  0.403654  1
  Dy  Dy8  1  0.488683  0.672978  0.597478  1
  Sc  Sc9  1  0.343992  0.001702  0.250000  1
  Sc  Sc10  1  0.657632  0.997295  0.750000  1
  Sc  Sc11  1  0.325849  0.177528  0.626823  1
  Sc  Sc12  1  0.675290  0.819594  0.374105  1
  Sc  Sc13  1  0.167760  0.670759  0.375433  1
  Sc  Sc14  1  0.675290  0.819594  0.125895  1
  Sc  Sc15  1  0.824771  0.330076  0.628170  1
  Sc  Sc16  1  0.325849  0.177528  0.873177  1
  Sc  Sc17  1  0.824771  0.330076  0.871830  1
  Sc  Sc18  1  0.167760  0.670759  0.124567  1
  Si  Si19  1  0.029270  0.118443  0.750000  1
  Si  Si20  1  0.973200  0.894445  0.250000  1
  Si  Si21  1  0.467044  0.614082  0.250000  1
  Si  Si22  1  0.515646  0.394416  0.750000  1
  Si  Si23  1  0.285533  0.865877  0.750000  1
  Si  Si24  1  0.715639  0.119697  0.250000  1
  Si  Si25  1  0.220700  0.373546  0.250000  1
  Si  Si26  1  0.794655  0.628272  0.750000  1
  Si  Si27  1  0.155259  0.464512  0.546315  1
  Si  Si28  1  0.842591  0.538754  0.467467  1
  Si  Si29  1  0.344067  0.965195  0.462345  1
  Si  Si30  1  0.842591  0.538754  0.032533  1
  Si  Si31  1  0.657748  0.033754  0.538899  1
  Si  Si32  1  0.155259  0.464512  0.953685  1
  Si  Si33  1  0.657748  0.033754  0.961101  1
  Si  Si34  1  0.344067  0.965195  0.037655  1
  Ru  Ru35  1  0.151562  0.492968  0.750000  1
