# generated using pymatgen
data_Th4TiNb5Si8
_symmetry_space_group_name_H-M   'P 1'
_cell_length_a   7.20259504
_cell_length_b   7.19248104
_cell_length_c   13.39536500
_cell_angle_alpha   90.00000000
_cell_angle_beta   90.00000000
_cell_angle_gamma   89.98811502
_symmetry_Int_Tables_number   1
_chemical_formula_structural   Th4TiNb5Si8
_chemical_formula_sum   'Th8 Ti2 Nb10 Si16'
_cell_volume   693.94054957
_cell_formula_units_Z   2
loop_
 _symmetry_equiv_pos_site_id
 _symmetry_equiv_pos_as_xyz
  1  'x, y, z'
loop_
 _atom_site_type_symbol
 _atom_site_label
 _atom_site_symmetry_multiplicity
 _atom_site_fract_x
 _atom_site_fract_y
 _atom_site_fract_z
 _atom_site_occupancy
  Th  Th0  1  0.338205  0.001625  0.468138  1
  Th  Th1  1  0.498728  0.838716  0.718183  1
  Th  Th2  1  0.501272  0.161284  0.218183  1
  Th  Th3  1  0.838991  0.499424  0.282088  1
  Th  Th4  1  0.161009  0.500576  0.782088  1
  Th  Th5  1  0.661795  0.998375  0.968138  1
  Th  Th6  1  0.001691  0.337548  0.531893  1
  Th  Th7  1  0.998309  0.662452  0.031893  1
  Ti  Ti8  1  0.006490  0.157760  0.123529  1
  Ti  Ti9  1  0.993510  0.842240  0.623529  1
  Nb  Nb10  1  0.330710  0.330369  0.999820  1
  Nb  Nb11  1  0.169587  0.829991  0.250184  1
  Nb  Nb12  1  0.830413  0.170009  0.750184  1
  Nb  Nb13  1  0.669290  0.669631  0.499820  1
  Nb  Nb14  1  0.158806  0.005887  0.876335  1
  Nb  Nb15  1  0.494766  0.658303  0.126161  1
  Nb  Nb16  1  0.505234  0.341697  0.626161  1
  Nb  Nb17  1  0.657972  0.494200  0.873885  1
  Nb  Nb18  1  0.342028  0.505800  0.373885  1
  Nb  Nb19  1  0.841194  0.994113  0.376335  1
  Si  Si20  1  0.200351  0.122708  0.685428  1
  Si  Si21  1  0.374904  0.701643  0.936030  1
  Si  Si22  1  0.625096  0.298357  0.436030  1
  Si  Si23  1  0.701065  0.373877  0.063992  1
  Si  Si24  1  0.298935  0.626123  0.563992  1
  Si  Si25  1  0.799649  0.877292  0.185428  1
  Si  Si26  1  0.124122  0.200700  0.312876  1
  Si  Si27  1  0.875878  0.799300  0.812876  1
  Si  Si28  1  0.286564  0.958924  0.064709  1
  Si  Si29  1  0.541640  0.787886  0.314043  1
  Si  Si30  1  0.458360  0.212114  0.814043  1
  Si  Si31  1  0.788654  0.542845  0.685584  1
  Si  Si32  1  0.211346  0.457155  0.185584  1
  Si  Si33  1  0.713436  0.041076  0.564709  1
  Si  Si34  1  0.957978  0.287539  0.937122  1
  Si  Si35  1  0.042022  0.712461  0.437122  1
