# generated using pymatgen
data_Lu3Sc7(Si5Ir2)4
_symmetry_space_group_name_H-M   'P 1'
_cell_length_a   12.43211214
_cell_length_b   12.43211214
_cell_length_c   4.12238000
_cell_angle_alpha   90.00000000
_cell_angle_beta   90.00000000
_cell_angle_gamma   90.01695077
_symmetry_Int_Tables_number   1
_chemical_formula_structural   Lu3Sc7(Si5Ir2)4
_chemical_formula_sum   'Lu3 Sc7 Si20 Ir8'
_cell_volume   637.14435687
_cell_formula_units_Z   1
loop_
 _symmetry_equiv_pos_site_id
 _symmetry_equiv_pos_as_xyz
  1  'x, y, z'
loop_
 _atom_site_type_symbol
 _atom_site_label
 _atom_site_symmetry_multiplicity
 _atom_site_fract_x
 _atom_site_fract_y
 _atom_site_fract_z
 _atom_site_occupancy
  Lu  Lu0  1  0.615850  0.115850  0.500000  1
  Lu  Lu1  1  0.883979  0.616130  0.500000  1
  Lu  Lu2  1  0.116130  0.383979  0.500000  1
  Sc  Sc3  1  0.499997  0.500122  0.000000  1
  Sc  Sc4  1  0.000122  0.999997  0.000000  1
  Sc  Sc5  1  0.672967  0.826503  0.500000  1
  Sc  Sc6  1  0.326503  0.172967  0.500000  1
  Sc  Sc7  1  0.174333  0.674333  0.500000  1
  Sc  Sc8  1  0.826387  0.326387  0.500000  1
  Sc  Sc9  1  0.383723  0.883723  0.500000  1
  Si  Si10  1  0.565735  0.932830  0.000000  1
  Si  Si11  1  0.432830  0.065735  0.000000  1
  Si  Si12  1  0.067050  0.567050  0.000000  1
  Si  Si13  1  0.933309  0.433309  0.000000  1
  Si  Si14  1  0.698707  0.666619  0.000000  1
  Si  Si15  1  0.300988  0.333462  0.000000  1
  Si  Si16  1  0.200034  0.834132  0.000000  1
  Si  Si17  1  0.800915  0.166380  0.000000  1
  Si  Si18  1  0.334132  0.700034  0.000000  1
  Si  Si19  1  0.666380  0.300915  0.000000  1
  Si  Si20  1  0.166619  0.198707  0.000000  1
  Si  Si21  1  0.833462  0.800988  0.000000  1
  Si  Si22  1  0.505618  0.651938  0.500000  1
  Si  Si23  1  0.493055  0.348864  0.500000  1
  Si  Si24  1  0.006705  0.849066  0.500000  1
  Si  Si25  1  0.993310  0.150975  0.500000  1
  Si  Si26  1  0.349066  0.506705  0.500000  1
  Si  Si27  1  0.650975  0.493310  0.500000  1
  Si  Si28  1  0.151938  0.005618  0.500000  1
  Si  Si29  1  0.848864  0.993055  0.500000  1
  Ir  Ir30  1  0.518596  0.746205  0.000000  1
  Ir  Ir31  1  0.481059  0.253835  0.000000  1
  Ir  Ir32  1  0.019154  0.754617  0.000000  1
  Ir  Ir33  1  0.981261  0.245585  0.000000  1
  Ir  Ir34  1  0.254617  0.519154  0.000000  1
  Ir  Ir35  1  0.745585  0.481261  0.000000  1
  Ir  Ir36  1  0.246205  0.018596  0.000000  1
  Ir  Ir37  1  0.753835  0.981059  0.000000  1
