# generated using pymatgen
data_Mn2Nb2FeGe
_symmetry_space_group_name_H-M   'P 1'
_cell_length_a   4.89018800
_cell_length_b   4.90503083
_cell_length_c   8.01715000
_cell_angle_alpha   90.00000000
_cell_angle_beta   90.00000000
_cell_angle_gamma   119.89993625
_symmetry_Int_Tables_number   1
_chemical_formula_structural   Mn2Nb2FeGe
_chemical_formula_sum   'Mn4 Nb4 Fe2 Ge2'
_cell_volume   166.70743077
_cell_formula_units_Z   2
loop_
 _symmetry_equiv_pos_site_id
 _symmetry_equiv_pos_as_xyz
  1  'x, y, z'
loop_
 _atom_site_type_symbol
 _atom_site_label
 _atom_site_symmetry_multiplicity
 _atom_site_fract_x
 _atom_site_fract_y
 _atom_site_fract_z
 _atom_site_occupancy
  Mn  Mn0  1  0.345652  0.173396  0.249999  1
  Mn  Mn1  1  0.827744  0.173396  0.249999  1
  Mn  Mn2  1  0.827283  0.654567  0.249999  1
  Mn  Mn3  1  0.173857  0.347713  0.750000  1
  Nb  Nb4  1  0.332710  0.665419  0.065093  1
  Nb  Nb5  1  0.332710  0.665419  0.434907  1
  Nb  Nb6  1  0.666536  0.333071  0.562876  1
  Nb  Nb7  1  0.666536  0.333071  0.937124  1
  Fe  Fe8  1  0.173672  0.828301  0.750000  1
  Fe  Fe9  1  0.654630  0.828301  0.750000  1
  Ge  Ge10  1  0.999336  0.998672  0.999893  1
  Ge  Ge11  1  0.999336  0.998672  0.500107  1
