# generated using pymatgen
data_CaNd4Pb3S
_symmetry_space_group_name_H-M   'P 1'
_cell_length_a   9.49379100
_cell_length_b   9.49379109
_cell_length_c   6.99323600
_cell_angle_alpha   90.00000000
_cell_angle_beta   90.00000000
_cell_angle_gamma   120.00000317
_symmetry_Int_Tables_number   1
_chemical_formula_structural   CaNd4Pb3S
_chemical_formula_sum   'Ca2 Nd8 Pb6 S2'
_cell_volume   545.86863389
_cell_formula_units_Z   2
loop_
 _symmetry_equiv_pos_site_id
 _symmetry_equiv_pos_as_xyz
  1  'x, y, z'
loop_
 _atom_site_type_symbol
 _atom_site_label
 _atom_site_symmetry_multiplicity
 _atom_site_fract_x
 _atom_site_fract_y
 _atom_site_fract_z
 _atom_site_occupancy
  Ca  Ca0  1  0.666667  0.333333  0.000000  1
  Ca  Ca1  1  0.333333  0.666667  0.000000  1
  Nd  Nd2  1  0.757704  0.757704  0.751718  1
  Nd  Nd3  1  0.242296  0.000000  0.751718  1
  Nd  Nd4  1  0.000000  0.242296  0.751718  1
  Nd  Nd5  1  0.242296  0.242296  0.248282  1
  Nd  Nd6  1  0.757704  0.000000  0.248282  1
  Nd  Nd7  1  0.000000  0.757704  0.248282  1
  Nd  Nd8  1  0.333333  0.666667  0.500000  1
  Nd  Nd9  1  0.666667  0.333333  0.500000  1
  Pb  Pb10  1  0.399485  0.399485  0.749879  1
  Pb  Pb11  1  0.600515  0.000000  0.749879  1
  Pb  Pb12  1  0.000000  0.600515  0.749879  1
  Pb  Pb13  1  0.600515  0.600515  0.250121  1
  Pb  Pb14  1  0.399485  0.000000  0.250121  1
  Pb  Pb15  1  0.000000  0.399485  0.250121  1
  S  S16  1  0.000000  0.000000  0.000000  1
  S  S17  1  0.000000  0.000000  0.500000  1
