# generated using pymatgen
data_Hf18Re8NiSe
_symmetry_space_group_name_H-M   'P 1'
_cell_length_a   8.59961000
_cell_length_b   8.59961024
_cell_length_c   8.59503800
_cell_angle_alpha   90.00000000
_cell_angle_beta   90.00000000
_cell_angle_gamma   119.99999908
_symmetry_Int_Tables_number   1
_chemical_formula_structural   Hf18Re8NiSe
_chemical_formula_sum   'Hf18 Re8 Ni1 Se1'
_cell_volume   550.47292247
_cell_formula_units_Z   1
loop_
 _symmetry_equiv_pos_site_id
 _symmetry_equiv_pos_as_xyz
  1  'x, y, z'
loop_
 _atom_site_type_symbol
 _atom_site_label
 _atom_site_symmetry_multiplicity
 _atom_site_fract_x
 _atom_site_fract_y
 _atom_site_fract_z
 _atom_site_occupancy
  Hf  Hf0  1  0.192010  0.807990  0.451716  1
  Hf  Hf1  1  0.192010  0.384018  0.451716  1
  Hf  Hf2  1  0.615982  0.807990  0.451716  1
  Hf  Hf3  1  0.802225  0.197775  0.557611  1
  Hf  Hf4  1  0.802225  0.604452  0.557611  1
  Hf  Hf5  1  0.395548  0.197775  0.557611  1
  Hf  Hf6  1  0.802225  0.197775  0.942389  1
  Hf  Hf7  1  0.802225  0.604452  0.942389  1
  Hf  Hf8  1  0.395548  0.197775  0.942389  1
  Hf  Hf9  1  0.192010  0.807990  0.048284  1
  Hf  Hf10  1  0.192010  0.384018  0.048284  1
  Hf  Hf11  1  0.615982  0.807990  0.048284  1
  Hf  Hf12  1  0.544416  0.455584  0.250000  1
  Hf  Hf13  1  0.544416  0.088831  0.250000  1
  Hf  Hf14  1  0.911169  0.455584  0.250000  1
  Hf  Hf15  1  0.458447  0.541553  0.750000  1
  Hf  Hf16  1  0.458447  0.916894  0.750000  1
  Hf  Hf17  1  0.083106  0.541553  0.750000  1
  Re  Re18  1  0.889453  0.110547  0.250000  1
  Re  Re19  1  0.889453  0.778904  0.250000  1
  Re  Re20  1  0.221096  0.110547  0.250000  1
  Re  Re21  1  0.110601  0.889399  0.750000  1
  Re  Re22  1  0.110601  0.221203  0.750000  1
  Re  Re23  1  0.778797  0.889399  0.750000  1
  Re  Re24  1  0.000000  0.000000  0.500625  1
  Re  Re25  1  0.000000  0.000000  0.999375  1
  Ni  Ni26  1  0.666667  0.333333  0.750000  1
  Se  Se27  1  0.333333  0.666667  0.250000  1
