# generated using pymatgen
data_Er8Zr(IO8)3
_symmetry_space_group_name_H-M   'P 1'
_cell_length_a   5.35341136
_cell_length_b   7.55776424
_cell_length_c   11.42455800
_cell_angle_alpha   75.86461038
_cell_angle_beta   89.81682354
_cell_angle_gamma   90.49233337
_symmetry_Int_Tables_number   1
_chemical_formula_structural   Er8Zr(IO8)3
_chemical_formula_sum   'Er8 Zr1 I3 O24'
_cell_volume   448.21647343
_cell_formula_units_Z   1
loop_
 _symmetry_equiv_pos_site_id
 _symmetry_equiv_pos_as_xyz
  1  'x, y, z'
loop_
 _atom_site_type_symbol
 _atom_site_label
 _atom_site_symmetry_multiplicity
 _atom_site_fract_x
 _atom_site_fract_y
 _atom_site_fract_z
 _atom_site_occupancy
  Er  Er0  1  0.183261  0.806013  0.068438  1
  Er  Er1  1  0.256956  0.974587  0.755061  1
  Er  Er2  1  0.743182  0.013203  0.254284  1
  Er  Er3  1  0.315136  0.507027  0.754010  1
  Er  Er4  1  0.195186  0.220262  0.421855  1
  Er  Er5  1  0.696726  0.503465  0.244189  1
  Er  Er6  1  0.803909  0.194677  0.924088  1
  Er  Er7  1  0.805830  0.779825  0.587795  1
  Zr  Zr8  1  0.741944  0.709302  0.893070  1
  I  I9  1  0.254969  0.733525  0.382831  1
  I  I10  1  0.748878  0.268492  0.616324  1
  I  I11  1  0.254417  0.283904  0.111455  1
  O  O12  1  0.863125  0.368675  0.458354  1
  O  O13  1  0.458514  0.865812  0.928608  1
  O  O14  1  0.862229  0.631250  0.069533  1
  O  O15  1  0.026559  0.296559  0.717350  1
  O  O16  1  0.967962  0.287924  0.244225  1
  O  O17  1  0.136573  0.365525  0.948728  1
  O  O18  1  0.621168  0.459435  0.881872  1
  O  O19  1  0.529633  0.146326  0.072913  1
  O  O20  1  0.142333  0.635921  0.539194  1
  O  O21  1  0.025717  0.711230  0.757974  1
  O  O22  1  0.469515  0.222578  0.276029  1
  O  O23  1  0.069946  0.949758  0.393939  1
  O  O24  1  0.471656  0.156429  0.561498  1
  O  O25  1  0.971818  0.710823  0.285013  1
  O  O26  1  0.942863  0.058181  0.601807  1
  O  O27  1  0.573285  0.178584  0.764522  1
  O  O28  1  0.520525  0.775698  0.718956  1
  O  O29  1  0.020161  0.059806  0.106246  1
  O  O30  1  0.618225  0.496260  0.614296  1
  O  O31  1  0.381722  0.520813  0.106331  1
  O  O32  1  0.429092  0.817272  0.229721  1
  O  O33  1  0.376059  0.504731  0.378337  1
  O  O34  1  0.543098  0.841084  0.433158  1
  O  O35  1  0.977832  0.945041  0.897999  1
