# generated using pymatgen
data_Tb15Y4ThSn16
_symmetry_space_group_name_H-M   'P 1'
_cell_length_a   8.09175964
_cell_length_b   8.21789575
_cell_length_c   15.55548103
_cell_angle_alpha   90.06997995
_cell_angle_beta   89.80344703
_cell_angle_gamma   89.88904700
_symmetry_Int_Tables_number   1
_chemical_formula_structural   Tb15Y4ThSn16
_chemical_formula_sum   'Tb15 Y4 Th1 Sn16'
_cell_volume   1034.38770427
_cell_formula_units_Z   1
loop_
 _symmetry_equiv_pos_site_id
 _symmetry_equiv_pos_as_xyz
  1  'x, y, z'
loop_
 _atom_site_type_symbol
 _atom_site_label
 _atom_site_symmetry_multiplicity
 _atom_site_fract_x
 _atom_site_fract_y
 _atom_site_fract_z
 _atom_site_occupancy
  Tb  Tb0  1  0.367013  0.835834  0.877843  1
  Tb  Tb1  1  0.868202  0.664088  0.621378  1
  Tb  Tb2  1  0.631610  0.163037  0.377969  1
  Tb  Tb3  1  0.133053  0.337064  0.122547  1
  Tb  Tb4  1  0.633091  0.163039  0.122391  1
  Tb  Tb5  1  0.132121  0.337253  0.378140  1
  Tb  Tb6  1  0.368198  0.836720  0.621909  1
  Tb  Tb7  1  0.867163  0.662851  0.878018  1
  Tb  Tb8  1  0.522726  0.322089  0.902003  1
  Tb  Tb9  1  0.022830  0.178978  0.598860  1
  Tb  Tb10  1  0.478481  0.678539  0.401961  1
  Tb  Tb11  1  0.979327  0.821309  0.098427  1
  Tb  Tb12  1  0.479743  0.678417  0.098006  1
  Tb  Tb13  1  0.978711  0.821086  0.401956  1
  Tb  Tb14  1  0.521380  0.322656  0.597161  1
  Y  Y15  1  0.198187  0.500869  0.749341  1
  Y  Y16  1  0.697969  0.997472  0.748859  1
  Y  Y17  1  0.801592  0.498052  0.250575  1
  Y  Y18  1  0.301760  0.001845  0.250045  1
  Th  Th19  1  0.017812  0.180202  0.903202  1
  Sn  Sn20  1  0.293337  0.035055  0.042369  1
  Sn  Sn21  1  0.791173  0.463997  0.458076  1
  Sn  Sn22  1  0.708962  0.965907  0.541914  1
  Sn  Sn23  1  0.209336  0.535360  0.957935  1
  Sn  Sn24  1  0.704581  0.961133  0.958889  1
  Sn  Sn25  1  0.208382  0.536565  0.541706  1
  Sn  Sn26  1  0.291426  0.036136  0.458308  1
  Sn  Sn27  1  0.792879  0.462116  0.041208  1
  Sn  Sn28  1  0.564702  0.619917  0.749787  1
  Sn  Sn29  1  0.065073  0.879497  0.750984  1
  Sn  Sn30  1  0.435137  0.380899  0.249945  1
  Sn  Sn31  1  0.934956  0.119205  0.250270  1
  Sn  Sn32  1  0.331354  0.147352  0.749872  1
  Sn  Sn33  1  0.826897  0.355693  0.748223  1
  Sn  Sn34  1  0.670586  0.852678  0.249908  1
  Sn  Sn35  1  0.170250  0.647093  0.250007  1
