# generated using pymatgen
data_Rb3LaTe2O9
_symmetry_space_group_name_H-M   'P 1'
_cell_length_a   6.21919985
_cell_length_b   6.21985900
_cell_length_c   15.04474800
_cell_angle_alpha   89.78219688
_cell_angle_beta   89.78239491
_cell_angle_gamma   119.96741728
_symmetry_Int_Tables_number   1
_chemical_formula_structural   Rb3LaTe2O9
_chemical_formula_sum   'Rb6 La2 Te4 O18'
_cell_volume   504.15092729
_cell_formula_units_Z   2
loop_
 _symmetry_equiv_pos_site_id
 _symmetry_equiv_pos_as_xyz
  1  'x, y, z'
loop_
 _atom_site_type_symbol
 _atom_site_label
 _atom_site_symmetry_multiplicity
 _atom_site_fract_x
 _atom_site_fract_y
 _atom_site_fract_z
 _atom_site_occupancy
  Rb  Rb0  1  0.998893  0.001070  0.249968  1
  Rb  Rb1  1  0.001107  0.998930  0.750032  1
  Rb  Rb2  1  0.330262  0.664309  0.103238  1
  Rb  Rb3  1  0.669738  0.335691  0.896762  1
  Rb  Rb4  1  0.664346  0.330303  0.603185  1
  Rb  Rb5  1  0.335654  0.669697  0.396815  1
  La  La6  1  0.000000  0.000000  0.000000  1
  La  La7  1  0.000000  0.000000  0.500000  1
  Te  Te8  1  0.669674  0.337128  0.345351  1
  Te  Te9  1  0.330326  0.662872  0.654649  1
  Te  Te10  1  0.337001  0.669544  0.845364  1
  Te  Te11  1  0.662999  0.330456  0.154636  1
  O  O12  1  0.643915  0.824398  0.907129  1
  O  O13  1  0.529838  0.470305  0.249981  1
  O  O14  1  0.175259  0.812243  0.590543  1
  O  O15  1  0.529997  0.061035  0.251928  1
  O  O16  1  0.187525  0.824524  0.909477  1
  O  O17  1  0.939173  0.470179  0.248038  1
  O  O18  1  0.356085  0.175602  0.092871  1
  O  O19  1  0.824741  0.187757  0.409457  1
  O  O20  1  0.470003  0.938965  0.748072  1
  O  O21  1  0.470162  0.529695  0.750019  1
  O  O22  1  0.824612  0.644097  0.407074  1
  O  O23  1  0.812418  0.632161  0.088326  1
  O  O24  1  0.631954  0.812177  0.588324  1
  O  O25  1  0.187582  0.367839  0.911674  1
  O  O26  1  0.060827  0.529821  0.751962  1
  O  O27  1  0.368046  0.187823  0.411676  1
  O  O28  1  0.175388  0.355903  0.592926  1
  O  O29  1  0.812475  0.175476  0.090523  1
