# generated using pymatgen
data_Gd4AlRe6Os
_symmetry_space_group_name_H-M   'P 1'
_cell_length_a   5.31515400
_cell_length_b   5.31515280
_cell_length_c   9.10435700
_cell_angle_alpha   90.00000000
_cell_angle_beta   90.00000000
_cell_angle_gamma   120.00000749
_symmetry_Int_Tables_number   1
_chemical_formula_structural   Gd4AlRe6Os
_chemical_formula_sum   'Gd4 Al1 Re6 Os1'
_cell_volume   222.74680529
_cell_formula_units_Z   1
loop_
 _symmetry_equiv_pos_site_id
 _symmetry_equiv_pos_as_xyz
  1  'x, y, z'
loop_
 _atom_site_type_symbol
 _atom_site_label
 _atom_site_symmetry_multiplicity
 _atom_site_fract_x
 _atom_site_fract_y
 _atom_site_fract_z
 _atom_site_occupancy
  Gd  Gd0  1  0.333333  0.666667  0.433019  1
  Gd  Gd1  1  0.666667  0.333333  0.566981  1
  Gd  Gd2  1  0.666667  0.333333  0.937389  1
  Gd  Gd3  1  0.333333  0.666667  0.062611  1
  Al  Al4  1  0.000000  0.000000  0.500000  1
  Re  Re5  1  0.830347  0.169653  0.250812  1
  Re  Re6  1  0.830347  0.660694  0.250812  1
  Re  Re7  1  0.339306  0.169653  0.250812  1
  Re  Re8  1  0.169653  0.830347  0.749188  1
  Re  Re9  1  0.169653  0.339306  0.749188  1
  Re  Re10  1  0.660694  0.830347  0.749188  1
  Os  Os11  1  0.000000  0.000000  0.000000  1
