# generated using pymatgen
data_Ba4TmSbO8
_symmetry_space_group_name_H-M   'P 1'
_cell_length_a   7.46312792
_cell_length_b   7.46312746
_cell_length_c   5.98576200
_cell_angle_alpha   90.00000000
_cell_angle_beta   90.00000000
_cell_angle_gamma   132.84979045
_symmetry_Int_Tables_number   1
_chemical_formula_structural   Ba4TmSbO8
_chemical_formula_sum   'Ba4 Tm1 Sb1 O8'
_cell_volume   244.42611218
_cell_formula_units_Z   1
loop_
 _symmetry_equiv_pos_site_id
 _symmetry_equiv_pos_as_xyz
  1  'x, y, z'
loop_
 _atom_site_type_symbol
 _atom_site_label
 _atom_site_symmetry_multiplicity
 _atom_site_fract_x
 _atom_site_fract_y
 _atom_site_fract_z
 _atom_site_occupancy
  Ba  Ba0  1  0.352472  0.647528  0.000000  1
  Ba  Ba1  1  0.852825  0.147175  0.500000  1
  Ba  Ba2  1  0.147175  0.852825  0.500000  1
  Ba  Ba3  1  0.647528  0.352472  0.000000  1
  Tm  Tm4  1  0.000000  0.000000  0.000000  1
  Sb  Sb5  1  0.500000  0.500000  0.500000  1
  O  O6  1  0.259375  0.259375  0.735827  1
  O  O7  1  0.740625  0.740625  0.264173  1
  O  O8  1  0.740625  0.740625  0.735827  1
  O  O9  1  0.259375  0.259375  0.264173  1
  O  O10  1  0.163552  0.836448  0.000000  1
  O  O11  1  0.650348  0.349652  0.500000  1
  O  O12  1  0.349652  0.650348  0.500000  1
  O  O13  1  0.836448  0.163552  0.000000  1
