# generated using pymatgen
data_Zr2GaRh4Au
_symmetry_space_group_name_H-M   'P 1'
_cell_length_a   5.59562952
_cell_length_b   5.59563019
_cell_length_c   8.39281500
_cell_angle_alpha   90.00000000
_cell_angle_beta   90.00000000
_cell_angle_gamma   99.73633434
_symmetry_Int_Tables_number   1
_chemical_formula_structural   Zr2GaRh4Au
_chemical_formula_sum   'Zr4 Ga2 Rh8 Au2'
_cell_volume   259.00295923
_cell_formula_units_Z   2
loop_
 _symmetry_equiv_pos_site_id
 _symmetry_equiv_pos_as_xyz
  1  'x, y, z'
loop_
 _atom_site_type_symbol
 _atom_site_label
 _atom_site_symmetry_multiplicity
 _atom_site_fract_x
 _atom_site_fract_y
 _atom_site_fract_z
 _atom_site_occupancy
  Zr  Zr0  1  0.766436  0.233564  0.500000  1
  Zr  Zr1  1  0.233564  0.766436  0.000000  1
  Zr  Zr2  1  0.233564  0.766436  0.500000  1
  Zr  Zr3  1  0.766436  0.233564  0.000000  1
  Ga  Ga4  1  0.502150  0.502150  0.750000  1
  Ga  Ga5  1  0.497850  0.497850  0.250000  1
  Rh  Rh6  1  0.722413  0.722413  0.000811  1
  Rh  Rh7  1  0.722413  0.722413  0.499189  1
  Rh  Rh8  1  0.277587  0.277587  0.999189  1
  Rh  Rh9  1  0.277587  0.277587  0.500811  1
  Rh  Rh10  1  0.499980  0.000326  0.750000  1
  Rh  Rh11  1  0.500020  0.999674  0.250000  1
  Rh  Rh12  1  0.000326  0.499980  0.750000  1
  Rh  Rh13  1  0.999674  0.500020  0.250000  1
  Au  Au14  1  0.000263  0.000263  0.250000  1
  Au  Au15  1  0.999737  0.999737  0.750000  1
