# generated using pymatgen
data_CsNb(Te2Au)2
_symmetry_space_group_name_H-M   'P 1'
_cell_length_a   6.29987200
_cell_length_b   8.76784000
_cell_length_c   21.57679000
_cell_angle_alpha   90.00000000
_cell_angle_beta   90.00000000
_cell_angle_gamma   90.00000000
_symmetry_Int_Tables_number   1
_chemical_formula_structural   CsNb(Te2Au)2
_chemical_formula_sum   'Cs4 Nb4 Te16 Au8'
_cell_volume   1191.82139206
_cell_formula_units_Z   4
loop_
 _symmetry_equiv_pos_site_id
 _symmetry_equiv_pos_as_xyz
  1  'x, y, z'
loop_
 _atom_site_type_symbol
 _atom_site_label
 _atom_site_symmetry_multiplicity
 _atom_site_fract_x
 _atom_site_fract_y
 _atom_site_fract_z
 _atom_site_occupancy
  Cs  Cs0  1  0.023763  0.711216  0.438450  1
  Cs  Cs1  1  0.523763  0.288784  0.561550  1
  Cs  Cs2  1  0.523763  0.788784  0.938450  1
  Cs  Cs3  1  0.023763  0.211216  0.061550  1
  Nb  Nb4  1  0.258134  0.704633  0.147447  1
  Nb  Nb5  1  0.758134  0.295367  0.852553  1
  Nb  Nb6  1  0.758134  0.795367  0.647447  1
  Nb  Nb7  1  0.258134  0.204633  0.352553  1
  Te  Te8  1  0.495893  0.958663  0.137471  1
  Te  Te9  1  0.995893  0.041337  0.862529  1
  Te  Te10  1  0.995893  0.541337  0.637471  1
  Te  Te11  1  0.495893  0.458663  0.362529  1
  Te  Te12  1  0.497261  0.951889  0.355597  1
  Te  Te13  1  0.997261  0.048111  0.644403  1
  Te  Te14  1  0.997261  0.548111  0.855597  1
  Te  Te15  1  0.497261  0.451889  0.144403  1
  Te  Te16  1  0.001401  0.712013  0.249259  1
  Te  Te17  1  0.501401  0.287987  0.750741  1
  Te  Te18  1  0.501401  0.787987  0.749259  1
  Te  Te19  1  0.001401  0.212013  0.250741  1
  Te  Te20  1  0.033309  0.691966  0.043365  1
  Te  Te21  1  0.533309  0.308034  0.956635  1
  Te  Te22  1  0.533309  0.808034  0.543365  1
  Te  Te23  1  0.033309  0.191966  0.456635  1
  Au  Au24  1  0.267343  0.962338  0.246806  1
  Au  Au25  1  0.767343  0.037662  0.753194  1
  Au  Au26  1  0.767343  0.537662  0.746806  1
  Au  Au27  1  0.267343  0.462338  0.253194  1
  Au  Au28  1  0.257395  0.794800  0.642445  1
  Au  Au29  1  0.757395  0.205200  0.357555  1
  Au  Au30  1  0.757395  0.705200  0.142445  1
  Au  Au31  1  0.257395  0.294800  0.857555  1
