# generated using pymatgen
data_Sc(SnRh2)5
_symmetry_space_group_name_H-M   'P 1'
_cell_length_a   5.63877602
_cell_length_b   5.63877584
_cell_length_c   8.39992200
_cell_angle_alpha   89.99460449
_cell_angle_beta   89.99461465
_cell_angle_gamma   98.51014878
_symmetry_Int_Tables_number   1
_chemical_formula_structural   Sc(SnRh2)5
_chemical_formula_sum   'Sc1 Sn5 Rh10'
_cell_volume   264.14152274
_cell_formula_units_Z   1
loop_
 _symmetry_equiv_pos_site_id
 _symmetry_equiv_pos_as_xyz
  1  'x, y, z'
loop_
 _atom_site_type_symbol
 _atom_site_label
 _atom_site_symmetry_multiplicity
 _atom_site_fract_x
 _atom_site_fract_y
 _atom_site_fract_z
 _atom_site_occupancy
  Sc  Sc0  1  0.782420  0.217580  0.000000  1
  Sn  Sn1  1  0.509760  0.489113  0.754012  1
  Sn  Sn2  1  0.510887  0.490240  0.245988  1
  Sn  Sn3  1  0.790257  0.209743  0.500000  1
  Sn  Sn4  1  0.209501  0.790499  0.000000  1
  Sn  Sn5  1  0.209208  0.790792  0.500000  1
  Rh  Rh6  1  0.721973  0.730542  0.999710  1
  Rh  Rh7  1  0.718450  0.712889  0.500243  1
  Rh  Rh8  1  0.269458  0.278027  0.000290  1
  Rh  Rh9  1  0.287111  0.281550  0.499757  1
  Rh  Rh10  1  0.491955  0.986572  0.748908  1
  Rh  Rh11  1  0.492057  0.986885  0.251074  1
  Rh  Rh12  1  0.990068  0.009647  0.247786  1
  Rh  Rh13  1  0.990353  0.009932  0.752214  1
  Rh  Rh14  1  0.013115  0.507943  0.748926  1
  Rh  Rh15  1  0.013428  0.508045  0.251092  1
