# generated using pymatgen
data_Ta3BeN
_symmetry_space_group_name_H-M   'P 1'
_cell_length_a   5.45796730
_cell_length_b   5.45796729
_cell_length_c   8.02047300
_cell_angle_alpha   90.00000000
_cell_angle_beta   90.00000000
_cell_angle_gamma   146.03147220
_symmetry_Int_Tables_number   1
_chemical_formula_structural   Ta3BeN
_chemical_formula_sum   'Ta6 Be2 N2'
_cell_volume   133.49641663
_cell_formula_units_Z   2
loop_
 _symmetry_equiv_pos_site_id
 _symmetry_equiv_pos_as_xyz
  1  'x, y, z'
loop_
 _atom_site_type_symbol
 _atom_site_label
 _atom_site_symmetry_multiplicity
 _atom_site_fract_x
 _atom_site_fract_y
 _atom_site_fract_z
 _atom_site_occupancy
  Ta  Ta0  1  0.936407  0.063593  0.250000  1
  Ta  Ta1  1  0.063593  0.936407  0.750000  1
  Ta  Ta2  1  0.640015  0.359985  0.439221  1
  Ta  Ta3  1  0.359985  0.640015  0.560779  1
  Ta  Ta4  1  0.640015  0.359985  0.060779  1
  Ta  Ta5  1  0.359985  0.640015  0.939221  1
  Be  Be6  1  0.259956  0.740044  0.250000  1
  Be  Be7  1  0.740044  0.259956  0.750000  1
  N  N8  1  0.000000  0.000000  0.500000  1
  N  N9  1  0.000000  0.000000  0.000000  1
