# generated using pymatgen
data_Zr2CoCuAu
_symmetry_space_group_name_H-M   'P 1'
_cell_length_a   7.13596600
_cell_length_b   7.06612400
_cell_length_c   3.37484600
_cell_angle_alpha   90.00000000
_cell_angle_beta   90.00000000
_cell_angle_gamma   90.00000000
_symmetry_Int_Tables_number   1
_chemical_formula_structural   Zr2CoCuAu
_chemical_formula_sum   'Zr4 Co2 Cu2 Au2'
_cell_volume   170.17195434
_cell_formula_units_Z   2
loop_
 _symmetry_equiv_pos_site_id
 _symmetry_equiv_pos_as_xyz
  1  'x, y, z'
loop_
 _atom_site_type_symbol
 _atom_site_label
 _atom_site_symmetry_multiplicity
 _atom_site_fract_x
 _atom_site_fract_y
 _atom_site_fract_z
 _atom_site_occupancy
  Zr  Zr0  1  0.689950  0.169112  0.500000  1
  Zr  Zr1  1  0.150142  0.323931  0.500000  1
  Zr  Zr2  1  0.810050  0.669112  0.500000  1
  Zr  Zr3  1  0.349858  0.823931  0.500000  1
  Co  Co4  1  0.622677  0.878875  0.000000  1
  Co  Co5  1  0.877323  0.378875  0.000000  1
  Cu  Cu6  1  0.378389  0.131806  0.000000  1
  Cu  Cu7  1  0.121611  0.631806  0.000000  1
  Au  Au8  1  0.004696  0.996276  0.000000  1
  Au  Au9  1  0.495304  0.496276  0.000000  1
