# generated using pymatgen
data_Mn5Nb4SiOs2
_symmetry_space_group_name_H-M   'P 1'
_cell_length_a   4.91763400
_cell_length_b   4.89757377
_cell_length_c   8.12278700
_cell_angle_alpha   90.00000000
_cell_angle_beta   90.00000000
_cell_angle_gamma   120.13559928
_symmetry_Int_Tables_number   1
_chemical_formula_structural   Mn5Nb4SiOs2
_chemical_formula_sum   'Mn5 Nb4 Si1 Os2'
_cell_volume   169.19123014
_cell_formula_units_Z   1
loop_
 _symmetry_equiv_pos_site_id
 _symmetry_equiv_pos_as_xyz
  1  'x, y, z'
loop_
 _atom_site_type_symbol
 _atom_site_label
 _atom_site_symmetry_multiplicity
 _atom_site_fract_x
 _atom_site_fract_y
 _atom_site_fract_z
 _atom_site_occupancy
  Mn  Mn0  1  0.822495  0.181554  0.250000  1
  Mn  Mn1  1  0.359059  0.181554  0.250000  1
  Mn  Mn2  1  0.657158  0.828209  0.750000  1
  Mn  Mn3  1  0.823354  0.646707  0.250000  1
  Mn  Mn4  1  0.171051  0.828209  0.750000  1
  Nb  Nb5  1  0.332590  0.665182  0.437201  1
  Nb  Nb6  1  0.665744  0.331487  0.929329  1
  Nb  Nb7  1  0.665744  0.331487  0.570671  1
  Nb  Nb8  1  0.332590  0.665182  0.062799  1
  Si  Si9  1  0.171904  0.343809  0.750000  1
  Os  Os10  1  0.999155  0.998311  0.004896  1
  Os  Os11  1  0.999155  0.998311  0.495104  1
