# generated using pymatgen
data_Dy3Y2IrPt2
_symmetry_space_group_name_H-M   'P 1'
_cell_length_a   11.09213300
_cell_length_b   11.09213300
_cell_length_c   6.33334100
_cell_angle_alpha   90.00000000
_cell_angle_beta   90.00000000
_cell_angle_gamma   90.00000000
_symmetry_Int_Tables_number   1
_chemical_formula_structural   Dy3Y2IrPt2
_chemical_formula_sum   'Dy12 Y8 Ir4 Pt8'
_cell_volume   779.22523504
_cell_formula_units_Z   4
loop_
 _symmetry_equiv_pos_site_id
 _symmetry_equiv_pos_as_xyz
  1  'x, y, z'
loop_
 _atom_site_type_symbol
 _atom_site_label
 _atom_site_symmetry_multiplicity
 _atom_site_fract_x
 _atom_site_fract_y
 _atom_site_fract_z
 _atom_site_occupancy
  Dy  Dy0  1  0.204834  0.412398  0.625304  1
  Dy  Dy1  1  0.204834  0.587602  0.125304  1
  Dy  Dy2  1  0.795166  0.412398  0.125304  1
  Dy  Dy3  1  0.795166  0.587602  0.625304  1
  Dy  Dy4  1  0.912398  0.704834  0.125304  1
  Dy  Dy5  1  0.912398  0.295166  0.625304  1
  Dy  Dy6  1  0.087602  0.704834  0.625304  1
  Dy  Dy7  1  0.087602  0.295166  0.125304  1
  Dy  Dy8  1  0.000000  0.000000  0.500326  1
  Dy  Dy9  1  0.000000  0.000000  0.000326  1
  Dy  Dy10  1  0.500000  0.500000  0.000326  1
  Dy  Dy11  1  0.500000  0.500000  0.500326  1
  Y  Y12  1  0.294423  0.087961  0.374096  1
  Y  Y13  1  0.294423  0.912039  0.874096  1
  Y  Y14  1  0.705577  0.087961  0.874096  1
  Y  Y15  1  0.705577  0.912039  0.374096  1
  Y  Y16  1  0.587961  0.794423  0.874096  1
  Y  Y17  1  0.587961  0.205577  0.374096  1
  Y  Y18  1  0.412039  0.794423  0.374096  1
  Y  Y19  1  0.412039  0.205577  0.874096  1
  Ir  Ir20  1  0.500000  0.000000  0.121133  1
  Ir  Ir21  1  0.500000  0.000000  0.621133  1
  Ir  Ir22  1  0.000000  0.500000  0.878866  1
  Ir  Ir23  1  0.000000  0.500000  0.378866  1
  Pt  Pt24  1  0.847460  0.154053  0.250437  1
  Pt  Pt25  1  0.847460  0.845947  0.750437  1
  Pt  Pt26  1  0.152540  0.154053  0.750437  1
  Pt  Pt27  1  0.152540  0.845947  0.250437  1
  Pt  Pt28  1  0.654053  0.347460  0.750437  1
  Pt  Pt29  1  0.654053  0.652540  0.250437  1
  Pt  Pt30  1  0.345947  0.347460  0.250437  1
  Pt  Pt31  1  0.345947  0.652540  0.750437  1
