# generated using pymatgen
data_BaSmMn2O5
_symmetry_space_group_name_H-M   'P 1'
_cell_length_a   4.00220700
_cell_length_b   7.88938200
_cell_length_c   8.00002100
_cell_angle_alpha   89.99964860
_cell_angle_beta   90.00000000
_cell_angle_gamma   90.00005042
_symmetry_Int_Tables_number   1
_chemical_formula_structural   BaSmMn2O5
_chemical_formula_sum   'Ba2 Sm2 Mn4 O10'
_cell_volume   252.60018211
_cell_formula_units_Z   2
loop_
 _symmetry_equiv_pos_site_id
 _symmetry_equiv_pos_as_xyz
  1  'x, y, z'
loop_
 _atom_site_type_symbol
 _atom_site_label
 _atom_site_symmetry_multiplicity
 _atom_site_fract_x
 _atom_site_fract_y
 _atom_site_fract_z
 _atom_site_occupancy
  Ba  Ba0  1  0.000000  0.000166  0.500161  1
  Ba  Ba1  1  0.000002  0.000165  0.999839  1
  Sm  Sm2  1  0.000001  0.500042  0.499992  1
  Sm  Sm3  1  0.000001  0.500038  0.000008  1
  Mn  Mn4  1  0.499980  0.262836  0.750002  1
  Mn  Mn5  1  0.500012  0.263386  0.250007  1
  Mn  Mn6  1  0.500003  0.736894  0.749999  1
  Mn  Mn7  1  0.499991  0.736533  0.249991  1
  O  O8  1  0.500002  0.683748  0.499903  1
  O  O9  1  0.000005  0.316083  0.250002  1
  O  O10  1  0.000000  0.686365  0.250000  1
  O  O11  1  0.500005  0.999972  0.250000  1
  O  O12  1  0.500002  0.683748  0.000094  1
  O  O13  1  0.500001  0.313960  0.500070  1
  O  O14  1  0.500000  0.313961  0.999932  1
  O  O15  1  0.999995  0.315899  0.750001  1
  O  O16  1  0.000001  0.686019  0.750000  1
  O  O17  1  0.499998  0.000186  0.749999  1
