# generated using pymatgen
data_HoMgPaZnRh2
_symmetry_space_group_name_H-M   'P 1'
_cell_length_a   3.83586500
_cell_length_b   7.23560909
_cell_length_c   8.71235297
_cell_angle_alpha   93.74841223
_cell_angle_beta   90.00000000
_cell_angle_gamma   90.00000000
_symmetry_Int_Tables_number   1
_chemical_formula_structural   HoMgPaZnRh2
_chemical_formula_sum   'Ho2 Mg2 Pa2 Zn2 Rh4'
_cell_volume   241.29249032
_cell_formula_units_Z   2
loop_
 _symmetry_equiv_pos_site_id
 _symmetry_equiv_pos_as_xyz
  1  'x, y, z'
loop_
 _atom_site_type_symbol
 _atom_site_label
 _atom_site_symmetry_multiplicity
 _atom_site_fract_x
 _atom_site_fract_y
 _atom_site_fract_z
 _atom_site_occupancy
  Ho  Ho0  1  0.250000  0.056807  0.330180  1
  Ho  Ho1  1  0.750000  0.943193  0.669820  1
  Mg  Mg2  1  0.250000  0.129934  0.936472  1
  Mg  Mg3  1  0.750000  0.870066  0.063528  1
  Pa  Pa4  1  0.250000  0.539170  0.198147  1
  Pa  Pa5  1  0.750000  0.460830  0.801853  1
  Zn  Zn6  1  0.250000  0.630489  0.555874  1
  Zn  Zn7  1  0.750000  0.369511  0.444126  1
  Rh  Rh8  1  0.750000  0.741139  0.357364  1
  Rh  Rh9  1  0.250000  0.258861  0.642636  1
  Rh  Rh10  1  0.750000  0.286533  0.129687  1
  Rh  Rh11  1  0.250000  0.713467  0.870313  1
