# generated using pymatgen
data_Dy3Mn6Co2MoP6
_symmetry_space_group_name_H-M   'P 1'
_cell_length_a   3.69570100
_cell_length_b   10.84330800
_cell_length_c   12.56683000
_cell_angle_alpha   90.00000000
_cell_angle_beta   90.00000000
_cell_angle_gamma   90.00000000
_symmetry_Int_Tables_number   1
_chemical_formula_structural   Dy3Mn6Co2MoP6
_chemical_formula_sum   'Dy6 Mn12 Co4 Mo2 P12'
_cell_volume   503.59842304
_cell_formula_units_Z   2
loop_
 _symmetry_equiv_pos_site_id
 _symmetry_equiv_pos_as_xyz
  1  'x, y, z'
loop_
 _atom_site_type_symbol
 _atom_site_label
 _atom_site_symmetry_multiplicity
 _atom_site_fract_x
 _atom_site_fract_y
 _atom_site_fract_z
 _atom_site_occupancy
  Dy  Dy0  1  0.000000  0.500000  0.531549  1
  Dy  Dy1  1  0.500000  0.000000  0.468451  1
  Dy  Dy2  1  0.500000  0.822430  0.204299  1
  Dy  Dy3  1  0.500000  0.177570  0.204299  1
  Dy  Dy4  1  0.000000  0.677570  0.795701  1
  Dy  Dy5  1  0.000000  0.322430  0.795701  1
  Mn  Mn6  1  0.500000  0.329752  0.996086  1
  Mn  Mn7  1  0.500000  0.670248  0.996086  1
  Mn  Mn8  1  0.000000  0.170248  0.003914  1
  Mn  Mn9  1  0.000000  0.829752  0.003914  1
  Mn  Mn10  1  0.500000  0.297151  0.432278  1
  Mn  Mn11  1  0.500000  0.702849  0.432278  1
  Mn  Mn12  1  0.000000  0.202849  0.567722  1
  Mn  Mn13  1  0.000000  0.797151  0.567722  1
  Mn  Mn14  1  0.500000  0.879764  0.700812  1
  Mn  Mn15  1  0.500000  0.120236  0.700812  1
  Mn  Mn16  1  0.000000  0.620236  0.299188  1
  Mn  Mn17  1  0.000000  0.379764  0.299188  1
  Co  Co18  1  0.500000  0.500000  0.706418  1
  Co  Co19  1  0.000000  0.000000  0.293582  1
  Co  Co20  1  0.000000  0.500000  0.989159  1
  Co  Co21  1  0.500000  0.000000  0.010841  1
  Mo  Mo22  1  0.500000  0.500000  0.157377  1
  Mo  Mo23  1  0.000000  0.000000  0.842623  1
  P  P24  1  0.500000  0.500000  0.884292  1
  P  P25  1  0.000000  0.000000  0.115708  1
  P  P26  1  0.500000  0.500000  0.357344  1
  P  P27  1  0.000000  0.000000  0.642656  1
  P  P28  1  0.500000  0.318066  0.618181  1
  P  P29  1  0.500000  0.681934  0.618181  1
  P  P30  1  0.000000  0.181934  0.381819  1
  P  P31  1  0.000000  0.818066  0.381819  1
  P  P32  1  0.500000  0.845140  0.888625  1
  P  P33  1  0.500000  0.154860  0.888625  1
  P  P34  1  0.000000  0.654860  0.111375  1
  P  P35  1  0.000000  0.345140  0.111375  1
