# generated using pymatgen
data_Ac7Nd(Sc3Pb4)4
_symmetry_space_group_name_H-M   'P 1'
_cell_length_a   8.22625221
_cell_length_b   15.60749774
_cell_length_c   8.28870100
_cell_angle_alpha   89.89690607
_cell_angle_beta   90.01281559
_cell_angle_gamma   90.16598375
_symmetry_Int_Tables_number   1
_chemical_formula_structural   Ac7Nd(Sc3Pb4)4
_chemical_formula_sum   'Ac7 Nd1 Sc12 Pb16'
_cell_volume   1064.19015946
_cell_formula_units_Z   1
loop_
 _symmetry_equiv_pos_site_id
 _symmetry_equiv_pos_as_xyz
  1  'x, y, z'
loop_
 _atom_site_type_symbol
 _atom_site_label
 _atom_site_symmetry_multiplicity
 _atom_site_fract_x
 _atom_site_fract_y
 _atom_site_fract_z
 _atom_site_occupancy
  Ac  Ac0  1  0.481224  0.594216  0.673576  1
  Ac  Ac1  1  0.982703  0.906266  0.827925  1
  Ac  Ac2  1  0.519323  0.093545  0.328279  1
  Ac  Ac3  1  0.019624  0.407755  0.171488  1
  Ac  Ac4  1  0.515492  0.408989  0.325390  1
  Ac  Ac5  1  0.018443  0.093489  0.173076  1
  Ac  Ac6  1  0.479528  0.903073  0.673037  1
  Nd  Nd7  1  0.975443  0.596336  0.824771  1
  Sc  Sc8  1  0.643296  0.625547  0.152737  1
  Sc  Sc9  1  0.142644  0.869054  0.346260  1
  Sc  Sc10  1  0.356464  0.127275  0.843111  1
  Sc  Sc11  1  0.856252  0.374530  0.658497  1
  Sc  Sc12  1  0.360139  0.375600  0.845767  1
  Sc  Sc13  1  0.856312  0.127577  0.654783  1
  Sc  Sc14  1  0.645217  0.871270  0.155447  1
  Sc  Sc15  1  0.145149  0.627116  0.344045  1
  Sc  Sc16  1  0.809922  0.748299  0.491264  1
  Sc  Sc17  1  0.307997  0.747951  0.007037  1
  Sc  Sc18  1  0.191380  0.250677  0.510539  1
  Sc  Sc19  1  0.693284  0.251759  0.990631  1
  Pb  Pb20  1  0.693104  0.456338  0.945401  1
  Pb  Pb21  1  0.184905  0.047776  0.553776  1
  Pb  Pb22  1  0.317002  0.950226  0.055847  1
  Pb  Pb23  1  0.818942  0.548503  0.453379  1
  Pb  Pb24  1  0.304338  0.550744  0.044588  1
  Pb  Pb25  1  0.815291  0.950068  0.446390  1
  Pb  Pb26  1  0.683394  0.048677  0.945134  1
  Pb  Pb27  1  0.180485  0.454399  0.557729  1
  Pb  Pb28  1  0.450484  0.748239  0.355627  1
  Pb  Pb29  1  0.949823  0.747054  0.140447  1
  Pb  Pb30  1  0.550211  0.252115  0.643396  1
  Pb  Pb31  1  0.051458  0.250340  0.856582  1
  Pb  Pb32  1  0.674690  0.748093  0.859463  1
  Pb  Pb33  1  0.162909  0.745579  0.645566  1
  Pb  Pb34  1  0.332546  0.250509  0.138517  1
  Pb  Pb35  1  0.830581  0.251014  0.360497  1
