# generated using pymatgen
data_K7U2PaS10
_symmetry_space_group_name_H-M   'P 1'
_cell_length_a   7.62141164
_cell_length_b   11.41833493
_cell_length_c   7.22136700
_cell_angle_alpha   102.18052145
_cell_angle_beta   99.51299817
_cell_angle_gamma   110.38744254
_symmetry_Int_Tables_number   1
_chemical_formula_structural   K7U2PaS10
_chemical_formula_sum   'K7 U2 Pa1 S10'
_cell_volume   555.90840755
_cell_formula_units_Z   1
loop_
 _symmetry_equiv_pos_site_id
 _symmetry_equiv_pos_as_xyz
  1  'x, y, z'
loop_
 _atom_site_type_symbol
 _atom_site_label
 _atom_site_symmetry_multiplicity
 _atom_site_fract_x
 _atom_site_fract_y
 _atom_site_fract_z
 _atom_site_occupancy
  K  K0  1  0.999862  0.500037  0.999785  1
  K  K1  1  0.412631  0.905305  0.199064  1
  K  K2  1  0.592911  0.591470  0.293673  1
  K  K3  1  0.790352  0.303772  0.422412  1
  K  K4  1  0.209631  0.696372  0.577406  1
  K  K5  1  0.407381  0.408381  0.706672  1
  K  K6  1  0.587543  0.095001  0.801065  1
  U  U7  1  0.194535  0.199618  0.101927  1
  U  U8  1  0.805934  0.800125  0.898515  1
  Pa  Pa9  1  0.000014  0.999929  0.500551  1
  S  S10  1  0.533855  0.315082  0.062353  1
  S  S11  1  0.845313  0.037930  0.159407  1
  S  S12  1  0.991900  0.786508  0.249548  1
  S  S13  1  0.178391  0.406382  0.306851  1
  S  S14  1  0.333098  0.135535  0.427301  1
  S  S15  1  0.666499  0.864997  0.573277  1
  S  S16  1  0.822680  0.593631  0.691915  1
  S  S17  1  0.007449  0.213135  0.750843  1
  S  S18  1  0.153597  0.962287  0.840870  1
  S  S19  1  0.466431  0.684501  0.936562  1
