# generated using pymatgen
data_Dy5CuRhO12
_symmetry_space_group_name_H-M   'P 1'
_cell_length_a   6.80402315
_cell_length_b   6.80402283
_cell_length_c   7.25404899
_cell_angle_alpha   74.41978030
_cell_angle_beta   74.41978334
_cell_angle_gamma   51.37073922
_symmetry_Int_Tables_number   1
_chemical_formula_structural   Dy5CuRhO12
_chemical_formula_sum   'Dy5 Cu1 Rh1 O12'
_cell_volume   250.42396679
_cell_formula_units_Z   1
loop_
 _symmetry_equiv_pos_site_id
 _symmetry_equiv_pos_as_xyz
  1  'x, y, z'
loop_
 _atom_site_type_symbol
 _atom_site_label
 _atom_site_symmetry_multiplicity
 _atom_site_fract_x
 _atom_site_fract_y
 _atom_site_fract_z
 _atom_site_occupancy
  Dy  Dy0  1  0.298629  0.308447  0.358351  1
  Dy  Dy1  1  0.691553  0.701371  0.641649  1
  Dy  Dy2  1  0.306296  0.310035  0.832354  1
  Dy  Dy3  1  0.689965  0.693704  0.167646  1
  Dy  Dy4  1  0.002016  0.997984  0.500000  1
  Cu  Cu5  1  0.250645  0.749355  0.000000  1
  Rh  Rh6  1  0.759335  0.240665  0.000000  1
  O  O7  1  0.901508  0.430497  0.917603  1
  O  O8  1  0.422254  0.900759  0.918249  1
  O  O9  1  0.099241  0.577746  0.081751  1
  O  O10  1  0.569503  0.098492  0.082397  1
  O  O11  1  0.096297  0.597376  0.574947  1
  O  O12  1  0.598463  0.097059  0.575911  1
  O  O13  1  0.902941  0.401537  0.424089  1
  O  O14  1  0.402624  0.903703  0.425053  1
  O  O15  1  0.000171  0.000754  0.818404  1
  O  O16  1  0.999246  0.999829  0.181596  1
  O  O17  1  0.504995  0.495682  0.813758  1
  O  O18  1  0.504318  0.495005  0.186242  1
