# generated using pymatgen
data_Ir3RuPb4O13
_symmetry_space_group_name_H-M   'P 1'
_cell_length_a   7.36298116
_cell_length_b   7.33073391
_cell_length_c   7.33073500
_cell_angle_alpha   59.99999958
_cell_angle_beta   60.14477165
_cell_angle_gamma   60.14476490
_symmetry_Int_Tables_number   1
_chemical_formula_structural   Ir3RuPb4O13
_chemical_formula_sum   'Ir3 Ru1 Pb4 O13'
_cell_volume   280.40162038
_cell_formula_units_Z   1
loop_
 _symmetry_equiv_pos_site_id
 _symmetry_equiv_pos_as_xyz
  1  'x, y, z'
loop_
 _atom_site_type_symbol
 _atom_site_label
 _atom_site_symmetry_multiplicity
 _atom_site_fract_x
 _atom_site_fract_y
 _atom_site_fract_z
 _atom_site_occupancy
  Ir  Ir0  1  0.874438  0.375472  0.875045  1
  Ir  Ir1  1  0.874438  0.875045  0.375472  1
  Ir  Ir2  1  0.874438  0.875045  0.875045  1
  Ru  Ru3  1  0.374272  0.875242  0.875242  1
  Pb  Pb4  1  0.880403  0.373199  0.373199  1
  Pb  Pb5  1  0.373135  0.372891  0.372891  1
  Pb  Pb6  1  0.373135  0.372891  0.881082  1
  Pb  Pb7  1  0.373135  0.881082  0.372891  1
  O  O8  1  0.200596  0.799231  0.799231  1
  O  O9  1  0.200596  0.799231  0.200941  1
  O  O10  1  0.552116  0.947423  0.947423  1
  O  O11  1  0.552116  0.947423  0.553038  1
  O  O12  1  0.951550  0.949898  0.549276  1
  O  O13  1  0.796387  0.797149  0.203232  1
  O  O14  1  0.552116  0.553038  0.947423  1
  O  O15  1  0.796387  0.203232  0.797149  1
  O  O16  1  0.796387  0.203232  0.203232  1
  O  O17  1  0.951550  0.549276  0.949898  1
  O  O18  1  0.951550  0.549276  0.549276  1
  O  O19  1  0.200596  0.200941  0.799231  1
  O  O20  1  0.500657  0.499781  0.499781  1
