# generated using pymatgen
data_Tb5Tm2(LuSn2)3
_symmetry_space_group_name_H-M   'P 1'
_cell_length_a   8.91964398
_cell_length_b   8.91957942
_cell_length_c   6.46824800
_cell_angle_alpha   89.99771346
_cell_angle_beta   90.00163129
_cell_angle_gamma   119.88203905
_symmetry_Int_Tables_number   1
_chemical_formula_structural   Tb5Tm2(LuSn2)3
_chemical_formula_sum   'Tb5 Tm2 Lu3 Sn6'
_cell_volume   446.19447743
_cell_formula_units_Z   1
loop_
 _symmetry_equiv_pos_site_id
 _symmetry_equiv_pos_as_xyz
  1  'x, y, z'
loop_
 _atom_site_type_symbol
 _atom_site_label
 _atom_site_symmetry_multiplicity
 _atom_site_fract_x
 _atom_site_fract_y
 _atom_site_fract_z
 _atom_site_occupancy
  Tb  Tb0  1  0.238613  0.999658  0.749931  1
  Tb  Tb1  1  0.999771  0.238663  0.749934  1
  Tb  Tb2  1  0.241337  0.241394  0.250074  1
  Tb  Tb3  1  0.761220  0.999464  0.250068  1
  Tb  Tb4  1  0.999574  0.761279  0.250062  1
  Tm  Tm5  1  0.666695  0.333012  0.999677  1
  Tm  Tm6  1  0.760081  0.760126  0.749935  1
  Lu  Lu7  1  0.333024  0.666710  0.999681  1
  Lu  Lu8  1  0.333006  0.666710  0.500334  1
  Lu  Lu9  1  0.666711  0.333017  0.500337  1
  Sn  Sn10  1  0.398283  0.398540  0.749799  1
  Sn  Sn11  1  0.603409  0.998305  0.749807  1
  Sn  Sn12  1  0.998760  0.603613  0.749797  1
  Sn  Sn13  1  0.602662  0.602887  0.250194  1
  Sn  Sn14  1  0.396938  0.999470  0.250182  1
  Sn  Sn15  1  0.999920  0.397155  0.250188  1
