# generated using pymatgen
data_LaPr3(MoO6)2
_symmetry_space_group_name_H-M   'P 1'
_cell_length_a   10.30847032
_cell_length_b   10.30847053
_cell_length_c   5.63503476
_cell_angle_alpha   75.35270850
_cell_angle_beta   75.35270857
_cell_angle_gamma   68.73403911
_symmetry_Int_Tables_number   1
_chemical_formula_structural   LaPr3(MoO6)2
_chemical_formula_sum   'La2 Pr6 Mo4 O24'
_cell_volume   531.20046532
_cell_formula_units_Z   2
loop_
 _symmetry_equiv_pos_site_id
 _symmetry_equiv_pos_as_xyz
  1  'x, y, z'
loop_
 _atom_site_type_symbol
 _atom_site_label
 _atom_site_symmetry_multiplicity
 _atom_site_fract_x
 _atom_site_fract_y
 _atom_site_fract_z
 _atom_site_occupancy
  La  La0  1  0.634206  0.365794  0.750000  1
  La  La1  1  0.365794  0.634206  0.250000  1
  Pr  Pr2  1  0.109797  0.890203  0.750000  1
  Pr  Pr3  1  0.890203  0.109797  0.250000  1
  Pr  Pr4  1  0.711898  0.943505  0.882161  1
  Pr  Pr5  1  0.288102  0.056495  0.117839  1
  Pr  Pr6  1  0.056495  0.288102  0.617839  1
  Pr  Pr7  1  0.943505  0.711898  0.382161  1
  Mo  Mo8  1  0.508286  0.798763  0.558671  1
  Mo  Mo9  1  0.491714  0.201237  0.441329  1
  Mo  Mo10  1  0.201237  0.491714  0.941329  1
  Mo  Mo11  1  0.798763  0.508286  0.058671  1
  O  O12  1  0.685782  0.163100  0.584135  1
  O  O13  1  0.314218  0.836900  0.415865  1
  O  O14  1  0.836900  0.314218  0.915865  1
  O  O15  1  0.163100  0.685782  0.084135  1
  O  O16  1  0.385757  0.828919  0.856666  1
  O  O17  1  0.614243  0.171081  0.143334  1
  O  O18  1  0.171081  0.614243  0.643334  1
  O  O19  1  0.828919  0.385757  0.356666  1
  O  O20  1  0.674694  0.787932  0.635961  1
  O  O21  1  0.325306  0.212068  0.364039  1
  O  O22  1  0.212068  0.325306  0.864039  1
  O  O23  1  0.787932  0.674694  0.135961  1
  O  O24  1  0.473945  0.071521  0.733322  1
  O  O25  1  0.526055  0.928479  0.266678  1
  O  O26  1  0.928479  0.526055  0.766678  1
  O  O27  1  0.071521  0.473945  0.233322  1
  O  O28  1  0.545120  0.618912  0.518296  1
  O  O29  1  0.454880  0.381088  0.481704  1
  O  O30  1  0.381088  0.454880  0.981704  1
  O  O31  1  0.618912  0.545120  0.018296  1
  O  O32  1  0.891546  0.923229  0.079043  1
  O  O33  1  0.108454  0.076771  0.920957  1
  O  O34  1  0.076771  0.108454  0.420957  1
  O  O35  1  0.923229  0.891546  0.579043  1
