# generated using pymatgen
data_Ti6Ga5AsRu12
_symmetry_space_group_name_H-M   'P 1'
_cell_length_a   4.30175900
_cell_length_b   6.14576100
_cell_length_c   12.91864200
_cell_angle_alpha   90.00014998
_cell_angle_beta   89.99847797
_cell_angle_gamma   90.00005461
_symmetry_Int_Tables_number   1
_chemical_formula_structural   Ti6Ga5AsRu12
_chemical_formula_sum   'Ti6 Ga5 As1 Ru12'
_cell_volume   341.53766610
_cell_formula_units_Z   1
loop_
 _symmetry_equiv_pos_site_id
 _symmetry_equiv_pos_as_xyz
  1  'x, y, z'
loop_
 _atom_site_type_symbol
 _atom_site_label
 _atom_site_symmetry_multiplicity
 _atom_site_fract_x
 _atom_site_fract_y
 _atom_site_fract_z
 _atom_site_occupancy
  Ti  Ti0  1  0.000000  0.500000  0.000000  1
  Ti  Ti1  1  0.499839  0.000000  0.170255  1
  Ti  Ti2  1  0.999830  0.500000  0.333708  1
  Ti  Ti3  1  0.500001  0.000000  0.500000  1
  Ti  Ti4  1  0.000170  0.500000  0.666293  1
  Ti  Ti5  1  0.500161  0.000000  0.829745  1
  Ga  Ga6  1  0.499843  0.500000  0.166762  1
  Ga  Ga7  1  0.999811  0.000000  0.333517  1
  Ga  Ga8  1  0.500001  0.500000  0.500000  1
  Ga  Ga9  1  0.000189  0.000000  0.666483  1
  Ga  Ga10  1  0.500157  0.500000  0.833239  1
  As  As11  1  0.000000  0.000000  0.000000  1
  Ru  Ru12  1  0.500001  0.248110  0.000000  1
  Ru  Ru13  1  0.500001  0.751890  0.000000  1
  Ru  Ru14  1  0.999864  0.247699  0.164789  1
  Ru  Ru15  1  0.999863  0.752300  0.164790  1
  Ru  Ru16  1  0.499829  0.250953  0.332709  1
  Ru  Ru17  1  0.499830  0.749047  0.332709  1
  Ru  Ru18  1  0.000000  0.249599  0.500000  1
  Ru  Ru19  1  0.000000  0.750401  0.500000  1
  Ru  Ru20  1  0.500170  0.250953  0.667291  1
  Ru  Ru21  1  0.500171  0.749047  0.667291  1
  Ru  Ru22  1  0.000137  0.247700  0.835210  1
  Ru  Ru23  1  0.000136  0.752301  0.835211  1
