# generated using pymatgen
data_AgPbAu(SeO4)4
_symmetry_space_group_name_H-M   'P 1'
_cell_length_a   6.99572551
_cell_length_b   6.99572623
_cell_length_c   9.40122451
_cell_angle_alpha   73.05961058
_cell_angle_beta   73.05960146
_cell_angle_gamma   87.79229368
_symmetry_Int_Tables_number   1
_chemical_formula_structural   AgPbAu(SeO4)4
_chemical_formula_sum   'Ag1 Pb1 Au1 Se4 O16'
_cell_volume   420.49408958
_cell_formula_units_Z   1
loop_
 _symmetry_equiv_pos_site_id
 _symmetry_equiv_pos_as_xyz
  1  'x, y, z'
loop_
 _atom_site_type_symbol
 _atom_site_label
 _atom_site_symmetry_multiplicity
 _atom_site_fract_x
 _atom_site_fract_y
 _atom_site_fract_z
 _atom_site_occupancy
  Ag  Ag0  1  0.500000  0.500000  0.500000  1
  Pb  Pb1  1  0.000000  0.000000  0.000000  1
  Au  Au2  1  0.000000  0.000000  0.500000  1
  Se  Se3  1  0.087528  0.591590  0.736195  1
  Se  Se4  1  0.591590  0.087528  0.736195  1
  Se  Se5  1  0.912472  0.408410  0.263805  1
  Se  Se6  1  0.408410  0.912472  0.263805  1
  O  O7  1  0.344194  0.633027  0.663141  1
  O  O8  1  0.633027  0.344194  0.663141  1
  O  O9  1  0.655806  0.366973  0.336859  1
  O  O10  1  0.366973  0.655806  0.336859  1
  O  O11  1  0.018721  0.709619  0.868767  1
  O  O12  1  0.709619  0.018721  0.868767  1
  O  O13  1  0.981279  0.290381  0.131233  1
  O  O14  1  0.290381  0.981279  0.131233  1
  O  O15  1  0.983648  0.697214  0.584923  1
  O  O16  1  0.697214  0.983648  0.584923  1
  O  O17  1  0.016352  0.302786  0.415077  1
  O  O18  1  0.302786  0.016352  0.415077  1
  O  O19  1  0.025295  0.352283  0.785915  1
  O  O20  1  0.352283  0.025295  0.785915  1
  O  O21  1  0.974705  0.647717  0.214085  1
  O  O22  1  0.647717  0.974705  0.214085  1
