# generated using pymatgen
data_Er2U(SnRh)3
_symmetry_space_group_name_H-M   'P 1'
_cell_length_a   7.47016790
_cell_length_b   7.59486919
_cell_length_c   3.86578300
_cell_angle_alpha   90.00000000
_cell_angle_beta   90.00000000
_cell_angle_gamma   120.55375815
_symmetry_Int_Tables_number   1
_chemical_formula_structural   Er2U(SnRh)3
_chemical_formula_sum   'Er2 U1 Sn3 Rh3'
_cell_volume   188.87228749
_cell_formula_units_Z   1
loop_
 _symmetry_equiv_pos_site_id
 _symmetry_equiv_pos_as_xyz
  1  'x, y, z'
loop_
 _atom_site_type_symbol
 _atom_site_label
 _atom_site_symmetry_multiplicity
 _atom_site_fract_x
 _atom_site_fract_y
 _atom_site_fract_z
 _atom_site_occupancy
  Er  Er0  1  0.405005  0.405939  0.500000  1
  Er  Er1  1  0.594995  0.000934  0.500000  1
  U  U2  1  0.000000  0.585154  0.500000  1
  Sn  Sn3  1  0.727741  0.741003  0.000000  1
  Sn  Sn4  1  0.272259  0.013262  0.000000  1
  Sn  Sn5  1  0.000000  0.245122  0.000000  1
  Rh  Rh6  1  0.696875  0.360708  0.000000  1
  Rh  Rh7  1  0.303125  0.663834  0.000000  1
  Rh  Rh8  1  0.000000  0.984044  0.500000  1
