# generated using pymatgen
data_Y5Zr3(Ta3Si4)4
_symmetry_space_group_name_H-M   'P 1'
_cell_length_a   6.95086323
_cell_length_b   6.95255943
_cell_length_c   12.83912300
_cell_angle_alpha   89.95022458
_cell_angle_beta   90.08815039
_cell_angle_gamma   90.08024459
_symmetry_Int_Tables_number   1
_chemical_formula_structural   Y5Zr3(Ta3Si4)4
_chemical_formula_sum   'Y5 Zr3 Ta12 Si16'
_cell_volume   620.46560134
_cell_formula_units_Z   1
loop_
 _symmetry_equiv_pos_site_id
 _symmetry_equiv_pos_as_xyz
  1  'x, y, z'
loop_
 _atom_site_type_symbol
 _atom_site_label
 _atom_site_symmetry_multiplicity
 _atom_site_fract_x
 _atom_site_fract_y
 _atom_site_fract_z
 _atom_site_occupancy
  Y  Y0  1  0.998162  0.660090  0.032311  1
  Y  Y1  1  0.002852  0.338534  0.531467  1
  Y  Y2  1  0.661103  0.997619  0.969242  1
  Y  Y3  1  0.162338  0.501920  0.779899  1
  Y  Y4  1  0.838253  0.497625  0.282103  1
  Zr  Zr5  1  0.495293  0.158350  0.219626  1
  Zr  Zr6  1  0.504754  0.843357  0.717527  1
  Zr  Zr7  1  0.342799  0.996297  0.469003  1
  Ta  Ta8  1  0.347376  0.509006  0.376073  1
  Ta  Ta9  1  0.844937  0.997258  0.374358  1
  Ta  Ta10  1  0.008855  0.154790  0.127554  1
  Ta  Ta11  1  0.992407  0.847758  0.624708  1
  Ta  Ta12  1  0.651361  0.491386  0.874575  1
  Ta  Ta13  1  0.502680  0.344939  0.622644  1
  Ta  Ta14  1  0.494251  0.654678  0.125299  1
  Ta  Ta15  1  0.155691  0.003932  0.872603  1
  Ta  Ta16  1  0.666648  0.673177  0.499944  1
  Ta  Ta17  1  0.828891  0.166207  0.748811  1
  Ta  Ta18  1  0.171817  0.834423  0.251371  1
  Ta  Ta19  1  0.331106  0.328941  0.999931  1
  Si  Si20  1  0.045446  0.708080  0.436721  1
  Si  Si21  1  0.956886  0.293930  0.936573  1
  Si  Si22  1  0.699651  0.043597  0.563491  1
  Si  Si23  1  0.206680  0.455568  0.187359  1
  Si  Si24  1  0.792663  0.543678  0.685838  1
  Si  Si25  1  0.456796  0.199599  0.812298  1
  Si  Si26  1  0.542711  0.801653  0.313936  1
  Si  Si27  1  0.297083  0.957768  0.064482  1
  Si  Si28  1  0.864707  0.792799  0.817362  1
  Si  Si29  1  0.139094  0.204774  0.321446  1
  Si  Si30  1  0.791131  0.871887  0.181823  1
  Si  Si31  1  0.296871  0.638936  0.570927  1
  Si  Si32  1  0.702016  0.364215  0.071524  1
  Si  Si33  1  0.627283  0.289824  0.428809  1
  Si  Si34  1  0.368348  0.705825  0.929933  1
  Si  Si35  1  0.211055  0.127575  0.678433  1
