# generated using pymatgen
data_Ce3SmCo4(SnH)4
_symmetry_space_group_name_H-M   'P 1'
_cell_length_a   4.33560100
_cell_length_b   7.10938006
_cell_length_c   8.30649804
_cell_angle_alpha   90.01282545
_cell_angle_beta   90.00000000
_cell_angle_gamma   90.00000000
_symmetry_Int_Tables_number   1
_chemical_formula_structural   Ce3SmCo4(SnH)4
_chemical_formula_sum   'Ce3 Sm1 Co4 Sn4 H4'
_cell_volume   256.03479834
_cell_formula_units_Z   1
loop_
 _symmetry_equiv_pos_site_id
 _symmetry_equiv_pos_as_xyz
  1  'x, y, z'
loop_
 _atom_site_type_symbol
 _atom_site_label
 _atom_site_symmetry_multiplicity
 _atom_site_fract_x
 _atom_site_fract_y
 _atom_site_fract_z
 _atom_site_occupancy
  Ce  Ce0  1  0.750000  0.013286  0.691506  1
  Ce  Ce1  1  0.250000  0.985132  0.306272  1
  Ce  Ce2  1  0.250000  0.487468  0.193374  1
  Sm  Sm3  1  0.750000  0.513135  0.811069  1
  Co  Co4  1  0.750000  0.775192  0.107613  1
  Co  Co5  1  0.250000  0.221538  0.894878  1
  Co  Co6  1  0.250000  0.731598  0.599239  1
  Co  Co7  1  0.750000  0.273965  0.392611  1
  Sn  Sn8  1  0.750000  0.659384  0.431154  1
  Sn  Sn9  1  0.250000  0.339732  0.572371  1
  Sn  Sn10  1  0.250000  0.838667  0.927061  1
  Sn  Sn11  1  0.750000  0.160029  0.070347  1
  H  H12  1  0.250000  0.443640  0.919862  1
  H  H13  1  0.750000  0.552097  0.083904  1
  H  H14  1  0.750000  0.051140  0.416039  1
  H  H15  1  0.250000  0.953994  0.582700  1
