# generated using pymatgen
data_Ce4Tm12CdHg3Ir4
_symmetry_space_group_name_H-M   'P 1'
_cell_length_a   9.56763082
_cell_length_b   9.57503785
_cell_length_c   9.57503700
_cell_angle_alpha   60.00000639
_cell_angle_beta   59.97439356
_cell_angle_gamma   59.97439133
_symmetry_Int_Tables_number   1
_chemical_formula_structural   Ce4Tm12CdHg3Ir4
_chemical_formula_sum   'Ce4 Tm12 Cd1 Hg3 Ir4'
_cell_volume   620.01498637
_cell_formula_units_Z   1
loop_
 _symmetry_equiv_pos_site_id
 _symmetry_equiv_pos_as_xyz
  1  'x, y, z'
loop_
 _atom_site_type_symbol
 _atom_site_label
 _atom_site_symmetry_multiplicity
 _atom_site_fract_x
 _atom_site_fract_y
 _atom_site_fract_z
 _atom_site_occupancy
  Ce  Ce0  1  0.601599  0.601033  0.601033  1
  Ce  Ce1  1  0.601599  0.601033  0.196334  1
  Ce  Ce2  1  0.601599  0.196334  0.601033  1
  Ce  Ce3  1  0.193902  0.602033  0.602033  1
  Tm  Tm4  1  0.061694  0.438172  0.438172  1
  Tm  Tm5  1  0.437372  0.062319  0.062319  1
  Tm  Tm6  1  0.437372  0.062319  0.437990  1
  Tm  Tm7  1  0.061694  0.438172  0.061962  1
  Tm  Tm8  1  0.437372  0.437990  0.062319  1
  Tm  Tm9  1  0.061694  0.061962  0.438172  1
  Tm  Tm10  1  0.185552  0.813700  0.813700  1
  Tm  Tm11  1  0.813559  0.186349  0.186349  1
  Tm  Tm12  1  0.813559  0.186349  0.813744  1
  Tm  Tm13  1  0.185552  0.813700  0.187047  1
  Tm  Tm14  1  0.813559  0.813744  0.186349  1
  Tm  Tm15  1  0.185552  0.187047  0.813700  1
  Cd  Cd16  1  0.502074  0.832641  0.832641  1
  Hg  Hg17  1  0.835295  0.837582  0.837582  1
  Hg  Hg18  1  0.835295  0.837582  0.489538  1
  Hg  Hg19  1  0.835295  0.489538  0.837582  1
  Ir  Ir20  1  0.392368  0.392838  0.392838  1
  Ir  Ir21  1  0.392368  0.392838  0.821955  1
  Ir  Ir22  1  0.392368  0.821955  0.392838  1
  Ir  Ir23  1  0.821701  0.392766  0.392766  1
