# generated using pymatgen
data_Ba2Ir5(PdO9)2
_symmetry_space_group_name_H-M   'P 1'
_cell_length_a   6.85658439
_cell_length_b   7.18227434
_cell_length_c   7.73179659
_cell_angle_alpha   92.87135349
_cell_angle_beta   94.97031303
_cell_angle_gamma   114.93862151
_symmetry_Int_Tables_number   1
_chemical_formula_structural   Ba2Ir5(PdO9)2
_chemical_formula_sum   'Ba2 Ir5 Pd2 O18'
_cell_volume   342.37373311
_cell_formula_units_Z   1
loop_
 _symmetry_equiv_pos_site_id
 _symmetry_equiv_pos_as_xyz
  1  'x, y, z'
loop_
 _atom_site_type_symbol
 _atom_site_label
 _atom_site_symmetry_multiplicity
 _atom_site_fract_x
 _atom_site_fract_y
 _atom_site_fract_z
 _atom_site_occupancy
  Ba  Ba0  1  0.315611  0.685862  0.619566  1
  Ba  Ba1  1  0.681570  0.315312  0.382583  1
  Ir  Ir2  1  0.809921  0.126540  0.813973  1
  Ir  Ir3  1  0.191352  0.875705  0.184392  1
  Ir  Ir4  1  0.603319  0.720675  0.114913  1
  Ir  Ir5  1  0.826821  0.621223  0.804475  1
  Ir  Ir6  1  0.170781  0.378337  0.196650  1
  Pd  Pd7  1  0.398255  0.284828  0.886524  1
  Pd  Pd8  1  0.998920  0.997934  0.499887  1
  O  O9  1  0.918908  0.711054  0.579895  1
  O  O10  1  0.288141  0.171781  0.120804  1
  O  O11  1  0.316942  0.519057  0.988050  1
  O  O12  1  0.465641  0.556837  0.306406  1
  O  O13  1  0.493424  0.924418  0.165654  1
  O  O14  1  0.911792  0.400910  0.728127  1
  O  O15  1  0.717367  0.831271  0.886343  1
  O  O16  1  0.914497  0.233040  0.048430  1
  O  O17  1  0.688546  0.495395  0.022167  1
  O  O18  1  0.079448  0.285176  0.419240  1
  O  O19  1  0.091939  0.108504  0.759250  1
  O  O20  1  0.723947  0.002433  0.572994  1
  O  O21  1  0.089331  0.599782  0.273428  1
  O  O22  1  0.896819  0.870907  0.241928  1
  O  O23  1  0.086575  0.765895  0.950510  1
  O  O24  1  0.509675  0.073319  0.819706  1
  O  O25  1  0.274639  0.994179  0.425128  1
  O  O26  1  0.535818  0.449627  0.688975  1
