# generated using pymatgen
data_PrTi(NbSe2)8
_symmetry_space_group_name_H-M   'P 1'
_cell_length_a   7.01122300
_cell_length_b   7.01122269
_cell_length_c   14.00197300
_cell_angle_alpha   90.00000000
_cell_angle_beta   90.00000000
_cell_angle_gamma   120.00001564
_symmetry_Int_Tables_number   1
_chemical_formula_structural   PrTi(NbSe2)8
_chemical_formula_sum   'Pr1 Ti1 Nb8 Se16'
_cell_volume   596.08382985
_cell_formula_units_Z   1
loop_
 _symmetry_equiv_pos_site_id
 _symmetry_equiv_pos_as_xyz
  1  'x, y, z'
loop_
 _atom_site_type_symbol
 _atom_site_label
 _atom_site_symmetry_multiplicity
 _atom_site_fract_x
 _atom_site_fract_y
 _atom_site_fract_z
 _atom_site_occupancy
  Pr  Pr0  1  0.000000  0.000000  0.500000  1
  Ti  Ti1  1  0.000000  0.000000  0.000000  1
  Nb  Nb2  1  0.000000  0.000000  0.231316  1
  Nb  Nb3  1  0.000000  0.000000  0.768684  1
  Nb  Nb4  1  0.506552  0.493448  0.230474  1
  Nb  Nb5  1  0.506552  0.013105  0.230474  1
  Nb  Nb6  1  0.986895  0.493448  0.230474  1
  Nb  Nb7  1  0.493448  0.506552  0.769526  1
  Nb  Nb8  1  0.493448  0.986895  0.769526  1
  Nb  Nb9  1  0.013105  0.506552  0.769526  1
  Se  Se10  1  0.333333  0.666667  0.891641  1
  Se  Se11  1  0.666667  0.333333  0.108359  1
  Se  Se12  1  0.666667  0.333333  0.354765  1
  Se  Se13  1  0.333333  0.666667  0.645235  1
  Se  Se14  1  0.170058  0.829942  0.349567  1
  Se  Se15  1  0.170058  0.340115  0.349567  1
  Se  Se16  1  0.659885  0.829942  0.349567  1
  Se  Se17  1  0.829942  0.170058  0.650433  1
  Se  Se18  1  0.829942  0.659885  0.650433  1
  Se  Se19  1  0.340115  0.170058  0.650433  1
  Se  Se20  1  0.831983  0.168017  0.888399  1
  Se  Se21  1  0.831983  0.663965  0.888399  1
  Se  Se22  1  0.336035  0.168017  0.888399  1
  Se  Se23  1  0.168017  0.831983  0.111601  1
  Se  Se24  1  0.168017  0.336035  0.111601  1
  Se  Se25  1  0.663965  0.831983  0.111601  1
