# generated using pymatgen
data_SmHo3Tc3Os5
_symmetry_space_group_name_H-M   'P 1'
_cell_length_a   5.28010389
_cell_length_b   5.30615107
_cell_length_c   9.08765900
_cell_angle_alpha   90.00000006
_cell_angle_beta   90.04652694
_cell_angle_gamma   120.16332386
_symmetry_Int_Tables_number   1
_chemical_formula_structural   SmHo3Tc3Os5
_chemical_formula_sum   'Sm1 Ho3 Tc3 Os5'
_cell_volume   220.13416018
_cell_formula_units_Z   1
loop_
 _symmetry_equiv_pos_site_id
 _symmetry_equiv_pos_as_xyz
  1  'x, y, z'
loop_
 _atom_site_type_symbol
 _atom_site_label
 _atom_site_symmetry_multiplicity
 _atom_site_fract_x
 _atom_site_fract_y
 _atom_site_fract_z
 _atom_site_occupancy
  Sm  Sm0  1  0.336654  0.668328  0.063928  1
  Ho  Ho1  1  0.336858  0.668430  0.435400  1
  Ho  Ho2  1  0.668392  0.334195  0.562818  1
  Ho  Ho3  1  0.668455  0.334226  0.936453  1
  Tc  Tc4  1  0.165033  0.335385  0.748521  1
  Tc  Tc5  1  0.165033  0.829648  0.748521  1
  Tc  Tc6  1  0.329438  0.164719  0.251570  1
  Os  Os7  1  0.824576  0.653699  0.252277  1
  Os  Os8  1  0.652316  0.826158  0.748249  1
  Os  Os9  1  0.014411  0.007206  0.000983  1
  Os  Os10  1  0.824576  0.170877  0.252277  1
  Os  Os11  1  0.014258  0.007129  0.499003  1
