# generated using pymatgen
data_Sm11Er(SiI3)4
_symmetry_space_group_name_H-M   'P 1'
_cell_length_a   10.66715280
_cell_length_b   10.66717989
_cell_length_c   10.67973296
_cell_angle_alpha   109.48164530
_cell_angle_beta   109.48160006
_cell_angle_gamma   109.40382224
_symmetry_Int_Tables_number   1
_chemical_formula_structural   Sm11Er(SiI3)4
_chemical_formula_sum   'Sm11 Er1 Si4 I12'
_cell_volume   936.02170988
_cell_formula_units_Z   1
loop_
 _symmetry_equiv_pos_site_id
 _symmetry_equiv_pos_as_xyz
  1  'x, y, z'
loop_
 _atom_site_type_symbol
 _atom_site_label
 _atom_site_symmetry_multiplicity
 _atom_site_fract_x
 _atom_site_fract_y
 _atom_site_fract_z
 _atom_site_occupancy
  Sm  Sm0  1  0.463939  0.481521  0.232158  1
  Sm  Sm1  1  0.751416  0.231748  0.269426  1
  Sm  Sm2  1  0.749026  0.017759  0.480969  1
  Sm  Sm3  1  0.231558  0.463025  0.481196  1
  Sm  Sm4  1  0.268252  0.748587  0.230575  1
  Sm  Sm5  1  0.036956  0.268433  0.018794  1
  Sm  Sm6  1  0.018482  0.036076  0.267851  1
  Sm  Sm7  1  0.482243  0.750981  0.019033  1
  Sm  Sm8  1  0.482030  0.231670  0.463469  1
  Sm  Sm9  1  0.018869  0.481131  0.750001  1
  Sm  Sm10  1  0.268329  0.017970  0.036536  1
  Er  Er11  1  0.228658  0.271347  0.749998  1
  Si  Si12  1  0.250179  0.249819  0.249998  1
  Si  Si13  1  0.499963  0.000042  0.250003  1
  Si  Si14  1  0.002381  0.249324  0.502097  1
  Si  Si15  1  0.250675  0.497617  0.997903  1
  I  I16  1  0.250128  0.756914  0.742753  1
  I  I17  1  0.508266  0.500389  0.757638  1
  I  I18  1  0.985260  0.741862  0.992123  1
  I  I19  1  0.743084  0.249871  0.757244  1
  I  I20  1  0.999617  0.991738  0.742362  1
  I  I21  1  0.250449  0.997763  0.511606  1
  I  I22  1  0.758139  0.514739  0.507877  1
  I  I23  1  0.502235  0.249552  0.988392  1
  I  I24  1  0.757384  0.742611  0.249998  1
  I  I25  1  0.742782  0.992740  0.985429  1
  I  I26  1  0.992438  0.507564  0.250000  1
  I  I27  1  0.507258  0.757212  0.514571  1
