# generated using pymatgen
data_CaLa(CdPt)2
_symmetry_space_group_name_H-M   'P 1'
_cell_length_a   4.28811100
_cell_length_b   7.39378300
_cell_length_c   8.88391000
_cell_angle_alpha   90.00000000
_cell_angle_beta   90.00000000
_cell_angle_gamma   90.00000000
_symmetry_Int_Tables_number   1
_chemical_formula_structural   CaLa(CdPt)2
_chemical_formula_sum   'Ca2 La2 Cd4 Pt4'
_cell_volume   281.66758443
_cell_formula_units_Z   2
loop_
 _symmetry_equiv_pos_site_id
 _symmetry_equiv_pos_as_xyz
  1  'x, y, z'
loop_
 _atom_site_type_symbol
 _atom_site_label
 _atom_site_symmetry_multiplicity
 _atom_site_fract_x
 _atom_site_fract_y
 _atom_site_fract_z
 _atom_site_occupancy
  Ca  Ca0  1  0.750000  0.957558  0.687430  1
  Ca  Ca1  1  0.750000  0.457558  0.812570  1
  La  La2  1  0.250000  0.038519  0.326839  1
  La  La3  1  0.250000  0.538519  0.173161  1
  Cd  Cd4  1  0.250000  0.142235  0.932946  1
  Cd  Cd5  1  0.250000  0.642235  0.567054  1
  Cd  Cd6  1  0.750000  0.863426  0.055626  1
  Cd  Cd7  1  0.750000  0.363426  0.444374  1
  Pt  Pt8  1  0.250000  0.246398  0.624622  1
  Pt  Pt9  1  0.250000  0.746398  0.875378  1
  Pt  Pt10  1  0.750000  0.751864  0.366805  1
  Pt  Pt11  1  0.750000  0.251864  0.133195  1
