# generated using pymatgen
data_Tb4Lu16Bi11Pb
_symmetry_space_group_name_H-M   'P 1'
_cell_length_a   8.16658223
_cell_length_b   9.39569437
_cell_length_c   11.87885507
_cell_angle_alpha   90.06187017
_cell_angle_beta   89.97280621
_cell_angle_gamma   90.00165846
_symmetry_Int_Tables_number   1
_chemical_formula_structural   Tb4Lu16Bi11Pb
_chemical_formula_sum   'Tb4 Lu16 Bi11 Pb1'
_cell_volume   911.47235697
_cell_formula_units_Z   1
loop_
 _symmetry_equiv_pos_site_id
 _symmetry_equiv_pos_as_xyz
  1  'x, y, z'
loop_
 _atom_site_type_symbol
 _atom_site_label
 _atom_site_symmetry_multiplicity
 _atom_site_fract_x
 _atom_site_fract_y
 _atom_site_fract_z
 _atom_site_occupancy
  Tb  Tb0  1  0.313972  0.249697  0.218275  1
  Tb  Tb1  1  0.811871  0.248763  0.282354  1
  Tb  Tb2  1  0.686790  0.750084  0.782086  1
  Tb  Tb3  1  0.186892  0.750264  0.718125  1
  Lu  Lu4  1  0.353966  0.751474  0.219285  1
  Lu  Lu5  1  0.850431  0.751092  0.281779  1
  Lu  Lu6  1  0.647703  0.249997  0.781691  1
  Lu  Lu7  1  0.147984  0.249716  0.718428  1
  Lu  Lu8  1  0.692727  0.566666  0.060186  1
  Lu  Lu9  1  0.194264  0.933112  0.439492  1
  Lu  Lu10  1  0.307129  0.067190  0.939696  1
  Lu  Lu11  1  0.807322  0.433189  0.560498  1
  Lu  Lu12  1  0.307259  0.432936  0.939527  1
  Lu  Lu13  1  0.806461  0.066982  0.560098  1
  Lu  Lu14  1  0.692630  0.933175  0.061194  1
  Lu  Lu15  1  0.192698  0.566801  0.439795  1
  Lu  Lu16  1  0.477993  0.248494  0.488331  1
  Lu  Lu17  1  0.977015  0.250086  0.010412  1
  Lu  Lu18  1  0.523152  0.750835  0.509423  1
  Lu  Lu19  1  0.023173  0.749890  0.989560  1
  Bi  Bi20  1  0.403208  0.750001  0.960236  1
  Bi  Bi21  1  0.903645  0.749984  0.539971  1
  Bi  Bi22  1  0.596871  0.250091  0.039703  1
  Bi  Bi23  1  0.096510  0.249961  0.459966  1
  Bi  Bi24  1  0.065295  0.505996  0.173671  1
  Bi  Bi25  1  0.434387  0.493812  0.673399  1
  Bi  Bi26  1  0.934547  0.006038  0.826354  1
  Bi  Bi27  1  0.434533  0.006176  0.674164  1
  Bi  Bi28  1  0.934306  0.493940  0.826381  1
  Bi  Bi29  1  0.565271  0.505542  0.326587  1
  Bi  Bi30  1  0.064803  0.994099  0.173283  1
  Pb  Pb31  1  0.565188  0.993915  0.326052  1
