# generated using pymatgen
data_Li2SmPaRh2
_symmetry_space_group_name_H-M   'P 1'
_cell_length_a   3.75776800
_cell_length_b   7.16465065
_cell_length_c   8.61015000
_cell_angle_alpha   93.25937148
_cell_angle_beta   90.00000000
_cell_angle_gamma   90.00000000
_symmetry_Int_Tables_number   1
_chemical_formula_structural   Li2SmPaRh2
_chemical_formula_sum   'Li4 Sm2 Pa2 Rh4'
_cell_volume   231.43690343
_cell_formula_units_Z   2
loop_
 _symmetry_equiv_pos_site_id
 _symmetry_equiv_pos_as_xyz
  1  'x, y, z'
loop_
 _atom_site_type_symbol
 _atom_site_label
 _atom_site_symmetry_multiplicity
 _atom_site_fract_x
 _atom_site_fract_y
 _atom_site_fract_z
 _atom_site_occupancy
  Li  Li0  1  0.250000  0.620239  0.552917  1
  Li  Li1  1  0.750000  0.379761  0.447083  1
  Li  Li2  1  0.750000  0.876832  0.057704  1
  Li  Li3  1  0.250000  0.123168  0.942296  1
  Sm  Sm4  1  0.750000  0.943057  0.682671  1
  Sm  Sm5  1  0.250000  0.056943  0.317329  1
  Pa  Pa6  1  0.250000  0.546424  0.189598  1
  Pa  Pa7  1  0.750000  0.453576  0.810402  1
  Rh  Rh8  1  0.250000  0.709197  0.883306  1
  Rh  Rh9  1  0.750000  0.290803  0.116694  1
  Rh  Rh10  1  0.750000  0.744117  0.353304  1
  Rh  Rh11  1  0.250000  0.255883  0.646696  1
