# generated using pymatgen
data_Na2Ga2GeAu
_symmetry_space_group_name_H-M   'P 1'
_cell_length_a   7.34553800
_cell_length_b   4.38980700
_cell_length_c   7.90514400
_cell_angle_alpha   90.00000000
_cell_angle_beta   90.00000000
_cell_angle_gamma   90.00000000
_symmetry_Int_Tables_number   1
_chemical_formula_structural   Na2Ga2GeAu
_chemical_formula_sum   'Na4 Ga4 Ge2 Au2'
_cell_volume   254.90527446
_cell_formula_units_Z   2
loop_
 _symmetry_equiv_pos_site_id
 _symmetry_equiv_pos_as_xyz
  1  'x, y, z'
loop_
 _atom_site_type_symbol
 _atom_site_label
 _atom_site_symmetry_multiplicity
 _atom_site_fract_x
 _atom_site_fract_y
 _atom_site_fract_z
 _atom_site_occupancy
  Na  Na0  1  0.510464  0.250001  0.172227  1
  Na  Na1  1  0.010463  0.250001  0.327773  1
  Na  Na2  1  0.991848  0.750001  0.675341  1
  Na  Na3  1  0.491848  0.750001  0.824658  1
  Ga  Ga4  1  0.842898  0.750001  0.072541  1
  Ga  Ga5  1  0.342897  0.750001  0.427458  1
  Ga  Ga6  1  0.661248  0.250001  0.571783  1
  Ga  Ga7  1  0.161247  0.250001  0.928216  1
  Ge  Ge8  1  0.197002  0.750001  0.111667  1
  Ge  Ge9  1  0.697001  0.750001  0.388333  1
  Au  Au10  1  0.296542  0.250001  0.615458  1
  Au  Au11  1  0.796541  0.250001  0.884541  1
