# generated using pymatgen
data_SrNdHg2(Pt2O7)2
_symmetry_space_group_name_H-M   'P 1'
_cell_length_a   7.39383166
_cell_length_b   7.38312965
_cell_length_c   7.32962900
_cell_angle_alpha   60.23941433
_cell_angle_beta   60.28682261
_cell_angle_gamma   61.01496219
_symmetry_Int_Tables_number   1
_chemical_formula_structural   SrNdHg2(Pt2O7)2
_chemical_formula_sum   'Sr1 Nd1 Hg2 Pt4 O14'
_cell_volume   286.18071460
_cell_formula_units_Z   1
loop_
 _symmetry_equiv_pos_site_id
 _symmetry_equiv_pos_as_xyz
  1  'x, y, z'
loop_
 _atom_site_type_symbol
 _atom_site_label
 _atom_site_symmetry_multiplicity
 _atom_site_fract_x
 _atom_site_fract_y
 _atom_site_fract_z
 _atom_site_occupancy
  Sr  Sr0  1  0.125000  0.625000  0.125000  1
  Nd  Nd1  1  0.625000  0.125000  0.125000  1
  Hg  Hg2  1  0.125000  0.125000  0.125000  1
  Hg  Hg3  1  0.125000  0.125000  0.625000  1
  Pt  Pt4  1  0.625000  0.625000  0.125000  1
  Pt  Pt5  1  0.625000  0.625000  0.625000  1
  Pt  Pt6  1  0.625000  0.125000  0.625000  1
  Pt  Pt7  1  0.125000  0.625000  0.625000  1
  O  O8  1  0.691147  0.297955  0.295992  1
  O  O9  1  0.691147  0.297955  0.714906  1
  O  O10  1  0.010380  0.029546  0.980037  1
  O  O11  1  0.301300  0.698901  0.297572  1
  O  O12  1  0.700569  0.717365  0.291033  1
  O  O13  1  0.948700  0.551099  0.547773  1
  O  O14  1  0.301300  0.698901  0.702227  1
  O  O15  1  0.239620  0.220454  0.269963  1
  O  O16  1  0.948700  0.551099  0.952428  1
  O  O17  1  0.558853  0.952045  0.535094  1
  O  O18  1  0.549431  0.532635  0.958967  1
  O  O19  1  0.948766  0.950540  0.550347  1
  O  O20  1  0.558853  0.952045  0.954008  1
  O  O21  1  0.301234  0.299460  0.699653  1
