# generated using pymatgen
data_Pr20Ir10RuRh
_symmetry_space_group_name_H-M   'P 1'
_cell_length_a   11.34071600
_cell_length_b   11.34071600
_cell_length_c   6.66006700
_cell_angle_alpha   90.00000000
_cell_angle_beta   90.00000000
_cell_angle_gamma   90.00000000
_symmetry_Int_Tables_number   1
_chemical_formula_structural   Pr20Ir10RuRh
_chemical_formula_sum   'Pr20 Ir10 Ru1 Rh1'
_cell_volume   856.56346735
_cell_formula_units_Z   1
loop_
 _symmetry_equiv_pos_site_id
 _symmetry_equiv_pos_as_xyz
  1  'x, y, z'
loop_
 _atom_site_type_symbol
 _atom_site_label
 _atom_site_symmetry_multiplicity
 _atom_site_fract_x
 _atom_site_fract_y
 _atom_site_fract_z
 _atom_site_occupancy
  Pr  Pr0  1  0.292485  0.088919  0.382071  1
  Pr  Pr1  1  0.292460  0.910789  0.884880  1
  Pr  Pr2  1  0.707540  0.089211  0.884880  1
  Pr  Pr3  1  0.707515  0.911081  0.382071  1
  Pr  Pr4  1  0.589211  0.792460  0.884880  1
  Pr  Pr5  1  0.588919  0.207515  0.382071  1
  Pr  Pr6  1  0.411081  0.792485  0.382071  1
  Pr  Pr7  1  0.410789  0.207540  0.884880  1
  Pr  Pr8  1  0.208978  0.409736  0.616367  1
  Pr  Pr9  1  0.209181  0.589946  0.119144  1
  Pr  Pr10  1  0.790819  0.410054  0.119144  1
  Pr  Pr11  1  0.791022  0.590264  0.616367  1
  Pr  Pr12  1  0.910054  0.709181  0.119144  1
  Pr  Pr13  1  0.909736  0.291022  0.616367  1
  Pr  Pr14  1  0.090264  0.708978  0.616367  1
  Pr  Pr15  1  0.089946  0.290819  0.119144  1
  Pr  Pr16  1  0.000000  0.000000  0.498252  1
  Pr  Pr17  1  0.000000  0.000000  0.998072  1
  Pr  Pr18  1  0.500000  0.500000  0.998072  1
  Pr  Pr19  1  0.500000  0.500000  0.498252  1
  Ir  Ir20  1  0.846920  0.154889  0.250221  1
  Ir  Ir21  1  0.847316  0.845197  0.749632  1
  Ir  Ir22  1  0.152684  0.154803  0.749632  1
  Ir  Ir23  1  0.153080  0.845111  0.250221  1
  Ir  Ir24  1  0.654803  0.347316  0.749632  1
  Ir  Ir25  1  0.654889  0.653080  0.250221  1
  Ir  Ir26  1  0.345111  0.346920  0.250221  1
  Ir  Ir27  1  0.345197  0.652684  0.749632  1
  Ir  Ir28  1  0.500000  0.000000  0.617486  1
  Ir  Ir29  1  0.000000  0.500000  0.381646  1
  Ru  Ru30  1  0.500000  0.000000  0.115146  1
  Rh  Rh31  1  0.000000  0.500000  0.883820  1
