# generated using pymatgen
data_SmGdMo(SeO4)3
_symmetry_space_group_name_H-M   'P 1'
_cell_length_a   6.68186228
_cell_length_b   7.23418833
_cell_length_c   11.03692249
_cell_angle_alpha   85.24108863
_cell_angle_beta   73.06056597
_cell_angle_gamma   86.37976546
_symmetry_Int_Tables_number   1
_chemical_formula_structural   SmGdMo(SeO4)3
_chemical_formula_sum   'Sm2 Gd2 Mo2 Se6 O24'
_cell_volume   508.16971707
_cell_formula_units_Z   2
loop_
 _symmetry_equiv_pos_site_id
 _symmetry_equiv_pos_as_xyz
  1  'x, y, z'
loop_
 _atom_site_type_symbol
 _atom_site_label
 _atom_site_symmetry_multiplicity
 _atom_site_fract_x
 _atom_site_fract_y
 _atom_site_fract_z
 _atom_site_occupancy
  Sm  Sm0  1  0.231181  0.139470  0.009832  1
  Sm  Sm1  1  0.293363  0.321120  0.334036  1
  Gd  Gd2  1  0.706771  0.679650  0.666365  1
  Gd  Gd3  1  0.768120  0.860374  0.990450  1
  Mo  Mo4  1  0.777929  0.608937  0.292014  1
  Mo  Mo5  1  0.221876  0.392011  0.708414  1
  Se  Se6  1  0.709406  0.359813  0.007424  1
  Se  Se7  1  0.299974  0.840205  0.283496  1
  Se  Se8  1  0.838805  0.141305  0.359298  1
  Se  Se9  1  0.159699  0.858577  0.642121  1
  Se  Se10  1  0.701629  0.159385  0.716184  1
  Se  Se11  1  0.290656  0.640438  0.991295  1
  O  O12  1  0.854954  0.162944  0.040514  1
  O  O13  1  0.779448  0.537863  0.083366  1
  O  O14  1  0.458325  0.310417  0.106802  1
  O  O15  1  0.417450  0.896645  0.118870  1
  O  O16  1  0.805717  0.826459  0.200046  1
  O  O17  1  0.069936  0.151372  0.233197  1
  O  O18  1  0.046678  0.527779  0.262957  1
  O  O19  1  0.443598  0.629926  0.304617  1
  O  O20  1  0.677506  0.332397  0.320803  1
  O  O21  1  0.400109  0.001637  0.350190  1
  O  O22  1  0.719170  0.669061  0.451705  1
  O  O23  1  0.943123  0.232243  0.463406  1
  O  O24  1  0.054387  0.768036  0.538163  1
  O  O25  1  0.283004  0.331579  0.548858  1
  O  O26  1  0.601463  0.996409  0.650169  1
  O  O27  1  0.323359  0.668272  0.679098  1
  O  O28  1  0.557420  0.369992  0.695941  1
  O  O29  1  0.953314  0.473445  0.735596  1
  O  O30  1  0.928568  0.846994  0.768416  1
  O  O31  1  0.193267  0.173590  0.799063  1
  O  O32  1  0.585670  0.102095  0.880680  1
  O  O33  1  0.541562  0.690834  0.891830  1
  O  O34  1  0.220250  0.462639  0.915350  1
  O  O35  1  0.142314  0.836092  0.959432  1
