# generated using pymatgen
data_Dy4Y7Lu5(CdPt)4
_symmetry_space_group_name_H-M   'P 1'
_cell_length_a   9.63902073
_cell_length_b   9.63901985
_cell_length_c   9.64228600
_cell_angle_alpha   59.98879727
_cell_angle_beta   59.98880030
_cell_angle_gamma   60.20522175
_symmetry_Int_Tables_number   1
_chemical_formula_structural   Dy4Y7Lu5(CdPt)4
_chemical_formula_sum   'Dy4 Y7 Lu5 Cd4 Pt4'
_cell_volume   634.34580454
_cell_formula_units_Z   1
loop_
 _symmetry_equiv_pos_site_id
 _symmetry_equiv_pos_as_xyz
  1  'x, y, z'
loop_
 _atom_site_type_symbol
 _atom_site_label
 _atom_site_symmetry_multiplicity
 _atom_site_fract_x
 _atom_site_fract_y
 _atom_site_fract_z
 _atom_site_occupancy
  Dy  Dy0  1  0.352818  0.352818  0.351959  1
  Dy  Dy1  1  0.352818  0.352818  0.942404  1
  Dy  Dy2  1  0.352994  0.940686  0.353159  1
  Dy  Dy3  1  0.940686  0.352994  0.353159  1
  Y  Y4  1  0.812847  0.812847  0.187153  1
  Y  Y5  1  0.937012  0.562448  0.564655  1
  Y  Y6  1  0.562448  0.937012  0.935884  1
  Y  Y7  1  0.562448  0.937012  0.564655  1
  Y  Y8  1  0.937012  0.562448  0.935884  1
  Y  Y9  1  0.563998  0.563998  0.936002  1
  Y  Y10  1  0.937150  0.937150  0.562850  1
  Lu  Lu11  1  0.812543  0.188366  0.187353  1
  Lu  Lu12  1  0.188366  0.812543  0.811738  1
  Lu  Lu13  1  0.188366  0.812543  0.187353  1
  Lu  Lu14  1  0.812543  0.188366  0.811738  1
  Lu  Lu15  1  0.187799  0.187799  0.812201  1
  Cd  Cd16  1  0.581302  0.581302  0.582306  1
  Cd  Cd17  1  0.581302  0.581302  0.255092  1
  Cd  Cd18  1  0.581494  0.254591  0.581958  1
  Cd  Cd19  1  0.254591  0.581494  0.581958  1
  Pt  Pt20  1  0.141294  0.141294  0.143679  1
  Pt  Pt21  1  0.141294  0.141294  0.573732  1
  Pt  Pt22  1  0.144890  0.571981  0.141564  1
  Pt  Pt23  1  0.571981  0.144890  0.141564  1
