# generated using pymatgen
data_Y4Ho4Ti11Si16Pt
_symmetry_space_group_name_H-M   'P 1'
_cell_length_a   7.04930306
_cell_length_b   7.04957422
_cell_length_c   12.86417643
_cell_angle_alpha   90.19478414
_cell_angle_beta   89.80888626
_cell_angle_gamma   89.69047502
_symmetry_Int_Tables_number   1
_chemical_formula_structural   Y4Ho4Ti11Si16Pt
_chemical_formula_sum   'Y4 Ho4 Ti11 Si16 Pt1'
_cell_volume   639.26329245
_cell_formula_units_Z   1
loop_
 _symmetry_equiv_pos_site_id
 _symmetry_equiv_pos_as_xyz
  1  'x, y, z'
loop_
 _atom_site_type_symbol
 _atom_site_label
 _atom_site_symmetry_multiplicity
 _atom_site_fract_x
 _atom_site_fract_y
 _atom_site_fract_z
 _atom_site_occupancy
  Y  Y0  1  0.340546  0.003734  0.467068  1
  Y  Y1  1  0.496394  0.841969  0.718007  1
  Y  Y2  1  0.501773  0.156905  0.214037  1
  Y  Y3  1  0.842033  0.496349  0.282102  1
  Ho  Ho4  1  0.156712  0.501428  0.785870  1
  Ho  Ho5  1  0.655803  0.998749  0.968493  1
  Ho  Ho6  1  0.003273  0.340850  0.533232  1
  Ho  Ho7  1  0.998715  0.655809  0.031240  1
  Ti  Ti8  1  0.175925  0.825483  0.248320  1
  Ti  Ti9  1  0.825820  0.176485  0.751553  1
  Ti  Ti10  1  0.673587  0.673119  0.500001  1
  Ti  Ti11  1  0.148141  0.004699  0.877413  1
  Ti  Ti12  1  0.494383  0.654472  0.124151  1
  Ti  Ti13  1  0.507262  0.350927  0.627956  1
  Ti  Ti14  1  0.654915  0.494279  0.875705  1
  Ti  Ti15  1  0.350412  0.506902  0.372418  1
  Ti  Ti16  1  0.849492  0.992928  0.374815  1
  Ti  Ti17  1  0.005001  0.147928  0.122294  1
  Ti  Ti18  1  0.993185  0.849644  0.625543  1
  Si  Si19  1  0.200907  0.134225  0.686139  1
  Si  Si20  1  0.372502  0.708944  0.932321  1
  Si  Si21  1  0.631375  0.295595  0.434366  1
  Si  Si22  1  0.709811  0.372845  0.067219  1
  Si  Si23  1  0.294607  0.630180  0.566313  1
  Si  Si24  1  0.798293  0.867067  0.183080  1
  Si  Si25  1  0.132839  0.201506  0.313945  1
  Si  Si26  1  0.867636  0.797716  0.816986  1
  Si  Si27  1  0.285256  0.942739  0.064367  1
  Si  Si28  1  0.547994  0.790914  0.314999  1
  Si  Si29  1  0.448996  0.210671  0.816003  1
  Si  Si30  1  0.792083  0.547796  0.684872  1
  Si  Si31  1  0.210047  0.449582  0.184007  1
  Si  Si32  1  0.709434  0.048790  0.565393  1
  Si  Si33  1  0.943845  0.285522  0.935335  1
  Si  Si34  1  0.048161  0.708451  0.434928  1
  Pt  Pt35  1  0.332845  0.334798  0.999509  1
