# generated using pymatgen
data_YbLuU2(FeB4)4
_symmetry_space_group_name_H-M   'P 1'
_cell_length_a   3.35032200
_cell_length_b   5.86687977
_cell_length_c   11.35115929
_cell_angle_alpha   90.08296934
_cell_angle_beta   90.00000000
_cell_angle_gamma   90.00000000
_symmetry_Int_Tables_number   1
_chemical_formula_structural   YbLuU2(FeB4)4
_chemical_formula_sum   'Yb1 Lu1 U2 Fe4 B16'
_cell_volume   223.11743062
_cell_formula_units_Z   1
loop_
 _symmetry_equiv_pos_site_id
 _symmetry_equiv_pos_as_xyz
  1  'x, y, z'
loop_
 _atom_site_type_symbol
 _atom_site_label
 _atom_site_symmetry_multiplicity
 _atom_site_fract_x
 _atom_site_fract_y
 _atom_site_fract_z
 _atom_site_occupancy
  Yb  Yb0  1  0.000000  0.373618  0.148342  1
  Lu  Lu1  1  0.000000  0.626172  0.851738  1
  U  U2  1  0.000000  0.126163  0.651644  1
  U  U3  1  0.000000  0.873717  0.348045  1
  Fe  Fe4  1  0.000000  0.131790  0.907379  1
  Fe  Fe5  1  0.000000  0.867648  0.089329  1
  Fe  Fe6  1  0.000000  0.635045  0.590793  1
  Fe  Fe7  1  0.000000  0.365897  0.411974  1
  B  B8  1  0.500000  0.361193  0.967429  1
  B  B9  1  0.500000  0.638316  0.031264  1
  B  B10  1  0.500000  0.864039  0.534248  1
  B  B11  1  0.500000  0.135831  0.466269  1
  B  B12  1  0.500000  0.476849  0.692314  1
  B  B13  1  0.500000  0.523682  0.309711  1
  B  B14  1  0.500000  0.973885  0.809800  1
  B  B15  1  0.500000  0.023918  0.189102  1
  B  B16  1  0.500000  0.284237  0.815861  1
  B  B17  1  0.500000  0.718385  0.183498  1
  B  B18  1  0.500000  0.782926  0.686256  1
  B  B19  1  0.500000  0.217557  0.315335  1
  B  B20  1  0.500000  0.387486  0.547016  1
  B  B21  1  0.500000  0.612408  0.453875  1
  B  B22  1  0.500000  0.886326  0.954273  1
  B  B23  1  0.500000  0.112911  0.044504  1
