# generated using pymatgen
data_SrLi4Pr3Sb4
_symmetry_space_group_name_H-M   'P 1'
_cell_length_a   4.68636100
_cell_length_b   7.73579201
_cell_length_c   8.47018002
_cell_angle_alpha   90.76615562
_cell_angle_beta   90.00000000
_cell_angle_gamma   90.00000000
_symmetry_Int_Tables_number   1
_chemical_formula_structural   SrLi4Pr3Sb4
_chemical_formula_sum   'Sr1 Li4 Pr3 Sb4'
_cell_volume   307.03956104
_cell_formula_units_Z   1
loop_
 _symmetry_equiv_pos_site_id
 _symmetry_equiv_pos_as_xyz
  1  'x, y, z'
loop_
 _atom_site_type_symbol
 _atom_site_label
 _atom_site_symmetry_multiplicity
 _atom_site_fract_x
 _atom_site_fract_y
 _atom_site_fract_z
 _atom_site_occupancy
  Sr  Sr0  1  0.250000  0.506845  0.790012  1
  Li  Li1  1  0.750000  0.838172  0.925529  1
  Li  Li2  1  0.250000  0.156839  0.071492  1
  Li  Li3  1  0.750000  0.322597  0.578268  1
  Li  Li4  1  0.250000  0.678038  0.424290  1
  Pr  Pr5  1  0.750000  0.996437  0.295771  1
  Pr  Pr6  1  0.250000  0.008621  0.695816  1
  Pr  Pr7  1  0.750000  0.492252  0.216340  1
  Sb  Sb8  1  0.250000  0.772378  0.099315  1
  Sb  Sb9  1  0.750000  0.221116  0.909928  1
  Sb  Sb10  1  0.250000  0.275476  0.404588  1
  Sb  Sb11  1  0.750000  0.731229  0.588650  1
