# generated using pymatgen
data_YbHo3Lu4(B6Os)4
_symmetry_space_group_name_H-M   'P 1'
_cell_length_a   3.61350500
_cell_length_b   9.07335109
_cell_length_c   11.46258604
_cell_angle_alpha   89.93482676
_cell_angle_beta   90.00000000
_cell_angle_gamma   90.00000000
_symmetry_Int_Tables_number   1
_chemical_formula_structural   YbHo3Lu4(B6Os)4
_chemical_formula_sum   'Yb1 Ho3 Lu4 B24 Os4'
_cell_volume   375.81897475
_cell_formula_units_Z   1
loop_
 _symmetry_equiv_pos_site_id
 _symmetry_equiv_pos_as_xyz
  1  'x, y, z'
loop_
 _atom_site_type_symbol
 _atom_site_label
 _atom_site_symmetry_multiplicity
 _atom_site_fract_x
 _atom_site_fract_y
 _atom_site_fract_z
 _atom_site_occupancy
  Yb  Yb0  1  0.000000  0.322330  0.413516  1
  Ho  Ho1  1  0.000000  0.677000  0.585239  1
  Ho  Ho2  1  0.000000  0.821484  0.086512  1
  Ho  Ho3  1  0.000000  0.179103  0.914363  1
  Lu  Lu4  1  0.000000  0.944557  0.372142  1
  Lu  Lu5  1  0.000000  0.057325  0.627059  1
  Lu  Lu6  1  0.000000  0.443477  0.128461  1
  Lu  Lu7  1  0.000000  0.555750  0.873052  1
  B  B8  1  0.500000  0.553962  0.432604  1
  B  B9  1  0.500000  0.445788  0.567327  1
  B  B10  1  0.500000  0.053378  0.066420  1
  B  B11  1  0.500000  0.945781  0.932678  1
  B  B12  1  0.500000  0.749699  0.419226  1
  B  B13  1  0.500000  0.250766  0.580964  1
  B  B14  1  0.500000  0.248999  0.080499  1
  B  B15  1  0.500000  0.750307  0.919607  1
  B  B16  1  0.500000  0.792405  0.266024  1
  B  B17  1  0.500000  0.208616  0.734390  1
  B  B18  1  0.500000  0.291049  0.233712  1
  B  B19  1  0.500000  0.708226  0.766273  1
  B  B20  1  0.500000  0.631114  0.185289  1
  B  B21  1  0.500000  0.369418  0.815749  1
  B  B22  1  0.500000  0.130523  0.314551  1
  B  B23  1  0.500000  0.869279  0.684661  1
  B  B24  1  0.500000  0.982335  0.212472  1
  B  B25  1  0.500000  0.017593  0.786598  1
  B  B26  1  0.500000  0.482644  0.286973  1
  B  B27  1  0.500000  0.517455  0.713504  1
  B  B28  1  0.500000  0.604824  0.029129  1
  B  B29  1  0.500000  0.395481  0.971484  1
  B  B30  1  0.500000  0.101870  0.471782  1
  B  B31  1  0.500000  0.896938  0.528457  1
  Os  Os32  1  0.000000  0.639761  0.319916  1
  Os  Os33  1  0.000000  0.361709  0.680676  1
  Os  Os34  1  0.000000  0.137123  0.178133  1
  Os  Os35  1  0.000000  0.861930  0.820560  1
