# generated using pymatgen
data_SrNd6RuBr12
_symmetry_space_group_name_H-M   'P 1'
_cell_length_a   9.53957844
_cell_length_b   9.52655882
_cell_length_c   9.67349456
_cell_angle_alpha   106.13382192
_cell_angle_beta   106.53845058
_cell_angle_gamma   106.02012042
_symmetry_Int_Tables_number   1
_chemical_formula_structural   SrNd6RuBr12
_chemical_formula_sum   'Sr1 Nd6 Ru1 Br12'
_cell_volume   746.95743831
_cell_formula_units_Z   1
loop_
 _symmetry_equiv_pos_site_id
 _symmetry_equiv_pos_as_xyz
  1  'x, y, z'
loop_
 _atom_site_type_symbol
 _atom_site_label
 _atom_site_symmetry_multiplicity
 _atom_site_fract_x
 _atom_site_fract_y
 _atom_site_fract_z
 _atom_site_occupancy
  Sr  Sr0  1  0.499999  0.499999  0.500001  1
  Nd  Nd1  1  0.100623  0.306093  0.019330  1
  Nd  Nd2  1  0.307605  0.019568  0.101357  1
  Nd  Nd3  1  0.019317  0.105364  0.316472  1
  Nd  Nd4  1  0.980681  0.894635  0.683527  1
  Nd  Nd5  1  0.692397  0.980431  0.898641  1
  Nd  Nd6  1  0.899380  0.693911  0.980669  1
  Ru  Ru7  1  0.000000  0.000001  0.999998  1
  Br  Br8  1  0.219555  0.679965  0.071640  1
  Br  Br9  1  0.448611  0.367124  0.151470  1
  Br  Br10  1  0.679513  0.071116  0.217554  1
  Br  Br11  1  0.928481  0.780732  0.318654  1
  Br  Br12  1  0.149485  0.449062  0.365261  1
  Br  Br13  1  0.365602  0.148598  0.447162  1
  Br  Br14  1  0.634392  0.851401  0.552839  1
  Br  Br15  1  0.850516  0.550937  0.634745  1
  Br  Br16  1  0.071521  0.219269  0.681345  1
  Br  Br17  1  0.320486  0.928885  0.782443  1
  Br  Br18  1  0.551391  0.632878  0.848530  1
  Br  Br19  1  0.780446  0.320032  0.928361  1
