# generated using pymatgen
data_Pr2HoTm(AsPt)4
_symmetry_space_group_name_H-M   'P 1'
_cell_length_a   4.29549500
_cell_length_b   4.29549320
_cell_length_c   15.99873600
_cell_angle_alpha   90.00000000
_cell_angle_beta   90.00000000
_cell_angle_gamma   120.00000617
_symmetry_Int_Tables_number   1
_chemical_formula_structural   Pr2HoTm(AsPt)4
_chemical_formula_sum   'Pr2 Ho1 Tm1 As4 Pt4'
_cell_volume   255.64807697
_cell_formula_units_Z   1
loop_
 _symmetry_equiv_pos_site_id
 _symmetry_equiv_pos_as_xyz
  1  'x, y, z'
loop_
 _atom_site_type_symbol
 _atom_site_label
 _atom_site_symmetry_multiplicity
 _atom_site_fract_x
 _atom_site_fract_y
 _atom_site_fract_z
 _atom_site_occupancy
  Pr  Pr0  1  0.000000  0.000000  0.500408  1
  Pr  Pr1  1  0.000000  0.000000  0.999592  1
  Ho  Ho2  1  0.000000  0.000000  0.250000  1
  Tm  Tm3  1  0.000000  0.000000  0.750000  1
  As  As4  1  0.333333  0.666667  0.879230  1
  As  As5  1  0.666667  0.333333  0.120307  1
  As  As6  1  0.666667  0.333333  0.379693  1
  As  As7  1  0.333333  0.666667  0.620770  1
  Pt  Pt8  1  0.333333  0.666667  0.356972  1
  Pt  Pt9  1  0.666667  0.333333  0.644745  1
  Pt  Pt10  1  0.666667  0.333333  0.855255  1
  Pt  Pt11  1  0.333333  0.666667  0.143028  1
