# generated using pymatgen
data_Ta9MnSiB4P
_symmetry_space_group_name_H-M   'P 1'
_cell_length_a   6.11995639
_cell_length_b   6.11995721
_cell_length_c   7.23414999
_cell_angle_alpha   115.02355004
_cell_angle_beta   115.02355031
_cell_angle_gamma   89.99999128
_symmetry_Int_Tables_number   1
_chemical_formula_structural   Ta9MnSiB4P
_chemical_formula_sum   'Ta9 Mn1 Si1 B4 P1'
_cell_volume   217.12262187
_cell_formula_units_Z   1
loop_
 _symmetry_equiv_pos_site_id
 _symmetry_equiv_pos_as_xyz
  1  'x, y, z'
loop_
 _atom_site_type_symbol
 _atom_site_label
 _atom_site_symmetry_multiplicity
 _atom_site_fract_x
 _atom_site_fract_y
 _atom_site_fract_z
 _atom_site_occupancy
  Ta  Ta0  1  0.999247  0.999247  0.998494  1
  Ta  Ta1  1  0.037497  0.522713  0.722249  1
  Ta  Ta2  1  0.684753  0.199537  0.722249  1
  Ta  Ta3  1  0.199537  0.037497  0.722249  1
  Ta  Ta4  1  0.522713  0.684753  0.722249  1
  Ta  Ta5  1  0.965746  0.474333  0.277106  1
  Ta  Ta6  1  0.311359  0.802772  0.277106  1
  Ta  Ta7  1  0.802772  0.965746  0.277106  1
  Ta  Ta8  1  0.474333  0.311359  0.277106  1
  Mn  Mn9  1  0.504862  0.504862  0.009724  1
  Si  Si10  1  0.756666  0.756666  0.513333  1
  B  B11  1  0.383653  0.879542  0.999878  1
  B  B12  1  0.616225  0.120335  0.999878  1
  B  B13  1  0.120335  0.383653  0.999878  1
  B  B14  1  0.879542  0.616225  0.999878  1
  P  P15  1  0.240758  0.240758  0.481515  1
