# generated using pymatgen
data_Pr2Er8Tl7InPt4
_symmetry_space_group_name_H-M   'P 1'
_cell_length_a   3.62609200
_cell_length_b   8.26657511
_cell_length_c   18.52556602
_cell_angle_alpha   89.90038240
_cell_angle_beta   90.00000000
_cell_angle_gamma   90.00000000
_symmetry_Int_Tables_number   1
_chemical_formula_structural   Pr2Er8Tl7InPt4
_chemical_formula_sum   'Pr2 Er8 Tl7 In1 Pt4'
_cell_volume   555.30970636
_cell_formula_units_Z   1
loop_
 _symmetry_equiv_pos_site_id
 _symmetry_equiv_pos_as_xyz
  1  'x, y, z'
loop_
 _atom_site_type_symbol
 _atom_site_label
 _atom_site_symmetry_multiplicity
 _atom_site_fract_x
 _atom_site_fract_y
 _atom_site_fract_z
 _atom_site_occupancy
  Pr  Pr0  1  0.000000  0.999914  0.000050  1
  Pr  Pr1  1  0.000000  0.501486  0.499726  1
  Er  Er2  1  0.000000  0.118054  0.412125  1
  Er  Er3  1  0.000000  0.881067  0.587344  1
  Er  Er4  1  0.000000  0.381628  0.911813  1
  Er  Er5  1  0.000000  0.618308  0.088240  1
  Er  Er6  1  0.000000  0.242805  0.220091  1
  Er  Er7  1  0.000000  0.757616  0.780082  1
  Er  Er8  1  0.000000  0.257052  0.719714  1
  Er  Er9  1  0.000000  0.742588  0.280512  1
  Tl  Tl10  1  0.500000  0.421334  0.349351  1
  Tl  Tl11  1  0.500000  0.580459  0.650830  1
  Tl  Tl12  1  0.500000  0.080059  0.849123  1
  Tl  Tl13  1  0.500000  0.920105  0.151124  1
  Tl  Tl14  1  0.500000  0.300570  0.066522  1
  Tl  Tl15  1  0.500000  0.699272  0.933530  1
  Tl  Tl16  1  0.500000  0.199242  0.566376  1
  In  In17  1  0.500000  0.801718  0.432540  1
  Pt  Pt18  1  0.500000  0.023711  0.304336  1
  Pt  Pt19  1  0.500000  0.973591  0.696624  1
  Pt  Pt20  1  0.500000  0.473751  0.803245  1
  Pt  Pt21  1  0.500000  0.525671  0.196700  1
