# generated using pymatgen
data_DyHo2Lu3(Al3Ru)8
_symmetry_space_group_name_H-M   'P 1'
_cell_length_a   8.75847300
_cell_length_b   8.75886200
_cell_length_c   9.56981000
_cell_angle_alpha   90.00000000
_cell_angle_beta   90.00000000
_cell_angle_gamma   120.00147190
_symmetry_Int_Tables_number   1
_chemical_formula_structural   DyHo2Lu3(Al3Ru)8
_chemical_formula_sum   'Dy1 Ho2 Lu3 Al24 Ru8'
_cell_volume   635.77520266
_cell_formula_units_Z   1
loop_
 _symmetry_equiv_pos_site_id
 _symmetry_equiv_pos_as_xyz
  1  'x, y, z'
loop_
 _atom_site_type_symbol
 _atom_site_label
 _atom_site_symmetry_multiplicity
 _atom_site_fract_x
 _atom_site_fract_y
 _atom_site_fract_z
 _atom_site_occupancy
  Dy  Dy0  1  0.386208  0.193104  0.750000  1
  Ho  Ho1  1  0.806850  0.193189  0.750000  1
  Ho  Ho2  1  0.806850  0.613662  0.750000  1
  Lu  Lu3  1  0.194806  0.805218  0.250000  1
  Lu  Lu4  1  0.194806  0.389589  0.250000  1
  Lu  Lu5  1  0.610425  0.805213  0.250000  1
  Al  Al6  1  0.560778  0.439224  0.250000  1
  Al  Al7  1  0.560778  0.121553  0.250000  1
  Al  Al8  1  0.878448  0.439223  0.250000  1
  Al  Al9  1  0.438089  0.562029  0.750000  1
  Al  Al10  1  0.438089  0.876059  0.750000  1
  Al  Al11  1  0.123832  0.561916  0.750000  1
  Al  Al12  1  0.325006  0.162503  0.420897  1
  Al  Al13  1  0.837490  0.162510  0.420938  1
  Al  Al14  1  0.837490  0.674981  0.420938  1
  Al  Al15  1  0.673570  0.836784  0.575628  1
  Al  Al16  1  0.163180  0.836735  0.575613  1
  Al  Al17  1  0.163180  0.326444  0.575613  1
  Al  Al18  1  0.673570  0.836784  0.924372  1
  Al  Al19  1  0.163180  0.836735  0.924387  1
  Al  Al20  1  0.163180  0.326444  0.924387  1
  Al  Al21  1  0.325006  0.162503  0.079103  1
  Al  Al22  1  0.837490  0.162510  0.079062  1
  Al  Al23  1  0.837490  0.674981  0.079062  1
  Al  Al24  1  0.666742  0.333370  0.517059  1
  Al  Al25  1  0.333325  0.666663  0.478092  1
  Al  Al26  1  0.333325  0.666663  0.021908  1
  Al  Al27  1  0.666742  0.333370  0.982941  1
  Al  Al28  1  0.000003  0.000002  0.250000  1
  Al  Al29  1  0.999918  0.999959  0.750000  1
  Ru  Ru30  1  0.999990  0.999995  0.500008  1
  Ru  Ru31  1  0.999990  0.999995  0.999992  1
  Ru  Ru32  1  0.499480  0.500629  0.498459  1
  Ru  Ru33  1  0.499480  0.998851  0.498459  1
  Ru  Ru34  1  0.001128  0.500564  0.498501  1
  Ru  Ru35  1  0.499480  0.500629  0.001541  1
  Ru  Ru36  1  0.499480  0.998851  0.001541  1
  Ru  Ru37  1  0.001128  0.500564  0.001499  1
