# generated using pymatgen
data_Sr4CaCd3Pt4
_symmetry_space_group_name_H-M   'P 1'
_cell_length_a   4.49815800
_cell_length_b   7.71799849
_cell_length_c   8.95307276
_cell_angle_alpha   89.07945800
_cell_angle_beta   90.00000000
_cell_angle_gamma   90.00000000
_symmetry_Int_Tables_number   1
_chemical_formula_structural   Sr4CaCd3Pt4
_chemical_formula_sum   'Sr4 Ca1 Cd3 Pt4'
_cell_volume   310.78171156
_cell_formula_units_Z   1
loop_
 _symmetry_equiv_pos_site_id
 _symmetry_equiv_pos_as_xyz
  1  'x, y, z'
loop_
 _atom_site_type_symbol
 _atom_site_label
 _atom_site_symmetry_multiplicity
 _atom_site_fract_x
 _atom_site_fract_y
 _atom_site_fract_z
 _atom_site_occupancy
  Sr  Sr0  1  0.250000  0.026955  0.326707  1
  Sr  Sr1  1  0.250000  0.537303  0.185710  1
  Sr  Sr2  1  0.750000  0.962144  0.669296  1
  Sr  Sr3  1  0.750000  0.480376  0.813102  1
  Ca  Ca4  1  0.250000  0.135858  0.936786  1
  Cd  Cd5  1  0.250000  0.645463  0.565912  1
  Cd  Cd6  1  0.750000  0.854149  0.068617  1
  Cd  Cd7  1  0.750000  0.355121  0.435620  1
  Pt  Pt8  1  0.250000  0.271634  0.621401  1
  Pt  Pt9  1  0.250000  0.766208  0.875140  1
  Pt  Pt10  1  0.750000  0.730479  0.377428  1
  Pt  Pt11  1  0.750000  0.234310  0.124280  1
