# generated using pymatgen
data_K2Cd19Au3
_symmetry_space_group_name_H-M   'P 1'
_cell_length_a   9.51769756
_cell_length_b   9.49617680
_cell_length_c   9.51767878
_cell_angle_alpha   99.35979298
_cell_angle_beta   99.18266175
_cell_angle_gamma   132.81918732
_symmetry_Int_Tables_number   1
_chemical_formula_structural   K2Cd19Au3
_chemical_formula_sum   'K2 Cd19 Au3'
_cell_volume   577.58725783
_cell_formula_units_Z   1
loop_
 _symmetry_equiv_pos_site_id
 _symmetry_equiv_pos_as_xyz
  1  'x, y, z'
loop_
 _atom_site_type_symbol
 _atom_site_label
 _atom_site_symmetry_multiplicity
 _atom_site_fract_x
 _atom_site_fract_y
 _atom_site_fract_z
 _atom_site_occupancy
  K  K0  1  0.750425  0.250636  0.500211  1
  K  K1  1  0.499575  0.499364  0.999789  1
  Cd  Cd2  1  0.928041  0.008865  0.322985  1
  Cd  Cd3  1  0.680985  0.603309  0.676490  1
  Cd  Cd4  1  0.252401  0.748383  0.495983  1
  Cd  Cd5  1  0.997599  0.001617  0.004017  1
  Cd  Cd6  1  0.125000  0.875000  0.750000  1
  Cd  Cd7  1  0.926820  0.603310  0.922325  1
  Cd  Cd8  1  0.856988  0.435988  0.177419  1
  Cd  Cd9  1  0.261961  0.675064  0.826693  1
  Cd  Cd10  1  0.685881  0.008864  0.080822  1
  Cd  Cd11  1  0.401628  0.074935  0.086895  1
  Cd  Cd12  1  0.991431  0.314012  0.921001  1
  Cd  Cd13  1  0.569015  0.146691  0.823510  1
  Cd  Cd14  1  0.321959  0.741135  0.177015  1
  Cd  Cd15  1  0.323180  0.146690  0.577675  1
  Cd  Cd16  1  0.393012  0.314012  0.322581  1
  Cd  Cd17  1  0.988039  0.074936  0.673307  1
  Cd  Cd18  1  0.564119  0.741136  0.419178  1
  Cd  Cd19  1  0.848372  0.675065  0.413105  1
  Cd  Cd20  1  0.258569  0.435988  0.578999  1
  Au  Au21  1  0.125000  0.875000  0.250000  1
  Au  Au22  1  0.125000  0.375000  0.250000  1
  Au  Au23  1  0.625000  0.875000  0.750000  1
