# generated using pymatgen
data_Cs3K5(HfTe4)2
_symmetry_space_group_name_H-M   'P 1'
_cell_length_a   9.10929800
_cell_length_b   11.43039500
_cell_length_c   17.35799600
_cell_angle_alpha   90.00000000
_cell_angle_beta   90.00000000
_cell_angle_gamma   90.00000000
_symmetry_Int_Tables_number   1
_chemical_formula_structural   Cs3K5(HfTe4)2
_chemical_formula_sum   'Cs6 K10 Hf4 Te16'
_cell_volume   1807.36443583
_cell_formula_units_Z   2
loop_
 _symmetry_equiv_pos_site_id
 _symmetry_equiv_pos_as_xyz
  1  'x, y, z'
loop_
 _atom_site_type_symbol
 _atom_site_label
 _atom_site_symmetry_multiplicity
 _atom_site_fract_x
 _atom_site_fract_y
 _atom_site_fract_z
 _atom_site_occupancy
  Cs  Cs0  1  0.001350  0.998033  0.998788  1
  Cs  Cs1  1  0.501350  0.001967  0.501212  1
  Cs  Cs2  1  0.001350  0.501967  0.998788  1
  Cs  Cs3  1  0.501350  0.498033  0.501212  1
  Cs  Cs4  1  0.982671  0.750000  0.431581  1
  Cs  Cs5  1  0.482671  0.250000  0.068419  1
  K  K6  1  0.036118  0.250000  0.565947  1
  K  K7  1  0.536118  0.750000  0.934053  1
  K  K8  1  0.831859  0.051060  0.265841  1
  K  K9  1  0.331859  0.948940  0.234159  1
  K  K10  1  0.166304  0.552999  0.734519  1
  K  K11  1  0.666304  0.447001  0.765481  1
  K  K12  1  0.166304  0.947001  0.734519  1
  K  K13  1  0.666304  0.052999  0.765481  1
  K  K14  1  0.831859  0.448940  0.265841  1
  K  K15  1  0.331859  0.551060  0.234159  1
  Hf  Hf16  1  0.771433  0.750000  0.678147  1
  Hf  Hf17  1  0.226361  0.250000  0.323646  1
  Hf  Hf18  1  0.726361  0.750000  0.176354  1
  Hf  Hf19  1  0.271433  0.250000  0.821853  1
  Te  Te20  1  0.970728  0.250000  0.821134  1
  Te  Te21  1  0.527581  0.250000  0.318190  1
  Te  Te22  1  0.470728  0.750000  0.678866  1
  Te  Te23  1  0.027581  0.750000  0.181810  1
  Te  Te24  1  0.631225  0.556895  0.098976  1
  Te  Te25  1  0.131225  0.443105  0.401024  1
  Te  Te26  1  0.368163  0.052302  0.895560  1
  Te  Te27  1  0.868163  0.947698  0.604440  1
  Te  Te28  1  0.368163  0.447698  0.895560  1
  Te  Te29  1  0.868163  0.552302  0.604440  1
  Te  Te30  1  0.631225  0.943105  0.098976  1
  Te  Te31  1  0.131225  0.056895  0.401024  1
  Te  Te32  1  0.608301  0.750000  0.322983  1
  Te  Te33  1  0.108301  0.250000  0.177017  1
  Te  Te34  1  0.379007  0.250000  0.672912  1
  Te  Te35  1  0.879007  0.750000  0.827088  1
