# generated using pymatgen
data_CeY3Ho(FeB3)2
_symmetry_space_group_name_H-M   'P 1'
_cell_length_a   5.44376281
_cell_length_b   5.44376127
_cell_length_c   8.01142202
_cell_angle_alpha   70.13835017
_cell_angle_beta   70.13834463
_cell_angle_gamma   60.00000019
_symmetry_Int_Tables_number   1
_chemical_formula_structural   CeY3Ho(FeB3)2
_chemical_formula_sum   'Ce1 Y3 Ho1 Fe2 B6'
_cell_volume   189.12441070
_cell_formula_units_Z   1
loop_
 _symmetry_equiv_pos_site_id
 _symmetry_equiv_pos_as_xyz
  1  'x, y, z'
loop_
 _atom_site_type_symbol
 _atom_site_label
 _atom_site_symmetry_multiplicity
 _atom_site_fract_x
 _atom_site_fract_y
 _atom_site_fract_z
 _atom_site_occupancy
  Ce  Ce0  1  0.000254  0.000254  0.999239  1
  Y  Y1  1  0.252988  0.252988  0.241035  1
  Y  Y2  1  0.585953  0.585953  0.242144  1
  Y  Y3  1  0.414054  0.414054  0.757836  1
  Ho  Ho4  1  0.747568  0.747568  0.757299  1
  Fe  Fe5  1  0.889477  0.889477  0.331569  1
  Fe  Fe6  1  0.110508  0.110508  0.668477  1
  B  B7  1  0.500179  0.166375  0.500400  1
  B  B8  1  0.833046  0.500179  0.500400  1
  B  B9  1  0.166375  0.833046  0.500400  1
  B  B10  1  0.166375  0.500179  0.500400  1
  B  B11  1  0.833046  0.166375  0.500400  1
  B  B12  1  0.500179  0.833046  0.500400  1
