# generated using pymatgen
data_Ca3AgSb2H
_symmetry_space_group_name_H-M   'P 1'
_cell_length_a   4.56326300
_cell_length_b   12.18557100
_cell_length_c   12.29202900
_cell_angle_alpha   90.00000000
_cell_angle_beta   90.00000000
_cell_angle_gamma   90.00000000
_symmetry_Int_Tables_number   1
_chemical_formula_structural   Ca3AgSb2H
_chemical_formula_sum   'Ca12 Ag4 Sb8 H4'
_cell_volume   683.51013777
_cell_formula_units_Z   4
loop_
 _symmetry_equiv_pos_site_id
 _symmetry_equiv_pos_as_xyz
  1  'x, y, z'
loop_
 _atom_site_type_symbol
 _atom_site_label
 _atom_site_symmetry_multiplicity
 _atom_site_fract_x
 _atom_site_fract_y
 _atom_site_fract_z
 _atom_site_occupancy
  Ca  Ca0  1  0.250000  0.062120  0.625810  1
  Ca  Ca1  1  0.250000  0.562120  0.874190  1
  Ca  Ca2  1  0.750000  0.937880  0.374190  1
  Ca  Ca3  1  0.750000  0.437880  0.125810  1
  Ca  Ca4  1  0.250000  0.357910  0.560605  1
  Ca  Ca5  1  0.250000  0.857910  0.939395  1
  Ca  Ca6  1  0.750000  0.642090  0.439395  1
  Ca  Ca7  1  0.750000  0.142090  0.060605  1
  Ca  Ca8  1  0.250000  0.227211  0.284717  1
  Ca  Ca9  1  0.250000  0.727211  0.215283  1
  Ca  Ca10  1  0.750000  0.772789  0.715283  1
  Ca  Ca11  1  0.750000  0.272789  0.784717  1
  Ag  Ag12  1  0.250000  0.119900  0.880169  1
  Ag  Ag13  1  0.250000  0.619900  0.619831  1
  Ag  Ag14  1  0.750000  0.880100  0.119831  1
  Ag  Ag15  1  0.750000  0.380100  0.380169  1
  Sb  Sb16  1  0.250000  0.492909  0.317347  1
  Sb  Sb17  1  0.250000  0.992909  0.182653  1
  Sb  Sb18  1  0.750000  0.507091  0.682653  1
  Sb  Sb19  1  0.750000  0.007091  0.817347  1
  Sb  Sb20  1  0.250000  0.320546  0.988032  1
  Sb  Sb21  1  0.250000  0.820546  0.511968  1
  Sb  Sb22  1  0.750000  0.679454  0.011968  1
  Sb  Sb23  1  0.750000  0.179454  0.488032  1
  H  H24  1  0.250000  0.241408  0.707989  1
  H  H25  1  0.250000  0.741408  0.792011  1
  H  H26  1  0.750000  0.758592  0.292011  1
  H  H27  1  0.750000  0.258592  0.207989  1
