# generated using pymatgen
data_Cs4Ba2TiAs4
_symmetry_space_group_name_H-M   'P 1'
_cell_length_a   11.05901757
_cell_length_b   11.05901813
_cell_length_c   8.20196649
_cell_angle_alpha   87.57150173
_cell_angle_beta   87.57149182
_cell_angle_gamma   119.09432418
_symmetry_Int_Tables_number   1
_chemical_formula_structural   Cs4Ba2TiAs4
_chemical_formula_sum   'Cs8 Ba4 Ti2 As8'
_cell_volume   873.47442972
_cell_formula_units_Z   2
loop_
 _symmetry_equiv_pos_site_id
 _symmetry_equiv_pos_as_xyz
  1  'x, y, z'
loop_
 _atom_site_type_symbol
 _atom_site_label
 _atom_site_symmetry_multiplicity
 _atom_site_fract_x
 _atom_site_fract_y
 _atom_site_fract_z
 _atom_site_occupancy
  Cs  Cs0  1  0.474986  0.941691  0.390239  1
  Cs  Cs1  1  0.941691  0.474986  0.890239  1
  Cs  Cs2  1  0.869235  0.724549  0.157123  1
  Cs  Cs3  1  0.258681  0.123288  0.241855  1
  Cs  Cs4  1  0.857366  0.142855  0.190475  1
  Cs  Cs5  1  0.123288  0.258681  0.741855  1
  Cs  Cs6  1  0.724549  0.869235  0.657123  1
  Cs  Cs7  1  0.142855  0.857366  0.690475  1
  Ba  Ba8  1  0.073105  0.534624  0.400303  1
  Ba  Ba9  1  0.477455  0.530322  0.377504  1
  Ba  Ba10  1  0.534624  0.073105  0.900303  1
  Ba  Ba11  1  0.530322  0.477455  0.877504  1
  Ti  Ti12  1  0.662963  0.337097  0.490111  1
  Ti  Ti13  1  0.337097  0.662963  0.990111  1
  As  As14  1  0.633021  0.328295  0.182894  1
  As  As15  1  0.328295  0.633021  0.682894  1
  As  As16  1  0.220576  0.422470  0.132206  1
  As  As17  1  0.584881  0.786204  0.066012  1
  As  As18  1  0.221750  0.794395  0.088944  1
  As  As19  1  0.786204  0.584881  0.566012  1
  As  As20  1  0.422470  0.220576  0.632206  1
  As  As21  1  0.794395  0.221750  0.588944  1
