# generated using pymatgen
data_TbDy15(ErSn4)4
_symmetry_space_group_name_H-M   'P 1'
_cell_length_a   8.01364539
_cell_length_b   8.15834881
_cell_length_c   15.42998412
_cell_angle_alpha   90.00089125
_cell_angle_beta   89.95449788
_cell_angle_gamma   89.96743725
_symmetry_Int_Tables_number   1
_chemical_formula_structural   TbDy15(ErSn4)4
_chemical_formula_sum   'Tb1 Dy15 Er4 Sn16'
_cell_volume   1008.78278478
_cell_formula_units_Z   1
loop_
 _symmetry_equiv_pos_site_id
 _symmetry_equiv_pos_as_xyz
  1  'x, y, z'
loop_
 _atom_site_type_symbol
 _atom_site_label
 _atom_site_symmetry_multiplicity
 _atom_site_fract_x
 _atom_site_fract_y
 _atom_site_fract_z
 _atom_site_occupancy
  Tb  Tb0  1  0.020205  0.179889  0.902759  1
  Dy  Dy1  1  0.367675  0.836275  0.877767  1
  Dy  Dy2  1  0.867838  0.663825  0.621984  1
  Dy  Dy3  1  0.632096  0.163708  0.377878  1
  Dy  Dy4  1  0.132441  0.336419  0.122238  1
  Dy  Dy5  1  0.632494  0.163723  0.122215  1
  Dy  Dy6  1  0.132142  0.336265  0.377878  1
  Dy  Dy7  1  0.367915  0.836176  0.622056  1
  Dy  Dy8  1  0.867772  0.663653  0.877835  1
  Dy  Dy9  1  0.520796  0.320392  0.902618  1
  Dy  Dy10  1  0.020968  0.179799  0.597551  1
  Dy  Dy11  1  0.479100  0.679716  0.402522  1
  Dy  Dy12  1  0.979376  0.820029  0.097435  1
  Dy  Dy13  1  0.479316  0.679849  0.097419  1
  Dy  Dy14  1  0.979103  0.820273  0.402547  1
  Dy  Dy15  1  0.520871  0.320340  0.597282  1
  Er  Er16  1  0.198540  0.502652  0.749839  1
  Er  Er17  1  0.698369  0.997278  0.749789  1
  Er  Er18  1  0.801612  0.497263  0.250105  1
  Er  Er19  1  0.301651  0.002660  0.250108  1
  Sn  Sn20  1  0.293159  0.035089  0.042208  1
  Sn  Sn21  1  0.792393  0.464533  0.458161  1
  Sn  Sn22  1  0.707615  0.964725  0.541804  1
  Sn  Sn23  1  0.207836  0.536325  0.958417  1
  Sn  Sn24  1  0.706462  0.963547  0.958428  1
  Sn  Sn25  1  0.207489  0.535474  0.541762  1
  Sn  Sn26  1  0.292459  0.035352  0.458186  1
  Sn  Sn27  1  0.792604  0.464481  0.041822  1
  Sn  Sn28  1  0.564747  0.618682  0.749962  1
  Sn  Sn29  1  0.064834  0.881101  0.749934  1
  Sn  Sn30  1  0.435237  0.381300  0.250019  1
  Sn  Sn31  1  0.935236  0.118758  0.250061  1
  Sn  Sn32  1  0.329941  0.147778  0.749850  1
  Sn  Sn33  1  0.828931  0.352666  0.749561  1
  Sn  Sn34  1  0.670414  0.852178  0.249985  1
  Sn  Sn35  1  0.170364  0.647832  0.250019  1
