# generated using pymatgen
data_Sr6Mn2ZnCoO12
_symmetry_space_group_name_H-M   'P 1'
_cell_length_a   6.69468841
_cell_length_b   6.68144359
_cell_length_c   6.68394197
_cell_angle_alpha   92.86480302
_cell_angle_beta   92.82719042
_cell_angle_gamma   92.83083354
_symmetry_Int_Tables_number   1
_chemical_formula_structural   Sr6Mn2ZnCoO12
_chemical_formula_sum   'Sr6 Mn2 Zn1 Co1 O12'
_cell_volume   297.83367291
_cell_formula_units_Z   1
loop_
 _symmetry_equiv_pos_site_id
 _symmetry_equiv_pos_as_xyz
  1  'x, y, z'
loop_
 _atom_site_type_symbol
 _atom_site_label
 _atom_site_symmetry_multiplicity
 _atom_site_fract_x
 _atom_site_fract_y
 _atom_site_fract_z
 _atom_site_occupancy
  Sr  Sr0  1  0.888782  0.249754  0.611436  1
  Sr  Sr1  1  0.249907  0.612449  0.887584  1
  Sr  Sr2  1  0.611386  0.888354  0.250339  1
  Sr  Sr3  1  0.750362  0.387752  0.112241  1
  Sr  Sr4  1  0.388027  0.111776  0.748162  1
  Sr  Sr5  1  0.111847  0.751457  0.388327  1
  Mn  Mn6  1  0.000150  0.000275  0.001626  1
  Mn  Mn7  1  0.499699  0.498479  0.500036  1
  Zn  Zn8  1  0.749932  0.750290  0.749799  1
  Co  Co9  1  0.250747  0.253830  0.245390  1
  O  O10  1  0.222739  0.409956  0.540190  1
  O  O11  1  0.411380  0.538609  0.221251  1
  O  O12  1  0.541569  0.221654  0.413337  1
  O  O13  1  0.913180  0.722452  0.042156  1
  O  O14  1  0.722589  0.041564  0.912908  1
  O  O15  1  0.042314  0.913011  0.723406  1
  O  O16  1  0.777166  0.587111  0.458181  1
  O  O17  1  0.587003  0.458125  0.777672  1
  O  O18  1  0.457521  0.776655  0.586860  1
  O  O19  1  0.087843  0.278897  0.960869  1
  O  O20  1  0.277504  0.960402  0.090214  1
  O  O21  1  0.958353  0.087149  0.278013  1
