# generated using pymatgen
data_Tb4GeB4Ir9
_symmetry_space_group_name_H-M   'P 1'
_cell_length_a   10.79477242
_cell_length_b   10.79477266
_cell_length_c   10.79477463
_cell_angle_alpha   29.71315783
_cell_angle_beta   29.71315838
_cell_angle_gamma   29.71315930
_symmetry_Int_Tables_number   1
_chemical_formula_structural   Tb4GeB4Ir9
_chemical_formula_sum   'Tb4 Ge1 B4 Ir9'
_cell_volume   273.62013668
_cell_formula_units_Z   1
loop_
 _symmetry_equiv_pos_site_id
 _symmetry_equiv_pos_as_xyz
  1  'x, y, z'
loop_
 _atom_site_type_symbol
 _atom_site_label
 _atom_site_symmetry_multiplicity
 _atom_site_fract_x
 _atom_site_fract_y
 _atom_site_fract_z
 _atom_site_occupancy
  Tb  Tb0  1  0.149653  0.149653  0.149653  1
  Tb  Tb1  1  0.950302  0.950302  0.950302  1
  Tb  Tb2  1  0.850347  0.850347  0.850347  1
  Tb  Tb3  1  0.049698  0.049698  0.049698  1
  Ge  Ge4  1  0.500000  0.500000  0.500000  1
  B  B5  1  0.616022  0.616022  0.616022  1
  B  B6  1  0.717950  0.717950  0.717950  1
  B  B7  1  0.383978  0.383978  0.383978  1
  B  B8  1  0.282050  0.282050  0.282050  1
  Ir  Ir9  1  0.402443  0.901730  0.402443  1
  Ir  Ir10  1  0.901730  0.402443  0.402443  1
  Ir  Ir11  1  0.500000  0.500000  0.000000  1
  Ir  Ir12  1  0.500000  0.000000  0.500000  1
  Ir  Ir13  1  0.000000  0.500000  0.500000  1
  Ir  Ir14  1  0.597557  0.098270  0.597557  1
  Ir  Ir15  1  0.597557  0.597557  0.098270  1
  Ir  Ir16  1  0.098270  0.597557  0.597557  1
  Ir  Ir17  1  0.402443  0.402443  0.901730  1
