# generated using pymatgen
data_Hf3V2Ga5Sb
_symmetry_space_group_name_H-M   'P 1'
_cell_length_a   5.42396600
_cell_length_b   7.85169400
_cell_length_c   8.96934800
_cell_angle_alpha   90.00000000
_cell_angle_beta   90.00000000
_cell_angle_gamma   90.00000000
_symmetry_Int_Tables_number   1
_chemical_formula_structural   Hf3V2Ga5Sb
_chemical_formula_sum   'Hf6 V4 Ga10 Sb2'
_cell_volume   381.98050511
_cell_formula_units_Z   2
loop_
 _symmetry_equiv_pos_site_id
 _symmetry_equiv_pos_as_xyz
  1  'x, y, z'
loop_
 _atom_site_type_symbol
 _atom_site_label
 _atom_site_symmetry_multiplicity
 _atom_site_fract_x
 _atom_site_fract_y
 _atom_site_fract_z
 _atom_site_occupancy
  Hf  Hf0  1  0.500000  0.147091  0.773533  1
  Hf  Hf1  1  0.500000  0.147091  0.226467  1
  Hf  Hf2  1  0.000000  0.852909  0.726467  1
  Hf  Hf3  1  0.000000  0.852909  0.273533  1
  Hf  Hf4  1  0.500000  0.718547  0.500000  1
  Hf  Hf5  1  0.000000  0.281453  0.000000  1
  V  V6  1  0.250000  0.500000  0.250000  1
  V  V7  1  0.250000  0.500000  0.750000  1
  V  V8  1  0.750000  0.500000  0.250000  1
  V  V9  1  0.750000  0.500000  0.750000  1
  Ga  Ga10  1  0.500000  0.775736  0.195327  1
  Ga  Ga11  1  0.500000  0.775736  0.804673  1
  Ga  Ga12  1  0.000000  0.224264  0.304673  1
  Ga  Ga13  1  0.000000  0.224264  0.695327  1
  Ga  Ga14  1  0.500000  0.361816  0.500000  1
  Ga  Ga15  1  0.000000  0.638184  0.000000  1
  Ga  Ga16  1  0.256471  0.039855  0.500000  1
  Ga  Ga17  1  0.743529  0.039855  0.500000  1
  Ga  Ga18  1  0.243529  0.960145  0.000000  1
  Ga  Ga19  1  0.756471  0.960145  0.000000  1
  Sb  Sb20  1  0.000000  0.575931  0.500000  1
  Sb  Sb21  1  0.500000  0.424069  0.000000  1
