# generated using pymatgen
data_Er10Al4Ru5Rh
_symmetry_space_group_name_H-M   'P 1'
_cell_length_a   8.28120094
_cell_length_b   8.28189921
_cell_length_c   8.28189973
_cell_angle_alpha   109.43135177
_cell_angle_beta   109.54653789
_cell_angle_gamma   109.43921738
_symmetry_Int_Tables_number   1
_chemical_formula_structural   Er10Al4Ru5Rh
_chemical_formula_sum   'Er10 Al4 Ru5 Rh1'
_cell_volume   437.23252717
_cell_formula_units_Z   1
loop_
 _symmetry_equiv_pos_site_id
 _symmetry_equiv_pos_as_xyz
  1  'x, y, z'
loop_
 _atom_site_type_symbol
 _atom_site_label
 _atom_site_symmetry_multiplicity
 _atom_site_fract_x
 _atom_site_fract_y
 _atom_site_fract_z
 _atom_site_occupancy
  Er  Er0  1  0.250000  0.679629  0.429629  1
  Er  Er1  1  0.750000  0.819847  0.069847  1
  Er  Er2  1  0.431761  0.251173  0.679019  1
  Er  Er3  1  0.682207  0.431545  0.252224  1
  Er  Er4  1  0.068239  0.747258  0.819412  1
  Er  Er5  1  0.817793  0.070017  0.749338  1
  Er  Er6  1  0.212513  0.214469  0.215545  1
  Er  Er7  1  0.500052  0.999748  0.287184  1
  Er  Er8  1  0.287487  0.503032  0.001955  1
  Er  Er9  1  0.999948  0.287133  0.499696  1
  Al  Al10  1  0.589379  0.589425  0.589165  1
  Al  Al11  1  0.500620  0.998582  0.910163  1
  Al  Al12  1  0.910621  0.499786  0.000046  1
  Al  Al13  1  0.999380  0.909543  0.497963  1
  Ru  Ru14  1  0.750000  0.375572  0.625572  1
  Ru  Ru15  1  0.872891  0.249778  0.123151  1
  Ru  Ru16  1  0.125149  0.875568  0.249651  1
  Ru  Ru17  1  0.627108  0.750259  0.376886  1
  Ru  Ru18  1  0.374851  0.624501  0.750420  1
  Rh  Rh19  1  0.250000  0.123135  0.873135  1
