# generated using pymatgen
data_Dy3Er5(CdIr)2
_symmetry_space_group_name_H-M   'P 1'
_cell_length_a   9.58294405
_cell_length_b   9.58294462
_cell_length_c   9.58294400
_cell_angle_alpha   60.00000214
_cell_angle_beta   60.00000016
_cell_angle_gamma   60.00000607
_symmetry_Int_Tables_number   1
_chemical_formula_structural   Dy3Er5(CdIr)2
_chemical_formula_sum   'Dy6 Er10 Cd4 Ir4'
_cell_volume   622.27436543
_cell_formula_units_Z   2
loop_
 _symmetry_equiv_pos_site_id
 _symmetry_equiv_pos_as_xyz
  1  'x, y, z'
loop_
 _atom_site_type_symbol
 _atom_site_label
 _atom_site_symmetry_multiplicity
 _atom_site_fract_x
 _atom_site_fract_y
 _atom_site_fract_z
 _atom_site_occupancy
  Dy  Dy0  1  0.187787  0.812213  0.812213  1
  Dy  Dy1  1  0.812213  0.187787  0.187787  1
  Dy  Dy2  1  0.812213  0.187787  0.812213  1
  Dy  Dy3  1  0.187787  0.812213  0.187787  1
  Dy  Dy4  1  0.812213  0.812213  0.187787  1
  Dy  Dy5  1  0.187787  0.187787  0.812213  1
  Er  Er6  1  0.599127  0.599127  0.599127  1
  Er  Er7  1  0.599127  0.599127  0.202619  1
  Er  Er8  1  0.599127  0.202619  0.599127  1
  Er  Er9  1  0.202619  0.599127  0.599127  1
  Er  Er10  1  0.060991  0.439009  0.439009  1
  Er  Er11  1  0.439009  0.060991  0.060991  1
  Er  Er12  1  0.439009  0.060991  0.439009  1
  Er  Er13  1  0.060991  0.439009  0.060991  1
  Er  Er14  1  0.439009  0.439009  0.060991  1
  Er  Er15  1  0.060991  0.060991  0.439009  1
  Cd  Cd16  1  0.831018  0.831018  0.831018  1
  Cd  Cd17  1  0.831018  0.831018  0.506945  1
  Cd  Cd18  1  0.831018  0.506945  0.831018  1
  Cd  Cd19  1  0.506945  0.831018  0.831018  1
  Ir  Ir20  1  0.391861  0.391861  0.391861  1
  Ir  Ir21  1  0.391861  0.391861  0.824416  1
  Ir  Ir22  1  0.391861  0.824416  0.391861  1
  Ir  Ir23  1  0.824416  0.391861  0.391861  1
