# generated using pymatgen
data_Lu10In8Pt3Rh
_symmetry_space_group_name_H-M   'P 1'
_cell_length_a   3.57286300
_cell_length_b   8.01745949
_cell_length_c   17.97285508
_cell_angle_alpha   90.04000244
_cell_angle_beta   90.00000000
_cell_angle_gamma   90.00000000
_symmetry_Int_Tables_number   1
_chemical_formula_structural   Lu10In8Pt3Rh
_chemical_formula_sum   'Lu10 In8 Pt3 Rh1'
_cell_volume   514.83741949
_cell_formula_units_Z   1
loop_
 _symmetry_equiv_pos_site_id
 _symmetry_equiv_pos_as_xyz
  1  'x, y, z'
loop_
 _atom_site_type_symbol
 _atom_site_label
 _atom_site_symmetry_multiplicity
 _atom_site_fract_x
 _atom_site_fract_y
 _atom_site_fract_z
 _atom_site_occupancy
  Lu  Lu0  1  0.000000  0.115086  0.411916  1
  Lu  Lu1  1  0.000000  0.882894  0.585536  1
  Lu  Lu2  1  0.000000  0.383813  0.914392  1
  Lu  Lu3  1  0.000000  0.617418  0.087189  1
  Lu  Lu4  1  0.000000  0.241059  0.222624  1
  Lu  Lu5  1  0.000000  0.755377  0.777765  1
  Lu  Lu6  1  0.000000  0.255616  0.721945  1
  Lu  Lu7  1  0.000000  0.749012  0.278295  1
  Lu  Lu8  1  0.000000  0.000464  0.000368  1
  Lu  Lu9  1  0.000000  0.500689  0.499540  1
  In  In10  1  0.500000  0.424037  0.352873  1
  In  In11  1  0.500000  0.573701  0.646952  1
  In  In12  1  0.500000  0.074019  0.853100  1
  In  In13  1  0.500000  0.929580  0.148634  1
  In  In14  1  0.500000  0.292479  0.066305  1
  In  In15  1  0.500000  0.708750  0.934303  1
  In  In16  1  0.500000  0.207188  0.565258  1
  In  In17  1  0.500000  0.793221  0.432201  1
  Pt  Pt18  1  0.500000  0.975475  0.696100  1
  Pt  Pt19  1  0.500000  0.475278  0.803798  1
  Pt  Pt20  1  0.500000  0.521653  0.196725  1
  Rh  Rh21  1  0.500000  0.023192  0.304179  1
