# generated using pymatgen
data_Rb3Ag2Sb2Au
_symmetry_space_group_name_H-M   'P 1'
_cell_length_a   8.60760135
_cell_length_b   8.42580073
_cell_length_c   8.42580095
_cell_angle_alpha   45.25274115
_cell_angle_beta   45.79344428
_cell_angle_gamma   45.79344259
_symmetry_Int_Tables_number   1
_chemical_formula_structural   Rb3Ag2Sb2Au
_chemical_formula_sum   'Rb3 Ag2 Sb2 Au1'
_cell_volume   284.39581265
_cell_formula_units_Z   1
loop_
 _symmetry_equiv_pos_site_id
 _symmetry_equiv_pos_as_xyz
  1  'x, y, z'
loop_
 _atom_site_type_symbol
 _atom_site_label
 _atom_site_symmetry_multiplicity
 _atom_site_fract_x
 _atom_site_fract_y
 _atom_site_fract_z
 _atom_site_occupancy
  Rb  Rb0  1  0.500000  0.500000  0.500000  1
  Rb  Rb1  1  0.913861  0.916207  0.916207  1
  Rb  Rb2  1  0.086139  0.083793  0.083793  1
  Ag  Ag3  1  0.500000  0.000000  0.500000  1
  Ag  Ag4  1  0.500000  0.500000  0.000000  1
  Sb  Sb5  1  0.246728  0.248275  0.248275  1
  Sb  Sb6  1  0.753272  0.751725  0.751725  1
  Au  Au7  1  0.000000  0.500000  0.500000  1
