# generated using pymatgen
data_Tb2Zn5Sn
_symmetry_space_group_name_H-M   'P 1'
_cell_length_a   8.40547516
_cell_length_b   8.40547596
_cell_length_c   9.00576400
_cell_angle_alpha   90.00000000
_cell_angle_beta   90.00000000
_cell_angle_gamma   149.73228723
_symmetry_Int_Tables_number   1
_chemical_formula_structural   Tb2Zn5Sn
_chemical_formula_sum   'Tb4 Zn10 Sn2'
_cell_volume   320.70889810
_cell_formula_units_Z   2
loop_
 _symmetry_equiv_pos_site_id
 _symmetry_equiv_pos_as_xyz
  1  'x, y, z'
loop_
 _atom_site_type_symbol
 _atom_site_label
 _atom_site_symmetry_multiplicity
 _atom_site_fract_x
 _atom_site_fract_y
 _atom_site_fract_z
 _atom_site_occupancy
  Tb  Tb0  1  0.203568  0.796432  0.250000  1
  Tb  Tb1  1  0.796432  0.203568  0.750000  1
  Tb  Tb2  1  0.000000  0.000000  0.500000  1
  Tb  Tb3  1  0.000000  0.000000  0.000000  1
  Zn  Zn4  1  0.813590  0.186410  0.390942  1
  Zn  Zn5  1  0.186410  0.813590  0.609058  1
  Zn  Zn6  1  0.813590  0.186410  0.109058  1
  Zn  Zn7  1  0.186410  0.813590  0.890942  1
  Zn  Zn8  1  0.656366  0.343634  0.481797  1
  Zn  Zn9  1  0.343634  0.656366  0.518203  1
  Zn  Zn10  1  0.656366  0.343634  0.018203  1
  Zn  Zn11  1  0.343634  0.656366  0.981797  1
  Zn  Zn12  1  0.392923  0.607077  0.250000  1
  Zn  Zn13  1  0.607077  0.392923  0.750000  1
  Sn  Sn14  1  0.553864  0.446136  0.250000  1
  Sn  Sn15  1  0.446136  0.553864  0.750000  1
