# generated using pymatgen
data_TbDy2ZnGa7Ag3
_symmetry_space_group_name_H-M   'P 1'
_cell_length_a   4.32482163
_cell_length_b   8.36505165
_cell_length_c   8.34299839
_cell_angle_alpha   70.04510313
_cell_angle_beta   74.97807161
_cell_angle_gamma   75.01860449
_symmetry_Int_Tables_number   1
_chemical_formula_structural   TbDy2ZnGa7Ag3
_chemical_formula_sum   'Tb1 Dy2 Zn1 Ga7 Ag3'
_cell_volume   269.16131222
_cell_formula_units_Z   1
loop_
 _symmetry_equiv_pos_site_id
 _symmetry_equiv_pos_as_xyz
  1  'x, y, z'
loop_
 _atom_site_type_symbol
 _atom_site_label
 _atom_site_symmetry_multiplicity
 _atom_site_fract_x
 _atom_site_fract_y
 _atom_site_fract_z
 _atom_site_occupancy
  Tb  Tb0  1  0.501098  0.498178  0.499625  1
  Dy  Dy1  1  0.798666  0.199613  0.203055  1
  Dy  Dy2  1  0.200196  0.801953  0.797655  1
  Zn  Zn3  1  0.642905  0.080039  0.634150  1
  Ga  Ga4  1  0.357124  0.924506  0.361245  1
  Ga  Ga5  1  0.643866  0.637937  0.074331  1
  Ga  Ga6  1  0.358029  0.359946  0.923997  1
  Ga  Ga7  1  0.836721  0.795165  0.531393  1
  Ga  Ga8  1  0.158460  0.208654  0.474425  1
  Ga  Ga9  1  0.841490  0.528126  0.788894  1
  Ga  Ga10  1  0.159305  0.470189  0.211200  1
  Ag  Ag11  1  0.501594  0.998410  0.998404  1
  Ag  Ag12  1  0.999686  0.803304  0.197324  1
  Ag  Ag13  1  0.000860  0.193979  0.804302  1
