# generated using pymatgen
data_Hf3MnCrCo7P6
_symmetry_space_group_name_H-M   'P 1'
_cell_length_a   11.90270054
_cell_length_b   11.97134227
_cell_length_c   3.61647500
_cell_angle_alpha   90.00000000
_cell_angle_beta   90.00000000
_cell_angle_gamma   120.19095236
_symmetry_Int_Tables_number   1
_chemical_formula_structural   Hf3MnCrCo7P6
_chemical_formula_sum   'Hf6 Mn2 Cr2 Co14 P12'
_cell_volume   445.41576146
_cell_formula_units_Z   2
loop_
 _symmetry_equiv_pos_site_id
 _symmetry_equiv_pos_as_xyz
  1  'x, y, z'
loop_
 _atom_site_type_symbol
 _atom_site_label
 _atom_site_symmetry_multiplicity
 _atom_site_fract_x
 _atom_site_fract_y
 _atom_site_fract_z
 _atom_site_occupancy
  Hf  Hf0  1  0.818155  0.818544  0.500000  1
  Hf  Hf1  1  0.000000  0.174830  0.500000  1
  Hf  Hf2  1  0.335892  0.667285  0.000000  1
  Hf  Hf3  1  0.664108  0.331392  0.000000  1
  Hf  Hf4  1  0.000000  0.555116  0.000000  1
  Hf  Hf5  1  0.181845  0.000389  0.500000  1
  Mn  Mn6  1  0.623068  0.823461  0.000000  1
  Mn  Mn7  1  0.376932  0.200394  0.000000  1
  Cr  Cr8  1  0.445011  0.445917  0.000000  1
  Cr  Cr9  1  0.554989  0.000906  0.000000  1
  Co  Co10  1  0.000000  0.721334  0.500000  1
  Co  Co11  1  0.281807  0.285110  0.500000  1
  Co  Co12  1  0.870306  0.350858  0.500000  1
  Co  Co13  1  0.718193  0.003303  0.500000  1
  Co  Co14  1  0.817532  0.626576  0.000000  1
  Co  Co15  1  0.182468  0.809044  0.000000  1
  Co  Co16  1  0.359588  0.875246  0.500000  1
  Co  Co17  1  0.129694  0.480553  0.500000  1
  Co  Co18  1  0.640412  0.515658  0.500000  1
  Co  Co19  1  0.000000  0.001995  0.000000  1
  Co  Co20  1  0.515268  0.641395  0.500000  1
  Co  Co21  1  0.484732  0.126126  0.500000  1
  Co  Co22  1  0.198234  0.373578  0.000000  1
  Co  Co23  1  0.801766  0.175343  0.000000  1
  P  P24  1  0.000000  0.344485  0.000000  1
  P  P25  1  0.824122  0.514994  0.500000  1
  P  P26  1  0.682760  0.164841  0.500000  1
  P  P27  1  0.178989  0.175637  0.000000  1
  P  P28  1  0.639783  0.645875  0.000000  1
  P  P29  1  0.821011  0.996647  0.000000  1
  P  P30  1  0.519182  0.833336  0.500000  1
  P  P31  1  0.175878  0.690872  0.500000  1
  P  P32  1  0.360217  0.006092  0.000000  1
  P  P33  1  0.480818  0.314155  0.500000  1
  P  P34  1  0.000000  0.826629  0.000000  1
  P  P35  1  0.317240  0.482080  0.500000  1
