# generated using pymatgen
data_Li3SnPd4
_symmetry_space_group_name_H-M   'P 1'
_cell_length_a   7.54644857
_cell_length_b   7.54644806
_cell_length_c   7.54644941
_cell_angle_alpha   33.78069609
_cell_angle_beta   33.78070145
_cell_angle_gamma   33.78069821
_symmetry_Int_Tables_number   1
_chemical_formula_structural   Li3SnPd4
_chemical_formula_sum   'Li3 Sn1 Pd4'
_cell_volume   118.38722893
_cell_formula_units_Z   1
loop_
 _symmetry_equiv_pos_site_id
 _symmetry_equiv_pos_as_xyz
  1  'x, y, z'
loop_
 _atom_site_type_symbol
 _atom_site_label
 _atom_site_symmetry_multiplicity
 _atom_site_fract_x
 _atom_site_fract_y
 _atom_site_fract_z
 _atom_site_occupancy
  Li  Li0  1  0.252034  0.252034  0.252034  1
  Li  Li1  1  0.747966  0.747966  0.747966  1
  Li  Li2  1  0.000000  0.000000  0.000000  1
  Sn  Sn3  1  0.500000  0.500000  0.500000  1
  Pd  Pd4  1  0.627388  0.627388  0.627388  1
  Pd  Pd5  1  0.122145  0.122145  0.122145  1
  Pd  Pd6  1  0.877855  0.877855  0.877855  1
  Pd  Pd7  1  0.372612  0.372612  0.372612  1
