# generated using pymatgen
data_Zr4MnFe5Si2
_symmetry_space_group_name_H-M   'P 1'
_cell_length_a   5.01082384
_cell_length_b   5.01082412
_cell_length_c   8.06544600
_cell_angle_alpha   90.00000000
_cell_angle_beta   90.00000000
_cell_angle_gamma   120.15931069
_symmetry_Int_Tables_number   1
_chemical_formula_structural   Zr4MnFe5Si2
_chemical_formula_sum   'Zr4 Mn1 Fe5 Si2'
_cell_volume   175.09667185
_cell_formula_units_Z   1
loop_
 _symmetry_equiv_pos_site_id
 _symmetry_equiv_pos_as_xyz
  1  'x, y, z'
loop_
 _atom_site_type_symbol
 _atom_site_label
 _atom_site_symmetry_multiplicity
 _atom_site_fract_x
 _atom_site_fract_y
 _atom_site_fract_z
 _atom_site_occupancy
  Zr  Zr0  1  0.666691  0.333309  0.936036  1
  Zr  Zr1  1  0.333223  0.666777  0.436347  1
  Zr  Zr2  1  0.666691  0.333309  0.563964  1
  Zr  Zr3  1  0.333223  0.666777  0.063653  1
  Mn  Mn4  1  0.169834  0.830166  0.750000  1
  Fe  Fe5  1  0.660629  0.830406  0.750000  1
  Fe  Fe6  1  0.830309  0.169691  0.250000  1
  Fe  Fe7  1  0.169594  0.339371  0.750000  1
  Fe  Fe8  1  0.830305  0.660452  0.250000  1
  Fe  Fe9  1  0.339548  0.169695  0.250000  1
  Si  Si10  1  0.999977  0.000023  0.500287  1
  Si  Si11  1  0.999977  0.000023  0.999713  1
