# generated using pymatgen
data_Hf16Co3ReNiRh3
_symmetry_space_group_name_H-M   'P 1'
_cell_length_a   8.62096814
_cell_length_b   8.58847157
_cell_length_c   8.58847218
_cell_angle_alpha   60.01529410
_cell_angle_beta   60.15888718
_cell_angle_gamma   60.15889829
_symmetry_Int_Tables_number   1
_chemical_formula_structural   Hf16Co3ReNiRh3
_chemical_formula_sum   'Hf16 Co3 Re1 Ni1 Rh3'
_cell_volume   450.77737978
_cell_formula_units_Z   1
loop_
 _symmetry_equiv_pos_site_id
 _symmetry_equiv_pos_as_xyz
  1  'x, y, z'
loop_
 _atom_site_type_symbol
 _atom_site_label
 _atom_site_symmetry_multiplicity
 _atom_site_fract_x
 _atom_site_fract_y
 _atom_site_fract_z
 _atom_site_occupancy
  Hf  Hf0  1  0.673913  0.109619  0.109619  1
  Hf  Hf1  1  0.105153  0.686949  0.105485  1
  Hf  Hf2  1  0.105153  0.105485  0.686949  1
  Hf  Hf3  1  0.102260  0.102350  0.102350  1
  Hf  Hf4  1  0.315638  0.313633  0.685962  1
  Hf  Hf5  1  0.693714  0.680069  0.313587  1
  Hf  Hf6  1  0.315638  0.685962  0.313633  1
  Hf  Hf7  1  0.693714  0.313587  0.680069  1
  Hf  Hf8  1  0.692972  0.313282  0.313282  1
  Hf  Hf9  1  0.316260  0.685654  0.685654  1
  Hf  Hf10  1  0.946786  0.950369  0.548369  1
  Hf  Hf11  1  0.555886  0.555271  0.944810  1
  Hf  Hf12  1  0.946786  0.548369  0.950369  1
  Hf  Hf13  1  0.555886  0.944810  0.555271  1
  Hf  Hf14  1  0.549960  0.947020  0.947020  1
  Hf  Hf15  1  0.944777  0.554113  0.554113  1
  Co  Co16  1  0.325090  0.891129  0.891129  1
  Co  Co17  1  0.888086  0.320656  0.895016  1
  Co  Co18  1  0.888086  0.895016  0.320656  1
  Re  Re19  1  0.001714  0.332379  0.332379  1
  Ni  Ni20  1  0.888271  0.895976  0.895976  1
  Rh  Rh21  1  0.331340  0.995131  0.336293  1
  Rh  Rh22  1  0.331340  0.336293  0.995131  1
  Rh  Rh23  1  0.331574  0.336878  0.336878  1
