# generated using pymatgen
data_Er12TcOs2Rh
_symmetry_space_group_name_H-M   'P 1'
_cell_length_a   6.25130568
_cell_length_b   7.34209537
_cell_length_c   8.99949800
_cell_angle_alpha   90.00000000
_cell_angle_beta   90.00000000
_cell_angle_gamma   90.20037838
_symmetry_Int_Tables_number   1
_chemical_formula_structural   Er12TcOs2Rh
_chemical_formula_sum   'Er12 Tc1 Os2 Rh1'
_cell_volume   413.05357542
_cell_formula_units_Z   1
loop_
 _symmetry_equiv_pos_site_id
 _symmetry_equiv_pos_as_xyz
  1  'x, y, z'
loop_
 _atom_site_type_symbol
 _atom_site_label
 _atom_site_symmetry_multiplicity
 _atom_site_fract_x
 _atom_site_fract_y
 _atom_site_fract_z
 _atom_site_occupancy
  Er  Er0  1  0.334260  0.674961  0.062691  1
  Er  Er1  1  0.168707  0.176090  0.434635  1
  Er  Er2  1  0.664797  0.325903  0.560977  1
  Er  Er3  1  0.833949  0.822708  0.938247  1
  Er  Er4  1  0.664797  0.325903  0.939023  1
  Er  Er5  1  0.833949  0.822708  0.561753  1
  Er  Er6  1  0.334260  0.674961  0.437309  1
  Er  Er7  1  0.168707  0.176090  0.065365  1
  Er  Er8  1  0.870355  0.538476  0.250000  1
  Er  Er9  1  0.627860  0.039296  0.250000  1
  Er  Er10  1  0.131095  0.461893  0.750000  1
  Er  Er11  1  0.369212  0.959967  0.750000  1
  Tc  Tc12  1  0.038119  0.884196  0.250000  1
  Os  Os13  1  0.460373  0.381996  0.250000  1
  Os  Os14  1  0.540568  0.616897  0.750000  1
  Rh  Rh15  1  0.958991  0.117955  0.750000  1
