# generated using pymatgen
data_Lu2AlGa2Os
_symmetry_space_group_name_H-M   'P 1'
_cell_length_a   5.38332166
_cell_length_b   5.37104712
_cell_length_c   8.70017600
_cell_angle_alpha   90.00000000
_cell_angle_beta   90.00000000
_cell_angle_gamma   119.92460894
_symmetry_Int_Tables_number   1
_chemical_formula_structural   Lu2AlGa2Os
_chemical_formula_sum   'Lu4 Al2 Ga4 Os2'
_cell_volume   218.02053007
_cell_formula_units_Z   2
loop_
 _symmetry_equiv_pos_site_id
 _symmetry_equiv_pos_as_xyz
  1  'x, y, z'
loop_
 _atom_site_type_symbol
 _atom_site_label
 _atom_site_symmetry_multiplicity
 _atom_site_fract_x
 _atom_site_fract_y
 _atom_site_fract_z
 _atom_site_occupancy
  Lu  Lu0  1  0.667860  0.333931  0.051799  1
  Lu  Lu1  1  0.667860  0.333931  0.448202  1
  Lu  Lu2  1  0.334346  0.667173  0.554712  1
  Lu  Lu3  1  0.334346  0.667173  0.945288  1
  Al  Al4  1  0.157545  0.324581  0.250000  1
  Al  Al5  1  0.157545  0.832965  0.250000  1
  Ga  Ga6  1  0.663272  0.831636  0.250000  1
  Ga  Ga7  1  0.333675  0.166838  0.749999  1
  Ga  Ga8  1  0.833386  0.164996  0.749999  1
  Ga  Ga9  1  0.833384  0.668391  0.749999  1
  Os  Os10  1  0.008390  0.004195  0.001065  1
  Os  Os11  1  0.008390  0.004195  0.498935  1
