# generated using pymatgen
data_Y11HoInCo4Rh
_symmetry_space_group_name_H-M   'P 1'
_cell_length_a   8.34684742
_cell_length_b   8.34884585
_cell_length_c   8.34884601
_cell_angle_alpha   110.86559912
_cell_angle_beta   110.59216417
_cell_angle_gamma   106.99351784
_symmetry_Int_Tables_number   1
_chemical_formula_structural   Y11HoInCo4Rh
_chemical_formula_sum   'Y11 Ho1 In1 Co4 Rh1'
_cell_volume   447.19076850
_cell_formula_units_Z   1
loop_
 _symmetry_equiv_pos_site_id
 _symmetry_equiv_pos_as_xyz
  1  'x, y, z'
loop_
 _atom_site_type_symbol
 _atom_site_label
 _atom_site_symmetry_multiplicity
 _atom_site_fract_x
 _atom_site_fract_y
 _atom_site_fract_z
 _atom_site_occupancy
  Y  Y0  1  0.593704  0.788546  0.805158  1
  Y  Y1  1  0.016905  0.211466  0.805438  1
  Y  Y2  1  0.983447  0.788575  0.194873  1
  Y  Y3  1  0.187181  0.292777  0.479510  1
  Y  Y4  1  0.812690  0.706771  0.519915  1
  Y  Y5  1  0.187181  0.707671  0.894404  1
  Y  Y6  1  0.812690  0.292775  0.105919  1
  Y  Y7  1  0.313960  0.617722  0.304153  1
  Y  Y8  1  0.685846  0.381791  0.695365  1
  Y  Y9  1  0.313960  0.009807  0.696237  1
  Y  Y10  1  0.685846  0.990482  0.304057  1
  Ho  Ho11  1  0.404850  0.210060  0.194790  1
  In  In12  1  0.500036  0.500009  0.000027  1
  Co  Co13  1  0.381689  0.000691  0.380998  1
  Co  Co14  1  0.618183  0.999936  0.618248  1
  Co  Co15  1  0.111016  0.611001  0.500015  1
  Co  Co16  1  0.888835  0.388929  0.499906  1
  Rh  Rh17  1  0.001978  0.000991  0.000987  1
