# generated using pymatgen
data_Dy2Si2IrRh
_symmetry_space_group_name_H-M   'P 1'
_cell_length_a   4.25947500
_cell_length_b   6.90004600
_cell_length_c   7.39676500
_cell_angle_alpha   90.00000000
_cell_angle_beta   90.00000000
_cell_angle_gamma   90.00000000
_symmetry_Int_Tables_number   1
_chemical_formula_structural   Dy2Si2IrRh
_chemical_formula_sum   'Dy4 Si4 Ir2 Rh2'
_cell_volume   217.39516492
_cell_formula_units_Z   2
loop_
 _symmetry_equiv_pos_site_id
 _symmetry_equiv_pos_as_xyz
  1  'x, y, z'
loop_
 _atom_site_type_symbol
 _atom_site_label
 _atom_site_symmetry_multiplicity
 _atom_site_fract_x
 _atom_site_fract_y
 _atom_site_fract_z
 _atom_site_occupancy
  Dy  Dy0  1  0.750000  0.501968  0.812731  1
  Dy  Dy1  1  0.250000  0.999360  0.313105  1
  Dy  Dy2  1  0.750000  0.001968  0.687269  1
  Dy  Dy3  1  0.250000  0.499360  0.186895  1
  Si  Si4  1  0.250000  0.798510  0.894828  1
  Si  Si5  1  0.250000  0.298510  0.605172  1
  Si  Si6  1  0.750000  0.202550  0.109190  1
  Si  Si7  1  0.750000  0.702550  0.390810  1
  Ir  Ir8  1  0.750000  0.843784  0.068146  1
  Ir  Ir9  1  0.750000  0.343784  0.431854  1
  Rh  Rh10  1  0.250000  0.653829  0.569324  1
  Rh  Rh11  1  0.250000  0.153829  0.930676  1
