# generated using pymatgen
data_VReIr6
_symmetry_space_group_name_H-M   'P 1'
_cell_length_a   5.49835200
_cell_length_b   5.49835192
_cell_length_c   4.38745500
_cell_angle_alpha   90.00000000
_cell_angle_beta   90.00000000
_cell_angle_gamma   119.99998843
_symmetry_Int_Tables_number   1
_chemical_formula_structural   VReIr6
_chemical_formula_sum   'V1 Re1 Ir6'
_cell_volume   114.87047862
_cell_formula_units_Z   1
loop_
 _symmetry_equiv_pos_site_id
 _symmetry_equiv_pos_as_xyz
  1  'x, y, z'
loop_
 _atom_site_type_symbol
 _atom_site_label
 _atom_site_symmetry_multiplicity
 _atom_site_fract_x
 _atom_site_fract_y
 _atom_site_fract_z
 _atom_site_occupancy
  V  V0  1  0.666667  0.333333  0.250000  1
  Re  Re1  1  0.333333  0.666667  0.750000  1
  Ir  Ir2  1  0.167300  0.334599  0.250000  1
  Ir  Ir3  1  0.665401  0.832700  0.250000  1
  Ir  Ir4  1  0.167300  0.832700  0.250000  1
  Ir  Ir5  1  0.832609  0.665219  0.750000  1
  Ir  Ir6  1  0.334781  0.167391  0.750000  1
  Ir  Ir7  1  0.832609  0.167391  0.750000  1
