# generated using pymatgen
data_Tm12Co5Sn
_symmetry_space_group_name_H-M   'P 1'
_cell_length_a   8.15484776
_cell_length_b   8.15484764
_cell_length_c   8.15484764
_cell_angle_alpha   110.89050997
_cell_angle_beta   110.82422859
_cell_angle_gamma   106.73313907
_symmetry_Int_Tables_number   1
_chemical_formula_structural   Tm12Co5Sn
_chemical_formula_sum   'Tm12 Co5 Sn1'
_cell_volume   416.75951572
_cell_formula_units_Z   1
loop_
 _symmetry_equiv_pos_site_id
 _symmetry_equiv_pos_as_xyz
  1  'x, y, z'
loop_
 _atom_site_type_symbol
 _atom_site_label
 _atom_site_symmetry_multiplicity
 _atom_site_fract_x
 _atom_site_fract_y
 _atom_site_fract_z
 _atom_site_occupancy
  Tm  Tm0  1  0.288035  0.185104  0.473139  1
  Tm  Tm1  1  0.711965  0.814896  0.526861  1
  Tm  Tm2  1  0.288035  0.814896  0.102931  1
  Tm  Tm3  1  0.711965  0.185104  0.897069  1
  Tm  Tm4  1  0.619479  0.313940  0.305540  1
  Tm  Tm5  1  0.380521  0.686060  0.694460  1
  Tm  Tm6  1  0.008400  0.313940  0.694460  1
  Tm  Tm7  1  0.991600  0.686060  0.305540  1
  Tm  Tm8  1  0.212386  0.406233  0.193848  1
  Tm  Tm9  1  0.787614  0.593767  0.806152  1
  Tm  Tm10  1  0.212386  0.018538  0.806152  1
  Tm  Tm11  1  0.787614  0.981462  0.193848  1
  Co  Co12  1  0.000000  0.374404  0.374404  1
  Co  Co13  1  0.000000  0.625596  0.625596  1
  Co  Co14  1  0.387188  0.887188  0.500000  1
  Co  Co15  1  0.612812  0.112812  0.500000  1
  Co  Co16  1  0.000000  0.000000  0.000000  1
  Sn  Sn17  1  0.500000  0.500000  0.000000  1
