# generated using pymatgen
data_YbYTm4(Si3Ru)8
_symmetry_space_group_name_H-M   'P 1'
_cell_length_a   10.09955811
_cell_length_b   10.10339341
_cell_length_c   8.10606363
_cell_angle_alpha   89.93903375
_cell_angle_beta   90.03198992
_cell_angle_gamma   132.65308653
_symmetry_Int_Tables_number   1
_chemical_formula_structural   YbYTm4(Si3Ru)8
_chemical_formula_sum   'Yb1 Y1 Tm4 Si24 Ru8'
_cell_volume   608.33685447
_cell_formula_units_Z   1
loop_
 _symmetry_equiv_pos_site_id
 _symmetry_equiv_pos_as_xyz
  1  'x, y, z'
loop_
 _atom_site_type_symbol
 _atom_site_label
 _atom_site_symmetry_multiplicity
 _atom_site_fract_x
 _atom_site_fract_y
 _atom_site_fract_z
 _atom_site_occupancy
  Yb  Yb0  1  0.000010  0.999974  0.999864  1
  Y  Y1  1  0.502350  0.001918  0.249899  1
  Tm  Tm2  1  0.499977  0.500043  0.500100  1
  Tm  Tm3  1  0.002393  0.502486  0.249904  1
  Tm  Tm4  1  0.497636  0.998029  0.750224  1
  Tm  Tm5  1  0.998348  0.498228  0.750067  1
  Si  Si6  1  0.295923  0.704441  0.999669  1
  Si  Si7  1  0.795327  0.204654  0.500408  1
  Si  Si8  1  0.704298  0.295919  0.999796  1
  Si  Si9  1  0.204965  0.795530  0.500176  1
  Si  Si10  1  0.833204  0.834123  0.331521  1
  Si  Si11  1  0.166278  0.166312  0.668256  1
  Si  Si12  1  0.668949  0.668922  0.834302  1
  Si  Si13  1  0.331352  0.330524  0.165949  1
  Si  Si14  1  0.624353  0.390389  0.229760  1
  Si  Si15  1  0.609238  0.375745  0.771472  1
  Si  Si16  1  0.112017  0.879174  0.729340  1
  Si  Si17  1  0.121654  0.887914  0.269657  1
  Si  Si18  1  0.377966  0.611339  0.771784  1
  Si  Si19  1  0.388466  0.622545  0.229234  1
  Si  Si20  1  0.889720  0.123147  0.269108  1
  Si  Si21  1  0.876547  0.109712  0.729594  1
  Si  Si22  1  0.845573  0.613564  0.006309  1
  Si  Si23  1  0.384862  0.151580  0.992305  1
  Si  Si24  1  0.888983  0.656114  0.504454  1
  Si  Si25  1  0.346643  0.112681  0.495580  1
  Si  Si26  1  0.154627  0.386603  0.995291  1
  Si  Si27  1  0.614873  0.847835  0.004945  1
  Si  Si28  1  0.111227  0.344128  0.493929  1
  Si  Si29  1  0.652828  0.887084  0.507030  1
  Ru  Ru30  1  0.168736  0.826233  0.998419  1
  Ru  Ru31  1  0.672710  0.332827  0.501721  1
  Ru  Ru32  1  0.831203  0.173816  0.998233  1
  Ru  Ru33  1  0.327401  0.667135  0.501602  1
  Ru  Ru34  1  0.624216  0.624764  0.128811  1
  Ru  Ru35  1  0.375141  0.375136  0.871676  1
  Ru  Ru36  1  0.872181  0.872342  0.624998  1
  Ru  Ru37  1  0.127828  0.127092  0.374611  1
