# generated using pymatgen
data_Gd4Ho(ReO6)2
_symmetry_space_group_name_H-M   'P 1'
_cell_length_a   6.91163995
_cell_length_b   6.91164064
_cell_length_c   7.62218125
_cell_angle_alpha   73.69753434
_cell_angle_beta   73.69753518
_cell_angle_gamma   48.83422850
_symmetry_Int_Tables_number   1
_chemical_formula_structural   Gd4Ho(ReO6)2
_chemical_formula_sum   'Gd4 Ho1 Re2 O12'
_cell_volume   260.76022600
_cell_formula_units_Z   1
loop_
 _symmetry_equiv_pos_site_id
 _symmetry_equiv_pos_as_xyz
  1  'x, y, z'
loop_
 _atom_site_type_symbol
 _atom_site_label
 _atom_site_symmetry_multiplicity
 _atom_site_fract_x
 _atom_site_fract_y
 _atom_site_fract_z
 _atom_site_occupancy
  Gd  Gd0  1  0.315319  0.315319  0.824657  1
  Gd  Gd1  1  0.684681  0.684681  0.175343  1
  Gd  Gd2  1  0.695820  0.695820  0.642251  1
  Gd  Gd3  1  0.304180  0.304180  0.357749  1
  Ho  Ho4  1  0.000000  0.000000  0.500000  1
  Re  Re5  1  0.213527  0.786473  0.000000  1
  Re  Re6  1  0.786473  0.213527  0.000000  1
  O  O7  1  0.498823  0.498823  0.173590  1
  O  O8  1  0.501177  0.501177  0.826410  1
  O  O9  1  0.001127  0.001127  0.205547  1
  O  O10  1  0.998873  0.998873  0.794453  1
  O  O11  1  0.912952  0.414226  0.916205  1
  O  O12  1  0.585774  0.087048  0.083795  1
  O  O13  1  0.087048  0.585774  0.083795  1
  O  O14  1  0.598403  0.098255  0.572533  1
  O  O15  1  0.901745  0.401597  0.427467  1
  O  O16  1  0.401597  0.901745  0.427467  1
  O  O17  1  0.098255  0.598403  0.572533  1
  O  O18  1  0.414226  0.912952  0.916205  1
