# generated using pymatgen
data_K4Os2O9
_symmetry_space_group_name_H-M   'P 1'
_cell_length_a   6.15174500
_cell_length_b   6.15174536
_cell_length_c   16.39517200
_cell_angle_alpha   90.00000000
_cell_angle_beta   90.00000000
_cell_angle_gamma   120.00001418
_symmetry_Int_Tables_number   1
_chemical_formula_structural   K4Os2O9
_chemical_formula_sum   'K8 Os4 O18'
_cell_volume   537.33263986
_cell_formula_units_Z   2
loop_
 _symmetry_equiv_pos_site_id
 _symmetry_equiv_pos_as_xyz
  1  'x, y, z'
loop_
 _atom_site_type_symbol
 _atom_site_label
 _atom_site_symmetry_multiplicity
 _atom_site_fract_x
 _atom_site_fract_y
 _atom_site_fract_z
 _atom_site_occupancy
  K  K0  1  0.000000  0.000000  0.000000  1
  K  K1  1  0.000000  0.000000  0.500000  1
  K  K2  1  0.000000  0.000000  0.250000  1
  K  K3  1  0.000000  0.000000  0.750000  1
  K  K4  1  0.333333  0.666667  0.367801  1
  K  K5  1  0.666667  0.333333  0.867801  1
  K  K6  1  0.666667  0.333333  0.632199  1
  K  K7  1  0.333333  0.666667  0.132199  1
  Os  Os8  1  0.333333  0.666667  0.660944  1
  Os  Os9  1  0.666667  0.333333  0.160944  1
  Os  Os10  1  0.666667  0.333333  0.339056  1
  Os  Os11  1  0.333333  0.666667  0.839056  1
  O  O12  1  0.183531  0.816469  0.890428  1
  O  O13  1  0.183531  0.367061  0.890428  1
  O  O14  1  0.632939  0.816469  0.890428  1
  O  O15  1  0.367061  0.183531  0.390428  1
  O  O16  1  0.816469  0.632939  0.109572  1
  O  O17  1  0.816469  0.183531  0.390428  1
  O  O18  1  0.816469  0.632939  0.390428  1
  O  O19  1  0.183531  0.816469  0.609572  1
  O  O20  1  0.632939  0.816469  0.609572  1
  O  O21  1  0.367061  0.183531  0.109572  1
  O  O22  1  0.816469  0.183531  0.109572  1
  O  O23  1  0.183531  0.367061  0.609572  1
  O  O24  1  0.532881  0.065760  0.250000  1
  O  O25  1  0.467119  0.532881  0.750000  1
  O  O26  1  0.065760  0.532881  0.750000  1
  O  O27  1  0.934240  0.467119  0.250000  1
  O  O28  1  0.532881  0.467119  0.250000  1
  O  O29  1  0.467119  0.934240  0.750000  1
