# generated using pymatgen
data_Mn11V6Si6Ir
_symmetry_space_group_name_H-M   'P 1'
_cell_length_a   4.02345200
_cell_length_b   5.69029700
_cell_length_c   12.07448900
_cell_angle_alpha   90.00213846
_cell_angle_beta   89.99982915
_cell_angle_gamma   90.00013162
_symmetry_Int_Tables_number   1
_chemical_formula_structural   Mn11V6Si6Ir
_chemical_formula_sum   'Mn11 V6 Si6 Ir1'
_cell_volume   276.44104065
_cell_formula_units_Z   1
loop_
 _symmetry_equiv_pos_site_id
 _symmetry_equiv_pos_as_xyz
  1  'x, y, z'
loop_
 _atom_site_type_symbol
 _atom_site_label
 _atom_site_symmetry_multiplicity
 _atom_site_fract_x
 _atom_site_fract_y
 _atom_site_fract_z
 _atom_site_occupancy
  Mn  Mn0  1  0.499996  0.748987  0.999915  1
  Mn  Mn1  1  0.999971  0.250245  0.167703  1
  Mn  Mn2  1  0.999969  0.750370  0.167430  1
  Mn  Mn3  1  0.499975  0.249904  0.334496  1
  Mn  Mn4  1  0.499976  0.750014  0.335315  1
  Mn  Mn5  1  0.000006  0.249360  0.500079  1
  Mn  Mn6  1  0.000007  0.749540  0.500123  1
  Mn  Mn7  1  0.500027  0.249879  0.665638  1
  Mn  Mn8  1  0.500033  0.750022  0.664817  1
  Mn  Mn9  1  0.000017  0.250301  0.832194  1
  Mn  Mn10  1  0.000025  0.750282  0.832476  1
  V  V11  1  0.999994  0.523841  0.999839  1
  V  V12  1  0.499967  0.991911  0.175406  1
  V  V13  1  0.999976  0.497941  0.334855  1
  V  V14  1  0.500006  0.999968  0.500048  1
  V  V15  1  0.000030  0.497678  0.665242  1
  V  V16  1  0.500029  0.992053  0.824533  1
  Si  Si17  1  0.999994  0.992767  0.999864  1
  Si  Si18  1  0.499968  0.503095  0.171273  1
  Si  Si19  1  0.999978  0.000451  0.334401  1
  Si  Si20  1  0.500005  0.499445  0.500182  1
  Si  Si21  1  0.000034  0.000409  0.665736  1
  Si  Si22  1  0.500025  0.503058  0.828535  1
  Ir  Ir23  1  0.499991  0.248483  0.999902  1
