# generated using pymatgen
data_Na2Er3Si11PIr19
_symmetry_space_group_name_H-M   'P 1'
_cell_length_a   12.77380464
_cell_length_b   12.80559147
_cell_length_c   3.98233300
_cell_angle_alpha   90.00000000
_cell_angle_beta   90.00000000
_cell_angle_gamma   120.08235467
_symmetry_Int_Tables_number   1
_chemical_formula_structural   Na2Er3Si11PIr19
_chemical_formula_sum   'Na2 Er3 Si11 P1 Ir19'
_cell_volume   563.67284686
_cell_formula_units_Z   1
loop_
 _symmetry_equiv_pos_site_id
 _symmetry_equiv_pos_as_xyz
  1  'x, y, z'
loop_
 _atom_site_type_symbol
 _atom_site_label
 _atom_site_symmetry_multiplicity
 _atom_site_fract_x
 _atom_site_fract_y
 _atom_site_fract_z
 _atom_site_occupancy
  Na  Na0  1  0.816359  0.816822  0.500000  1
  Na  Na1  1  0.183641  0.000463  0.500000  1
  Er  Er2  1  0.667240  0.332968  0.000000  1
  Er  Er3  1  0.332760  0.665727  0.000000  1
  Er  Er4  1  0.000000  0.177576  0.500000  1
  Si  Si5  1  0.687458  0.166485  0.500000  1
  Si  Si6  1  0.832709  0.521451  0.500000  1
  Si  Si7  1  0.479276  0.311703  0.500000  1
  Si  Si8  1  0.167291  0.688743  0.500000  1
  Si  Si9  1  0.520724  0.832427  0.500000  1
  Si  Si10  1  0.312542  0.479026  0.500000  1
  Si  Si11  1  0.632645  0.634230  0.000000  1
  Si  Si12  1  0.367355  0.001584  0.000000  1
  Si  Si13  1  0.000000  0.366630  0.000000  1
  Si  Si14  1  0.180044  0.179433  0.000000  1
  Si  Si15  1  0.819956  0.999389  0.000000  1
  P  P16  1  0.000000  0.816248  0.000000  1
  Ir  Ir17  1  0.807801  0.183127  0.000000  1
  Ir  Ir18  1  0.817549  0.624039  0.000000  1
  Ir  Ir19  1  0.378794  0.195426  0.000000  1
  Ir  Ir20  1  0.182451  0.806489  0.000000  1
  Ir  Ir21  1  0.621206  0.816630  0.000000  1
  Ir  Ir22  1  0.192199  0.375326  0.000000  1
  Ir  Ir23  1  0.446382  0.449591  0.000000  1
  Ir  Ir24  1  0.553618  0.003210  0.000000  1
  Ir  Ir25  1  0.000000  0.551598  0.000000  1
  Ir  Ir26  1  0.279971  0.281343  0.500000  1
  Ir  Ir27  1  0.720029  0.001372  0.500000  1
  Ir  Ir28  1  0.000000  0.720750  0.500000  1
  Ir  Ir29  1  0.872265  0.361682  0.500000  1
  Ir  Ir30  1  0.638439  0.511921  0.500000  1
  Ir  Ir31  1  0.488777  0.127747  0.500000  1
  Ir  Ir32  1  0.361561  0.873482  0.500000  1
  Ir  Ir33  1  0.511223  0.638969  0.500000  1
  Ir  Ir34  1  0.127735  0.489417  0.500000  1
  Ir  Ir35  1  0.000000  0.996974  0.000000  1
