# generated using pymatgen
data_Dy9Th3Ru4
_symmetry_space_group_name_H-M   'P 1'
_cell_length_a   6.35974767
_cell_length_b   7.22281103
_cell_length_c   9.53128400
_cell_angle_alpha   90.00000000
_cell_angle_beta   90.00000000
_cell_angle_gamma   90.54098803
_symmetry_Int_Tables_number   1
_chemical_formula_structural   Dy9Th3Ru4
_chemical_formula_sum   'Dy9 Th3 Ru4'
_cell_volume   437.80245087
_cell_formula_units_Z   1
loop_
 _symmetry_equiv_pos_site_id
 _symmetry_equiv_pos_as_xyz
  1  'x, y, z'
loop_
 _atom_site_type_symbol
 _atom_site_label
 _atom_site_symmetry_multiplicity
 _atom_site_fract_x
 _atom_site_fract_y
 _atom_site_fract_z
 _atom_site_occupancy
  Dy  Dy0  1  0.334253  0.677512  0.064082  1
  Dy  Dy1  1  0.164963  0.176063  0.434906  1
  Dy  Dy2  1  0.668841  0.323397  0.566665  1
  Dy  Dy3  1  0.829648  0.823124  0.931411  1
  Dy  Dy4  1  0.668841  0.323397  0.933335  1
  Dy  Dy5  1  0.829648  0.823124  0.568589  1
  Dy  Dy6  1  0.334253  0.677512  0.435918  1
  Dy  Dy7  1  0.164963  0.176063  0.065094  1
  Dy  Dy8  1  0.361625  0.962806  0.750000  1
  Th  Th9  1  0.849048  0.547756  0.250000  1
  Th  Th10  1  0.648187  0.046077  0.250000  1
  Th  Th11  1  0.151559  0.452217  0.750000  1
  Ru  Ru12  1  0.032560  0.872271  0.250000  1
  Ru  Ru13  1  0.468914  0.370341  0.250000  1
  Ru  Ru14  1  0.962574  0.132029  0.750000  1
  Ru  Ru15  1  0.530123  0.616312  0.750000  1
