# generated using pymatgen
data_NdYPa2(Al3Co)6
_symmetry_space_group_name_H-M   'P 1'
_cell_length_a   7.44441698
_cell_length_b   7.43930860
_cell_length_c   9.25908900
_cell_angle_alpha   90.00000000
_cell_angle_beta   90.00000000
_cell_angle_gamma   119.18467490
_symmetry_Int_Tables_number   1
_chemical_formula_structural   NdYPa2(Al3Co)6
_chemical_formula_sum   'Nd1 Y1 Pa2 Al18 Co6'
_cell_volume   447.68433937
_cell_formula_units_Z   1
loop_
 _symmetry_equiv_pos_site_id
 _symmetry_equiv_pos_as_xyz
  1  'x, y, z'
loop_
 _atom_site_type_symbol
 _atom_site_label
 _atom_site_symmetry_multiplicity
 _atom_site_fract_x
 _atom_site_fract_y
 _atom_site_fract_z
 _atom_site_occupancy
  Nd  Nd0  1  0.671813  0.993466  0.250000  1
  Y  Y1  1  0.993554  0.671973  0.250000  1
  Pa  Pa2  1  0.006436  0.323670  0.750000  1
  Pa  Pa3  1  0.323670  0.006504  0.750000  1
  Al  Al4  1  0.662199  0.998090  0.926576  1
  Al  Al5  1  0.998745  0.662547  0.571806  1
  Al  Al6  1  0.126633  0.124712  0.250000  1
  Al  Al7  1  0.669578  0.667794  0.043607  1
  Al  Al8  1  0.337127  0.337310  0.543104  1
  Al  Al9  1  0.337127  0.337310  0.956896  1
  Al  Al10  1  0.669578  0.667794  0.456393  1
  Al  Al11  1  0.333069  0.997636  0.072474  1
  Al  Al12  1  0.000203  0.337568  0.427418  1
  Al  Al13  1  0.338739  0.553934  0.250000  1
  Al  Al14  1  0.000203  0.337568  0.072582  1
  Al  Al15  1  0.556592  0.343806  0.250000  1
  Al  Al16  1  0.659318  0.447641  0.750000  1
  Al  Al17  1  0.867296  0.866535  0.750000  1
  Al  Al18  1  0.998745  0.662547  0.928194  1
  Al  Al19  1  0.662199  0.998090  0.573424  1
  Al  Al20  1  0.333069  0.997636  0.427526  1
  Al  Al21  1  0.446821  0.658439  0.750000  1
  Co  Co22  1  0.670836  0.326461  0.506620  1
  Co  Co23  1  0.670836  0.326461  0.993380  1
  Co  Co24  1  0.325456  0.670326  0.506490  1
  Co  Co25  1  0.007352  0.006929  0.988797  1
  Co  Co26  1  0.007352  0.006929  0.511203  1
  Co  Co27  1  0.325456  0.670326  0.993510  1
