# generated using pymatgen
data_Yb5Dy(OsO6)3
_symmetry_space_group_name_H-M   'P 1'
_cell_length_a   9.03755543
_cell_length_b   9.03755550
_cell_length_c   5.23865333
_cell_angle_alpha   90.11245916
_cell_angle_beta   89.88754748
_cell_angle_gamma   119.82102690
_symmetry_Int_Tables_number   1
_chemical_formula_structural   Yb5Dy(OsO6)3
_chemical_formula_sum   'Yb5 Dy1 Os3 O18'
_cell_volume   371.22014243
_cell_formula_units_Z   1
loop_
 _symmetry_equiv_pos_site_id
 _symmetry_equiv_pos_as_xyz
  1  'x, y, z'
loop_
 _atom_site_type_symbol
 _atom_site_label
 _atom_site_symmetry_multiplicity
 _atom_site_fract_x
 _atom_site_fract_y
 _atom_site_fract_z
 _atom_site_occupancy
  Yb  Yb0  1  0.000257  0.281903  0.497194  1
  Yb  Yb1  1  0.281903  0.000257  0.502806  1
  Yb  Yb2  1  0.379089  0.379089  0.000000  1
  Yb  Yb3  1  0.995889  0.620902  0.001079  1
  Yb  Yb4  1  0.620902  0.995889  0.998921  1
  Dy  Dy5  1  0.719412  0.719412  0.500000  1
  Os  Os6  1  0.665505  0.329277  0.504979  1
  Os  Os7  1  0.329277  0.665505  0.495021  1
  Os  Os8  1  0.004664  0.004664  0.000000  1
  O  O9  1  0.758672  0.231262  0.716695  1
  O  O10  1  0.770565  0.532148  0.712341  1
  O  O11  1  0.471771  0.243110  0.713268  1
  O  O12  1  0.532148  0.770565  0.287659  1
  O  O13  1  0.243110  0.471771  0.286732  1
  O  O14  1  0.231262  0.758672  0.283305  1
  O  O15  1  0.593035  0.455546  0.300456  1
  O  O16  1  0.545678  0.139261  0.297872  1
  O  O17  1  0.860529  0.406830  0.301105  1
  O  O18  1  0.069582  0.878073  0.793532  1
  O  O19  1  0.121437  0.195037  0.790730  1
  O  O20  1  0.804509  0.926056  0.786578  1
  O  O21  1  0.195037  0.121437  0.209270  1
  O  O22  1  0.926056  0.804509  0.213422  1
  O  O23  1  0.878073  0.069582  0.206468  1
  O  O24  1  0.455546  0.593035  0.699544  1
  O  O25  1  0.406830  0.860529  0.698895  1
  O  O26  1  0.139261  0.545678  0.702128  1
