# generated using pymatgen
data_Na4Pm2O5
_symmetry_space_group_name_H-M   'P 1'
_cell_length_a   4.80212200
_cell_length_b   7.83231943
_cell_length_c   4.76592500
_cell_angle_alpha   72.28710721
_cell_angle_beta   90.00000000
_cell_angle_gamma   90.00000000
_symmetry_Int_Tables_number   1
_chemical_formula_structural   Na4Pm2O5
_chemical_formula_sum   'Na4 Pm2 O5'
_cell_volume   170.75687164
_cell_formula_units_Z   1
loop_
 _symmetry_equiv_pos_site_id
 _symmetry_equiv_pos_as_xyz
  1  'x, y, z'
loop_
 _atom_site_type_symbol
 _atom_site_label
 _atom_site_symmetry_multiplicity
 _atom_site_fract_x
 _atom_site_fract_y
 _atom_site_fract_z
 _atom_site_occupancy
  Na  Na0  1  0.000000  0.000000  0.000000  1
  Na  Na1  1  0.000000  0.365395  0.317304  1
  Na  Na2  1  0.500000  0.000000  0.500001  1
  Na  Na3  1  0.000000  0.634605  0.682697  1
  Pm  Pm4  1  0.500000  0.683784  0.158109  1
  Pm  Pm5  1  0.500000  0.316217  0.841891  1
  O  O6  1  0.500000  0.000000  0.000000  1
  O  O7  1  0.000000  0.692289  0.153856  1
  O  O8  1  0.500000  0.350632  0.324684  1
  O  O9  1  0.500000  0.649369  0.675316  1
  O  O10  1  0.000000  0.307710  0.846145  1
