# generated using pymatgen
data_Th4CdInGa4
_symmetry_space_group_name_H-M   'P 1'
_cell_length_a   7.49861400
_cell_length_b   7.49861400
_cell_length_c   4.46766200
_cell_angle_alpha   90.00000000
_cell_angle_beta   90.00000000
_cell_angle_gamma   90.00000000
_symmetry_Int_Tables_number   1
_chemical_formula_structural   Th4CdInGa4
_chemical_formula_sum   'Th4 Cd1 In1 Ga4'
_cell_volume   251.21311339
_cell_formula_units_Z   1
loop_
 _symmetry_equiv_pos_site_id
 _symmetry_equiv_pos_as_xyz
  1  'x, y, z'
loop_
 _atom_site_type_symbol
 _atom_site_label
 _atom_site_symmetry_multiplicity
 _atom_site_fract_x
 _atom_site_fract_y
 _atom_site_fract_z
 _atom_site_occupancy
  Th  Th0  1  0.676350  0.175075  0.500000  1
  Th  Th1  1  0.175075  0.323650  0.500000  1
  Th  Th2  1  0.824925  0.676350  0.500000  1
  Th  Th3  1  0.323650  0.824925  0.500000  1
  Cd  Cd4  1  0.500000  0.500000  0.000000  1
  In  In5  1  0.000000  0.000000  0.000000  1
  Ga  Ga6  1  0.875584  0.379296  0.000000  1
  Ga  Ga7  1  0.379296  0.124416  0.000000  1
  Ga  Ga8  1  0.620704  0.875584  0.000000  1
  Ga  Ga9  1  0.124416  0.620704  0.000000  1
