# generated using pymatgen
data_Rb8Li4Al3InSb8
_symmetry_space_group_name_H-M   'P 1'
_cell_length_a   10.95910540
_cell_length_b   10.95910501
_cell_length_c   6.87422060
_cell_angle_alpha   90.10059600
_cell_angle_beta   89.89940549
_cell_angle_gamma   102.38297241
_symmetry_Int_Tables_number   1
_chemical_formula_structural   Rb8Li4Al3InSb8
_chemical_formula_sum   'Rb8 Li4 Al3 In1 Sb8'
_cell_volume   806.39861486
_cell_formula_units_Z   1
loop_
 _symmetry_equiv_pos_site_id
 _symmetry_equiv_pos_as_xyz
  1  'x, y, z'
loop_
 _atom_site_type_symbol
 _atom_site_label
 _atom_site_symmetry_multiplicity
 _atom_site_fract_x
 _atom_site_fract_y
 _atom_site_fract_z
 _atom_site_occupancy
  Rb  Rb0  1  0.580695  0.923350  0.751072  1
  Rb  Rb1  1  0.923350  0.580695  0.248928  1
  Rb  Rb2  1  0.422895  0.076033  0.253726  1
  Rb  Rb3  1  0.076033  0.422895  0.746274  1
  Rb  Rb4  1  0.671727  0.329269  0.774400  1
  Rb  Rb5  1  0.827037  0.168825  0.277639  1
  Rb  Rb6  1  0.329269  0.671727  0.225600  1
  Rb  Rb7  1  0.168825  0.827037  0.722361  1
  Li  Li8  1  0.621042  0.621042  0.000000  1
  Li  Li9  1  0.879945  0.879945  0.500000  1
  Li  Li10  1  0.379990  0.379990  0.000000  1
  Li  Li11  1  0.118786  0.118786  0.500000  1
  Al  Al12  1  0.869031  0.869031  0.000000  1
  Al  Al13  1  0.633114  0.633114  0.500000  1
  Al  Al14  1  0.128003  0.128003  0.000000  1
  In  In15  1  0.367003  0.367003  0.500000  1
  Sb  Sb16  1  0.338967  0.150500  0.761994  1
  Sb  Sb17  1  0.150500  0.338967  0.238006  1
  Sb  Sb18  1  0.661052  0.840123  0.250502  1
  Sb  Sb19  1  0.840123  0.661052  0.749498  1
  Sb  Sb20  1  0.909727  0.088889  0.785710  1
  Sb  Sb21  1  0.600210  0.413787  0.279405  1
  Sb  Sb22  1  0.088889  0.909727  0.214290  1
  Sb  Sb23  1  0.413787  0.600210  0.720595  1
