# generated using pymatgen
data_Sc20Si9NiAs2
_symmetry_space_group_name_H-M   'P 1'
_cell_length_a   5.82734900
_cell_length_b   7.93809321
_cell_length_c   13.76867100
_cell_angle_alpha   90.11217953
_cell_angle_beta   90.00000000
_cell_angle_gamma   90.00000000
_symmetry_Int_Tables_number   1
_chemical_formula_structural   Sc20Si9NiAs2
_chemical_formula_sum   'Sc20 Si9 Ni1 As2'
_cell_volume   636.91050701
_cell_formula_units_Z   1
loop_
 _symmetry_equiv_pos_site_id
 _symmetry_equiv_pos_as_xyz
  1  'x, y, z'
loop_
 _atom_site_type_symbol
 _atom_site_label
 _atom_site_symmetry_multiplicity
 _atom_site_fract_x
 _atom_site_fract_y
 _atom_site_fract_z
 _atom_site_occupancy
  Sc  Sc0  1  0.751180  0.004972  0.668425  1
  Sc  Sc1  1  0.751758  0.499337  0.167334  1
  Sc  Sc2  1  0.751193  0.503569  0.834261  1
  Sc  Sc3  1  0.751586  0.000616  0.332044  1
  Sc  Sc4  1  0.248807  0.503569  0.834261  1
  Sc  Sc5  1  0.248414  0.000616  0.332044  1
  Sc  Sc6  1  0.248820  0.004972  0.668425  1
  Sc  Sc7  1  0.248242  0.499337  0.167334  1
  Sc  Sc8  1  0.500000  0.260247  0.500664  1
  Sc  Sc9  1  0.500000  0.755772  0.996630  1
  Sc  Sc10  1  0.500000  0.623958  0.626955  1
  Sc  Sc11  1  0.500000  0.117911  0.122659  1
  Sc  Sc12  1  0.500000  0.112477  0.874136  1
  Sc  Sc13  1  0.500000  0.619769  0.377302  1
  Sc  Sc14  1  0.000000  0.744523  0.499766  1
  Sc  Sc15  1  0.000000  0.242647  0.999386  1
  Sc  Sc16  1  0.000000  0.876320  0.875837  1
  Sc  Sc17  1  0.000000  0.378839  0.378369  1
  Sc  Sc18  1  0.000000  0.379775  0.621739  1
  Sc  Sc19  1  0.000000  0.877211  0.121501  1
  Si  Si20  1  0.500000  0.303287  0.303180  1
  Si  Si21  1  0.500000  0.306315  0.697950  1
  Si  Si22  1  0.500000  0.801167  0.196477  1
  Si  Si23  1  0.000000  0.607397  0.001924  1
  Si  Si24  1  0.000000  0.109993  0.499708  1
  Si  Si25  1  0.000000  0.701414  0.699013  1
  Si  Si26  1  0.000000  0.195383  0.196313  1
  Si  Si27  1  0.000000  0.199422  0.804043  1
  Si  Si28  1  0.000000  0.697287  0.303567  1
  Ni  Ni29  1  0.500000  0.796269  0.798531  1
  As  As30  1  0.500000  0.384318  0.999995  1
  As  As31  1  0.500000  0.891300  0.500218  1
