# generated using pymatgen
data_Lu19ScSi15Au
_symmetry_space_group_name_H-M   'P 1'
_cell_length_a   7.23957229
_cell_length_b   7.48786493
_cell_length_c   14.30733627
_cell_angle_alpha   90.17090236
_cell_angle_beta   89.13951649
_cell_angle_gamma   90.19038285
_symmetry_Int_Tables_number   1
_chemical_formula_structural   Lu19ScSi15Au
_chemical_formula_sum   'Lu19 Sc1 Si15 Au1'
_cell_volume   775.49044479
_cell_formula_units_Z   1
loop_
 _symmetry_equiv_pos_site_id
 _symmetry_equiv_pos_as_xyz
  1  'x, y, z'
loop_
 _atom_site_type_symbol
 _atom_site_label
 _atom_site_symmetry_multiplicity
 _atom_site_fract_x
 _atom_site_fract_y
 _atom_site_fract_z
 _atom_site_occupancy
  Lu  Lu0  1  0.172864  0.988147  0.752049  1
  Lu  Lu1  1  0.828262  0.008557  0.250081  1
  Lu  Lu2  1  0.322998  0.496905  0.248597  1
  Lu  Lu3  1  0.677612  0.508145  0.750552  1
  Lu  Lu4  1  0.999090  0.669038  0.598060  1
  Lu  Lu5  1  0.999165  0.328436  0.398041  1
  Lu  Lu6  1  0.504492  0.184800  0.399636  1
  Lu  Lu7  1  0.008178  0.326424  0.097292  1
  Lu  Lu8  1  0.496577  0.816115  0.599649  1
  Lu  Lu9  1  0.993900  0.674434  0.906726  1
  Lu  Lu10  1  0.488946  0.817057  0.904792  1
  Lu  Lu11  1  0.509582  0.182242  0.095757  1
  Lu  Lu12  1  0.350961  0.322896  0.621004  1
  Lu  Lu13  1  0.650633  0.678018  0.376799  1
  Lu  Lu14  1  0.157188  0.829755  0.372404  1
  Lu  Lu15  1  0.660379  0.678323  0.121707  1
  Lu  Lu16  1  0.843695  0.171454  0.624256  1
  Lu  Lu17  1  0.339120  0.319722  0.880178  1
  Lu  Lu18  1  0.836355  0.176393  0.878567  1
  Sc  Sc19  1  0.160576  0.823002  0.126255  1
  Si  Si20  1  0.050977  0.384256  0.752100  1
  Si  Si21  1  0.951765  0.613040  0.247552  1
  Si  Si22  1  0.455510  0.896802  0.245756  1
  Si  Si23  1  0.544067  0.103137  0.751645  1
  Si  Si24  1  0.293489  0.623810  0.752577  1
  Si  Si25  1  0.705194  0.372722  0.246933  1
  Si  Si26  1  0.208925  0.134730  0.244732  1
  Si  Si27  1  0.792421  0.867197  0.754632  1
  Si  Si28  1  0.826002  0.971732  0.458372  1
  Si  Si29  1  0.312814  0.535929  0.458782  1
  Si  Si30  1  0.845035  0.968602  0.040530  1
  Si  Si31  1  0.684313  0.464765  0.538475  1
  Si  Si32  1  0.161678  0.027685  0.966099  1
  Si  Si33  1  0.670085  0.468649  0.960476  1
  Si  Si34  1  0.323169  0.541162  0.039491  1
  Au  Au35  1  0.173981  0.025918  0.539449  1
