# generated using pymatgen
data_Ho20Ir8PdPt3
_symmetry_space_group_name_H-M   'P 1'
_cell_length_a   10.95515862
_cell_length_b   10.94708102
_cell_length_c   6.30888007
_cell_angle_alpha   89.98685865
_cell_angle_beta   89.96358259
_cell_angle_gamma   90.58594820
_symmetry_Int_Tables_number   1
_chemical_formula_structural   Ho20Ir8PdPt3
_chemical_formula_sum   'Ho20 Ir8 Pd1 Pt3'
_cell_volume   756.56537796
_cell_formula_units_Z   1
loop_
 _symmetry_equiv_pos_site_id
 _symmetry_equiv_pos_as_xyz
  1  'x, y, z'
loop_
 _atom_site_type_symbol
 _atom_site_label
 _atom_site_symmetry_multiplicity
 _atom_site_fract_x
 _atom_site_fract_y
 _atom_site_fract_z
 _atom_site_occupancy
  Ho  Ho0  1  0.293600  0.086726  0.370242  1
  Ho  Ho1  1  0.292812  0.908372  0.876606  1
  Ho  Ho2  1  0.704927  0.091188  0.873082  1
  Ho  Ho3  1  0.704411  0.915677  0.372581  1
  Ho  Ho4  1  0.582634  0.794050  0.870238  1
  Ho  Ho5  1  0.585457  0.209749  0.376663  1
  Ho  Ho6  1  0.405677  0.792943  0.378645  1
  Ho  Ho7  1  0.414166  0.208492  0.875454  1
  Ho  Ho8  1  0.208575  0.415184  0.623952  1
  Ho  Ho9  1  0.209883  0.589604  0.122936  1
  Ho  Ho10  1  0.793137  0.409507  0.121394  1
  Ho  Ho11  1  0.794034  0.583690  0.630360  1
  Ho  Ho12  1  0.919484  0.707126  0.129401  1
  Ho  Ho13  1  0.910054  0.294850  0.626227  1
  Ho  Ho14  1  0.092774  0.706784  0.623939  1
  Ho  Ho15  1  0.090573  0.296217  0.128001  1
  Ho  Ho16  1  0.000999  0.997652  0.500582  1
  Ho  Ho17  1  0.001931  0.999292  0.999426  1
  Ho  Ho18  1  0.498004  0.497283  0.000101  1
  Ho  Ho19  1  0.497810  0.498316  0.499797  1
  Ir  Ir20  1  0.151717  0.847411  0.249252  1
  Ir  Ir21  1  0.653904  0.346990  0.750368  1
  Ir  Ir22  1  0.344919  0.343933  0.250999  1
  Ir  Ir23  1  0.347862  0.652985  0.749576  1
  Ir  Ir24  1  0.500492  0.999063  0.123326  1
  Ir  Ir25  1  0.500339  0.999869  0.622913  1
  Ir  Ir26  1  0.999511  0.500317  0.877293  1
  Ir  Ir27  1  0.999042  0.500017  0.376667  1
  Pd  Pd28  1  0.656036  0.655330  0.249240  1
  Pt  Pt29  1  0.846980  0.151974  0.250754  1
  Pt  Pt30  1  0.843910  0.844494  0.750076  1
  Pt  Pt31  1  0.154350  0.154915  0.749910  1
