# generated using pymatgen
data_U8Ta9Si16Mo3
_symmetry_space_group_name_H-M   'P 1'
_cell_length_a   6.98785856
_cell_length_b   6.98506741
_cell_length_c   12.90753315
_cell_angle_alpha   89.97246485
_cell_angle_beta   89.98111802
_cell_angle_gamma   90.00400167
_symmetry_Int_Tables_number   1
_chemical_formula_structural   U8Ta9Si16Mo3
_chemical_formula_sum   'U8 Ta9 Si16 Mo3'
_cell_volume   630.02514297
_cell_formula_units_Z   1
loop_
 _symmetry_equiv_pos_site_id
 _symmetry_equiv_pos_as_xyz
  1  'x, y, z'
loop_
 _atom_site_type_symbol
 _atom_site_label
 _atom_site_symmetry_multiplicity
 _atom_site_fract_x
 _atom_site_fract_y
 _atom_site_fract_z
 _atom_site_occupancy
  U  U0  1  0.993135  0.331036  0.221274  1
  U  U1  1  0.005859  0.670823  0.718751  1
  U  U2  1  0.168623  0.493801  0.469896  1
  U  U3  1  0.506082  0.829545  0.031428  1
  U  U4  1  0.830445  0.507088  0.969898  1
  U  U5  1  0.496002  0.168961  0.528876  1
  U  U6  1  0.328124  0.993206  0.780086  1
  U  U7  1  0.670286  0.004459  0.280047  1
  Ta  Ta8  1  0.167299  0.168404  0.000388  1
  Ta  Ta9  1  0.831936  0.832207  0.499894  1
  Ta  Ta10  1  0.332022  0.668397  0.250592  1
  Ta  Ta11  1  0.668048  0.331396  0.749528  1
  Ta  Ta12  1  0.157464  0.001236  0.374293  1
  Ta  Ta13  1  0.843012  0.999347  0.873993  1
  Ta  Ta14  1  0.499199  0.657784  0.624349  1
  Ta  Ta15  1  0.340787  0.500411  0.876016  1
  Ta  Ta16  1  0.500513  0.342499  0.123380  1
  Si  Si17  1  0.292293  0.037655  0.184247  1
  Si  Si18  1  0.706251  0.963285  0.683702  1
  Si  Si19  1  0.463223  0.791614  0.433911  1
  Si  Si20  1  0.201466  0.540474  0.067083  1
  Si  Si21  1  0.539008  0.202264  0.934222  1
  Si  Si22  1  0.797006  0.460794  0.564708  1
  Si  Si23  1  0.037918  0.297427  0.814291  1
  Si  Si24  1  0.960964  0.702790  0.315343  1
  Si  Si25  1  0.375555  0.296182  0.315737  1
  Si  Si26  1  0.628333  0.706662  0.815189  1
  Si  Si27  1  0.204652  0.876382  0.565305  1
  Si  Si28  1  0.129242  0.794909  0.936376  1
  Si  Si29  1  0.796484  0.125800  0.066025  1
  Si  Si30  1  0.870535  0.206703  0.435268  1
  Si  Si31  1  0.291930  0.369454  0.683267  1
  Si  Si32  1  0.706727  0.628855  0.185991  1
  Mo  Mo33  1  0.663037  0.497355  0.375445  1
  Mo  Mo34  1  0.999635  0.161733  0.625275  1
  Mo  Mo35  1  0.996908  0.839058  0.125922  1
