# generated using pymatgen
data_Sm6CoNi3(P6Ru7)2
_symmetry_space_group_name_H-M   'P 1'
_cell_length_a   3.95411900
_cell_length_b   10.96397700
_cell_length_c   12.68641900
_cell_angle_alpha   90.00000000
_cell_angle_beta   90.00000000
_cell_angle_gamma   90.00000000
_symmetry_Int_Tables_number   1
_chemical_formula_structural   Sm6CoNi3(P6Ru7)2
_chemical_formula_sum   'Sm6 Co1 Ni3 P12 Ru14'
_cell_volume   549.99267077
_cell_formula_units_Z   1
loop_
 _symmetry_equiv_pos_site_id
 _symmetry_equiv_pos_as_xyz
  1  'x, y, z'
loop_
 _atom_site_type_symbol
 _atom_site_label
 _atom_site_symmetry_multiplicity
 _atom_site_fract_x
 _atom_site_fract_y
 _atom_site_fract_z
 _atom_site_occupancy
  Sm  Sm0  1  0.000000  0.500000  0.525846  1
  Sm  Sm1  1  0.500000  0.000000  0.475256  1
  Sm  Sm2  1  0.500000  0.818664  0.203439  1
  Sm  Sm3  1  0.500000  0.181336  0.203439  1
  Sm  Sm4  1  0.000000  0.683006  0.795749  1
  Sm  Sm5  1  0.000000  0.316994  0.795749  1
  Co  Co6  1  0.500000  0.000000  0.011890  1
  Ni  Ni7  1  0.500000  0.500000  0.698155  1
  Ni  Ni8  1  0.000000  0.000000  0.300498  1
  Ni  Ni9  1  0.000000  0.500000  0.986933  1
  P  P10  1  0.500000  0.500000  0.875586  1
  P  P11  1  0.000000  0.000000  0.119011  1
  P  P12  1  0.500000  0.500000  0.340473  1
  P  P13  1  0.000000  0.000000  0.660913  1
  P  P14  1  0.500000  0.307359  0.615274  1
  P  P15  1  0.500000  0.692641  0.615274  1
  P  P16  1  0.000000  0.192643  0.384517  1
  P  P17  1  0.000000  0.807357  0.384517  1
  P  P18  1  0.500000  0.848992  0.898226  1
  P  P19  1  0.500000  0.151008  0.898226  1
  P  P20  1  0.000000  0.651762  0.103972  1
  P  P21  1  0.000000  0.348238  0.103972  1
  Ru  Ru22  1  0.500000  0.500000  0.156528  1
  Ru  Ru23  1  0.000000  0.000000  0.845469  1
  Ru  Ru24  1  0.500000  0.337579  0.989317  1
  Ru  Ru25  1  0.500000  0.662421  0.989317  1
  Ru  Ru26  1  0.000000  0.165775  0.010235  1
  Ru  Ru27  1  0.000000  0.834225  0.010235  1
  Ru  Ru28  1  0.500000  0.299040  0.428916  1
  Ru  Ru29  1  0.500000  0.700960  0.428916  1
  Ru  Ru30  1  0.000000  0.200171  0.571135  1
  Ru  Ru31  1  0.000000  0.799829  0.571135  1
  Ru  Ru32  1  0.500000  0.876969  0.715695  1
  Ru  Ru33  1  0.500000  0.123031  0.715695  1
  Ru  Ru34  1  0.000000  0.622892  0.285245  1
  Ru  Ru35  1  0.000000  0.377108  0.285245  1
