# generated using pymatgen
data_Dy3Er2Sn3
_symmetry_space_group_name_H-M   'P 1'
_cell_length_a   8.93661400
_cell_length_b   8.93661356
_cell_length_c   6.50715600
_cell_angle_alpha   90.00000000
_cell_angle_beta   90.00000000
_cell_angle_gamma   120.00167802
_symmetry_Int_Tables_number   1
_chemical_formula_structural   Dy3Er2Sn3
_chemical_formula_sum   'Dy6 Er4 Sn6'
_cell_volume   450.04970861
_cell_formula_units_Z   2
loop_
 _symmetry_equiv_pos_site_id
 _symmetry_equiv_pos_as_xyz
  1  'x, y, z'
loop_
 _atom_site_type_symbol
 _atom_site_label
 _atom_site_symmetry_multiplicity
 _atom_site_fract_x
 _atom_site_fract_y
 _atom_site_fract_z
 _atom_site_occupancy
  Dy  Dy0  1  0.238178  0.000010  0.250000  1
  Dy  Dy1  1  0.761823  0.999991  0.750000  1
  Dy  Dy2  1  0.000009  0.238177  0.250000  1
  Dy  Dy3  1  0.761831  0.761831  0.250000  1
  Dy  Dy4  1  0.238170  0.238170  0.750000  1
  Dy  Dy5  1  0.999990  0.761822  0.750000  1
  Er  Er6  1  0.333333  0.666669  0.000000  1
  Er  Er7  1  0.666668  0.333331  0.500000  1
  Er  Er8  1  0.666668  0.333331  0.000000  1
  Er  Er9  1  0.333333  0.666669  0.500000  1
  Sn  Sn10  1  0.603861  0.000000  0.250000  1
  Sn  Sn11  1  0.396139  0.000000  0.750000  1
  Sn  Sn12  1  0.000000  0.603860  0.250000  1
  Sn  Sn13  1  0.396160  0.396160  0.250000  1
  Sn  Sn14  1  0.603839  0.603840  0.750000  1
  Sn  Sn15  1  0.000000  0.396140  0.750000  1
