# generated using pymatgen
data_HoLu11InCo4Cu
_symmetry_space_group_name_H-M   'P 1'
_cell_length_a   8.12365495
_cell_length_b   8.13998271
_cell_length_c   8.13893746
_cell_angle_alpha   111.25645189
_cell_angle_beta   110.92554227
_cell_angle_gamma   106.35005794
_symmetry_Int_Tables_number   1
_chemical_formula_structural   HoLu11InCo4Cu
_chemical_formula_sum   'Ho1 Lu11 In1 Co4 Cu1'
_cell_volume   412.99779552
_cell_formula_units_Z   1
loop_
 _symmetry_equiv_pos_site_id
 _symmetry_equiv_pos_as_xyz
  1  'x, y, z'
loop_
 _atom_site_type_symbol
 _atom_site_label
 _atom_site_symmetry_multiplicity
 _atom_site_fract_x
 _atom_site_fract_y
 _atom_site_fract_z
 _atom_site_occupancy
  Ho  Ho0  1  0.979836  0.780568  0.198931  1
  Lu  Lu1  1  0.315921  0.617925  0.303898  1
  Lu  Lu2  1  0.682667  0.379100  0.694518  1
  Lu  Lu3  1  0.316451  0.011933  0.697377  1
  Lu  Lu4  1  0.683047  0.987975  0.302968  1
  Lu  Lu5  1  0.187344  0.290575  0.476245  1
  Lu  Lu6  1  0.813732  0.710865  0.526275  1
  Lu  Lu7  1  0.187514  0.710791  0.896700  1
  Lu  Lu8  1  0.813888  0.287457  0.102941  1
  Lu  Lu9  1  0.420420  0.219829  0.200325  1
  Lu  Lu10  1  0.577983  0.779106  0.798459  1
  Lu  Lu11  1  0.019651  0.220926  0.798367  1
  In  In12  1  0.499243  0.499738  0.999766  1
  Co  Co13  1  0.116400  0.613969  0.502918  1
  Co  Co14  1  0.885311  0.385622  0.500046  1
  Co  Co15  1  0.376488  0.999908  0.375495  1
  Co  Co16  1  0.625422  0.998791  0.625848  1
  Cu  Cu17  1  0.998682  0.004923  0.998921  1
