# generated using pymatgen
data_YHo15In4RuRh3
_symmetry_space_group_name_H-M   'P 1'
_cell_length_a   9.61398786
_cell_length_b   9.62453220
_cell_length_c   9.61677100
_cell_angle_alpha   60.02668216
_cell_angle_beta   59.99043366
_cell_angle_gamma   60.02592756
_symmetry_Int_Tables_number   1
_chemical_formula_structural   YHo15In4RuRh3
_chemical_formula_sum   'Y1 Ho15 In4 Ru1 Rh3'
_cell_volume   629.41719481
_cell_formula_units_Z   1
loop_
 _symmetry_equiv_pos_site_id
 _symmetry_equiv_pos_as_xyz
  1  'x, y, z'
loop_
 _atom_site_type_symbol
 _atom_site_label
 _atom_site_symmetry_multiplicity
 _atom_site_fract_x
 _atom_site_fract_y
 _atom_site_fract_z
 _atom_site_occupancy
  Y  Y0  1  0.187808  0.188997  0.811597  1
  Ho  Ho1  1  0.598811  0.600347  0.204689  1
  Ho  Ho2  1  0.439658  0.057057  0.441000  1
  Ho  Ho3  1  0.439975  0.440653  0.059686  1
  Ho  Ho4  1  0.810835  0.189229  0.811620  1
  Ho  Ho5  1  0.189678  0.812480  0.189850  1
  Ho  Ho6  1  0.439658  0.057057  0.062285  1
  Ho  Ho7  1  0.189678  0.812480  0.807992  1
  Ho  Ho8  1  0.058878  0.440135  0.060109  1
  Ho  Ho9  1  0.810007  0.814896  0.187548  1
  Ho  Ho10  1  0.202717  0.601035  0.598123  1
  Ho  Ho11  1  0.058878  0.440135  0.440878  1
  Ho  Ho12  1  0.061554  0.057170  0.440638  1
  Ho  Ho13  1  0.810835  0.189229  0.188316  1
  Ho  Ho14  1  0.600839  0.200801  0.599181  1
  Ho  Ho15  1  0.598811  0.600347  0.596153  1
  In  In16  1  0.833036  0.832808  0.833169  1
  In  In17  1  0.833036  0.832808  0.500989  1
  In  In18  1  0.501434  0.832800  0.832884  1
  In  In19  1  0.831390  0.502730  0.832941  1
  Ru  Ru20  1  0.391294  0.825339  0.391683  1
  Rh  Rh21  1  0.392505  0.390734  0.391417  1
  Rh  Rh22  1  0.826181  0.390004  0.391907  1
  Rh  Rh23  1  0.392505  0.390734  0.825343  1
