# generated using pymatgen
data_Ti8IrOs7
_symmetry_space_group_name_H-M   'P 1'
_cell_length_a   4.38126500
_cell_length_b   12.39085600
_cell_length_c   4.38126700
_cell_angle_alpha   90.00000000
_cell_angle_beta   90.00000000
_cell_angle_gamma   90.00135976
_symmetry_Int_Tables_number   1
_chemical_formula_structural   Ti8IrOs7
_chemical_formula_sum   'Ti8 Ir1 Os7'
_cell_volume   237.84857425
_cell_formula_units_Z   1
loop_
 _symmetry_equiv_pos_site_id
 _symmetry_equiv_pos_as_xyz
  1  'x, y, z'
loop_
 _atom_site_type_symbol
 _atom_site_label
 _atom_site_symmetry_multiplicity
 _atom_site_fract_x
 _atom_site_fract_y
 _atom_site_fract_z
 _atom_site_occupancy
  Ti  Ti0  1  0.917226  0.998114  0.000000  1
  Ti  Ti1  1  0.916108  0.251880  0.000000  1
  Ti  Ti2  1  0.916105  0.500478  0.000000  1
  Ti  Ti3  1  0.917235  0.749515  0.000000  1
  Ti  Ti4  1  0.417252  0.998115  0.500000  1
  Ti  Ti5  1  0.416051  0.251883  0.500000  1
  Ti  Ti6  1  0.416090  0.500487  0.500000  1
  Ti  Ti7  1  0.417222  0.749524  0.500000  1
  Ir  Ir8  1  0.416664  0.124997  0.000000  1
  Os  Os9  1  0.415996  0.374417  0.000000  1
  Os  Os10  1  0.416666  0.625004  0.000000  1
  Os  Os11  1  0.417344  0.875594  0.000000  1
  Os  Os12  1  0.916652  0.124989  0.500000  1
  Os  Os13  1  0.915983  0.374755  0.500000  1
  Os  Os14  1  0.916659  0.625003  0.500000  1
  Os  Os15  1  0.917336  0.875250  0.500000  1
