# generated using pymatgen
data_Tb4Y2IrI10
_symmetry_space_group_name_H-M   'P 1'
_cell_length_a   7.76922857
_cell_length_b   9.72338555
_cell_length_c   9.82434535
_cell_angle_alpha   107.23547546
_cell_angle_beta   96.92773903
_cell_angle_gamma   104.54879182
_symmetry_Int_Tables_number   1
_chemical_formula_structural   Tb4Y2IrI10
_chemical_formula_sum   'Tb4 Y2 Ir1 I10'
_cell_volume   670.66156572
_cell_formula_units_Z   1
loop_
 _symmetry_equiv_pos_site_id
 _symmetry_equiv_pos_as_xyz
  1  'x, y, z'
loop_
 _atom_site_type_symbol
 _atom_site_label
 _atom_site_symmetry_multiplicity
 _atom_site_fract_x
 _atom_site_fract_y
 _atom_site_fract_z
 _atom_site_occupancy
  Tb  Tb0  1  0.115048  0.042490  0.758189  1
  Tb  Tb1  1  0.884952  0.957510  0.241811  1
  Tb  Tb2  1  0.969386  0.279595  0.082572  1
  Tb  Tb3  1  0.030614  0.720405  0.917428  1
  Y  Y4  1  0.351005  0.125876  0.167318  1
  Y  Y5  1  0.648995  0.874124  0.832682  1
  Ir  Ir6  1  0.000000  0.000000  0.000000  1
  I  I7  1  0.350504  0.451366  0.272396  1
  I  I8  1  0.649496  0.548634  0.727604  1
  I  I9  1  0.258772  0.088044  0.462381  1
  I  I10  1  0.741228  0.911956  0.537619  1
  I  I11  1  0.085660  0.372313  0.821442  1
  I  I12  1  0.914340  0.627687  0.178558  1
  I  I13  1  0.453165  0.815524  0.090825  1
  I  I14  1  0.546835  0.184476  0.909175  1
  I  I15  1  0.780500  0.258026  0.345398  1
  I  I16  1  0.219500  0.741974  0.654602  1
