# generated using pymatgen
data_Bi2IrO6
_symmetry_space_group_name_H-M   'P 1'
_cell_length_a   9.31534500
_cell_length_b   9.31534439
_cell_length_c   5.22255200
_cell_angle_alpha   90.00000000
_cell_angle_beta   90.00000000
_cell_angle_gamma   119.99999861
_symmetry_Int_Tables_number   1
_chemical_formula_structural   Bi2IrO6
_chemical_formula_sum   'Bi6 Ir3 O18'
_cell_volume   392.47434203
_cell_formula_units_Z   3
loop_
 _symmetry_equiv_pos_site_id
 _symmetry_equiv_pos_as_xyz
  1  'x, y, z'
loop_
 _atom_site_type_symbol
 _atom_site_label
 _atom_site_symmetry_multiplicity
 _atom_site_fract_x
 _atom_site_fract_y
 _atom_site_fract_z
 _atom_site_occupancy
  Bi  Bi0  1  0.000000  0.373673  0.500000  1
  Bi  Bi1  1  0.289237  0.289237  0.000000  1
  Bi  Bi2  1  0.000000  0.710763  0.000000  1
  Bi  Bi3  1  0.626327  0.626327  0.500000  1
  Bi  Bi4  1  0.373673  0.000000  0.500000  1
  Bi  Bi5  1  0.710763  0.000000  0.000000  1
  Ir  Ir6  1  0.000000  0.000000  0.500000  1
  Ir  Ir7  1  0.333333  0.666667  0.001328  1
  Ir  Ir8  1  0.666667  0.333333  0.998672  1
  O  O9  1  0.077273  0.198509  0.714349  1
  O  O10  1  0.229052  0.466206  0.217314  1
  O  O11  1  0.135699  0.594777  0.787560  1
  O  O12  1  0.405223  0.540922  0.787560  1
  O  O13  1  0.237154  0.770948  0.217314  1
  O  O14  1  0.121236  0.922727  0.714349  1
  O  O15  1  0.533794  0.762846  0.217314  1
  O  O16  1  0.198509  0.077273  0.285651  1
  O  O17  1  0.459078  0.864301  0.787560  1
  O  O18  1  0.801491  0.878764  0.714349  1
  O  O19  1  0.466206  0.229052  0.782686  1
  O  O20  1  0.594777  0.135699  0.212440  1
  O  O21  1  0.540922  0.405223  0.212440  1
  O  O22  1  0.770948  0.237154  0.782686  1
  O  O23  1  0.922727  0.121236  0.285651  1
  O  O24  1  0.762846  0.533794  0.782686  1
  O  O25  1  0.864301  0.459078  0.212440  1
  O  O26  1  0.878764  0.801491  0.285651  1
