# generated using pymatgen
data_YTmNi12AsP6
_symmetry_space_group_name_H-M   'P 1'
_cell_length_a   9.12728100
_cell_length_b   9.12728020
_cell_length_c   3.66591500
_cell_angle_alpha   90.00000000
_cell_angle_beta   90.00000000
_cell_angle_gamma   120.00000653
_symmetry_Int_Tables_number   1
_chemical_formula_structural   YTmNi12AsP6
_chemical_formula_sum   'Y1 Tm1 Ni12 As1 P6'
_cell_volume   264.48180401
_cell_formula_units_Z   1
loop_
 _symmetry_equiv_pos_site_id
 _symmetry_equiv_pos_as_xyz
  1  'x, y, z'
loop_
 _atom_site_type_symbol
 _atom_site_label
 _atom_site_symmetry_multiplicity
 _atom_site_fract_x
 _atom_site_fract_y
 _atom_site_fract_z
 _atom_site_occupancy
  Y  Y0  1  0.333333  0.666667  0.500000  1
  Tm  Tm1  1  0.666667  0.333333  0.000000  1
  Ni  Ni2  1  0.061777  0.625232  0.000000  1
  Ni  Ni3  1  0.563455  0.938223  0.000000  1
  Ni  Ni4  1  0.374768  0.436545  0.000000  1
  Ni  Ni5  1  0.286161  0.128681  0.000000  1
  Ni  Ni6  1  0.842520  0.713839  0.000000  1
  Ni  Ni7  1  0.871319  0.157480  0.000000  1
  Ni  Ni8  1  0.434846  0.053218  0.500000  1
  Ni  Ni9  1  0.618372  0.565154  0.500000  1
  Ni  Ni10  1  0.946782  0.381628  0.500000  1
  Ni  Ni11  1  0.107752  0.864650  0.500000  1
  Ni  Ni12  1  0.756899  0.892248  0.500000  1
  Ni  Ni13  1  0.135350  0.243101  0.500000  1
  As  As14  1  0.000000  0.000000  0.000000  1
  P  P15  1  0.293733  0.887406  0.000000  1
  P  P16  1  0.593673  0.706267  0.000000  1
  P  P17  1  0.112594  0.406327  0.000000  1
  P  P18  1  0.408948  0.296447  0.500000  1
  P  P19  1  0.887501  0.591052  0.500000  1
  P  P20  1  0.703553  0.112499  0.500000  1
