# generated using pymatgen
data_Mg2Fe7Co5P7
_symmetry_space_group_name_H-M   'P 1'
_cell_length_a   8.84882195
_cell_length_b   8.92128876
_cell_length_c   3.54871800
_cell_angle_alpha   90.00000000
_cell_angle_beta   90.00000000
_cell_angle_gamma   119.93493223
_symmetry_Int_Tables_number   1
_chemical_formula_structural   Mg2Fe7Co5P7
_chemical_formula_sum   'Mg2 Fe7 Co5 P7'
_cell_volume   242.77253502
_cell_formula_units_Z   1
loop_
 _symmetry_equiv_pos_site_id
 _symmetry_equiv_pos_as_xyz
  1  'x, y, z'
loop_
 _atom_site_type_symbol
 _atom_site_label
 _atom_site_symmetry_multiplicity
 _atom_site_fract_x
 _atom_site_fract_y
 _atom_site_fract_z
 _atom_site_occupancy
  Mg  Mg0  1  0.999027  0.999967  0.000000  1
  Mg  Mg1  1  0.334701  0.667707  0.500000  1
  Fe  Fe2  1  0.054468  0.770428  0.500000  1
  Fe  Fe3  1  0.717143  0.944587  0.500000  1
  Fe  Fe4  1  0.887114  0.429338  0.500000  1
  Fe  Fe5  1  0.541289  0.112016  0.500000  1
  Fe  Fe6  1  0.570322  0.459738  0.500000  1
  Fe  Fe7  1  0.388447  0.213497  0.000000  1
  Fe  Fe8  1  0.786802  0.178162  0.000000  1
  Co  Co9  1  0.822103  0.606783  0.000000  1
  Co  Co10  1  0.603677  0.705078  0.000000  1
  Co  Co11  1  0.295586  0.899100  0.000000  1
  Co  Co12  1  0.103487  0.397820  0.000000  1
  Co  Co13  1  0.226860  0.282626  0.500000  1
  P  P14  1  0.259909  0.044820  0.500000  1
  P  P15  1  0.951856  0.213598  0.500000  1
  P  P16  1  0.786505  0.740259  0.500000  1
  P  P17  1  0.373999  0.450101  0.000000  1
  P  P18  1  0.553136  0.924124  0.000000  1
  P  P19  1  0.078624  0.628764  0.000000  1
  P  P20  1  0.664947  0.331486  0.000000  1
