# generated using pymatgen
data_Dy3Ho3Zr4(Sn3O)2
_symmetry_space_group_name_H-M   'P 1'
_cell_length_a   8.75834700
_cell_length_b   8.75807728
_cell_length_c   6.03572600
_cell_angle_alpha   90.00000000
_cell_angle_beta   90.00000000
_cell_angle_gamma   119.99951479
_symmetry_Int_Tables_number   1
_chemical_formula_structural   Dy3Ho3Zr4(Sn3O)2
_chemical_formula_sum   'Dy3 Ho3 Zr4 Sn6 O2'
_cell_volume   400.95274589
_cell_formula_units_Z   1
loop_
 _symmetry_equiv_pos_site_id
 _symmetry_equiv_pos_as_xyz
  1  'x, y, z'
loop_
 _atom_site_type_symbol
 _atom_site_label
 _atom_site_symmetry_multiplicity
 _atom_site_fract_x
 _atom_site_fract_y
 _atom_site_fract_z
 _atom_site_occupancy
  Dy  Dy0  1  0.999969  0.772896  0.750000  1
  Dy  Dy1  1  0.999959  0.227076  0.250000  1
  Dy  Dy2  1  0.227154  0.227145  0.750000  1
  Ho  Ho3  1  0.226839  0.999970  0.250000  1
  Ho  Ho4  1  0.773200  0.773211  0.250000  1
  Ho  Ho5  1  0.773127  0.999959  0.750000  1
  Zr  Zr6  1  0.333372  0.666706  0.999976  1
  Zr  Zr7  1  0.333372  0.666706  0.500024  1
  Zr  Zr8  1  0.666673  0.333338  0.999975  1
  Zr  Zr9  1  0.666673  0.333338  0.500025  1
  Sn  Sn10  1  0.000024  0.595086  0.250000  1
  Sn  Sn11  1  0.999891  0.405059  0.750000  1
  Sn  Sn12  1  0.405317  0.405201  0.250000  1
  Sn  Sn13  1  0.594877  0.595016  0.750000  1
  Sn  Sn14  1  0.405387  0.999992  0.750000  1
  Sn  Sn15  1  0.594736  0.999869  0.250000  1
  O  O16  1  0.999716  0.999717  0.000335  1
  O  O17  1  0.999716  0.999717  0.499665  1
