# generated using pymatgen
data_Ca7PbN4
_symmetry_space_group_name_H-M   'P 1'
_cell_length_a   3.60437000
_cell_length_b   12.10806300
_cell_length_c   11.66780000
_cell_angle_alpha   90.00000000
_cell_angle_beta   90.00000000
_cell_angle_gamma   90.00000000
_symmetry_Int_Tables_number   1
_chemical_formula_structural   Ca7PbN4
_chemical_formula_sum   'Ca14 Pb2 N8'
_cell_volume   509.20541628
_cell_formula_units_Z   2
loop_
 _symmetry_equiv_pos_site_id
 _symmetry_equiv_pos_as_xyz
  1  'x, y, z'
loop_
 _atom_site_type_symbol
 _atom_site_label
 _atom_site_symmetry_multiplicity
 _atom_site_fract_x
 _atom_site_fract_y
 _atom_site_fract_z
 _atom_site_occupancy
  Ca  Ca0  1  0.499900  0.670157  0.237115  1
  Ca  Ca1  1  0.499900  0.329843  0.762885  1
  Ca  Ca2  1  0.500100  0.170157  0.262885  1
  Ca  Ca3  1  0.500100  0.829843  0.737115  1
  Ca  Ca4  1  0.499647  0.500000  0.000000  1
  Ca  Ca5  1  0.500353  0.000000  0.500000  1
  Ca  Ca6  1  0.999136  0.928262  0.266254  1
  Ca  Ca7  1  0.999136  0.071738  0.733746  1
  Ca  Ca8  1  0.000864  0.428262  0.233746  1
  Ca  Ca9  1  0.000864  0.571738  0.766254  1
  Ca  Ca10  1  0.001682  0.768048  0.480233  1
  Ca  Ca11  1  0.001682  0.231952  0.519767  1
  Ca  Ca12  1  0.998318  0.268048  0.019767  1
  Ca  Ca13  1  0.998318  0.731952  0.980233  1
  Pb  Pb14  1  0.555952  0.500000  0.500000  1
  Pb  Pb15  1  0.444048  0.000000  0.000000  1
  N  N16  1  0.999734  0.600839  0.130556  1
  N  N17  1  0.999734  0.399161  0.869444  1
  N  N18  1  0.000266  0.100839  0.369444  1
  N  N19  1  0.000266  0.899161  0.630556  1
  N  N20  1  0.500057  0.831276  0.360041  1
  N  N21  1  0.500057  0.168724  0.639959  1
  N  N22  1  0.499943  0.331276  0.139959  1
  N  N23  1  0.499943  0.668724  0.860041  1
