# generated using pymatgen
data_NdYEr2(WO6)2
_symmetry_space_group_name_H-M   'P 1'
_cell_length_a   5.42784200
_cell_length_b   7.74336014
_cell_length_c   11.50396500
_cell_angle_alpha   75.47056984
_cell_angle_beta   90.00000000
_cell_angle_gamma   90.00000000
_symmetry_Int_Tables_number   1
_chemical_formula_structural   NdYEr2(WO6)2
_chemical_formula_sum   'Nd2 Y2 Er4 W4 O24'
_cell_volume   468.04547001
_cell_formula_units_Z   2
loop_
 _symmetry_equiv_pos_site_id
 _symmetry_equiv_pos_as_xyz
  1  'x, y, z'
loop_
 _atom_site_type_symbol
 _atom_site_label
 _atom_site_symmetry_multiplicity
 _atom_site_fract_x
 _atom_site_fract_y
 _atom_site_fract_z
 _atom_site_occupancy
  Nd  Nd0  1  0.685286  0.500000  0.250000  1
  Nd  Nd1  1  0.314714  0.500000  0.750000  1
  Y  Y2  1  0.743164  0.000000  0.250000  1
  Y  Y3  1  0.256836  0.000000  0.750000  1
  Er  Er4  1  0.184767  0.203711  0.422807  1
  Er  Er5  1  0.184767  0.796289  0.077193  1
  Er  Er6  1  0.815233  0.796289  0.577193  1
  Er  Er7  1  0.815233  0.203711  0.922807  1
  W  W8  1  0.254511  0.272450  0.115496  1
  W  W9  1  0.254511  0.727550  0.384504  1
  W  W10  1  0.745489  0.727550  0.884504  1
  W  W11  1  0.745489  0.272450  0.615496  1
  O  O12  1  0.454253  0.205098  0.273848  1
  O  O13  1  0.454253  0.794902  0.226152  1
  O  O14  1  0.545747  0.794902  0.726152  1
  O  O15  1  0.545747  0.205098  0.773848  1
  O  O16  1  0.045195  0.058261  0.103155  1
  O  O17  1  0.045195  0.941739  0.396845  1
  O  O18  1  0.954805  0.941739  0.896845  1
  O  O19  1  0.954805  0.058261  0.603155  1
  O  O20  1  0.985552  0.280534  0.230766  1
  O  O21  1  0.985552  0.719466  0.269234  1
  O  O22  1  0.014448  0.719466  0.769234  1
  O  O23  1  0.014448  0.280534  0.730766  1
  O  O24  1  0.854553  0.359215  0.453734  1
  O  O25  1  0.854553  0.640785  0.046266  1
  O  O26  1  0.145447  0.640785  0.546266  1
  O  O27  1  0.145447  0.359215  0.953734  1
  O  O28  1  0.651632  0.507762  0.612742  1
  O  O29  1  0.651632  0.492238  0.887258  1
  O  O30  1  0.348368  0.492238  0.387258  1
  O  O31  1  0.348368  0.507762  0.112742  1
  O  O32  1  0.463565  0.155690  0.568835  1
  O  O33  1  0.463565  0.844310  0.931165  1
  O  O34  1  0.536435  0.844310  0.431165  1
  O  O35  1  0.536435  0.155690  0.068835  1
