# generated using pymatgen
data_Pr4NdP12Ru9Rh10
_symmetry_space_group_name_H-M   'P 1'
_cell_length_a   12.73740200
_cell_length_b   12.73740188
_cell_length_c   3.99510800
_cell_angle_alpha   90.00000000
_cell_angle_beta   90.00000000
_cell_angle_gamma   120.00000549
_symmetry_Int_Tables_number   1
_chemical_formula_structural   Pr4NdP12Ru9Rh10
_chemical_formula_sum   'Pr4 Nd1 P12 Ru9 Rh10'
_cell_volume   561.33334192
_cell_formula_units_Z   1
loop_
 _symmetry_equiv_pos_site_id
 _symmetry_equiv_pos_as_xyz
  1  'x, y, z'
loop_
 _atom_site_type_symbol
 _atom_site_label
 _atom_site_symmetry_multiplicity
 _atom_site_fract_x
 _atom_site_fract_y
 _atom_site_fract_z
 _atom_site_occupancy
  Pr  Pr0  1  0.000021  0.186051  0.500000  1
  Pr  Pr1  1  0.813949  0.813970  0.500000  1
  Pr  Pr2  1  0.186030  0.999979  0.500000  1
  Pr  Pr3  1  0.666667  0.333333  0.000000  1
  Nd  Nd4  1  0.333333  0.666667  0.000000  1
  P  P5  1  0.000084  0.814681  0.000000  1
  P  P6  1  0.185319  0.185403  0.000000  1
  P  P7  1  0.814597  0.999916  0.000000  1
  P  P8  1  0.690329  0.170994  0.500000  1
  P  P9  1  0.829006  0.519335  0.500000  1
  P  P10  1  0.480665  0.309671  0.500000  1
  P  P11  1  0.171617  0.690274  0.500000  1
  P  P12  1  0.518658  0.828383  0.500000  1
  P  P13  1  0.309726  0.481342  0.500000  1
  P  P14  1  0.999973  0.372798  0.000000  1
  P  P15  1  0.627202  0.627175  0.000000  1
  P  P16  1  0.372825  0.000027  0.000000  1
  Ru  Ru17  1  0.000177  0.712389  0.500000  1
  Ru  Ru18  1  0.287611  0.287788  0.500000  1
  Ru  Ru19  1  0.712212  0.999823  0.500000  1
  Ru  Ru20  1  0.875356  0.362823  0.500000  1
  Ru  Ru21  1  0.637177  0.512533  0.500000  1
  Ru  Ru22  1  0.487467  0.124644  0.500000  1
  Ru  Ru23  1  0.362848  0.874625  0.500000  1
  Ru  Ru24  1  0.511777  0.637152  0.500000  1
  Ru  Ru25  1  0.125375  0.488223  0.500000  1
  Rh  Rh26  1  0.000012  0.551214  0.000000  1
  Rh  Rh27  1  0.448786  0.448799  0.000000  1
  Rh  Rh28  1  0.551201  0.999988  0.000000  1
  Rh  Rh29  1  0.805026  0.182040  0.000000  1
  Rh  Rh30  1  0.817960  0.622987  0.000000  1
  Rh  Rh31  1  0.377013  0.194974  0.000000  1
  Rh  Rh32  1  0.182281  0.804864  0.000000  1
  Rh  Rh33  1  0.622585  0.817719  0.000000  1
  Rh  Rh34  1  0.195136  0.377415  0.000000  1
  Rh  Rh35  1  0.000000  0.000000  0.000000  1
