# generated using pymatgen
data_Nd3Zn(Pt2O7)2
_symmetry_space_group_name_H-M   'P 1'
_cell_length_a   7.44530142
_cell_length_b   7.25135837
_cell_length_c   7.44530100
_cell_angle_alpha   59.11123959
_cell_angle_beta   59.99999742
_cell_angle_gamma   59.11123517
_symmetry_Int_Tables_number   1
_chemical_formula_structural   Nd3Zn(Pt2O7)2
_chemical_formula_sum   'Nd3 Zn1 Pt4 O14'
_cell_volume   280.35106599
_cell_formula_units_Z   1
loop_
 _symmetry_equiv_pos_site_id
 _symmetry_equiv_pos_as_xyz
  1  'x, y, z'
loop_
 _atom_site_type_symbol
 _atom_site_label
 _atom_site_symmetry_multiplicity
 _atom_site_fract_x
 _atom_site_fract_y
 _atom_site_fract_z
 _atom_site_occupancy
  Nd  Nd0  1  0.625000  0.625000  0.125000  1
  Nd  Nd1  1  0.125000  0.625000  0.625000  1
  Nd  Nd2  1  0.625000  0.625000  0.625000  1
  Zn  Zn3  1  0.625000  0.125000  0.625000  1
  Pt  Pt4  1  0.125000  0.125000  0.625000  1
  Pt  Pt5  1  0.125000  0.625000  0.125000  1
  Pt  Pt6  1  0.625000  0.125000  0.125000  1
  Pt  Pt7  1  0.125000  0.125000  0.125000  1
  O  O8  1  0.512741  0.461776  0.512741  1
  O  O9  1  0.737259  0.788224  0.737259  1
  O  O10  1  0.453904  0.047795  0.453904  1
  O  O11  1  0.214044  0.783148  0.214044  1
  O  O12  1  0.461236  0.466852  0.035956  1
  O  O13  1  0.035956  0.466852  0.461236  1
  O  O14  1  0.453904  0.047795  0.044398  1
  O  O15  1  0.044398  0.047795  0.453904  1
  O  O16  1  0.035956  0.466852  0.035956  1
  O  O17  1  0.796096  0.202205  0.205602  1
  O  O18  1  0.214044  0.783148  0.788764  1
  O  O19  1  0.796096  0.202205  0.796096  1
  O  O20  1  0.205602  0.202205  0.796096  1
  O  O21  1  0.788764  0.783148  0.214044  1
