# generated using pymatgen
data_Tb16In4Ru3Au
_symmetry_space_group_name_H-M   'P 1'
_cell_length_a   9.72303256
_cell_length_b   9.72303376
_cell_length_c   9.72303244
_cell_angle_alpha   60.13076525
_cell_angle_beta   60.13076153
_cell_angle_gamma   60.13075923
_symmetry_Int_Tables_number   1
_chemical_formula_structural   Tb16In4Ru3Au
_chemical_formula_sum   'Tb16 In4 Ru3 Au1'
_cell_volume   651.89080753
_cell_formula_units_Z   1
loop_
 _symmetry_equiv_pos_site_id
 _symmetry_equiv_pos_as_xyz
  1  'x, y, z'
loop_
 _atom_site_type_symbol
 _atom_site_label
 _atom_site_symmetry_multiplicity
 _atom_site_fract_x
 _atom_site_fract_y
 _atom_site_fract_z
 _atom_site_occupancy
  Tb  Tb0  1  0.107569  0.693478  0.107569  1
  Tb  Tb1  1  0.941786  0.941786  0.546392  1
  Tb  Tb2  1  0.941786  0.546392  0.941786  1
  Tb  Tb3  1  0.311774  0.690380  0.311774  1
  Tb  Tb4  1  0.940721  0.559202  0.559202  1
  Tb  Tb5  1  0.311774  0.311774  0.690380  1
  Tb  Tb6  1  0.095676  0.095676  0.095676  1
  Tb  Tb7  1  0.559202  0.559202  0.940721  1
  Tb  Tb8  1  0.107569  0.107569  0.693478  1
  Tb  Tb9  1  0.691552  0.314616  0.691552  1
  Tb  Tb10  1  0.691552  0.691552  0.314616  1
  Tb  Tb11  1  0.690380  0.311774  0.311774  1
  Tb  Tb12  1  0.314616  0.691552  0.691552  1
  Tb  Tb13  1  0.559202  0.940721  0.559202  1
  Tb  Tb14  1  0.693478  0.107569  0.107569  1
  Tb  Tb15  1  0.546392  0.941786  0.941786  1
  In  In16  1  0.333522  0.333522  0.333522  1
  In  In17  1  0.002990  0.331201  0.331201  1
  In  In18  1  0.331201  0.002990  0.331201  1
  In  In19  1  0.331201  0.331201  0.002990  1
  Ru  Ru20  1  0.888103  0.888103  0.326660  1
  Ru  Ru21  1  0.326660  0.888103  0.888103  1
  Ru  Ru22  1  0.888103  0.326660  0.888103  1
  Au  Au23  1  0.893187  0.893187  0.893187  1
