# generated using pymatgen
data_Ag2AuICl8
_symmetry_space_group_name_H-M   'P 1'
_cell_length_a   7.30826505
_cell_length_b   7.09519491
_cell_length_c   13.47359840
_cell_angle_alpha   67.37842318
_cell_angle_beta   67.23464159
_cell_angle_gamma   36.63048916
_symmetry_Int_Tables_number   1
_chemical_formula_structural   Ag2AuICl8
_chemical_formula_sum   'Ag2 Au1 I1 Cl8'
_cell_volume   380.87619871
_cell_formula_units_Z   1
loop_
 _symmetry_equiv_pos_site_id
 _symmetry_equiv_pos_as_xyz
  1  'x, y, z'
loop_
 _atom_site_type_symbol
 _atom_site_label
 _atom_site_symmetry_multiplicity
 _atom_site_fract_x
 _atom_site_fract_y
 _atom_site_fract_z
 _atom_site_occupancy
  Ag  Ag0  1  0.510536  0.482609  0.760503  1
  Ag  Ag1  1  0.489464  0.517391  0.239497  1
  Au  Au2  1  0.000000  0.000000  0.000000  1
  I  I3  1  0.000000  0.000000  0.500000  1
  Cl  Cl4  1  0.035092  0.183714  0.093858  1
  Cl  Cl5  1  0.771474  0.007658  0.394585  1
  Cl  Cl6  1  0.411475  0.840813  0.336417  1
  Cl  Cl7  1  0.207305  0.568830  0.137753  1
  Cl  Cl8  1  0.588525  0.159187  0.663583  1
  Cl  Cl9  1  0.964908  0.816286  0.906142  1
  Cl  Cl10  1  0.228526  0.992342  0.605415  1
  Cl  Cl11  1  0.792695  0.431170  0.862247  1
