# generated using pymatgen
data_Ho4TcW3F28
_symmetry_space_group_name_H-M   'P 1'
_cell_length_a   5.64482520
_cell_length_b   8.96956455
_cell_length_c   12.08740300
_cell_angle_alpha   62.50573937
_cell_angle_beta   90.01534702
_cell_angle_gamma   90.02926354
_symmetry_Int_Tables_number   1
_chemical_formula_structural   Ho4TcW3F28
_chemical_formula_sum   'Ho4 Tc1 W3 F28'
_cell_volume   542.88316014
_cell_formula_units_Z   1
loop_
 _symmetry_equiv_pos_site_id
 _symmetry_equiv_pos_as_xyz
  1  'x, y, z'
loop_
 _atom_site_type_symbol
 _atom_site_label
 _atom_site_symmetry_multiplicity
 _atom_site_fract_x
 _atom_site_fract_y
 _atom_site_fract_z
 _atom_site_occupancy
  Ho  Ho0  1  0.755123  0.812971  0.766844  1
  Ho  Ho1  1  0.255402  0.184896  0.735733  1
  Ho  Ho2  1  0.243615  0.185001  0.232940  1
  Ho  Ho3  1  0.744404  0.816649  0.265153  1
  Tc  Tc4  1  0.757888  0.273463  0.955879  1
  W  W5  1  0.256528  0.726333  0.543736  1
  W  W6  1  0.243672  0.726822  0.043547  1
  W  W7  1  0.742827  0.272791  0.456481  1
  F  F8  1  0.462986  0.706502  0.917215  1
  F  F9  1  0.961572  0.292400  0.584214  1
  F  F10  1  0.549515  0.292073  0.078828  1
  F  F11  1  0.039053  0.705800  0.418164  1
  F  F12  1  0.446398  0.275377  0.548461  1
  F  F13  1  0.947605  0.721753  0.952616  1
  F  F14  1  0.554892  0.724631  0.451274  1
  F  F15  1  0.045898  0.278800  0.047518  1
  F  F16  1  0.772921  0.519194  0.859532  1
  F  F17  1  0.274726  0.475648  0.642045  1
  F  F18  1  0.229775  0.476179  0.140267  1
  F  F19  1  0.724243  0.522786  0.359324  1
  F  F20  1  0.756847  0.027954  0.052774  1
  F  F21  1  0.260230  0.976461  0.444491  1
  F  F22  1  0.238783  0.976755  0.945253  1
  F  F23  1  0.739989  0.023294  0.554820  1
  F  F24  1  0.974376  0.730242  0.644462  1
  F  F25  1  0.482357  0.269392  0.857892  1
  F  F26  1  0.023789  0.268454  0.356660  1
  F  F27  1  0.524198  0.732652  0.142814  1
  F  F28  1  0.032690  0.747988  0.173468  1
  F  F29  1  0.533382  0.252623  0.324900  1
  F  F30  1  0.961490  0.255475  0.829539  1
  F  F31  1  0.464895  0.747833  0.672861  1
  F  F32  1  0.422862  0.972193  0.232170  1
  F  F33  1  0.923741  0.028653  0.267325  1
  F  F34  1  0.575817  0.028645  0.766403  1
  F  F35  1  0.075512  0.971315  0.734404  1
