# generated using pymatgen
data_Nb6BiCl18
_symmetry_space_group_name_H-M   'P 1'
_cell_length_a   10.27538586
_cell_length_b   10.27538567
_cell_length_c   10.27538516
_cell_angle_alpha   55.95423095
_cell_angle_beta   55.95422834
_cell_angle_gamma   55.95422944
_symmetry_Int_Tables_number   1
_chemical_formula_structural   Nb6BiCl18
_chemical_formula_sum   'Nb6 Bi1 Cl18'
_cell_volume   695.22980042
_cell_formula_units_Z   1
loop_
 _symmetry_equiv_pos_site_id
 _symmetry_equiv_pos_as_xyz
  1  'x, y, z'
loop_
 _atom_site_type_symbol
 _atom_site_label
 _atom_site_symmetry_multiplicity
 _atom_site_fract_x
 _atom_site_fract_y
 _atom_site_fract_z
 _atom_site_occupancy
  Nb  Nb0  1  0.409261  0.300548  0.649061  1
  Nb  Nb1  1  0.350939  0.590739  0.699452  1
  Nb  Nb2  1  0.699452  0.350939  0.590739  1
  Nb  Nb3  1  0.300548  0.649061  0.409261  1
  Nb  Nb4  1  0.649061  0.409261  0.300548  1
  Nb  Nb5  1  0.590739  0.699452  0.350939  1
  Bi  Bi6  1  0.000000  0.000000  0.000000  1
  Cl  Cl7  1  0.568387  0.165056  0.441374  1
  Cl  Cl8  1  0.226354  0.371360  0.904142  1
  Cl  Cl9  1  0.904142  0.226354  0.371360  1
  Cl  Cl10  1  0.371360  0.904142  0.226354  1
  Cl  Cl11  1  0.773646  0.628640  0.095858  1
  Cl  Cl12  1  0.095858  0.773646  0.628640  1
  Cl  Cl13  1  0.694705  0.958907  0.163730  1
  Cl  Cl14  1  0.958907  0.163730  0.694705  1
  Cl  Cl15  1  0.163730  0.694705  0.958907  1
  Cl  Cl16  1  0.305295  0.041093  0.836270  1
  Cl  Cl17  1  0.041093  0.836270  0.305295  1
  Cl  Cl18  1  0.836270  0.305295  0.041093  1
  Cl  Cl19  1  0.558626  0.431613  0.834944  1
  Cl  Cl20  1  0.165056  0.441374  0.568387  1
  Cl  Cl21  1  0.441374  0.568387  0.165056  1
  Cl  Cl22  1  0.431613  0.834944  0.558626  1
  Cl  Cl23  1  0.834944  0.558626  0.431613  1
  Cl  Cl24  1  0.628640  0.095858  0.773646  1
