# generated using pymatgen
data_LuHfZrPtF15
_symmetry_space_group_name_H-M   'P 1'
_cell_length_a   8.04977300
_cell_length_b   8.04977259
_cell_length_c   8.04245613
_cell_angle_alpha   79.87673400
_cell_angle_beta   79.87673961
_cell_angle_gamma   100.04056314
_symmetry_Int_Tables_number   1
_chemical_formula_structural   LuHfZrPtF15
_chemical_formula_sum   'Lu2 Hf2 Zr2 Pt2 F30'
_cell_volume   493.58588056
_cell_formula_units_Z   2
loop_
 _symmetry_equiv_pos_site_id
 _symmetry_equiv_pos_as_xyz
  1  'x, y, z'
loop_
 _atom_site_type_symbol
 _atom_site_label
 _atom_site_symmetry_multiplicity
 _atom_site_fract_x
 _atom_site_fract_y
 _atom_site_fract_z
 _atom_site_occupancy
  Lu  Lu0  1  0.676617  0.323383  0.750000  1
  Lu  Lu1  1  0.322494  0.677506  0.250000  1
  Hf  Hf2  1  0.823499  0.751189  0.327569  1
  Hf  Hf3  1  0.248811  0.176501  0.172431  1
  Zr  Zr4  1  0.177545  0.250170  0.672356  1
  Zr  Zr5  1  0.749830  0.822455  0.827644  1
  Pt  Pt6  1  0.250259  0.749741  0.750000  1
  Pt  Pt7  1  0.750259  0.249741  0.250000  1
  F  F8  1  0.150986  0.184278  0.947844  1
  F  F9  1  0.685985  0.560847  0.846882  1
  F  F10  1  0.042890  0.658527  0.313903  1
  F  F11  1  0.654777  0.044126  0.815154  1
  F  F12  1  0.565353  0.689270  0.343796  1
  F  F13  1  0.186289  0.151237  0.442084  1
  F  F14  1  0.848763  0.813711  0.057916  1
  F  F15  1  0.310730  0.434647  0.156204  1
  F  F16  1  0.955874  0.345223  0.684846  1
  F  F17  1  0.341473  0.957110  0.186097  1
  F  F18  1  0.439153  0.314015  0.653118  1
  F  F19  1  0.815722  0.849014  0.552156  1
  F  F20  1  0.970547  0.029453  0.750000  1
  F  F21  1  0.538369  0.751742  0.029211  1
  F  F22  1  0.248258  0.461631  0.470789  1
  F  F23  1  0.458406  0.246607  0.972966  1
  F  F24  1  0.753393  0.541594  0.527034  1
  F  F25  1  0.029261  0.970739  0.250000  1
  F  F26  1  0.212482  0.724770  0.002555  1
  F  F27  1  0.225830  0.496227  0.791642  1
  F  F28  1  0.996282  0.710891  0.776926  1
  F  F29  1  0.712886  0.995480  0.276482  1
  F  F30  1  0.496606  0.225163  0.290132  1
  F  F31  1  0.725420  0.212518  0.502739  1
  F  F32  1  0.787482  0.274580  0.997261  1
  F  F33  1  0.774837  0.503394  0.209868  1
  F  F34  1  0.004520  0.287114  0.223518  1
  F  F35  1  0.289109  0.003718  0.723074  1
  F  F36  1  0.503773  0.774170  0.708358  1
  F  F37  1  0.275230  0.787518  0.497445  1
