# generated using pymatgen
data_Ba8Si15Pb
_symmetry_space_group_name_H-M   'P 1'
_cell_length_a   6.79663600
_cell_length_b   9.16133247
_cell_length_c   11.63222476
_cell_angle_alpha   89.88640135
_cell_angle_beta   90.00000000
_cell_angle_gamma   90.00000000
_symmetry_Int_Tables_number   1
_chemical_formula_structural   Ba8Si15Pb
_chemical_formula_sum   'Ba8 Si15 Pb1'
_cell_volume   724.29349892
_cell_formula_units_Z   1
loop_
 _symmetry_equiv_pos_site_id
 _symmetry_equiv_pos_as_xyz
  1  'x, y, z'
loop_
 _atom_site_type_symbol
 _atom_site_label
 _atom_site_symmetry_multiplicity
 _atom_site_fract_x
 _atom_site_fract_y
 _atom_site_fract_z
 _atom_site_occupancy
  Ba  Ba0  1  0.250000  0.013112  0.308010  1
  Ba  Ba1  1  0.250000  0.515131  0.201940  1
  Ba  Ba2  1  0.750000  0.984667  0.690391  1
  Ba  Ba3  1  0.750000  0.486584  0.803596  1
  Ba  Ba4  1  0.250000  0.849878  0.908185  1
  Ba  Ba5  1  0.250000  0.341558  0.590022  1
  Ba  Ba6  1  0.750000  0.155975  0.092791  1
  Ba  Ba7  1  0.750000  0.655208  0.405777  1
  Si  Si8  1  0.250000  0.912701  0.591728  1
  Si  Si9  1  0.750000  0.585577  0.091100  1
  Si  Si10  1  0.750000  0.086979  0.409000  1
  Si  Si11  1  0.250000  0.187200  0.035007  1
  Si  Si12  1  0.250000  0.698182  0.467018  1
  Si  Si13  1  0.750000  0.800555  0.966529  1
  Si  Si14  1  0.750000  0.301125  0.533527  1
  Si  Si15  1  0.071792  0.185008  0.854176  1
  Si  Si16  1  0.427652  0.694046  0.646350  1
  Si  Si17  1  0.572284  0.804745  0.146044  1
  Si  Si18  1  0.927049  0.305398  0.353952  1
  Si  Si19  1  0.927716  0.804745  0.146044  1
  Si  Si20  1  0.572951  0.305398  0.353952  1
  Si  Si21  1  0.428208  0.185008  0.854176  1
  Si  Si22  1  0.072348  0.694046  0.646350  1
  Pb  Pb23  1  0.250000  0.447174  0.904334  1
