# generated using pymatgen
data_Pr2GaSi3(Ir2Rh)2
_symmetry_space_group_name_H-M   'P 1'
_cell_length_a   6.75892337
_cell_length_b   6.74950508
_cell_length_c   6.75892433
_cell_angle_alpha   130.37264900
_cell_angle_beta   114.28058495
_cell_angle_gamma   86.66692751
_symmetry_Int_Tables_number   1
_chemical_formula_structural   Pr2GaSi3(Ir2Rh)2
_chemical_formula_sum   'Pr2 Ga1 Si3 Ir4 Rh2'
_cell_volume   204.27575078
_cell_formula_units_Z   1
loop_
 _symmetry_equiv_pos_site_id
 _symmetry_equiv_pos_as_xyz
  1  'x, y, z'
loop_
 _atom_site_type_symbol
 _atom_site_label
 _atom_site_symmetry_multiplicity
 _atom_site_fract_x
 _atom_site_fract_y
 _atom_site_fract_z
 _atom_site_occupancy
  Pr  Pr0  1  0.250321  0.969256  0.718935  1
  Pr  Pr1  1  0.751613  0.023329  0.271716  1
  Ga  Ga2  1  0.091114  0.300749  0.209635  1
  Si  Si3  1  0.932456  0.728318  0.795862  1
  Si  Si4  1  0.405923  0.618676  0.212753  1
  Si  Si5  1  0.573616  0.367178  0.793562  1
  Ir  Ir6  1  0.282285  0.995430  0.278972  1
  Ir  Ir7  1  0.716458  0.995430  0.713145  1
  Ir  Ir8  1  0.230760  0.497639  0.734823  1
  Ir  Ir9  1  0.762816  0.497639  0.266879  1
  Rh  Rh10  1  0.525724  0.503177  0.526264  1
  Rh  Rh11  1  0.976915  0.503177  0.977455  1
