# generated using pymatgen
data_Er3Al3SiPd2
_symmetry_space_group_name_H-M   'P 1'
_cell_length_a   7.01045300
_cell_length_b   7.01045328
_cell_length_c   4.11903800
_cell_angle_alpha   90.00000000
_cell_angle_beta   90.00000000
_cell_angle_gamma   119.99999397
_symmetry_Int_Tables_number   1
_chemical_formula_structural   Er3Al3SiPd2
_chemical_formula_sum   'Er3 Al3 Si1 Pd2'
_cell_volume   175.31482314
_cell_formula_units_Z   1
loop_
 _symmetry_equiv_pos_site_id
 _symmetry_equiv_pos_as_xyz
  1  'x, y, z'
loop_
 _atom_site_type_symbol
 _atom_site_label
 _atom_site_symmetry_multiplicity
 _atom_site_fract_x
 _atom_site_fract_y
 _atom_site_fract_z
 _atom_site_occupancy
  Er  Er0  1  0.418419  0.002510  0.500000  1
  Er  Er1  1  0.997490  0.415909  0.500000  1
  Er  Er2  1  0.584091  0.581581  0.500000  1
  Al  Al3  1  0.761924  0.006844  0.000000  1
  Al  Al4  1  0.993156  0.755080  0.000000  1
  Al  Al5  1  0.244920  0.238076  0.000000  1
  Si  Si6  1  0.333333  0.666667  0.000000  1
  Pd  Pd7  1  0.666667  0.333333  0.000000  1
  Pd  Pd8  1  0.000000  0.000000  0.500000  1
