# generated using pymatgen
data_NdSm2RuBr3
_symmetry_space_group_name_H-M   'P 1'
_cell_length_a   4.19744600
_cell_length_b   8.92116126
_cell_length_c   12.10464702
_cell_angle_alpha   86.93291943
_cell_angle_beta   90.00000000
_cell_angle_gamma   90.00000000
_symmetry_Int_Tables_number   1
_chemical_formula_structural   NdSm2RuBr3
_chemical_formula_sum   'Nd2 Sm4 Ru2 Br6'
_cell_volume   452.62245649
_cell_formula_units_Z   2
loop_
 _symmetry_equiv_pos_site_id
 _symmetry_equiv_pos_as_xyz
  1  'x, y, z'
loop_
 _atom_site_type_symbol
 _atom_site_label
 _atom_site_symmetry_multiplicity
 _atom_site_fract_x
 _atom_site_fract_y
 _atom_site_fract_z
 _atom_site_occupancy
  Nd  Nd0  1  0.250000  0.877776  0.837642  1
  Nd  Nd1  1  0.750000  0.122224  0.162358  1
  Sm  Sm2  1  0.250000  0.316220  0.381291  1
  Sm  Sm3  1  0.750000  0.683780  0.618709  1
  Sm  Sm4  1  0.250000  0.896455  0.385107  1
  Sm  Sm5  1  0.750000  0.103545  0.614893  1
  Ru  Ru6  1  0.250000  0.892974  0.618197  1
  Ru  Ru7  1  0.750000  0.107026  0.381803  1
  Br  Br8  1  0.250000  0.400729  0.625579  1
  Br  Br9  1  0.750000  0.599271  0.374421  1
  Br  Br10  1  0.250000  0.881322  0.117109  1
  Br  Br11  1  0.750000  0.118678  0.882891  1
  Br  Br12  1  0.250000  0.360618  0.129507  1
  Br  Br13  1  0.750000  0.639382  0.870493  1
