# generated using pymatgen
data_Yb2MnP6BrN12
_symmetry_space_group_name_H-M   'P 1'
_cell_length_a   7.41001036
_cell_length_b   7.45866519
_cell_length_c   7.45866623
_cell_angle_alpha   110.49803226
_cell_angle_beta   109.74573500
_cell_angle_gamma   109.74570617
_symmetry_Int_Tables_number   1
_chemical_formula_structural   Yb2MnP6BrN12
_chemical_formula_sum   'Yb2 Mn1 P6 Br1 N12'
_cell_volume   310.99815909
_cell_formula_units_Z   1
loop_
 _symmetry_equiv_pos_site_id
 _symmetry_equiv_pos_as_xyz
  1  'x, y, z'
loop_
 _atom_site_type_symbol
 _atom_site_label
 _atom_site_symmetry_multiplicity
 _atom_site_fract_x
 _atom_site_fract_y
 _atom_site_fract_z
 _atom_site_occupancy
  Yb  Yb0  1  0.000416  0.352793  0.019358  1
  Yb  Yb1  1  0.000416  0.019358  0.352793  1
  Mn  Mn2  1  0.450210  0.046964  0.046964  1
  P  P3  1  0.491561  0.257352  0.736468  1
  P  P4  1  0.258242  0.759049  0.517720  1
  P  P5  1  0.741130  0.500149  0.254418  1
  P  P6  1  0.741130  0.254418  0.500149  1
  P  P7  1  0.491561  0.736468  0.257352  1
  P  P8  1  0.258242  0.517720  0.759049  1
  Br  Br9  1  0.027760  0.963721  0.963721  1
  N  N10  1  0.393703  0.687641  0.406439  1
  N  N11  1  0.629614  0.341365  0.341365  1
  N  N12  1  0.393703  0.406439  0.687641  1
  N  N13  1  0.712369  0.305247  0.712626  1
  N  N14  1  0.995576  0.572898  0.323492  1
  N  N15  1  0.287425  0.569446  0.999496  1
  N  N16  1  0.287425  0.999496  0.569446  1
  N  N17  1  0.995576  0.323492  0.572898  1
  N  N18  1  0.712369  0.712626  0.305247  1
  N  N19  1  0.583692  0.989104  0.288600  1
  N  N20  1  0.324189  0.755653  0.755653  1
  N  N21  1  0.583692  0.288600  0.989104  1
