# generated using pymatgen
data_Sm3Y5(LuSn4)2
_symmetry_space_group_name_H-M   'P 1'
_cell_length_a   8.00270200
_cell_length_b   8.15484413
_cell_length_c   15.45041600
_cell_angle_alpha   90.01018767
_cell_angle_beta   90.00000000
_cell_angle_gamma   90.00000000
_symmetry_Int_Tables_number   1
_chemical_formula_structural   Sm3Y5(LuSn4)2
_chemical_formula_sum   'Sm6 Y10 Lu4 Sn16'
_cell_volume   1008.30629819
_cell_formula_units_Z   2
loop_
 _symmetry_equiv_pos_site_id
 _symmetry_equiv_pos_as_xyz
  1  'x, y, z'
loop_
 _atom_site_type_symbol
 _atom_site_label
 _atom_site_symmetry_multiplicity
 _atom_site_fract_x
 _atom_site_fract_y
 _atom_site_fract_z
 _atom_site_occupancy
  Sm  Sm0  1  0.480076  0.679594  0.402781  1
  Sm  Sm1  1  0.980076  0.820406  0.097219  1
  Sm  Sm2  1  0.480078  0.679515  0.097180  1
  Sm  Sm3  1  0.980078  0.820485  0.402820  1
  Sm  Sm4  1  0.519706  0.320294  0.597183  1
  Sm  Sm5  1  0.019706  0.179706  0.902817  1
  Y  Y6  1  0.366832  0.836619  0.877700  1
  Y  Y7  1  0.866832  0.663381  0.622300  1
  Y  Y8  1  0.632959  0.163391  0.377946  1
  Y  Y9  1  0.132959  0.336609  0.122054  1
  Y  Y10  1  0.633112  0.163403  0.122158  1
  Y  Y11  1  0.133112  0.336597  0.377842  1
  Y  Y12  1  0.366988  0.836687  0.622313  1
  Y  Y13  1  0.866988  0.663313  0.877687  1
  Y  Y14  1  0.520253  0.320363  0.902479  1
  Y  Y15  1  0.020253  0.179637  0.597521  1
  Lu  Lu16  1  0.198057  0.502967  0.750106  1
  Lu  Lu17  1  0.698057  0.997033  0.749894  1
  Lu  Lu18  1  0.801806  0.496761  0.250042  1
  Lu  Lu19  1  0.301806  0.003239  0.249958  1
  Sn  Sn20  1  0.295385  0.036766  0.042691  1
  Sn  Sn21  1  0.795385  0.463234  0.457309  1
  Sn  Sn22  1  0.706413  0.964581  0.543188  1
  Sn  Sn23  1  0.206413  0.535419  0.956812  1
  Sn  Sn24  1  0.703902  0.964218  0.957057  1
  Sn  Sn25  1  0.203902  0.535782  0.542943  1
  Sn  Sn26  1  0.293970  0.037449  0.457965  1
  Sn  Sn27  1  0.793970  0.462551  0.042035  1
  Sn  Sn28  1  0.563569  0.618681  0.750235  1
  Sn  Sn29  1  0.063569  0.881319  0.749765  1
  Sn  Sn30  1  0.436295  0.380241  0.249960  1
  Sn  Sn31  1  0.936295  0.119759  0.250040  1
  Sn  Sn32  1  0.328657  0.147683  0.750559  1
  Sn  Sn33  1  0.828657  0.352317  0.749441  1
  Sn  Sn34  1  0.671942  0.853365  0.249975  1
  Sn  Sn35  1  0.171942  0.646635  0.250025  1
