# generated using pymatgen
data_TbYb2(GdIr)2
_symmetry_space_group_name_H-M   'P 1'
_cell_length_a   6.55212184
_cell_length_b   7.28603228
_cell_length_c   8.53683200
_cell_angle_alpha   97.00245632
_cell_angle_beta   112.56652279
_cell_angle_gamma   89.99999507
_symmetry_Int_Tables_number   1
_chemical_formula_structural   TbYb2(GdIr)2
_chemical_formula_sum   'Tb2 Yb4 Gd4 Ir4'
_cell_volume   373.04209417
_cell_formula_units_Z   2
loop_
 _symmetry_equiv_pos_site_id
 _symmetry_equiv_pos_as_xyz
  1  'x, y, z'
loop_
 _atom_site_type_symbol
 _atom_site_label
 _atom_site_symmetry_multiplicity
 _atom_site_fract_x
 _atom_site_fract_y
 _atom_site_fract_z
 _atom_site_occupancy
  Tb  Tb0  1  0.432135  0.750000  0.000000  1
  Tb  Tb1  1  0.567865  0.250000  0.000000  1
  Yb  Yb2  1  0.976873  0.920035  0.182056  1
  Yb  Yb3  1  0.794818  0.579965  0.817944  1
  Yb  Yb4  1  0.023127  0.079965  0.817944  1
  Yb  Yb5  1  0.205182  0.420035  0.182056  1
  Gd  Gd6  1  0.649791  0.817971  0.440467  1
  Gd  Gd7  1  0.209324  0.682029  0.559533  1
  Gd  Gd8  1  0.350209  0.182029  0.559533  1
  Gd  Gd9  1  0.790676  0.317971  0.440467  1
  Ir  Ir10  1  0.815121  0.572021  0.225812  1
  Ir  Ir11  1  0.589309  0.927979  0.774188  1
  Ir  Ir12  1  0.184879  0.427979  0.774188  1
  Ir  Ir13  1  0.410691  0.072021  0.225812  1
