# generated using pymatgen
data_CaPa(Al5Os)4
_symmetry_space_group_name_H-M   'P 1'
_cell_length_a   6.86723258
_cell_length_b   6.86723221
_cell_length_c   9.15753000
_cell_angle_alpha   90.00000000
_cell_angle_beta   90.00000000
_cell_angle_gamma   96.92077488
_symmetry_Int_Tables_number   1
_chemical_formula_structural   CaPa(Al5Os)4
_chemical_formula_sum   'Ca1 Pa1 Al20 Os4'
_cell_volume   428.71221953
_cell_formula_units_Z   1
loop_
 _symmetry_equiv_pos_site_id
 _symmetry_equiv_pos_as_xyz
  1  'x, y, z'
loop_
 _atom_site_type_symbol
 _atom_site_label
 _atom_site_symmetry_multiplicity
 _atom_site_fract_x
 _atom_site_fract_y
 _atom_site_fract_z
 _atom_site_occupancy
  Ca  Ca0  1  0.128684  0.871316  0.250000  1
  Pa  Pa1  1  0.872048  0.127952  0.750000  1
  Al  Al2  1  0.517633  0.781169  0.750000  1
  Al  Al3  1  0.782509  0.519412  0.250000  1
  Al  Al4  1  0.480588  0.217491  0.250000  1
  Al  Al5  1  0.218831  0.482367  0.750000  1
  Al  Al6  1  0.621897  0.378103  0.949348  1
  Al  Al7  1  0.375237  0.624763  0.045028  1
  Al  Al8  1  0.621897  0.378103  0.550652  1
  Al  Al9  1  0.375237  0.624763  0.454972  1
  Al  Al10  1  0.410846  0.144613  0.750000  1
  Al  Al11  1  0.148025  0.418420  0.250000  1
  Al  Al12  1  0.581580  0.851975  0.250000  1
  Al  Al13  1  0.855387  0.589154  0.750000  1
  Al  Al14  1  0.840699  0.159301  0.396866  1
  Al  Al15  1  0.154635  0.845365  0.601115  1
  Al  Al16  1  0.840699  0.159301  0.103134  1
  Al  Al17  1  0.154635  0.845365  0.898885  1
  Al  Al18  1  0.778242  0.773973  0.001233  1
  Al  Al19  1  0.778242  0.773973  0.498767  1
  Al  Al20  1  0.226027  0.221758  0.001233  1
  Al  Al21  1  0.226027  0.221758  0.498767  1
  Os  Os22  1  0.506057  0.000859  0.996548  1
  Os  Os23  1  0.999141  0.493943  0.996548  1
  Os  Os24  1  0.506057  0.000859  0.503452  1
  Os  Os25  1  0.999141  0.493943  0.503452  1
