# generated using pymatgen
data_Li3TmLu2Au3
_symmetry_space_group_name_H-M   'P 1'
_cell_length_a   7.24759600
_cell_length_b   7.24759416
_cell_length_c   4.07983000
_cell_angle_alpha   90.00000000
_cell_angle_beta   90.00000000
_cell_angle_gamma   119.98571423
_symmetry_Int_Tables_number   1
_chemical_formula_structural   Li3TmLu2Au3
_chemical_formula_sum   'Li3 Tm1 Lu2 Au3'
_cell_volume   185.61926209
_cell_formula_units_Z   1
loop_
 _symmetry_equiv_pos_site_id
 _symmetry_equiv_pos_as_xyz
  1  'x, y, z'
loop_
 _atom_site_type_symbol
 _atom_site_label
 _atom_site_symmetry_multiplicity
 _atom_site_fract_x
 _atom_site_fract_y
 _atom_site_fract_z
 _atom_site_occupancy
  Li  Li0  1  0.240083  0.999229  0.500000  1
  Li  Li1  1  0.999229  0.240083  0.500000  1
  Li  Li2  1  0.760067  0.760067  0.500000  1
  Tm  Tm3  1  0.409608  0.409608  0.000000  1
  Lu  Lu4  1  0.591308  0.999970  0.000000  1
  Lu  Lu5  1  0.999970  0.591308  0.000000  1
  Au  Au6  1  0.332882  0.668647  0.500000  1
  Au  Au7  1  0.668647  0.332882  0.500000  1
  Au  Au8  1  0.998206  0.998206  0.000000  1
