# generated using pymatgen
data_K9Rb3Ga(FeSe4)3
_symmetry_space_group_name_H-M   'P 1'
_cell_length_a   13.60008449
_cell_length_b   8.21691905
_cell_length_c   10.47536727
_cell_angle_alpha   53.01514023
_cell_angle_beta   89.76941590
_cell_angle_gamma   89.74236905
_symmetry_Int_Tables_number   1
_chemical_formula_structural   K9Rb3Ga(FeSe4)3
_chemical_formula_sum   'K9 Rb3 Ga1 Fe3 Se12'
_cell_volume   935.08256992
_cell_formula_units_Z   1
loop_
 _symmetry_equiv_pos_site_id
 _symmetry_equiv_pos_as_xyz
  1  'x, y, z'
loop_
 _atom_site_type_symbol
 _atom_site_label
 _atom_site_symmetry_multiplicity
 _atom_site_fract_x
 _atom_site_fract_y
 _atom_site_fract_z
 _atom_site_occupancy
  K  K0  1  0.898331  0.318124  0.402952  1
  K  K1  1  0.613356  0.364199  0.473228  1
  K  K2  1  0.114301  0.633741  0.025396  1
  K  K3  1  0.385637  0.640549  0.526140  1
  K  K4  1  0.887084  0.362560  0.973995  1
  K  K5  1  0.603856  0.320458  0.901218  1
  K  K6  1  0.103457  0.679592  0.598485  1
  K  K7  1  0.395536  0.683324  0.096420  1
  K  K8  1  0.191117  0.161140  0.565665  1
  Rb  Rb9  1  0.309406  0.167073  0.062785  1
  Rb  Rb10  1  0.689203  0.835665  0.936068  1
  Rb  Rb11  1  0.811054  0.834396  0.440797  1
  Ga  Ga12  1  0.065866  0.944161  0.158234  1
  Fe  Fe13  1  0.563722  0.053326  0.342072  1
  Fe  Fe14  1  0.433462  0.953733  0.656490  1
  Fe  Fe15  1  0.937134  0.049529  0.843605  1
  Se  Se16  1  0.404445  0.184847  0.363546  1
  Se  Se17  1  0.906088  0.818721  0.135651  1
  Se  Se18  1  0.591807  0.820287  0.635703  1
  Se  Se19  1  0.096803  0.175559  0.861546  1
  Se  Se20  1  0.688993  0.307121  0.205895  1
  Se  Se21  1  0.190216  0.678721  0.298438  1
  Se  Se22  1  0.307055  0.701664  0.790318  1
  Se  Se23  1  0.811725  0.305862  0.706366  1
  Se  Se24  1  0.549521  0.865546  0.237771  1
  Se  Se25  1  0.051760  0.136602  0.262637  1
  Se  Se26  1  0.448653  0.140288  0.761153  1
  Se  Se27  1  0.950414  0.863205  0.737425  1
