# generated using pymatgen
data_Tm2Al20Fe3Rh
_symmetry_space_group_name_H-M   'P 1'
_cell_length_a   6.77604325
_cell_length_b   6.78888917
_cell_length_c   9.01868594
_cell_angle_alpha   90.04561240
_cell_angle_beta   90.20370824
_cell_angle_gamma   96.98117123
_symmetry_Int_Tables_number   1
_chemical_formula_structural   Tm2Al20Fe3Rh
_chemical_formula_sum   'Tm2 Al20 Fe3 Rh1'
_cell_volume   411.79710000
_cell_formula_units_Z   1
loop_
 _symmetry_equiv_pos_site_id
 _symmetry_equiv_pos_as_xyz
  1  'x, y, z'
loop_
 _atom_site_type_symbol
 _atom_site_label
 _atom_site_symmetry_multiplicity
 _atom_site_fract_x
 _atom_site_fract_y
 _atom_site_fract_z
 _atom_site_occupancy
  Tm  Tm0  1  0.871225  0.125753  0.751942  1
  Tm  Tm1  1  0.128775  0.874247  0.248058  1
  Al  Al2  1  0.619346  0.371519  0.550720  1
  Al  Al3  1  0.380654  0.628481  0.449280  1
  Al  Al4  1  0.375541  0.626108  0.048529  1
  Al  Al5  1  0.624459  0.373892  0.951471  1
  Al  Al6  1  0.231204  0.222247  0.497662  1
  Al  Al7  1  0.768796  0.777753  0.502338  1
  Al  Al8  1  0.772404  0.774142  0.000875  1
  Al  Al9  1  0.227596  0.225858  0.999125  1
  Al  Al10  1  0.843225  0.156820  0.096804  1
  Al  Al11  1  0.156775  0.843180  0.903196  1
  Al  Al12  1  0.160504  0.848652  0.599799  1
  Al  Al13  1  0.839496  0.151348  0.400201  1
  Al  Al14  1  0.861324  0.585989  0.754981  1
  Al  Al15  1  0.138676  0.414011  0.245019  1
  Al  Al16  1  0.416849  0.135534  0.751450  1
  Al  Al17  1  0.583151  0.864466  0.248550  1
  Al  Al18  1  0.223234  0.478360  0.755608  1
  Al  Al19  1  0.776766  0.521640  0.244392  1
  Al  Al20  1  0.520953  0.779828  0.750475  1
  Al  Al21  1  0.479047  0.220172  0.249525  1
  Fe  Fe22  1  0.000000  0.500000  0.000000  1
  Fe  Fe23  1  0.500000  0.000000  0.000000  1
  Fe  Fe24  1  0.500000  0.000000  0.500000  1
  Rh  Rh25  1  0.000000  0.500000  0.500000  1
