# generated using pymatgen
data_Dy7Th(ReB6)4
_symmetry_space_group_name_H-M   'P 1'
_cell_length_a   3.71484300
_cell_length_b   9.20625230
_cell_length_c   11.60502337
_cell_angle_alpha   90.02911532
_cell_angle_beta   90.00000000
_cell_angle_gamma   90.00000000
_symmetry_Int_Tables_number   1
_chemical_formula_structural   Dy7Th(ReB6)4
_chemical_formula_sum   'Dy7 Th1 Re4 B24'
_cell_volume   396.88921714
_cell_formula_units_Z   1
loop_
 _symmetry_equiv_pos_site_id
 _symmetry_equiv_pos_as_xyz
  1  'x, y, z'
loop_
 _atom_site_type_symbol
 _atom_site_label
 _atom_site_symmetry_multiplicity
 _atom_site_fract_x
 _atom_site_fract_y
 _atom_site_fract_z
 _atom_site_occupancy
  Dy  Dy0  1  0.000000  0.677830  0.587093  1
  Dy  Dy1  1  0.000000  0.823085  0.085071  1
  Dy  Dy2  1  0.000000  0.176244  0.914069  1
  Dy  Dy3  1  0.000000  0.941555  0.369436  1
  Dy  Dy4  1  0.000000  0.056456  0.631392  1
  Dy  Dy5  1  0.000000  0.443088  0.128363  1
  Dy  Dy6  1  0.000000  0.557821  0.870536  1
  Th  Th7  1  0.000000  0.322248  0.414097  1
  Re  Re8  1  0.000000  0.638378  0.320479  1
  Re  Re9  1  0.000000  0.362381  0.679964  1
  Re  Re10  1  0.000000  0.137828  0.178231  1
  Re  Re11  1  0.000000  0.862026  0.821211  1
  B  B12  1  0.500000  0.555423  0.432282  1
  B  B13  1  0.500000  0.447361  0.569499  1
  B  B14  1  0.500000  0.052746  0.066360  1
  B  B15  1  0.500000  0.946835  0.932943  1
  B  B16  1  0.500000  0.749471  0.418053  1
  B  B17  1  0.500000  0.251531  0.585139  1
  B  B18  1  0.500000  0.248190  0.080376  1
  B  B19  1  0.500000  0.751450  0.918318  1
  B  B20  1  0.500000  0.791490  0.264997  1
  B  B21  1  0.500000  0.208736  0.736147  1
  B  B22  1  0.500000  0.289856  0.232172  1
  B  B23  1  0.500000  0.708697  0.765707  1
  B  B24  1  0.500000  0.631623  0.184610  1
  B  B25  1  0.500000  0.369937  0.815148  1
  B  B26  1  0.500000  0.128923  0.312202  1
  B  B27  1  0.500000  0.869262  0.686208  1
  B  B28  1  0.500000  0.981836  0.210868  1
  B  B29  1  0.500000  0.017272  0.788694  1
  B  B30  1  0.500000  0.485304  0.286365  1
  B  B31  1  0.500000  0.518304  0.713403  1
  B  B32  1  0.500000  0.601437  0.027855  1
  B  B33  1  0.500000  0.399292  0.971399  1
  B  B34  1  0.500000  0.097240  0.472757  1
  B  B35  1  0.500000  0.898845  0.528553  1
