# generated using pymatgen
data_TbDy2YFe3Os5
_symmetry_space_group_name_H-M   'P 1'
_cell_length_a   5.28406312
_cell_length_b   5.31913369
_cell_length_c   9.17964052
_cell_angle_alpha   73.15853529
_cell_angle_beta   90.89256318
_cell_angle_gamma   120.21980228
_symmetry_Int_Tables_number   1
_chemical_formula_structural   TbDy2YFe3Os5
_chemical_formula_sum   'Tb1 Dy2 Y1 Fe3 Os5'
_cell_volume   210.72081629
_cell_formula_units_Z   1
loop_
 _symmetry_equiv_pos_site_id
 _symmetry_equiv_pos_as_xyz
  1  'x, y, z'
loop_
 _atom_site_type_symbol
 _atom_site_label
 _atom_site_symmetry_multiplicity
 _atom_site_fract_x
 _atom_site_fract_y
 _atom_site_fract_z
 _atom_site_occupancy
  Tb  Tb0  1  0.875526  0.750023  0.375480  1
  Dy  Dy1  1  0.996211  0.997485  0.001242  1
  Dy  Dy2  1  0.499422  0.999896  0.499629  1
  Y  Y3  1  0.378699  0.752474  0.873751  1
  Fe  Fe4  1  0.687457  0.374999  0.937460  1
  Fe  Fe5  1  0.939927  0.375921  0.188084  1
  Fe  Fe6  1  0.435015  0.374079  0.686857  1
  Os  Os7  1  0.440321  0.373733  0.184038  1
  Os  Os8  1  0.934759  0.376203  0.690916  1
  Os  Os9  1  0.440321  0.882550  0.184038  1
  Os  Os10  1  0.934759  0.867638  0.690916  1
  Os  Os11  1  0.187583  0.374997  0.437588  1
