# generated using pymatgen
data_Sm2Cr2Co10As7
_symmetry_space_group_name_H-M   'P 1'
_cell_length_a   3.77404600
_cell_length_b   9.41311878
_cell_length_c   9.44682952
_cell_angle_alpha   119.89744556
_cell_angle_beta   90.00000000
_cell_angle_gamma   90.00000000
_symmetry_Int_Tables_number   1
_chemical_formula_structural   Sm2Cr2Co10As7
_chemical_formula_sum   'Sm2 Cr2 Co10 As7'
_cell_volume   290.94125907
_cell_formula_units_Z   1
loop_
 _symmetry_equiv_pos_site_id
 _symmetry_equiv_pos_as_xyz
  1  'x, y, z'
loop_
 _atom_site_type_symbol
 _atom_site_label
 _atom_site_symmetry_multiplicity
 _atom_site_fract_x
 _atom_site_fract_y
 _atom_site_fract_z
 _atom_site_occupancy
  Sm  Sm0  1  0.000000  0.671219  0.337269  1
  Sm  Sm1  1  0.500000  0.332025  0.666719  1
  Cr  Cr2  1  0.500000  0.776062  0.892318  1
  Cr  Cr3  1  0.500000  0.118865  0.222342  1
  Co  Co4  1  0.000000  0.570255  0.942353  1
  Co  Co5  1  0.000000  0.370660  0.429541  1
  Co  Co6  1  0.000000  0.057579  0.628550  1
  Co  Co7  1  0.500000  0.096376  0.879650  1
  Co  Co8  1  0.000000  0.879405  0.155097  1
  Co  Co9  1  0.000000  0.280331  0.123179  1
  Co  Co10  1  0.000000  0.843203  0.722825  1
  Co  Co11  1  0.500000  0.948998  0.380979  1
  Co  Co12  1  0.500000  0.431528  0.048374  1
  Co  Co13  1  0.500000  0.618824  0.567226  1
  As  As14  1  0.000000  0.002532  0.998771  1
  As  As15  1  0.500000  0.707803  0.114618  1
  As  As16  1  0.500000  0.409756  0.291784  1
  As  As17  1  0.500000  0.889976  0.598679  1
  As  As18  1  0.000000  0.588178  0.701076  1
  As  As19  1  0.000000  0.111817  0.411132  1
  As  As20  1  0.000000  0.294606  0.887519  1
