# generated using pymatgen
data_Y9Th(Sn3P)2
_symmetry_space_group_name_H-M   'P 1'
_cell_length_a   9.14411510
_cell_length_b   9.14411576
_cell_length_c   6.74032900
_cell_angle_alpha   90.00000000
_cell_angle_beta   90.00000000
_cell_angle_gamma   120.24618308
_symmetry_Int_Tables_number   1
_chemical_formula_structural   Y9Th(Sn3P)2
_chemical_formula_sum   'Y9 Th1 Sn6 P2'
_cell_volume   486.86932896
_cell_formula_units_Z   1
loop_
 _symmetry_equiv_pos_site_id
 _symmetry_equiv_pos_as_xyz
  1  'x, y, z'
loop_
 _atom_site_type_symbol
 _atom_site_label
 _atom_site_symmetry_multiplicity
 _atom_site_fract_x
 _atom_site_fract_y
 _atom_site_fract_z
 _atom_site_occupancy
  Y  Y0  1  0.667053  0.332764  0.000504  1
  Y  Y1  1  0.332764  0.667053  0.000504  1
  Y  Y2  1  0.332764  0.667053  0.499496  1
  Y  Y3  1  0.667053  0.332764  0.499496  1
  Y  Y4  1  0.241421  0.000476  0.750000  1
  Y  Y5  1  0.000476  0.241421  0.750000  1
  Y  Y6  1  0.240858  0.240858  0.250000  1
  Y  Y7  1  0.759329  0.000580  0.250000  1
  Y  Y8  1  0.000580  0.759329  0.250000  1
  Th  Th9  1  0.758209  0.758209  0.750000  1
  Sn  Sn10  1  0.397266  0.397266  0.750000  1
  Sn  Sn11  1  0.598491  0.001705  0.750000  1
  Sn  Sn12  1  0.001705  0.598491  0.750000  1
  Sn  Sn13  1  0.599781  0.599781  0.250000  1
  Sn  Sn14  1  0.399358  0.999821  0.250000  1
  Sn  Sn15  1  0.999821  0.399358  0.250000  1
  P  P16  1  0.001535  0.001535  0.001482  1
  P  P17  1  0.001535  0.001535  0.498518  1
