# generated using pymatgen
data_Th10Sn2Sb5
_symmetry_space_group_name_H-M   'P 1'
_cell_length_a   6.57743330
_cell_length_b   9.49788991
_cell_length_c   9.50642068
_cell_angle_alpha   119.97031977
_cell_angle_beta   89.98252984
_cell_angle_gamma   90.03495885
_symmetry_Int_Tables_number   1
_chemical_formula_structural   Th10Sn2Sb5
_chemical_formula_sum   'Th10 Sn2 Sb5'
_cell_volume   514.47108877
_cell_formula_units_Z   1
loop_
 _symmetry_equiv_pos_site_id
 _symmetry_equiv_pos_as_xyz
  1  'x, y, z'
loop_
 _atom_site_type_symbol
 _atom_site_label
 _atom_site_symmetry_multiplicity
 _atom_site_fract_x
 _atom_site_fract_y
 _atom_site_fract_z
 _atom_site_occupancy
  Th  Th0  1  0.499341  0.333586  0.667593  1
  Th  Th1  1  0.499341  0.665992  0.332407  1
  Th  Th2  1  0.001306  0.666524  0.333273  1
  Th  Th3  1  0.001306  0.333251  0.666727  1
  Th  Th4  1  0.767725  0.269321  0.000000  1
  Th  Th5  1  0.767973  0.731240  0.730795  1
  Th  Th6  1  0.767973  0.000443  0.269205  1
  Th  Th7  1  0.232255  0.728633  0.000000  1
  Th  Th8  1  0.230711  0.269704  0.269753  1
  Th  Th9  1  0.230711  0.999951  0.730247  1
  Sn  Sn10  1  0.256365  0.618307  0.618422  1
  Sn  Sn11  1  0.256365  0.999885  0.381578  1
  Sb  Sb12  1  0.744926  0.617716  0.000000  1
  Sb  Sb13  1  0.745182  0.383763  0.384271  1
  Sb  Sb14  1  0.745182  0.999492  0.615729  1
  Sb  Sb15  1  0.253820  0.382171  0.000000  1
  Sb  Sb16  1  0.499512  0.000023  0.000000  1
