# generated using pymatgen
data_Ca(CoB)4
_symmetry_space_group_name_H-M   'P 1'
_cell_length_a   6.93530400
_cell_length_b   6.93530400
_cell_length_c   3.81713300
_cell_angle_alpha   90.00000000
_cell_angle_beta   90.00000000
_cell_angle_gamma   90.00000000
_symmetry_Int_Tables_number   1
_chemical_formula_structural   Ca(CoB)4
_chemical_formula_sum   'Ca2 Co8 B8'
_cell_volume   183.59814857
_cell_formula_units_Z   2
loop_
 _symmetry_equiv_pos_site_id
 _symmetry_equiv_pos_as_xyz
  1  'x, y, z'
loop_
 _atom_site_type_symbol
 _atom_site_label
 _atom_site_symmetry_multiplicity
 _atom_site_fract_x
 _atom_site_fract_y
 _atom_site_fract_z
 _atom_site_occupancy
  Ca  Ca0  1  0.000000  0.000000  0.000000  1
  Ca  Ca1  1  0.500000  0.500000  0.500000  1
  Co  Co2  1  0.864387  0.379646  0.111658  1
  Co  Co3  1  0.135613  0.620354  0.111658  1
  Co  Co4  1  0.879646  0.635613  0.611658  1
  Co  Co5  1  0.120354  0.364387  0.611658  1
  Co  Co6  1  0.635613  0.120354  0.388342  1
  Co  Co7  1  0.364387  0.879646  0.388342  1
  Co  Co8  1  0.620354  0.864387  0.888342  1
  Co  Co9  1  0.379646  0.135613  0.888342  1
  B  B10  1  0.334703  0.805031  0.892385  1
  B  B11  1  0.665297  0.194969  0.892385  1
  B  B12  1  0.305031  0.165297  0.392385  1
  B  B13  1  0.694969  0.834703  0.392385  1
  B  B14  1  0.165297  0.694969  0.607615  1
  B  B15  1  0.834703  0.305031  0.607615  1
  B  B16  1  0.194969  0.334703  0.107615  1
  B  B17  1  0.805031  0.665297  0.107615  1
