# generated using pymatgen
data_AlGaNiO4
_symmetry_space_group_name_H-M   'P 1'
_cell_length_a   5.81846310
_cell_length_b   5.81846331
_cell_length_c   5.81846344
_cell_angle_alpha   120.56776502
_cell_angle_beta   119.60351244
_cell_angle_gamma   89.85376207
_symmetry_Int_Tables_number   1
_chemical_formula_structural   AlGaNiO4
_chemical_formula_sum   'Al2 Ga2 Ni2 O8'
_cell_volume   139.09364649
_cell_formula_units_Z   2
loop_
 _symmetry_equiv_pos_site_id
 _symmetry_equiv_pos_as_xyz
  1  'x, y, z'
loop_
 _atom_site_type_symbol
 _atom_site_label
 _atom_site_symmetry_multiplicity
 _atom_site_fract_x
 _atom_site_fract_y
 _atom_site_fract_z
 _atom_site_occupancy
  Al  Al0  1  0.500000  0.500000  0.000000  1
  Al  Al1  1  0.000000  0.500000  0.500000  1
  Ga  Ga2  1  0.116112  0.866112  0.250000  1
  Ga  Ga3  1  0.883888  0.133888  0.750000  1
  Ni  Ni4  1  0.500000  0.500000  0.500000  1
  Ni  Ni5  1  0.500000  0.000000  0.000000  1
  O  O6  1  0.248742  0.726009  0.977267  1
  O  O7  1  0.248742  0.271475  0.522733  1
  O  O8  1  0.235909  0.730177  0.505733  1
  O  O9  1  0.724444  0.730177  0.994267  1
  O  O10  1  0.751258  0.273991  0.022733  1
  O  O11  1  0.751258  0.728525  0.477267  1
  O  O12  1  0.764091  0.269823  0.494267  1
  O  O13  1  0.275556  0.269823  0.005733  1
