# generated using pymatgen
data_Hf8MnNiTe8
_symmetry_space_group_name_H-M   'P 1'
_cell_length_a   5.29508300
_cell_length_b   11.04614400
_cell_length_c   19.43264900
_cell_angle_alpha   90.00000000
_cell_angle_beta   90.00000000
_cell_angle_gamma   90.00000000
_symmetry_Int_Tables_number   1
_chemical_formula_structural   Hf8MnNiTe8
_chemical_formula_sum   'Hf16 Mn2 Ni2 Te16'
_cell_volume   1136.62048476
_cell_formula_units_Z   2
loop_
 _symmetry_equiv_pos_site_id
 _symmetry_equiv_pos_as_xyz
  1  'x, y, z'
loop_
 _atom_site_type_symbol
 _atom_site_label
 _atom_site_symmetry_multiplicity
 _atom_site_fract_x
 _atom_site_fract_y
 _atom_site_fract_z
 _atom_site_occupancy
  Hf  Hf0  1  0.494391  0.563781  0.384608  1
  Hf  Hf1  1  0.494391  0.436219  0.615392  1
  Hf  Hf2  1  0.505609  0.063781  0.115392  1
  Hf  Hf3  1  0.505609  0.936219  0.884608  1
  Hf  Hf4  1  0.494287  0.702758  0.536411  1
  Hf  Hf5  1  0.494287  0.297242  0.463589  1
  Hf  Hf6  1  0.505713  0.202758  0.963589  1
  Hf  Hf7  1  0.505713  0.797242  0.036411  1
  Hf  Hf8  1  0.005823  0.688498  0.443913  1
  Hf  Hf9  1  0.005823  0.311502  0.556087  1
  Hf  Hf10  1  0.994177  0.188498  0.056087  1
  Hf  Hf11  1  0.994177  0.811502  0.943913  1
  Hf  Hf12  1  0.005787  0.402099  0.392612  1
  Hf  Hf13  1  0.005787  0.597901  0.607388  1
  Hf  Hf14  1  0.994213  0.902099  0.107388  1
  Hf  Hf15  1  0.994213  0.097901  0.892612  1
  Mn  Mn16  1  0.250393  0.500000  0.500000  1
  Mn  Mn17  1  0.749607  0.000000  0.000000  1
  Ni  Ni18  1  0.750140  0.500000  0.500000  1
  Ni  Ni19  1  0.249860  0.000000  0.000000  1
  Te  Te20  1  0.995537  0.847354  0.562580  1
  Te  Te21  1  0.995537  0.152646  0.437420  1
  Te  Te22  1  0.004463  0.347354  0.937420  1
  Te  Te23  1  0.004463  0.652646  0.062580  1
  Te  Te24  1  0.504573  0.331276  0.315916  1
  Te  Te25  1  0.504573  0.668724  0.684084  1
  Te  Te26  1  0.495427  0.831276  0.184084  1
  Te  Te27  1  0.495427  0.168724  0.815916  1
  Te  Te28  1  0.504242  0.823776  0.404240  1
  Te  Te29  1  0.504242  0.176224  0.595760  1
  Te  Te30  1  0.495758  0.323776  0.095760  1
  Te  Te31  1  0.495758  0.676224  0.904240  1
  Te  Te32  1  0.995801  0.609591  0.301647  1
  Te  Te33  1  0.995801  0.390409  0.698353  1
  Te  Te34  1  0.004199  0.109591  0.198353  1
  Te  Te35  1  0.004199  0.890409  0.801647  1
