# generated using pymatgen
data_Pu3VF20
_symmetry_space_group_name_H-M   'P 1'
_cell_length_a   10.23646592
_cell_length_b   5.65967636
_cell_length_c   8.31153700
_cell_angle_alpha   68.35537177
_cell_angle_beta   90.26792324
_cell_angle_gamma   90.15146461
_symmetry_Int_Tables_number   1
_chemical_formula_structural   Pu3VF20
_chemical_formula_sum   'Pu3 V1 F20'
_cell_volume   447.57157564
_cell_formula_units_Z   1
loop_
 _symmetry_equiv_pos_site_id
 _symmetry_equiv_pos_as_xyz
  1  'x, y, z'
loop_
 _atom_site_type_symbol
 _atom_site_label
 _atom_site_symmetry_multiplicity
 _atom_site_fract_x
 _atom_site_fract_y
 _atom_site_fract_z
 _atom_site_occupancy
  Pu  Pu0  1  0.750656  0.121375  0.597124  1
  Pu  Pu1  1  0.253422  0.879241  0.902516  1
  Pu  Pu2  1  0.247545  0.880846  0.401577  1
  V  V3  1  0.748632  0.119434  0.097225  1
  F  F4  1  0.871554  0.414625  0.557693  1
  F  F5  1  0.365366  0.576989  0.927179  1
  F  F6  1  0.134920  0.579712  0.422686  1
  F  F7  1  0.639916  0.378388  0.063313  1
  F  F8  1  0.606285  0.363888  0.494229  1
  F  F9  1  0.110535  0.647107  0.032191  1
  F  F10  1  0.388697  0.645549  0.534291  1
  F  F11  1  0.876928  0.336468  0.002935  1
  F  F12  1  0.399379  0.110518  0.776828  1
  F  F13  1  0.897880  0.879234  0.695272  1
  F  F14  1  0.617051  0.903022  0.182930  1
  F  F15  1  0.102385  0.115356  0.277593  1
  F  F16  1  0.140775  0.181801  0.876414  1
  F  F17  1  0.630277  0.826689  0.639791  1
  F  F18  1  0.857222  0.858876  0.138306  1
  F  F19  1  0.361167  0.181479  0.379876  1
  F  F20  1  0.709445  0.116359  0.870457  1
  F  F21  1  0.174878  0.880687  0.652505  1
  F  F22  1  0.326913  0.882909  0.152843  1
  F  F23  1  0.788171  0.119450  0.324225  1
