# generated using pymatgen
data_YbGd4LuSi4
_symmetry_space_group_name_H-M   'P 1'
_cell_length_a   7.50274400
_cell_length_b   7.50274400
_cell_length_c   4.27298200
_cell_angle_alpha   90.00000000
_cell_angle_beta   90.00000000
_cell_angle_gamma   90.00000000
_symmetry_Int_Tables_number   1
_chemical_formula_structural   YbGd4LuSi4
_chemical_formula_sum   'Yb1 Gd4 Lu1 Si4'
_cell_volume   240.53114561
_cell_formula_units_Z   1
loop_
 _symmetry_equiv_pos_site_id
 _symmetry_equiv_pos_as_xyz
  1  'x, y, z'
loop_
 _atom_site_type_symbol
 _atom_site_label
 _atom_site_symmetry_multiplicity
 _atom_site_fract_x
 _atom_site_fract_y
 _atom_site_fract_z
 _atom_site_occupancy
  Yb  Yb0  1  0.500000  0.500000  0.000000  1
  Gd  Gd1  1  0.675480  0.178685  0.500000  1
  Gd  Gd2  1  0.324520  0.821315  0.500000  1
  Gd  Gd3  1  0.178685  0.324520  0.500000  1
  Gd  Gd4  1  0.821315  0.675480  0.500000  1
  Lu  Lu5  1  0.000000  0.000000  0.000000  1
  Si  Si6  1  0.107706  0.621199  0.000000  1
  Si  Si7  1  0.892294  0.378801  0.000000  1
  Si  Si8  1  0.621199  0.892294  0.000000  1
  Si  Si9  1  0.378801  0.107706  0.000000  1
