# generated using pymatgen
data_Pm2ThUO8
_symmetry_space_group_name_H-M   'P 1'
_cell_length_a   6.70938490
_cell_length_b   6.70938631
_cell_length_c   6.70938511
_cell_angle_alpha   131.54664044
_cell_angle_beta   131.54665161
_cell_angle_gamma   70.94599902
_symmetry_Int_Tables_number   1
_chemical_formula_structural   Pm2ThUO8
_chemical_formula_sum   'Pm2 Th1 U1 O8'
_cell_volume   165.67009147
_cell_formula_units_Z   1
loop_
 _symmetry_equiv_pos_site_id
 _symmetry_equiv_pos_as_xyz
  1  'x, y, z'
loop_
 _atom_site_type_symbol
 _atom_site_label
 _atom_site_symmetry_multiplicity
 _atom_site_fract_x
 _atom_site_fract_y
 _atom_site_fract_z
 _atom_site_occupancy
  Pm  Pm0  1  0.000000  0.000000  0.000000  1
  Pm  Pm1  1  0.750000  0.250000  0.500000  1
  Th  Th2  1  0.500000  0.500000  0.000000  1
  U  U3  1  0.250000  0.750000  0.500000  1
  O  O4  1  0.368442  0.397106  0.504029  1
  O  O5  1  0.893077  0.864413  0.495971  1
  O  O6  1  0.135587  0.106923  0.504029  1
  O  O7  1  0.602894  0.106923  0.971336  1
  O  O8  1  0.893077  0.397106  0.028664  1
  O  O9  1  0.602894  0.631558  0.495971  1
  O  O10  1  0.135587  0.631558  0.028664  1
  O  O11  1  0.368442  0.864413  0.971336  1
