# generated using pymatgen
data_Pr3BiRh4F28
_symmetry_space_group_name_H-M   'P 1'
_cell_length_a   5.67248233
_cell_length_b   9.21283868
_cell_length_c   12.25952679
_cell_angle_alpha   61.96211870
_cell_angle_beta   90.23573529
_cell_angle_gamma   89.94117800
_symmetry_Int_Tables_number   1
_chemical_formula_structural   Pr3BiRh4F28
_chemical_formula_sum   'Pr3 Bi1 Rh4 F28'
_cell_volume   565.47881452
_cell_formula_units_Z   1
loop_
 _symmetry_equiv_pos_site_id
 _symmetry_equiv_pos_as_xyz
  1  'x, y, z'
loop_
 _atom_site_type_symbol
 _atom_site_label
 _atom_site_symmetry_multiplicity
 _atom_site_fract_x
 _atom_site_fract_y
 _atom_site_fract_z
 _atom_site_occupancy
  Pr  Pr0  1  0.260257  0.192059  0.735149  1
  Pr  Pr1  1  0.239061  0.190340  0.234768  1
  Pr  Pr2  1  0.739127  0.808884  0.265376  1
  Bi  Bi3  1  0.768042  0.819023  0.761566  1
  Rh  Rh4  1  0.755492  0.274287  0.956625  1
  Rh  Rh5  1  0.257905  0.726906  0.544504  1
  Rh  Rh6  1  0.242703  0.727106  0.040392  1
  Rh  Rh7  1  0.744645  0.272320  0.458668  1
  F  F8  1  0.430506  0.708528  0.915849  1
  F  F9  1  0.935706  0.290836  0.584554  1
  F  F10  1  0.567432  0.291352  0.082931  1
  F  F11  1  0.067782  0.708468  0.418809  1
  F  F12  1  0.454468  0.280677  0.542035  1
  F  F13  1  0.947084  0.720540  0.956536  1
  F  F14  1  0.547421  0.717084  0.461587  1
  F  F15  1  0.047549  0.282682  0.039070  1
  F  F16  1  0.762932  0.509524  0.861893  1
  F  F17  1  0.266688  0.489001  0.638968  1
  F  F18  1  0.232064  0.489491  0.135717  1
  F  F19  1  0.735434  0.510595  0.363339  1
  F  F20  1  0.759381  0.036584  0.048301  1
  F  F21  1  0.260000  0.963999  0.452606  1
  F  F22  1  0.242329  0.965338  0.948653  1
  F  F23  1  0.741590  0.031898  0.550840  1
  F  F24  1  0.970435  0.730348  0.630497  1
  F  F25  1  0.468007  0.269480  0.869830  1
  F  F26  1  0.029960  0.268748  0.371642  1
  F  F27  1  0.527986  0.729171  0.129842  1
  F  F28  1  0.055759  0.743314  0.167834  1
  F  F29  1  0.556772  0.256687  0.330820  1
  F  F30  1  0.940153  0.257728  0.828210  1
  F  F31  1  0.442013  0.742555  0.672716  1
  F  F32  1  0.404270  0.967038  0.229343  1
  F  F33  1  0.905060  0.032300  0.270460  1
  F  F34  1  0.602590  0.028572  0.771793  1
  F  F35  1  0.091395  0.966535  0.728281  1
