# generated using pymatgen
data_MnZn3(TeO4)4
_symmetry_space_group_name_H-M   'P 1'
_cell_length_a   4.78575408
_cell_length_b   10.56753444
_cell_length_c   7.39906267
_cell_angle_alpha   89.13410405
_cell_angle_beta   130.28613115
_cell_angle_gamma   90.53981818
_symmetry_Int_Tables_number   1
_chemical_formula_structural   MnZn3(TeO4)4
_chemical_formula_sum   'Mn1 Zn3 Te4 O16'
_cell_volume   285.41444886
_cell_formula_units_Z   1
loop_
 _symmetry_equiv_pos_site_id
 _symmetry_equiv_pos_as_xyz
  1  'x, y, z'
loop_
 _atom_site_type_symbol
 _atom_site_label
 _atom_site_symmetry_multiplicity
 _atom_site_fract_x
 _atom_site_fract_y
 _atom_site_fract_z
 _atom_site_occupancy
  Mn  Mn0  1  0.500000  0.500000  0.500000  1
  Zn  Zn1  1  0.500001  0.000000  0.000000  1
  Zn  Zn2  1  0.500001  0.500000  0.000000  1
  Zn  Zn3  1  0.500000  0.000000  0.500000  1
  Te  Te4  1  0.187572  0.247794  0.183595  1
  Te  Te5  1  0.810323  0.751455  0.314228  1
  Te  Te6  1  0.189677  0.248544  0.685771  1
  Te  Te7  1  0.812429  0.752206  0.816406  1
  O  O8  1  0.790452  0.825993  0.051301  1
  O  O9  1  0.306125  0.676906  0.055374  1
  O  O10  1  0.392355  0.406826  0.205331  1
  O  O11  1  0.033857  0.088741  0.213017  1
  O  O12  1  0.962133  0.591186  0.291551  1
  O  O13  1  0.605370  0.910543  0.286779  1
  O  O14  1  0.692655  0.175217  0.450404  1
  O  O15  1  0.203170  0.321604  0.443268  1
  O  O16  1  0.796829  0.678396  0.556732  1
  O  O17  1  0.307346  0.824783  0.549597  1
  O  O18  1  0.394630  0.089456  0.713220  1
  O  O19  1  0.037867  0.408813  0.708448  1
  O  O20  1  0.966144  0.911259  0.786985  1
  O  O21  1  0.607644  0.593175  0.794668  1
  O  O22  1  0.693876  0.323095  0.944628  1
  O  O23  1  0.209547  0.174007  0.948698  1
