# generated using pymatgen
data_Y3Ho3ZrCo17P12
_symmetry_space_group_name_H-M   'P 1'
_cell_length_a   3.71357400
_cell_length_b   10.60433800
_cell_length_c   12.33112600
_cell_angle_alpha   89.99803625
_cell_angle_beta   90.00000000
_cell_angle_gamma   90.00000000
_symmetry_Int_Tables_number   1
_chemical_formula_structural   Y3Ho3ZrCo17P12
_chemical_formula_sum   'Y3 Ho3 Zr1 Co17 P12'
_cell_volume   485.59966632
_cell_formula_units_Z   1
loop_
 _symmetry_equiv_pos_site_id
 _symmetry_equiv_pos_as_xyz
  1  'x, y, z'
loop_
 _atom_site_type_symbol
 _atom_site_label
 _atom_site_symmetry_multiplicity
 _atom_site_fract_x
 _atom_site_fract_y
 _atom_site_fract_z
 _atom_site_occupancy
  Y  Y0  1  0.000000  0.500023  0.529302  1
  Y  Y1  1  0.500000  0.999956  0.477651  1
  Y  Y2  1  0.500000  0.821238  0.207253  1
  Ho  Ho3  1  0.500000  0.178710  0.207384  1
  Ho  Ho4  1  0.000000  0.682976  0.796075  1
  Ho  Ho5  1  0.000000  0.317085  0.796110  1
  Zr  Zr6  1  0.500000  0.499758  0.154078  1
  Co  Co7  1  0.000000  0.499897  0.983008  1
  Co  Co8  1  0.500000  0.000192  0.013594  1
  Co  Co9  1  0.500000  0.293760  0.434520  1
  Co  Co10  1  0.500000  0.706109  0.434798  1
  Co  Co11  1  0.000000  0.202159  0.570471  1
  Co  Co12  1  0.000000  0.797842  0.570566  1
  Co  Co13  1  0.500000  0.880022  0.707722  1
  Co  Co14  1  0.500000  0.119945  0.707698  1
  Co  Co15  1  0.000000  0.622556  0.298135  1
  Co  Co16  1  0.000000  0.376911  0.297828  1
  Co  Co17  1  0.500000  0.326893  0.987731  1
  Co  Co18  1  0.500000  0.672962  0.987548  1
  Co  Co19  1  0.000000  0.161401  0.001397  1
  Co  Co20  1  0.000000  0.838728  0.001225  1
  Co  Co21  1  0.000000  0.000000  0.836627  1
  Co  Co22  1  0.500000  0.499997  0.703391  1
  Co  Co23  1  0.000000  0.000776  0.296202  1
  P  P24  1  0.500000  0.308710  0.618425  1
  P  P25  1  0.500000  0.691270  0.618503  1
  P  P26  1  0.000000  0.188709  0.386232  1
  P  P27  1  0.000000  0.811392  0.386730  1
  P  P28  1  0.500000  0.499957  0.881274  1
  P  P29  1  0.000000  0.000539  0.116247  1
  P  P30  1  0.500000  0.852436  0.888396  1
  P  P31  1  0.500000  0.147606  0.888330  1
  P  P32  1  0.000000  0.664915  0.099048  1
  P  P33  1  0.000000  0.334567  0.099507  1
  P  P34  1  0.500000  0.500019  0.361533  1
  P  P35  1  0.000000  0.999982  0.655463  1
