# generated using pymatgen
data_Yb12GaGe7Pt8
_symmetry_space_group_name_H-M   'P 1'
_cell_length_a   5.57755900
_cell_length_b   8.13453127
_cell_length_c   13.33867566
_cell_angle_alpha   90.16156539
_cell_angle_beta   90.00000000
_cell_angle_gamma   90.00000000
_symmetry_Int_Tables_number   1
_chemical_formula_structural   Yb12GaGe7Pt8
_chemical_formula_sum   'Yb12 Ga1 Ge7 Pt8'
_cell_volume   605.18435457
_cell_formula_units_Z   1
loop_
 _symmetry_equiv_pos_site_id
 _symmetry_equiv_pos_as_xyz
  1  'x, y, z'
loop_
 _atom_site_type_symbol
 _atom_site_label
 _atom_site_symmetry_multiplicity
 _atom_site_fract_x
 _atom_site_fract_y
 _atom_site_fract_z
 _atom_site_occupancy
  Yb  Yb0  1  0.143891  0.610250  0.100171  1
  Yb  Yb1  1  0.143891  0.889750  0.899829  1
  Yb  Yb2  1  0.852820  0.107062  0.399486  1
  Yb  Yb3  1  0.852820  0.392938  0.600514  1
  Yb  Yb4  1  0.856219  0.389311  0.899824  1
  Yb  Yb5  1  0.856219  0.110689  0.100176  1
  Yb  Yb6  1  0.143747  0.889095  0.599954  1
  Yb  Yb7  1  0.143747  0.610905  0.400046  1
  Yb  Yb8  1  0.362982  0.248802  0.248785  1
  Yb  Yb9  1  0.362982  0.251198  0.751215  1
  Yb  Yb10  1  0.635771  0.750121  0.248812  1
  Yb  Yb11  1  0.635771  0.749879  0.751188  1
  Ga  Ga12  1  0.365005  0.250000  0.500000  1
  Ge  Ge13  1  0.360848  0.250000  0.000000  1
  Ge  Ge14  1  0.641593  0.750000  0.500000  1
  Ge  Ge15  1  0.638674  0.750000  0.000000  1
  Ge  Ge16  1  0.866024  0.402395  0.249798  1
  Ge  Ge17  1  0.866024  0.097605  0.750202  1
  Ge  Ge18  1  0.133596  0.901314  0.249411  1
  Ge  Ge19  1  0.133596  0.598686  0.750589  1
  Pt  Pt20  1  0.628897  0.462897  0.092319  1
  Pt  Pt21  1  0.628897  0.037103  0.907681  1
  Pt  Pt22  1  0.368362  0.964716  0.408368  1
  Pt  Pt23  1  0.368362  0.535284  0.591632  1
  Pt  Pt24  1  0.372465  0.536599  0.907543  1
  Pt  Pt25  1  0.372465  0.963401  0.092457  1
  Pt  Pt26  1  0.632167  0.035576  0.593776  1
  Pt  Pt27  1  0.632167  0.464424  0.406224  1
