# generated using pymatgen
data_Sc6B4IrRh9
_symmetry_space_group_name_H-M   'P 1'
_cell_length_a   9.50946477
_cell_length_b   9.54120676
_cell_length_c   3.11741500
_cell_angle_alpha   90.00000000
_cell_angle_beta   90.00000000
_cell_angle_gamma   89.93017054
_symmetry_Int_Tables_number   1
_chemical_formula_structural   Sc6B4IrRh9
_chemical_formula_sum   'Sc6 B4 Ir1 Rh9'
_cell_volume   282.84836951
_cell_formula_units_Z   1
loop_
 _symmetry_equiv_pos_site_id
 _symmetry_equiv_pos_as_xyz
  1  'x, y, z'
loop_
 _atom_site_type_symbol
 _atom_site_label
 _atom_site_symmetry_multiplicity
 _atom_site_fract_x
 _atom_site_fract_y
 _atom_site_fract_z
 _atom_site_occupancy
  Sc  Sc0  1  0.826305  0.324638  0.000000  1
  Sc  Sc1  1  0.324535  0.174340  0.000000  1
  Sc  Sc2  1  0.674457  0.825072  0.000000  1
  Sc  Sc3  1  0.174747  0.674317  0.000000  1
  Sc  Sc4  1  0.999314  0.998049  0.000000  1
  Sc  Sc5  1  0.500242  0.499939  0.000000  1
  B  B6  1  0.621675  0.122249  0.000000  1
  B  B7  1  0.121342  0.377239  0.000000  1
  B  B8  1  0.878141  0.621515  0.000000  1
  B  B9  1  0.378526  0.878354  0.000000  1
  Ir  Ir10  1  0.071708  0.223012  0.500000  1
  Rh  Rh11  1  0.222935  0.929129  0.500000  1
  Rh  Rh12  1  0.777579  0.071788  0.500000  1
  Rh  Rh13  1  0.928143  0.777004  0.500000  1
  Rh  Rh14  1  0.428117  0.723290  0.500000  1
  Rh  Rh15  1  0.571384  0.277049  0.500000  1
  Rh  Rh16  1  0.722374  0.571966  0.500000  1
  Rh  Rh17  1  0.277958  0.429938  0.500000  1
  Rh  Rh18  1  0.500700  0.999903  0.500000  1
  Rh  Rh19  1  0.999817  0.501209  0.500000  1
