# generated using pymatgen
data_TbYbYGa8Ag3
_symmetry_space_group_name_H-M   'P 1'
_cell_length_a   4.35956292
_cell_length_b   8.34200466
_cell_length_c   8.34200467
_cell_angle_alpha   70.37997876
_cell_angle_beta   74.85267896
_cell_angle_gamma   74.85267599
_symmetry_Int_Tables_number   1
_chemical_formula_structural   TbYbYGa8Ag3
_chemical_formula_sum   'Tb1 Yb1 Y1 Ga8 Ag3'
_cell_volume   270.76317252
_cell_formula_units_Z   1
loop_
 _symmetry_equiv_pos_site_id
 _symmetry_equiv_pos_as_xyz
  1  'x, y, z'
loop_
 _atom_site_type_symbol
 _atom_site_label
 _atom_site_symmetry_multiplicity
 _atom_site_fract_x
 _atom_site_fract_y
 _atom_site_fract_z
 _atom_site_occupancy
  Tb  Tb0  1  0.299015  0.700985  0.700985  1
  Yb  Yb1  1  0.698147  0.301853  0.301853  1
  Y  Y2  1  0.000320  0.999680  0.999680  1
  Ga  Ga3  1  0.338564  0.292889  0.029982  1
  Ga  Ga4  1  0.658948  0.711160  0.970944  1
  Ga  Ga5  1  0.338564  0.029982  0.292889  1
  Ga  Ga6  1  0.658948  0.970944  0.711160  1
  Ga  Ga7  1  0.143282  0.575502  0.137934  1
  Ga  Ga8  1  0.859151  0.421343  0.860355  1
  Ga  Ga9  1  0.143282  0.137934  0.575502  1
  Ga  Ga10  1  0.859151  0.860355  0.421343  1
  Ag  Ag11  1  0.501104  0.303806  0.693986  1
  Ag  Ag12  1  0.501104  0.693986  0.303806  1
  Ag  Ag13  1  0.000419  0.499581  0.499581  1
