# generated using pymatgen
data_Ti2Nb2GaC3
_symmetry_space_group_name_H-M   'P 1'
_cell_length_a   3.11169500
_cell_length_b   3.11169569
_cell_length_c   23.68922200
_cell_angle_alpha   90.00000000
_cell_angle_beta   90.00000000
_cell_angle_gamma   119.99998207
_symmetry_Int_Tables_number   1
_chemical_formula_structural   Ti2Nb2GaC3
_chemical_formula_sum   'Ti4 Nb4 Ga2 C6'
_cell_volume   198.64408967
_cell_formula_units_Z   2
loop_
 _symmetry_equiv_pos_site_id
 _symmetry_equiv_pos_as_xyz
  1  'x, y, z'
loop_
 _atom_site_type_symbol
 _atom_site_label
 _atom_site_symmetry_multiplicity
 _atom_site_fract_x
 _atom_site_fract_y
 _atom_site_fract_z
 _atom_site_occupancy
  Ti  Ti0  1  0.333333  0.666667  0.448579  1
  Ti  Ti1  1  0.666667  0.333333  0.551421  1
  Ti  Ti2  1  0.666667  0.333333  0.948579  1
  Ti  Ti3  1  0.333333  0.666667  0.051421  1
  Nb  Nb4  1  0.000000  0.000000  0.343140  1
  Nb  Nb5  1  0.000000  0.000000  0.656860  1
  Nb  Nb6  1  0.000000  0.000000  0.843140  1
  Nb  Nb7  1  0.000000  0.000000  0.156860  1
  Ga  Ga8  1  0.333333  0.666667  0.250000  1
  Ga  Ga9  1  0.666667  0.333333  0.750000  1
  C  C10  1  0.000000  0.000000  0.500000  1
  C  C11  1  0.000000  0.000000  0.000000  1
  C  C12  1  0.666667  0.333333  0.393967  1
  C  C13  1  0.333333  0.666667  0.606033  1
  C  C14  1  0.333333  0.666667  0.893967  1
  C  C15  1  0.666667  0.333333  0.106033  1
