# generated using pymatgen
data_YbY3(Ga2Ag)4
_symmetry_space_group_name_H-M   'P 1'
_cell_length_a   4.36013300
_cell_length_b   6.98700964
_cell_length_c   10.28860808
_cell_angle_alpha   90.32502247
_cell_angle_beta   90.00000000
_cell_angle_gamma   90.00000000
_symmetry_Int_Tables_number   1
_chemical_formula_structural   YbY3(Ga2Ag)4
_chemical_formula_sum   'Yb1 Y3 Ga8 Ag4'
_cell_volume   313.43011042
_cell_formula_units_Z   1
loop_
 _symmetry_equiv_pos_site_id
 _symmetry_equiv_pos_as_xyz
  1  'x, y, z'
loop_
 _atom_site_type_symbol
 _atom_site_label
 _atom_site_symmetry_multiplicity
 _atom_site_fract_x
 _atom_site_fract_y
 _atom_site_fract_z
 _atom_site_occupancy
  Yb  Yb0  1  0.250000  0.276527  0.671836  1
  Y  Y1  1  0.250000  0.780584  0.825987  1
  Y  Y2  1  0.750000  0.222249  0.172633  1
  Y  Y3  1  0.750000  0.720422  0.328459  1
  Ga  Ga4  1  0.250000  0.704161  0.535822  1
  Ga  Ga5  1  0.750000  0.297841  0.464528  1
  Ga  Ga6  1  0.750000  0.792393  0.037472  1
  Ga  Ga7  1  0.250000  0.202253  0.964167  1
  Ga  Ga8  1  0.250000  0.926727  0.155187  1
  Ga  Ga9  1  0.750000  0.072030  0.849628  1
  Ga  Ga10  1  0.750000  0.571622  0.650450  1
  Ga  Ga11  1  0.250000  0.427469  0.344299  1
  Ag  Ag12  1  0.250000  0.544768  0.096434  1
  Ag  Ag13  1  0.750000  0.455533  0.900846  1
  Ag  Ag14  1  0.750000  0.959530  0.598474  1
  Ag  Ag15  1  0.250000  0.045891  0.403776  1
