# generated using pymatgen
data_Nd3Co2Cu5(Ni3B)2
_symmetry_space_group_name_H-M   'P 1'
_cell_length_a   5.08763238
_cell_length_b   5.11139051
_cell_length_c   10.96199600
_cell_angle_alpha   90.00000000
_cell_angle_beta   90.00000000
_cell_angle_gamma   119.96977176
_symmetry_Int_Tables_number   1
_chemical_formula_structural   Nd3Co2Cu5(Ni3B)2
_chemical_formula_sum   'Nd3 Co2 Cu5 Ni6 B2'
_cell_volume   246.94899428
_cell_formula_units_Z   1
loop_
 _symmetry_equiv_pos_site_id
 _symmetry_equiv_pos_as_xyz
  1  'x, y, z'
loop_
 _atom_site_type_symbol
 _atom_site_label
 _atom_site_symmetry_multiplicity
 _atom_site_fract_x
 _atom_site_fract_y
 _atom_site_fract_z
 _atom_site_occupancy
  Nd  Nd0  1  0.000000  0.000000  0.671757  1
  Nd  Nd1  1  0.000000  0.000000  0.317750  1
  Nd  Nd2  1  0.000000  0.000000  0.000897  1
  Co  Co3  1  0.500000  0.000000  0.127668  1
  Co  Co4  1  0.500000  0.500000  0.127812  1
  Cu  Cu5  1  0.500000  0.500000  0.499803  1
  Cu  Cu6  1  0.334523  0.670892  0.315960  1
  Cu  Cu7  1  0.665477  0.329108  0.315960  1
  Cu  Cu8  1  0.668052  0.331316  0.684923  1
  Cu  Cu9  1  0.331948  0.668684  0.684923  1
  Ni  Ni10  1  0.000000  0.500000  0.871797  1
  Ni  Ni11  1  0.500000  0.000000  0.500596  1
  Ni  Ni12  1  0.000000  0.500000  0.500589  1
  Ni  Ni13  1  0.000000  0.500000  0.130437  1
  Ni  Ni14  1  0.500000  0.000000  0.871641  1
  Ni  Ni15  1  0.500000  0.500000  0.871274  1
  B  B16  1  0.662446  0.331218  0.003107  1
  B  B17  1  0.337554  0.668782  0.003107  1
