# generated using pymatgen
data_Pu3ThSi7
_symmetry_space_group_name_H-M   'P 1'
_cell_length_a   7.81788994
_cell_length_b   7.81789054
_cell_length_c   8.31698528
_cell_angle_alpha   89.91204516
_cell_angle_beta   90.08796433
_cell_angle_gamma   119.47318122
_symmetry_Int_Tables_number   1
_chemical_formula_structural   Pu3ThSi7
_chemical_formula_sum   'Pu6 Th2 Si14'
_cell_volume   442.54364584
_cell_formula_units_Z   2
loop_
 _symmetry_equiv_pos_site_id
 _symmetry_equiv_pos_as_xyz
  1  'x, y, z'
loop_
 _atom_site_type_symbol
 _atom_site_label
 _atom_site_symmetry_multiplicity
 _atom_site_fract_x
 _atom_site_fract_y
 _atom_site_fract_z
 _atom_site_occupancy
  Pu  Pu0  1  0.260907  0.260907  0.000000  1
  Pu  Pu1  1  0.739093  0.739093  0.000000  1
  Pu  Pu2  1  0.744472  0.744472  0.500000  1
  Pu  Pu3  1  0.255528  0.255528  0.500000  1
  Pu  Pu4  1  0.251411  0.748589  0.496405  1
  Pu  Pu5  1  0.748589  0.251411  0.503595  1
  Th  Th6  1  0.750274  0.249726  0.996133  1
  Th  Th7  1  0.249726  0.750274  0.003867  1
  Si  Si8  1  0.061436  0.371811  0.256427  1
  Si  Si9  1  0.938564  0.628189  0.743573  1
  Si  Si10  1  0.584593  0.415407  0.253779  1
  Si  Si11  1  0.415407  0.584593  0.746221  1
  Si  Si12  1  0.411080  0.588920  0.257229  1
  Si  Si13  1  0.588920  0.411080  0.742771  1
  Si  Si14  1  0.054445  0.945555  0.248885  1
  Si  Si15  1  0.945555  0.054445  0.751115  1
  Si  Si16  1  0.628189  0.938564  0.256427  1
  Si  Si17  1  0.371811  0.061436  0.743573  1
  Si  Si18  1  0.929421  0.593659  0.259002  1
  Si  Si19  1  0.070579  0.406341  0.740998  1
  Si  Si20  1  0.406341  0.070579  0.259002  1
  Si  Si21  1  0.593659  0.929421  0.740998  1
