# generated using pymatgen
data_Ta5V4Si6W
_symmetry_space_group_name_H-M   'P 1'
_cell_length_a   7.34613074
_cell_length_b   7.34613061
_cell_length_c   4.97590900
_cell_angle_alpha   90.00000000
_cell_angle_beta   90.00000000
_cell_angle_gamma   119.47623030
_symmetry_Int_Tables_number   1
_chemical_formula_structural   Ta5V4Si6W
_chemical_formula_sum   'Ta5 V4 Si6 W1'
_cell_volume   233.76979192
_cell_formula_units_Z   1
loop_
 _symmetry_equiv_pos_site_id
 _symmetry_equiv_pos_as_xyz
  1  'x, y, z'
loop_
 _atom_site_type_symbol
 _atom_site_label
 _atom_site_symmetry_multiplicity
 _atom_site_fract_x
 _atom_site_fract_y
 _atom_site_fract_z
 _atom_site_occupancy
  Ta  Ta0  1  0.754729  0.754729  0.250000  1
  Ta  Ta1  1  0.000707  0.237588  0.250000  1
  Ta  Ta2  1  0.759494  0.999002  0.750000  1
  Ta  Ta3  1  0.237588  0.000707  0.250000  1
  Ta  Ta4  1  0.999002  0.759494  0.750000  1
  V  V5  1  0.332900  0.668088  0.499848  1
  V  V6  1  0.668088  0.332900  0.499848  1
  V  V7  1  0.332900  0.668088  0.000152  1
  V  V8  1  0.668088  0.332900  0.000152  1
  Si  Si9  1  0.592577  0.592577  0.750000  1
  Si  Si10  1  0.402293  0.002521  0.750000  1
  Si  Si11  1  0.595266  0.000288  0.250000  1
  Si  Si12  1  0.002521  0.402293  0.750000  1
  Si  Si13  1  0.404589  0.404589  0.250000  1
  Si  Si14  1  0.000288  0.595266  0.250000  1
  W  W15  1  0.248970  0.248970  0.750000  1
