# generated using pymatgen
data_Pr3DySn10IrRh5
_symmetry_space_group_name_H-M   'P 1'
_cell_length_a   13.61608451
_cell_length_b   13.61608521
_cell_length_c   7.26419919
_cell_angle_alpha   89.88960455
_cell_angle_beta   90.11039583
_cell_angle_gamma   160.80698931
_symmetry_Int_Tables_number   1
_chemical_formula_structural   Pr3DySn10IrRh5
_chemical_formula_sum   'Pr3 Dy1 Sn10 Ir1 Rh5'
_cell_volume   442.75052196
_cell_formula_units_Z   1
loop_
 _symmetry_equiv_pos_site_id
 _symmetry_equiv_pos_as_xyz
  1  'x, y, z'
loop_
 _atom_site_type_symbol
 _atom_site_label
 _atom_site_symmetry_multiplicity
 _atom_site_fract_x
 _atom_site_fract_y
 _atom_site_fract_z
 _atom_site_occupancy
  Pr  Pr0  1  0.171840  0.828160  0.752648  1
  Pr  Pr1  1  0.827735  0.172265  0.252886  1
  Pr  Pr2  1  0.477119  0.522881  0.738030  1
  Dy  Dy3  1  0.524709  0.475291  0.241675  1
  Sn  Sn4  1  0.878713  0.121287  0.732896  1
  Sn  Sn5  1  0.120287  0.879713  0.232932  1
  Sn  Sn6  1  0.703888  0.296112  0.047456  1
  Sn  Sn7  1  0.295505  0.704495  0.548634  1
  Sn  Sn8  1  0.596675  0.403325  0.610266  1
  Sn  Sn9  1  0.404543  0.595457  0.111968  1
  Sn  Sn10  1  0.952895  0.047105  0.399640  1
  Sn  Sn11  1  0.048018  0.951982  0.905199  1
  Sn  Sn12  1  0.289838  0.710162  0.974229  1
  Sn  Sn13  1  0.709900  0.290100  0.474366  1
  Ir  Ir14  1  0.050815  0.949185  0.515150  1
  Rh  Rh15  1  0.948810  0.051190  0.021623  1
  Rh  Rh16  1  0.777237  0.222763  0.762996  1
  Rh  Rh17  1  0.222338  0.777662  0.263263  1
  Rh  Rh18  1  0.394989  0.605011  0.483463  1
  Rh  Rh19  1  0.604145  0.395855  0.986681  1
