# generated using pymatgen
data_Tb6Ho4Si5Ge
_symmetry_space_group_name_H-M   'P 1'
_cell_length_a   8.48200300
_cell_length_b   8.48379802
_cell_length_c   6.38207200
_cell_angle_alpha   90.00000000
_cell_angle_beta   90.00000000
_cell_angle_gamma   119.99299726
_symmetry_Int_Tables_number   1
_chemical_formula_structural   Tb6Ho4Si5Ge
_chemical_formula_sum   'Tb6 Ho4 Si5 Ge1'
_cell_volume   397.75139786
_cell_formula_units_Z   1
loop_
 _symmetry_equiv_pos_site_id
 _symmetry_equiv_pos_as_xyz
  1  'x, y, z'
loop_
 _atom_site_type_symbol
 _atom_site_label
 _atom_site_symmetry_multiplicity
 _atom_site_fract_x
 _atom_site_fract_y
 _atom_site_fract_z
 _atom_site_occupancy
  Tb  Tb0  1  0.999084  0.755621  0.750000  1
  Tb  Tb1  1  0.999974  0.243708  0.250000  1
  Tb  Tb2  1  0.756266  0.756292  0.250000  1
  Tb  Tb3  1  0.757003  0.000000  0.750000  1
  Tb  Tb4  1  0.243463  0.244379  0.750000  1
  Tb  Tb5  1  0.243420  0.000000  0.250000  1
  Ho  Ho6  1  0.333213  0.665974  0.499414  1
  Ho  Ho7  1  0.667239  0.334026  0.000586  1
  Ho  Ho8  1  0.667239  0.334026  0.499414  1
  Ho  Ho9  1  0.333213  0.665974  0.000586  1
  Si  Si10  1  0.394795  0.394766  0.250000  1
  Si  Si11  1  0.000029  0.605234  0.250000  1
  Si  Si12  1  0.999994  0.394780  0.750000  1
  Si  Si13  1  0.605214  0.605220  0.750000  1
  Si  Si14  1  0.605323  0.000000  0.250000  1
  Ge  Ge15  1  0.394530  0.000000  0.750000  1
