# generated using pymatgen
data_PrEr(Al3Zn5)2
_symmetry_space_group_name_H-M   'P 1'
_cell_length_a   8.56542214
_cell_length_b   8.56542173
_cell_length_c   10.46785400
_cell_angle_alpha   114.15018721
_cell_angle_beta   114.15017865
_cell_angle_gamma   89.99999343
_symmetry_Int_Tables_number   1
_chemical_formula_structural   PrEr(Al3Zn5)2
_chemical_formula_sum   'Pr2 Er2 Al12 Zn20'
_cell_volume   626.38256969
_cell_formula_units_Z   2
loop_
 _symmetry_equiv_pos_site_id
 _symmetry_equiv_pos_as_xyz
  1  'x, y, z'
loop_
 _atom_site_type_symbol
 _atom_site_label
 _atom_site_symmetry_multiplicity
 _atom_site_fract_x
 _atom_site_fract_y
 _atom_site_fract_z
 _atom_site_occupancy
  Pr  Pr0  1  0.500000  0.000000  0.000000  1
  Pr  Pr1  1  0.000000  0.500000  0.000000  1
  Er  Er2  1  0.721753  0.721753  0.443508  1
  Er  Er3  1  0.278246  0.278246  0.556492  1
  Al  Al4  1  0.369737  0.139149  0.278299  1
  Al  Al5  1  0.908563  0.139149  0.278299  1
  Al  Al6  1  0.139149  0.369737  0.278299  1
  Al  Al7  1  0.139149  0.908563  0.278299  1
  Al  Al8  1  0.000000  0.000000  0.500000  1
  Al  Al9  1  0.500000  0.000000  0.500000  1
  Al  Al10  1  0.000000  0.500000  0.500000  1
  Al  Al11  1  0.500000  0.500000  0.500000  1
  Al  Al12  1  0.860850  0.091438  0.721700  1
  Al  Al13  1  0.860850  0.630262  0.721700  1
  Al  Al14  1  0.091438  0.860850  0.721700  1
  Al  Al15  1  0.630262  0.860850  0.721700  1
  Zn  Zn16  1  0.152066  0.152066  0.000000  1
  Zn  Zn17  1  0.847934  0.152066  0.000000  1
  Zn  Zn18  1  0.152066  0.847934  0.000000  1
  Zn  Zn19  1  0.847934  0.847934  0.000000  1
  Zn  Zn20  1  0.417348  0.417348  0.157392  1
  Zn  Zn21  1  0.740045  0.417348  0.157392  1
  Zn  Zn22  1  0.417348  0.740045  0.157392  1
  Zn  Zn23  1  0.740045  0.740045  0.157392  1
  Zn  Zn24  1  0.673707  0.021670  0.347415  1
  Zn  Zn25  1  0.673707  0.325746  0.347415  1
  Zn  Zn26  1  0.021670  0.673707  0.347415  1
  Zn  Zn27  1  0.325746  0.673707  0.347415  1
  Zn  Zn28  1  0.674254  0.326293  0.652585  1
  Zn  Zn29  1  0.978330  0.326293  0.652585  1
  Zn  Zn30  1  0.326293  0.674254  0.652585  1
  Zn  Zn31  1  0.326293  0.978330  0.652585  1
  Zn  Zn32  1  0.259956  0.259956  0.842608  1
  Zn  Zn33  1  0.582653  0.259956  0.842608  1
  Zn  Zn34  1  0.259956  0.582653  0.842608  1
  Zn  Zn35  1  0.582653  0.582653  0.842608  1
