# generated using pymatgen
data_Y3TmTh6(Bi3C)2
_symmetry_space_group_name_H-M   'P 1'
_cell_length_a   9.33753800
_cell_length_b   9.33753926
_cell_length_c   6.47420200
_cell_angle_alpha   90.00000000
_cell_angle_beta   90.00000000
_cell_angle_gamma   120.00000260
_symmetry_Int_Tables_number   1
_chemical_formula_structural   Y3TmTh6(Bi3C)2
_chemical_formula_sum   'Y3 Tm1 Th6 Bi6 C2'
_cell_volume   488.85683217
_cell_formula_units_Z   1
loop_
 _symmetry_equiv_pos_site_id
 _symmetry_equiv_pos_as_xyz
  1  'x, y, z'
loop_
 _atom_site_type_symbol
 _atom_site_label
 _atom_site_symmetry_multiplicity
 _atom_site_fract_x
 _atom_site_fract_y
 _atom_site_fract_z
 _atom_site_occupancy
  Y  Y0  1  0.666667  0.333333  0.000000  1
  Y  Y1  1  0.333333  0.666667  0.000000  1
  Y  Y2  1  0.333333  0.666667  0.500000  1
  Tm  Tm3  1  0.666667  0.333333  0.500000  1
  Th  Th4  1  0.780413  0.780371  0.750006  1
  Th  Th5  1  0.219629  0.000042  0.750006  1
  Th  Th6  1  0.999958  0.219587  0.750006  1
  Th  Th7  1  0.219629  0.219587  0.249994  1
  Th  Th8  1  0.780413  0.000042  0.249994  1
  Th  Th9  1  0.999958  0.780371  0.249994  1
  Bi  Bi10  1  0.406292  0.405882  0.749611  1
  Bi  Bi11  1  0.594118  0.000411  0.749611  1
  Bi  Bi12  1  0.999589  0.593708  0.749611  1
  Bi  Bi13  1  0.594118  0.593708  0.250389  1
  Bi  Bi14  1  0.406292  0.000411  0.250389  1
  Bi  Bi15  1  0.999589  0.405882  0.250389  1
  C  C16  1  0.000000  0.000000  0.000000  1
  C  C17  1  0.000000  0.000000  0.500000  1
