# generated using pymatgen
data_Pr3Sm(GePd14)2
_symmetry_space_group_name_H-M   'P 1'
_cell_length_a   8.99434400
_cell_length_b   8.99434400
_cell_length_c   7.24417800
_cell_angle_alpha   90.00000000
_cell_angle_beta   90.00000000
_cell_angle_gamma   90.00000000
_symmetry_Int_Tables_number   1
_chemical_formula_structural   Pr3Sm(GePd14)2
_chemical_formula_sum   'Pr3 Sm1 Ge2 Pd28'
_cell_volume   586.04113447
_cell_formula_units_Z   1
loop_
 _symmetry_equiv_pos_site_id
 _symmetry_equiv_pos_as_xyz
  1  'x, y, z'
loop_
 _atom_site_type_symbol
 _atom_site_label
 _atom_site_symmetry_multiplicity
 _atom_site_fract_x
 _atom_site_fract_y
 _atom_site_fract_z
 _atom_site_occupancy
  Pr  Pr0  1  0.500000  0.000000  0.936000  1
  Pr  Pr1  1  0.000000  0.500000  0.064000  1
  Pr  Pr2  1  0.000000  0.000000  0.500000  1
  Sm  Sm3  1  0.500000  0.500000  0.500000  1
  Ge  Ge4  1  0.500000  0.000000  0.450230  1
  Ge  Ge5  1  0.000000  0.500000  0.549770  1
  Pd  Pd6  1  0.331001  0.829774  0.620871  1
  Pd  Pd7  1  0.331001  0.170226  0.620871  1
  Pd  Pd8  1  0.668999  0.829774  0.620871  1
  Pd  Pd9  1  0.668999  0.170226  0.620871  1
  Pd  Pd10  1  0.170226  0.668999  0.379129  1
  Pd  Pd11  1  0.170226  0.331001  0.379129  1
  Pd  Pd12  1  0.829774  0.668999  0.379129  1
  Pd  Pd13  1  0.829774  0.331001  0.379129  1
  Pd  Pd14  1  0.500000  0.765463  0.255766  1
  Pd  Pd15  1  0.500000  0.234537  0.255766  1
  Pd  Pd16  1  0.267685  0.000000  0.252956  1
  Pd  Pd17  1  0.732315  0.000000  0.252956  1
  Pd  Pd18  1  0.000000  0.732315  0.747044  1
  Pd  Pd19  1  0.000000  0.267685  0.747044  1
  Pd  Pd20  1  0.234537  0.500000  0.744234  1
  Pd  Pd21  1  0.765463  0.500000  0.744234  1
  Pd  Pd22  1  0.500000  0.350317  0.855413  1
  Pd  Pd23  1  0.500000  0.649683  0.855413  1
  Pd  Pd24  1  0.848961  0.000000  0.858218  1
  Pd  Pd25  1  0.151039  0.000000  0.858218  1
  Pd  Pd26  1  0.000000  0.151039  0.141782  1
  Pd  Pd27  1  0.000000  0.848961  0.141782  1
  Pd  Pd28  1  0.649683  0.500000  0.144587  1
  Pd  Pd29  1  0.350317  0.500000  0.144587  1
  Pd  Pd30  1  0.250707  0.749293  0.000000  1
  Pd  Pd31  1  0.250707  0.250707  0.000000  1
  Pd  Pd32  1  0.749293  0.749293  0.000000  1
  Pd  Pd33  1  0.749293  0.250707  0.000000  1
