# generated using pymatgen
data_Rb2AgPSe4
_symmetry_space_group_name_H-M   'P 1'
_cell_length_a   7.06124814
_cell_length_b   7.31195399
_cell_length_c   11.61543084
_cell_angle_alpha   73.05150087
_cell_angle_beta   72.38777365
_cell_angle_gamma   69.18389910
_symmetry_Int_Tables_number   1
_chemical_formula_structural   Rb2AgPSe4
_chemical_formula_sum   'Rb4 Ag2 P2 Se8'
_cell_volume   522.78196042
_cell_formula_units_Z   2
loop_
 _symmetry_equiv_pos_site_id
 _symmetry_equiv_pos_as_xyz
  1  'x, y, z'
loop_
 _atom_site_type_symbol
 _atom_site_label
 _atom_site_symmetry_multiplicity
 _atom_site_fract_x
 _atom_site_fract_y
 _atom_site_fract_z
 _atom_site_occupancy
  Rb  Rb0  1  0.755913  0.525870  0.186578  1
  Rb  Rb1  1  0.252661  0.237884  0.402070  1
  Rb  Rb2  1  0.244087  0.474130  0.813422  1
  Rb  Rb3  1  0.747339  0.762116  0.597930  1
  Ag  Ag4  1  0.638026  0.085175  0.081393  1
  Ag  Ag5  1  0.361974  0.914825  0.918607  1
  P  P6  1  0.137871  0.858863  0.233203  1
  P  P7  1  0.862129  0.141137  0.766797  1
  Se  Se8  1  0.787389  0.937538  0.280103  1
  Se  Se9  1  0.254079  0.735207  0.405066  1
  Se  Se10  1  0.272434  0.629378  0.115005  1
  Se  Se11  1  0.727566  0.370622  0.884995  1
  Se  Se12  1  0.772789  0.861095  0.873668  1
  Se  Se13  1  0.212611  0.062462  0.719897  1
  Se  Se14  1  0.745921  0.264793  0.594934  1
  Se  Se15  1  0.227211  0.138905  0.126332  1
