# generated using pymatgen
data_RbZr2(H6Ru)2
_symmetry_space_group_name_H-M   'P 1'
_cell_length_a   4.59936800
_cell_length_b   4.59936927
_cell_length_c   9.54437200
_cell_angle_alpha   90.00000000
_cell_angle_beta   90.00000000
_cell_angle_gamma   119.99999084
_symmetry_Int_Tables_number   1
_chemical_formula_structural   RbZr2(H6Ru)2
_chemical_formula_sum   'Rb1 Zr2 H12 Ru2'
_cell_volume   174.85355585
_cell_formula_units_Z   1
loop_
 _symmetry_equiv_pos_site_id
 _symmetry_equiv_pos_as_xyz
  1  'x, y, z'
loop_
 _atom_site_type_symbol
 _atom_site_label
 _atom_site_symmetry_multiplicity
 _atom_site_fract_x
 _atom_site_fract_y
 _atom_site_fract_z
 _atom_site_occupancy
  Rb  Rb0  1  0.000000  0.000000  0.000000  1
  Zr  Zr1  1  0.666667  0.333333  0.381704  1
  Zr  Zr2  1  0.333333  0.666667  0.618296  1
  H  H3  1  0.155176  0.844824  0.404843  1
  H  H4  1  0.689648  0.844824  0.404843  1
  H  H5  1  0.155176  0.310352  0.404843  1
  H  H6  1  0.844824  0.155176  0.595157  1
  H  H7  1  0.310352  0.155176  0.595157  1
  H  H8  1  0.844824  0.689648  0.595157  1
  H  H9  1  0.495685  0.991372  0.800952  1
  H  H10  1  0.495685  0.504315  0.800952  1
  H  H11  1  0.008628  0.504315  0.800952  1
  H  H12  1  0.504315  0.008628  0.199048  1
  H  H13  1  0.504315  0.495685  0.199048  1
  H  H14  1  0.991372  0.495685  0.199048  1
  Ru  Ru15  1  0.666667  0.333333  0.694735  1
  Ru  Ru16  1  0.333333  0.666667  0.305265  1
