# generated using pymatgen
data_Y3CdInAgHgAu2
_symmetry_space_group_name_H-M   'P 1'
_cell_length_a   7.91362800
_cell_length_b   7.87448542
_cell_length_c   3.88367900
_cell_angle_alpha   90.00000000
_cell_angle_beta   90.00000000
_cell_angle_gamma   120.16456137
_symmetry_Int_Tables_number   1
_chemical_formula_structural   Y3CdInAgHgAu2
_chemical_formula_sum   'Y3 Cd1 In1 Ag1 Hg1 Au2'
_cell_volume   209.24217320
_cell_formula_units_Z   1
loop_
 _symmetry_equiv_pos_site_id
 _symmetry_equiv_pos_as_xyz
  1  'x, y, z'
loop_
 _atom_site_type_symbol
 _atom_site_label
 _atom_site_symmetry_multiplicity
 _atom_site_fract_x
 _atom_site_fract_y
 _atom_site_fract_z
 _atom_site_occupancy
  Y  Y0  1  0.582671  0.997759  0.000000  1
  Y  Y1  1  0.005630  0.601486  0.000000  1
  Y  Y2  1  0.409824  0.402191  0.000000  1
  Cd  Cd3  1  0.733648  0.736912  0.500000  1
  In  In4  1  0.996670  0.261766  0.500000  1
  Ag  Ag5  1  0.995454  0.999648  0.000000  1
  Hg  Hg6  1  0.267546  0.000108  0.500000  1
  Au  Au7  1  0.334081  0.659831  0.500000  1
  Au  Au8  1  0.674477  0.340298  0.500000  1
