# generated using pymatgen
data_YbDy3Er4(B6Os)4
_symmetry_space_group_name_H-M   'P 1'
_cell_length_a   3.64074700
_cell_length_b   9.12723584
_cell_length_c   11.51574432
_cell_angle_alpha   90.07272442
_cell_angle_beta   90.00000000
_cell_angle_gamma   90.00000000
_symmetry_Int_Tables_number   1
_chemical_formula_structural   YbDy3Er4(B6Os)4
_chemical_formula_sum   'Yb1 Dy3 Er4 B24 Os4'
_cell_volume   382.66737449
_cell_formula_units_Z   1
loop_
 _symmetry_equiv_pos_site_id
 _symmetry_equiv_pos_as_xyz
  1  'x, y, z'
loop_
 _atom_site_type_symbol
 _atom_site_label
 _atom_site_symmetry_multiplicity
 _atom_site_fract_x
 _atom_site_fract_y
 _atom_site_fract_z
 _atom_site_occupancy
  Yb  Yb0  1  0.000000  0.177465  0.913839  1
  Dy  Dy1  1  0.000000  0.321114  0.414767  1
  Dy  Dy2  1  0.000000  0.678208  0.586255  1
  Dy  Dy3  1  0.000000  0.823323  0.084835  1
  Er  Er4  1  0.000000  0.943919  0.372424  1
  Er  Er5  1  0.000000  0.056918  0.629006  1
  Er  Er6  1  0.000000  0.442152  0.127472  1
  Er  Er7  1  0.000000  0.555906  0.871682  1
  B  B8  1  0.500000  0.554166  0.432521  1
  B  B9  1  0.500000  0.446466  0.566860  1
  B  B10  1  0.500000  0.054259  0.067200  1
  B  B11  1  0.500000  0.946418  0.932407  1
  B  B12  1  0.500000  0.748851  0.419036  1
  B  B13  1  0.500000  0.251767  0.581265  1
  B  B14  1  0.500000  0.248240  0.081105  1
  B  B15  1  0.500000  0.751422  0.918725  1
  B  B16  1  0.500000  0.790783  0.265922  1
  B  B17  1  0.500000  0.209733  0.734300  1
  B  B18  1  0.500000  0.290391  0.234294  1
  B  B19  1  0.500000  0.708642  0.765891  1
  B  B20  1  0.500000  0.630792  0.184900  1
  B  B21  1  0.500000  0.369099  0.814506  1
  B  B22  1  0.500000  0.130774  0.315277  1
  B  B23  1  0.500000  0.868976  0.685678  1
  B  B24  1  0.500000  0.983163  0.212786  1
  B  B25  1  0.500000  0.017068  0.787640  1
  B  B26  1  0.500000  0.482835  0.286943  1
  B  B27  1  0.500000  0.516984  0.712312  1
  B  B28  1  0.500000  0.603859  0.028618  1
  B  B29  1  0.500000  0.396985  0.971437  1
  B  B30  1  0.500000  0.105224  0.471318  1
  B  B31  1  0.500000  0.894627  0.529290  1
  Os  Os32  1  0.000000  0.637592  0.320633  1
  Os  Os33  1  0.000000  0.363148  0.678274  1
  Os  Os34  1  0.000000  0.137838  0.180081  1
  Os  Os35  1  0.000000  0.860891  0.820501  1
