# generated using pymatgen
data_HoTh2In3RuRh2
_symmetry_space_group_name_H-M   'P 1'
_cell_length_a   7.49199133
_cell_length_b   7.74240848
_cell_length_c   3.95625900
_cell_angle_alpha   90.00000000
_cell_angle_beta   90.00000000
_cell_angle_gamma   119.07072082
_symmetry_Int_Tables_number   1
_chemical_formula_structural   HoTh2In3RuRh2
_chemical_formula_sum   'Ho1 Th2 In3 Ru1 Rh2'
_cell_volume   200.57636135
_cell_formula_units_Z   1
loop_
 _symmetry_equiv_pos_site_id
 _symmetry_equiv_pos_as_xyz
  1  'x, y, z'
loop_
 _atom_site_type_symbol
 _atom_site_label
 _atom_site_symmetry_multiplicity
 _atom_site_fract_x
 _atom_site_fract_y
 _atom_site_fract_z
 _atom_site_occupancy
  Ho  Ho0  1  0.404231  0.996494  0.500000  1
  Th  Th1  1  0.006906  0.419343  0.500000  1
  Th  Th2  1  0.582550  0.587080  0.500000  1
  In  In3  1  0.252922  0.238738  0.000000  1
  In  In4  1  0.014347  0.761939  0.000000  1
  In  In5  1  0.732459  0.000168  0.000000  1
  Ru  Ru6  1  0.330544  0.642771  0.000000  1
  Rh  Rh7  1  0.990342  0.999824  0.500000  1
  Rh  Rh8  1  0.685698  0.353642  0.000000  1
