# generated using pymatgen
data_Rb12Na3Li5(SiP3)4
_symmetry_space_group_name_H-M   'P 1'
_cell_length_a   10.17045784
_cell_length_b   10.17045778
_cell_length_c   15.47577904
_cell_angle_alpha   90.04008196
_cell_angle_beta   90.04008270
_cell_angle_gamma   143.67573298
_symmetry_Int_Tables_number   1
_chemical_formula_structural   Rb12Na3Li5(SiP3)4
_chemical_formula_sum   'Rb12 Na3 Li5 Si4 P12'
_cell_volume   948.23089275
_cell_formula_units_Z   1
loop_
 _symmetry_equiv_pos_site_id
 _symmetry_equiv_pos_as_xyz
  1  'x, y, z'
loop_
 _atom_site_type_symbol
 _atom_site_label
 _atom_site_symmetry_multiplicity
 _atom_site_fract_x
 _atom_site_fract_y
 _atom_site_fract_z
 _atom_site_occupancy
  Rb  Rb0  1  0.942888  0.612280  0.830770  1
  Rb  Rb1  1  0.559156  0.885131  0.329255  1
  Rb  Rb2  1  0.387720  0.057112  0.169230  1
  Rb  Rb3  1  0.054328  0.386180  0.165615  1
  Rb  Rb4  1  0.885774  0.558840  0.329976  1
  Rb  Rb5  1  0.441160  0.114226  0.670024  1
  Rb  Rb6  1  0.613820  0.945672  0.834385  1
  Rb  Rb7  1  0.276703  0.277325  0.319416  1
  Rb  Rb8  1  0.778252  0.775350  0.176394  1
  Rb  Rb9  1  0.224650  0.221748  0.823606  1
  Rb  Rb10  1  0.722675  0.723297  0.680584  1
  Rb  Rb11  1  0.114869  0.440844  0.670745  1
  Na  Na12  1  0.744054  0.255946  0.500000  1
  Na  Na13  1  0.244700  0.755300  0.000000  1
  Na  Na14  1  0.256072  0.743928  0.500000  1
  Li  Li15  1  0.921852  0.078148  0.000000  1
  Li  Li16  1  0.575369  0.424631  0.500000  1
  Li  Li17  1  0.076989  0.923011  0.000000  1
  Li  Li18  1  0.424525  0.575475  0.500000  1
  Li  Li19  1  0.748426  0.251574  0.000000  1
  Si  Si20  1  0.583968  0.416032  0.000000  1
  Si  Si21  1  0.916937  0.083063  0.500000  1
  Si  Si22  1  0.415766  0.584234  0.000000  1
  Si  Si23  1  0.082955  0.917045  0.500000  1
  P  P24  1  0.861370  0.555861  0.084636  1
  P  P25  1  0.444139  0.138630  0.915364  1
  P  P26  1  0.637065  0.933327  0.587305  1
  P  P27  1  0.933295  0.637189  0.587400  1
  P  P28  1  0.127102  0.426978  0.915760  1
  P  P29  1  0.573022  0.872898  0.084240  1
  P  P30  1  0.362811  0.066705  0.412600  1
  P  P31  1  0.201026  0.200960  0.575682  1
  P  P32  1  0.699851  0.699003  0.925098  1
  P  P33  1  0.300997  0.300149  0.074902  1
  P  P34  1  0.066673  0.362935  0.412695  1
  P  P35  1  0.799040  0.798974  0.424318  1
