# generated using pymatgen
data_Sc4Be2B6MoRu9
_symmetry_space_group_name_H-M   'P 1'
_cell_length_a   3.05265100
_cell_length_b   8.56972881
_cell_length_c   10.12782088
_cell_angle_alpha   90.45737490
_cell_angle_beta   90.00000000
_cell_angle_gamma   90.00000000
_symmetry_Int_Tables_number   1
_chemical_formula_structural   Sc4Be2B6MoRu9
_chemical_formula_sum   'Sc4 Be2 B6 Mo1 Ru9'
_cell_volume   264.93931480
_cell_formula_units_Z   1
loop_
 _symmetry_equiv_pos_site_id
 _symmetry_equiv_pos_as_xyz
  1  'x, y, z'
loop_
 _atom_site_type_symbol
 _atom_site_label
 _atom_site_symmetry_multiplicity
 _atom_site_fract_x
 _atom_site_fract_y
 _atom_site_fract_z
 _atom_site_occupancy
  Sc  Sc0  1  0.500000  0.843833  0.181742  1
  Sc  Sc1  1  0.500000  0.158132  0.816948  1
  Sc  Sc2  1  0.500000  0.657939  0.681700  1
  Sc  Sc3  1  0.500000  0.344350  0.318909  1
  Be  Be4  1  0.500000  0.962360  0.592936  1
  Be  Be5  1  0.500000  0.037474  0.405596  1
  B  B6  1  0.500000  0.852066  0.898311  1
  B  B7  1  0.500000  0.148304  0.101103  1
  B  B8  1  0.500000  0.652269  0.402605  1
  B  B9  1  0.500000  0.345755  0.597981  1
  B  B10  1  0.500000  0.461160  0.911813  1
  B  B11  1  0.500000  0.531908  0.090578  1
  Mo  Mo12  1  0.000000  0.658032  0.956110  1
  Ru  Ru13  1  0.000000  0.338949  0.045446  1
  Ru  Ru14  1  0.000000  0.832912  0.448524  1
  Ru  Ru15  1  0.000000  0.167464  0.550480  1
  Ru  Ru16  1  0.000000  0.002626  0.999593  1
  Ru  Ru17  1  0.000000  0.405672  0.761014  1
  Ru  Ru18  1  0.000000  0.594916  0.239168  1
  Ru  Ru19  1  0.000000  0.500042  0.500589  1
  Ru  Ru20  1  0.000000  0.899808  0.746329  1
  Ru  Ru21  1  0.000000  0.104029  0.252526  1
