# generated using pymatgen
data_Ho2TmCo4P6Ru5
_symmetry_space_group_name_H-M   'P 1'
_cell_length_a   3.84587400
_cell_length_b   10.64998500
_cell_length_c   12.53721700
_cell_angle_alpha   90.00000000
_cell_angle_beta   90.00000000
_cell_angle_gamma   90.00000000
_symmetry_Int_Tables_number   1
_chemical_formula_structural   Ho2TmCo4P6Ru5
_chemical_formula_sum   'Ho4 Tm2 Co8 P12 Ru10'
_cell_volume   513.50560766
_cell_formula_units_Z   2
loop_
 _symmetry_equiv_pos_site_id
 _symmetry_equiv_pos_as_xyz
  1  'x, y, z'
loop_
 _atom_site_type_symbol
 _atom_site_label
 _atom_site_symmetry_multiplicity
 _atom_site_fract_x
 _atom_site_fract_y
 _atom_site_fract_z
 _atom_site_occupancy
  Ho  Ho0  1  0.000000  0.500000  0.527199  1
  Ho  Ho1  1  0.500000  0.000000  0.472517  1
  Ho  Ho2  1  0.000000  0.678405  0.799344  1
  Ho  Ho3  1  0.000000  0.321595  0.799344  1
  Tm  Tm4  1  0.500000  0.821770  0.200689  1
  Tm  Tm5  1  0.500000  0.178230  0.200689  1
  Co  Co6  1  0.000000  0.500000  0.983989  1
  Co  Co7  1  0.500000  0.000000  0.016716  1
  Co  Co8  1  0.500000  0.332204  0.989135  1
  Co  Co9  1  0.500000  0.667796  0.989135  1
  Co  Co10  1  0.000000  0.167443  0.011595  1
  Co  Co11  1  0.000000  0.832557  0.011595  1
  Co  Co12  1  0.500000  0.500000  0.702648  1
  Co  Co13  1  0.000000  0.000000  0.296837  1
  P  P14  1  0.500000  0.314895  0.618062  1
  P  P15  1  0.500000  0.685105  0.618062  1
  P  P16  1  0.000000  0.184948  0.381429  1
  P  P17  1  0.000000  0.815052  0.381429  1
  P  P18  1  0.500000  0.500000  0.881186  1
  P  P19  1  0.000000  0.000000  0.119464  1
  P  P20  1  0.500000  0.846138  0.900912  1
  P  P21  1  0.500000  0.153862  0.900912  1
  P  P22  1  0.000000  0.654451  0.099343  1
  P  P23  1  0.000000  0.345549  0.099343  1
  P  P24  1  0.500000  0.500000  0.336664  1
  P  P25  1  0.000000  0.000000  0.663316  1
  Ru  Ru26  1  0.500000  0.297899  0.427304  1
  Ru  Ru27  1  0.500000  0.702101  0.427304  1
  Ru  Ru28  1  0.000000  0.201884  0.572207  1
  Ru  Ru29  1  0.000000  0.798116  0.572207  1
  Ru  Ru30  1  0.500000  0.874752  0.719128  1
  Ru  Ru31  1  0.500000  0.125248  0.719128  1
  Ru  Ru32  1  0.000000  0.625798  0.280533  1
  Ru  Ru33  1  0.000000  0.374202  0.280533  1
  Ru  Ru34  1  0.500000  0.500000  0.146407  1
  Ru  Ru35  1  0.000000  0.000000  0.853694  1
