# generated using pymatgen
data_GdU5F24
_symmetry_space_group_name_H-M   'P 1'
_cell_length_a   8.39536003
_cell_length_b   8.39536097
_cell_length_c   8.44040000
_cell_angle_alpha   63.02321459
_cell_angle_beta   63.02321132
_cell_angle_gamma   80.02584211
_symmetry_Int_Tables_number   1
_chemical_formula_structural   GdU5F24
_chemical_formula_sum   'Gd1 U5 F24'
_cell_volume   472.08162098
_cell_formula_units_Z   1
loop_
 _symmetry_equiv_pos_site_id
 _symmetry_equiv_pos_as_xyz
  1  'x, y, z'
loop_
 _atom_site_type_symbol
 _atom_site_label
 _atom_site_symmetry_multiplicity
 _atom_site_fract_x
 _atom_site_fract_y
 _atom_site_fract_z
 _atom_site_occupancy
  Gd  Gd0  1  0.211429  0.788571  0.750000  1
  U  U1  1  0.222450  0.366864  0.329589  1
  U  U2  1  0.633136  0.777550  0.170411  1
  U  U3  1  0.773836  0.633860  0.672036  1
  U  U4  1  0.366140  0.226164  0.827964  1
  U  U5  1  0.787323  0.212677  0.250000  1
  F  F6  1  0.725681  0.029763  0.154192  1
  F  F7  1  0.970237  0.274319  0.345808  1
  F  F8  1  0.277788  0.978775  0.847794  1
  F  F9  1  0.021225  0.722212  0.652206  1
  F  F10  1  0.503115  0.257769  0.287492  1
  F  F11  1  0.742231  0.496885  0.212508  1
  F  F12  1  0.506917  0.003221  0.995467  1
  F  F13  1  0.996779  0.493083  0.504533  1
  F  F14  1  0.400421  0.599579  0.250000  1
  F  F15  1  0.603886  0.396114  0.750000  1
  F  F16  1  0.808873  0.398873  0.929455  1
  F  F17  1  0.601127  0.191127  0.570545  1
  F  F18  1  0.188396  0.594109  0.081456  1
  F  F19  1  0.405891  0.811604  0.418544  1
  F  F20  1  0.065709  0.174706  0.046218  1
  F  F21  1  0.825294  0.934291  0.453782  1
  F  F22  1  0.922469  0.826390  0.961400  1
  F  F23  1  0.173610  0.077531  0.538600  1
  F  F24  1  0.676054  0.736774  0.897551  1
  F  F25  1  0.263226  0.323946  0.602449  1
  F  F26  1  0.321916  0.257807  0.106599  1
  F  F27  1  0.742193  0.678084  0.393401  1
  F  F28  1  0.258832  0.496187  0.791784  1
  F  F29  1  0.503813  0.741168  0.708216  1
