# generated using pymatgen
data_Dy3Th3Si4
_symmetry_space_group_name_H-M   'P 1'
_cell_length_a   7.62583925
_cell_length_b   7.62583887
_cell_length_c   4.24237500
_cell_angle_alpha   90.00000000
_cell_angle_beta   90.00000000
_cell_angle_gamma   90.61802349
_symmetry_Int_Tables_number   1
_chemical_formula_structural   Dy3Th3Si4
_chemical_formula_sum   'Dy3 Th3 Si4'
_cell_volume   246.69426893
_cell_formula_units_Z   1
loop_
 _symmetry_equiv_pos_site_id
 _symmetry_equiv_pos_as_xyz
  1  'x, y, z'
loop_
 _atom_site_type_symbol
 _atom_site_label
 _atom_site_symmetry_multiplicity
 _atom_site_fract_x
 _atom_site_fract_y
 _atom_site_fract_z
 _atom_site_occupancy
  Dy  Dy0  1  0.500581  0.001496  0.000000  1
  Dy  Dy1  1  0.001496  0.500581  0.000000  1
  Dy  Dy2  1  0.676420  0.676420  0.500000  1
  Th  Th3  1  0.322453  0.322453  0.500000  1
  Th  Th4  1  0.178497  0.819733  0.500000  1
  Th  Th5  1  0.819733  0.178497  0.500000  1
  Si  Si6  1  0.116061  0.116061  0.000000  1
  Si  Si7  1  0.880874  0.880874  0.000000  1
  Si  Si8  1  0.617554  0.386331  0.000000  1
  Si  Si9  1  0.386331  0.617554  0.000000  1
