# generated using pymatgen
data_Dy4InPd9Pt2
_symmetry_space_group_name_H-M   'P 1'
_cell_length_a   4.21109400
_cell_length_b   5.88288860
_cell_length_c   11.70469100
_cell_angle_alpha   86.97880315
_cell_angle_beta   90.00000000
_cell_angle_gamma   90.00000000
_symmetry_Int_Tables_number   1
_chemical_formula_structural   Dy4InPd9Pt2
_chemical_formula_sum   'Dy4 In1 Pd9 Pt2'
_cell_volume   289.56193460
_cell_formula_units_Z   1
loop_
 _symmetry_equiv_pos_site_id
 _symmetry_equiv_pos_as_xyz
  1  'x, y, z'
loop_
 _atom_site_type_symbol
 _atom_site_label
 _atom_site_symmetry_multiplicity
 _atom_site_fract_x
 _atom_site_fract_y
 _atom_site_fract_z
 _atom_site_occupancy
  Dy  Dy0  1  0.500000  0.758749  0.377209  1
  Dy  Dy1  1  0.500000  0.709806  0.860211  1
  Dy  Dy2  1  0.500000  0.289838  0.139976  1
  Dy  Dy3  1  0.500000  0.241450  0.623209  1
  In  In4  1  0.000000  0.000321  0.999652  1
  Pd  Pd5  1  0.000000  0.018220  0.250004  1
  Pd  Pd6  1  0.000000  0.980544  0.749598  1
  Pd  Pd7  1  0.000000  0.501045  0.500235  1
  Pd  Pd8  1  0.000000  0.523232  0.250365  1
  Pd  Pd9  1  0.000000  0.477155  0.749617  1
  Pd  Pd10  1  0.500000  0.257933  0.377914  1
  Pd  Pd11  1  0.500000  0.219660  0.882463  1
  Pd  Pd12  1  0.500000  0.780393  0.117377  1
  Pd  Pd13  1  0.000000  0.999403  0.500109  1
  Pt  Pt14  1  0.000000  0.499731  0.000369  1
  Pt  Pt15  1  0.500000  0.742519  0.621692  1
