# generated using pymatgen
data_YbDy6CoBr12
_symmetry_space_group_name_H-M   'P 1'
_cell_length_a   9.20554813
_cell_length_b   9.20554769
_cell_length_c   9.20554862
_cell_angle_alpha   106.98912417
_cell_angle_beta   106.98911818
_cell_angle_gamma   106.98912005
_symmetry_Int_Tables_number   1
_chemical_formula_structural   YbDy6CoBr12
_chemical_formula_sum   'Yb1 Dy6 Co1 Br12'
_cell_volume   649.86548639
_cell_formula_units_Z   1
loop_
 _symmetry_equiv_pos_site_id
 _symmetry_equiv_pos_as_xyz
  1  'x, y, z'
loop_
 _atom_site_type_symbol
 _atom_site_label
 _atom_site_symmetry_multiplicity
 _atom_site_fract_x
 _atom_site_fract_y
 _atom_site_fract_z
 _atom_site_occupancy
  Yb  Yb0  1  0.500000  0.500000  0.500000  1
  Dy  Dy1  1  0.977695  0.901334  0.695596  1
  Dy  Dy2  1  0.022305  0.098666  0.304404  1
  Dy  Dy3  1  0.098666  0.304404  0.022305  1
  Dy  Dy4  1  0.304404  0.022305  0.098666  1
  Dy  Dy5  1  0.901334  0.695596  0.977695  1
  Dy  Dy6  1  0.695596  0.977695  0.901334  1
  Co  Co7  1  0.000000  0.000000  0.000000  1
  Br  Br8  1  0.546759  0.624433  0.843391  1
  Br  Br9  1  0.453241  0.375567  0.156609  1
  Br  Br10  1  0.320648  0.928303  0.778717  1
  Br  Br11  1  0.375567  0.156609  0.453241  1
  Br  Br12  1  0.928303  0.778717  0.320648  1
  Br  Br13  1  0.679352  0.071697  0.221283  1
  Br  Br14  1  0.071697  0.221283  0.679352  1
  Br  Br15  1  0.778717  0.320648  0.928303  1
  Br  Br16  1  0.221283  0.679352  0.071697  1
  Br  Br17  1  0.843391  0.546759  0.624433  1
  Br  Br18  1  0.156609  0.453241  0.375567  1
  Br  Br19  1  0.624433  0.843391  0.546759  1
