# generated using pymatgen
data_Er10Sn6Cl
_symmetry_space_group_name_H-M   'P 1'
_cell_length_a   6.47516705
_cell_length_b   8.94925457
_cell_length_c   8.94899903
_cell_angle_alpha   120.00217396
_cell_angle_beta   89.99746951
_cell_angle_gamma   90.00299605
_symmetry_Int_Tables_number   1
_chemical_formula_structural   Er10Sn6Cl
_chemical_formula_sum   'Er10 Sn6 Cl1'
_cell_volume   449.09003330
_cell_formula_units_Z   1
loop_
 _symmetry_equiv_pos_site_id
 _symmetry_equiv_pos_as_xyz
  1  'x, y, z'
loop_
 _atom_site_type_symbol
 _atom_site_label
 _atom_site_symmetry_multiplicity
 _atom_site_fract_x
 _atom_site_fract_y
 _atom_site_fract_z
 _atom_site_occupancy
  Er  Er0  1  0.500031  0.333318  0.666658  1
  Er  Er1  1  0.499999  0.666720  0.333352  1
  Er  Er2  1  0.000039  0.666665  0.333397  1
  Er  Er3  1  0.000018  0.333389  0.666673  1
  Er  Er4  1  0.762997  0.249891  0.000007  1
  Er  Er5  1  0.762947  0.750001  0.750088  1
  Er  Er6  1  0.762948  0.999978  0.249967  1
  Er  Er7  1  0.237349  0.750008  0.000017  1
  Er  Er8  1  0.237299  0.250030  0.250013  1
  Er  Er9  1  0.237301  0.000003  0.750038  1
  Sn  Sn10  1  0.750236  0.607463  0.000125  1
  Sn  Sn11  1  0.750265  0.392430  0.392369  1
  Sn  Sn12  1  0.750309  0.000095  0.607522  1
  Sn  Sn13  1  0.249175  0.392467  0.000030  1
  Sn  Sn14  1  0.249491  0.607556  0.607445  1
  Sn  Sn15  1  0.249273  0.000183  0.392474  1
  Cl  Cl16  1  0.500326  0.999808  0.999825  1
