# generated using pymatgen
data_Tb11Nd5Cd4NiRu3
_symmetry_space_group_name_H-M   'P 1'
_cell_length_a   9.70319881
_cell_length_b   9.77161379
_cell_length_c   9.77161355
_cell_angle_alpha   59.66344286
_cell_angle_beta   59.50360031
_cell_angle_gamma   59.50359898
_symmetry_Int_Tables_number   1
_chemical_formula_structural   Tb11Nd5Cd4NiRu3
_chemical_formula_sum   'Tb11 Nd5 Cd4 Ni1 Ru3'
_cell_volume   648.53414925
_cell_formula_units_Z   1
loop_
 _symmetry_equiv_pos_site_id
 _symmetry_equiv_pos_as_xyz
  1  'x, y, z'
loop_
 _atom_site_type_symbol
 _atom_site_label
 _atom_site_symmetry_multiplicity
 _atom_site_fract_x
 _atom_site_fract_y
 _atom_site_fract_z
 _atom_site_occupancy
  Tb  Tb0  1  0.598333  0.595748  0.595748  1
  Tb  Tb1  1  0.598237  0.596407  0.212225  1
  Tb  Tb2  1  0.598237  0.212225  0.596407  1
  Tb  Tb3  1  0.211373  0.596850  0.596850  1
  Tb  Tb4  1  0.061869  0.437221  0.437221  1
  Tb  Tb5  1  0.435028  0.062857  0.062857  1
  Tb  Tb6  1  0.436744  0.061012  0.438989  1
  Tb  Tb7  1  0.062463  0.439125  0.060952  1
  Tb  Tb8  1  0.436744  0.438989  0.061012  1
  Tb  Tb9  1  0.062463  0.060952  0.439125  1
  Tb  Tb10  1  0.190552  0.808319  0.808319  1
  Nd  Nd11  1  0.806892  0.190017  0.190017  1
  Nd  Nd12  1  0.808641  0.186412  0.815239  1
  Nd  Nd13  1  0.191149  0.808046  0.190382  1
  Nd  Nd14  1  0.808641  0.815239  0.186412  1
  Nd  Nd15  1  0.191149  0.190382  0.808046  1
  Cd  Cd16  1  0.830562  0.829029  0.829029  1
  Cd  Cd17  1  0.828470  0.829535  0.511695  1
  Cd  Cd18  1  0.828470  0.511695  0.829535  1
  Cd  Cd19  1  0.510190  0.828757  0.828757  1
  Ni  Ni20  1  0.828239  0.391034  0.391034  1
  Ru  Ru21  1  0.392281  0.388866  0.388866  1
  Ru  Ru22  1  0.391637  0.391554  0.829727  1
  Ru  Ru23  1  0.391637  0.829727  0.391554  1
