# generated using pymatgen
data_Ac8Si15Rh
_symmetry_space_group_name_H-M   'P 1'
_cell_length_a   8.39143400
_cell_length_b   8.39143435
_cell_length_c   9.22888900
_cell_angle_alpha   90.00000000
_cell_angle_beta   90.00000000
_cell_angle_gamma   119.99999073
_symmetry_Int_Tables_number   1
_chemical_formula_structural   Ac8Si15Rh
_chemical_formula_sum   'Ac8 Si15 Rh1'
_cell_volume   562.79791416
_cell_formula_units_Z   1
loop_
 _symmetry_equiv_pos_site_id
 _symmetry_equiv_pos_as_xyz
  1  'x, y, z'
loop_
 _atom_site_type_symbol
 _atom_site_label
 _atom_site_symmetry_multiplicity
 _atom_site_fract_x
 _atom_site_fract_y
 _atom_site_fract_z
 _atom_site_occupancy
  Ac  Ac0  1  0.000000  0.000000  0.749207  1
  Ac  Ac1  1  0.000000  0.000000  0.250828  1
  Ac  Ac2  1  0.499337  0.500663  0.748611  1
  Ac  Ac3  1  0.499337  0.998676  0.748611  1
  Ac  Ac4  1  0.001324  0.500663  0.748611  1
  Ac  Ac5  1  0.499553  0.500447  0.251333  1
  Ac  Ac6  1  0.000895  0.500447  0.251333  1
  Ac  Ac7  1  0.499553  0.999105  0.251333  1
  Si  Si8  1  0.666667  0.333333  0.999688  1
  Si  Si9  1  0.666667  0.333333  0.500435  1
  Si  Si10  1  0.333333  0.666667  0.499585  1
  Si  Si11  1  0.837210  0.162790  0.999930  1
  Si  Si12  1  0.837210  0.674421  0.999930  1
  Si  Si13  1  0.325579  0.162790  0.999930  1
  Si  Si14  1  0.832426  0.167574  0.500010  1
  Si  Si15  1  0.832426  0.664851  0.500010  1
  Si  Si16  1  0.335149  0.167574  0.500010  1
  Si  Si17  1  0.165075  0.834925  0.499972  1
  Si  Si18  1  0.669849  0.834925  0.499972  1
  Si  Si19  1  0.165075  0.330151  0.499972  1
  Si  Si20  1  0.170490  0.829510  0.000134  1
  Si  Si21  1  0.659022  0.829510  0.000134  1
  Si  Si22  1  0.170490  0.340978  0.000134  1
  Rh  Rh23  1  0.333333  0.666667  0.000280  1
