# generated using pymatgen
data_La5Tb5(Pb3Cl)2
_symmetry_space_group_name_H-M   'P 1'
_cell_length_a   9.39077700
_cell_length_b   9.38898858
_cell_length_c   6.74103600
_cell_angle_alpha   90.00000000
_cell_angle_beta   90.00000000
_cell_angle_gamma   120.00630477
_symmetry_Int_Tables_number   1
_chemical_formula_structural   La5Tb5(Pb3Cl)2
_chemical_formula_sum   'La5 Tb5 Pb6 Cl2'
_cell_volume   514.69508605
_cell_formula_units_Z   1
loop_
 _symmetry_equiv_pos_site_id
 _symmetry_equiv_pos_as_xyz
  1  'x, y, z'
loop_
 _atom_site_type_symbol
 _atom_site_label
 _atom_site_symmetry_multiplicity
 _atom_site_fract_x
 _atom_site_fract_y
 _atom_site_fract_z
 _atom_site_occupancy
  La  La0  1  0.742030  0.000000  0.750000  1
  La  La1  1  0.999001  0.259976  0.250000  1
  La  La2  1  0.000653  0.741796  0.750000  1
  La  La3  1  0.739025  0.740024  0.250000  1
  La  La4  1  0.258857  0.258204  0.750000  1
  Tb  Tb5  1  0.259224  0.000000  0.250000  1
  Tb  Tb6  1  0.333225  0.667462  0.000784  1
  Tb  Tb7  1  0.665765  0.332538  0.000784  1
  Tb  Tb8  1  0.665765  0.332538  0.499216  1
  Tb  Tb9  1  0.333225  0.667462  0.499216  1
  Pb  Pb10  1  0.602312  0.000000  0.250000  1
  Pb  Pb11  1  0.392460  0.000000  0.750000  1
  Pb  Pb12  1  0.004125  0.613332  0.250000  1
  Pb  Pb13  1  0.000079  0.392604  0.750000  1
  Pb  Pb14  1  0.390793  0.386668  0.250000  1
  Pb  Pb15  1  0.607476  0.607396  0.750000  1
  Cl  Cl16  1  0.002993  0.000000  0.003867  1
  Cl  Cl17  1  0.002993  0.000000  0.496133  1
