# generated using pymatgen
data_La10Pr6Cd4Co3Ir
_symmetry_space_group_name_H-M   'P 1'
_cell_length_a   10.00290509
_cell_length_b   9.95475455
_cell_length_c   9.95797344
_cell_angle_alpha   59.96502545
_cell_angle_beta   60.11782160
_cell_angle_gamma   60.10559378
_symmetry_Int_Tables_number   1
_chemical_formula_structural   La10Pr6Cd4Co3Ir
_chemical_formula_sum   'La10 Pr6 Cd4 Co3 Ir1'
_cell_volume   702.14786494
_cell_formula_units_Z   1
loop_
 _symmetry_equiv_pos_site_id
 _symmetry_equiv_pos_as_xyz
  1  'x, y, z'
loop_
 _atom_site_type_symbol
 _atom_site_label
 _atom_site_symmetry_multiplicity
 _atom_site_fract_x
 _atom_site_fract_y
 _atom_site_fract_z
 _atom_site_occupancy
  La  La0  1  0.339851  0.348221  0.348367  1
  La  La1  1  0.339807  0.348195  0.963564  1
  La  La2  1  0.339747  0.963591  0.348280  1
  La  La3  1  0.965535  0.344686  0.344844  1
  La  La4  1  0.816786  0.189559  0.189454  1
  La  La5  1  0.191044  0.810440  0.810265  1
  La  La6  1  0.191012  0.810534  0.188220  1
  La  La7  1  0.816709  0.189583  0.804246  1
  La  La8  1  0.190962  0.188260  0.810429  1
  La  La9  1  0.816614  0.804334  0.189521  1
  Pr  Pr10  1  0.935626  0.563909  0.563957  1
  Pr  Pr11  1  0.564287  0.937707  0.937707  1
  Pr  Pr12  1  0.564360  0.937670  0.560287  1
  Pr  Pr13  1  0.935644  0.563856  0.936534  1
  Pr  Pr14  1  0.564359  0.560282  0.937686  1
  Pr  Pr15  1  0.935655  0.936532  0.563876  1
  Cd  Cd16  1  0.579782  0.579253  0.579256  1
  Cd  Cd17  1  0.579785  0.579245  0.261723  1
  Cd  Cd18  1  0.579813  0.261699  0.579245  1
  Cd  Cd19  1  0.260431  0.579872  0.579851  1
  Co  Co20  1  0.137854  0.140903  0.140966  1
  Co  Co21  1  0.137805  0.140911  0.580339  1
  Co  Co22  1  0.137715  0.580388  0.140967  1
  Ir  Ir23  1  0.578821  0.140368  0.140417  1
