# generated using pymatgen
data_ErTlBi2(Ir2O7)2
_symmetry_space_group_name_H-M   'P 1'
_cell_length_a   7.27354758
_cell_length_b   7.35126032
_cell_length_c   7.35125986
_cell_angle_alpha   60.12793967
_cell_angle_beta   59.78667823
_cell_angle_gamma   59.78668158
_symmetry_Int_Tables_number   1
_chemical_formula_structural   ErTlBi2(Ir2O7)2
_chemical_formula_sum   'Er1 Tl1 Bi2 Ir4 O14'
_cell_volume   277.30801733
_cell_formula_units_Z   1
loop_
 _symmetry_equiv_pos_site_id
 _symmetry_equiv_pos_as_xyz
  1  'x, y, z'
loop_
 _atom_site_type_symbol
 _atom_site_label
 _atom_site_symmetry_multiplicity
 _atom_site_fract_x
 _atom_site_fract_y
 _atom_site_fract_z
 _atom_site_occupancy
  Er  Er0  1  0.125000  0.125000  0.125000  1
  Tl  Tl1  1  0.625000  0.125000  0.125000  1
  Bi  Bi2  1  0.125000  0.625000  0.125000  1
  Bi  Bi3  1  0.125000  0.125000  0.625000  1
  Ir  Ir4  1  0.125000  0.625000  0.625000  1
  Ir  Ir5  1  0.625000  0.125000  0.625000  1
  Ir  Ir6  1  0.625000  0.625000  0.125000  1
  Ir  Ir7  1  0.625000  0.625000  0.625000  1
  O  O8  1  0.704335  0.706616  0.294213  1
  O  O9  1  0.289601  0.290685  0.716302  1
  O  O10  1  0.704335  0.294213  0.706616  1
  O  O11  1  0.289601  0.716302  0.290685  1
  O  O12  1  0.292765  0.705696  0.705696  1
  O  O13  1  0.708944  0.295072  0.295072  1
  O  O14  1  0.545665  0.543384  0.955787  1
  O  O15  1  0.960399  0.959315  0.533698  1
  O  O16  1  0.545665  0.955787  0.543384  1
  O  O17  1  0.960399  0.533698  0.959315  1
  O  O18  1  0.957235  0.544304  0.544304  1
  O  O19  1  0.541056  0.954928  0.954928  1
  O  O20  1  0.239634  0.248375  0.248375  1
  O  O21  1  0.010366  0.001625  0.001625  1
