# generated using pymatgen
data_Pr5Te2Br3O10
_symmetry_space_group_name_H-M   'P 1'
_cell_length_a   5.74484900
_cell_length_b   7.02055343
_cell_length_c   10.59599400
_cell_angle_alpha   91.02249929
_cell_angle_beta   90.00000000
_cell_angle_gamma   114.15113339
_symmetry_Int_Tables_number   1
_chemical_formula_structural   Pr5Te2Br3O10
_chemical_formula_sum   'Pr5 Te2 Br3 O10'
_cell_volume   389.87636796
_cell_formula_units_Z   1
loop_
 _symmetry_equiv_pos_site_id
 _symmetry_equiv_pos_as_xyz
  1  'x, y, z'
loop_
 _atom_site_type_symbol
 _atom_site_label
 _atom_site_symmetry_multiplicity
 _atom_site_fract_x
 _atom_site_fract_y
 _atom_site_fract_z
 _atom_site_occupancy
  Pr  Pr0  1  0.000000  0.000000  0.000000  1
  Pr  Pr1  1  0.292446  0.584890  0.101943  1
  Pr  Pr2  1  0.602977  0.205955  0.226180  1
  Pr  Pr3  1  0.397022  0.794044  0.773819  1
  Pr  Pr4  1  0.707554  0.415111  0.898057  1
  Te  Te5  1  0.918000  0.835999  0.319905  1
  Te  Te6  1  0.082000  0.164002  0.680096  1
  Br  Br7  1  0.168028  0.336058  0.358709  1
  Br  Br8  1  0.500000  0.000001  0.500000  1
  Br  Br9  1  0.831971  0.663941  0.641291  1
  O  O10  1  0.399811  0.292587  0.057433  1
  O  O11  1  0.892775  0.292587  0.057433  1
  O  O12  1  0.190236  0.898580  0.199271  1
  O  O13  1  0.708344  0.898580  0.199271  1
  O  O14  1  0.777248  0.554494  0.274480  1
  O  O15  1  0.222752  0.445507  0.725520  1
  O  O16  1  0.291658  0.101421  0.800729  1
  O  O17  1  0.809764  0.101421  0.800729  1
  O  O18  1  0.107226  0.707413  0.942567  1
  O  O19  1  0.600188  0.707413  0.942567  1
