# generated using pymatgen
data_Tm3Lu5B24(OsW)2
_symmetry_space_group_name_H-M   'P 1'
_cell_length_a   3.57993200
_cell_length_b   9.12267643
_cell_length_c   11.51011200
_cell_angle_alpha   89.83315594
_cell_angle_beta   90.00000000
_cell_angle_gamma   90.00000000
_symmetry_Int_Tables_number   1
_chemical_formula_structural   Tm3Lu5B24(OsW)2
_chemical_formula_sum   'Tm3 Lu5 B24 Os2 W2'
_cell_volume   375.90210435
_cell_formula_units_Z   1
loop_
 _symmetry_equiv_pos_site_id
 _symmetry_equiv_pos_as_xyz
  1  'x, y, z'
loop_
 _atom_site_type_symbol
 _atom_site_label
 _atom_site_symmetry_multiplicity
 _atom_site_fract_x
 _atom_site_fract_y
 _atom_site_fract_z
 _atom_site_occupancy
  Tm  Tm0  1  0.000000  0.321328  0.414011  1
  Tm  Tm1  1  0.000000  0.678601  0.586110  1
  Tm  Tm2  1  0.000000  0.820831  0.086250  1
  Lu  Lu3  1  0.000000  0.179389  0.913635  1
  Lu  Lu4  1  0.000000  0.945207  0.371582  1
  Lu  Lu5  1  0.000000  0.055045  0.628495  1
  Lu  Lu6  1  0.000000  0.442393  0.127068  1
  Lu  Lu7  1  0.000000  0.557291  0.872754  1
  B  B8  1  0.500000  0.551205  0.434644  1
  B  B9  1  0.500000  0.448638  0.565515  1
  B  B10  1  0.500000  0.054081  0.065997  1
  B  B11  1  0.500000  0.946287  0.933774  1
  B  B12  1  0.500000  0.752436  0.421868  1
  B  B13  1  0.500000  0.247692  0.578281  1
  B  B14  1  0.500000  0.249539  0.080115  1
  B  B15  1  0.500000  0.750426  0.919517  1
  B  B16  1  0.500000  0.796772  0.262874  1
  B  B17  1  0.500000  0.203267  0.737422  1
  B  B18  1  0.500000  0.290799  0.233513  1
  B  B19  1  0.500000  0.709195  0.766433  1
  B  B20  1  0.500000  0.631190  0.181110  1
  B  B21  1  0.500000  0.368468  0.818979  1
  B  B22  1  0.500000  0.130127  0.313886  1
  B  B23  1  0.500000  0.869929  0.686123  1
  B  B24  1  0.500000  0.982660  0.211736  1
  B  B25  1  0.500000  0.017667  0.788397  1
  B  B26  1  0.500000  0.476599  0.285930  1
  B  B27  1  0.500000  0.523135  0.714037  1
  B  B28  1  0.500000  0.602515  0.027349  1
  B  B29  1  0.500000  0.397072  0.972561  1
  B  B30  1  0.500000  0.101782  0.470923  1
  B  B31  1  0.500000  0.898242  0.529104  1
  Os  Os32  1  0.000000  0.137933  0.178018  1
  Os  Os33  1  0.000000  0.862396  0.821812  1
  W  W34  1  0.000000  0.638891  0.319096  1
  W  W35  1  0.000000  0.360970  0.681084  1
