# generated using pymatgen
data_Ac2SnAu2
_symmetry_space_group_name_H-M   'P 1'
_cell_length_a   8.37665500
_cell_length_b   8.37665500
_cell_length_c   4.22492600
_cell_angle_alpha   90.00000000
_cell_angle_beta   90.00000000
_cell_angle_gamma   90.00000000
_symmetry_Int_Tables_number   1
_chemical_formula_structural   Ac2SnAu2
_chemical_formula_sum   'Ac4 Sn2 Au4'
_cell_volume   296.45608202
_cell_formula_units_Z   2
loop_
 _symmetry_equiv_pos_site_id
 _symmetry_equiv_pos_as_xyz
  1  'x, y, z'
loop_
 _atom_site_type_symbol
 _atom_site_label
 _atom_site_symmetry_multiplicity
 _atom_site_fract_x
 _atom_site_fract_y
 _atom_site_fract_z
 _atom_site_occupancy
  Ac  Ac0  1  0.676394  0.176394  0.500000  1
  Ac  Ac1  1  0.323606  0.823606  0.500000  1
  Ac  Ac2  1  0.176394  0.323606  0.500000  1
  Ac  Ac3  1  0.823606  0.676394  0.500000  1
  Sn  Sn4  1  0.500000  0.500000  0.000000  1
  Sn  Sn5  1  0.000000  0.000000  0.000000  1
  Au  Au6  1  0.123289  0.623289  0.000000  1
  Au  Au7  1  0.876711  0.376711  0.000000  1
  Au  Au8  1  0.623289  0.876711  0.000000  1
  Au  Au9  1  0.376711  0.123289  0.000000  1
