# generated using pymatgen
data_Ho2Th2(Al8Pt3)3
_symmetry_space_group_name_H-M   'P 1'
_cell_length_a   7.59056419
_cell_length_b   7.60278536
_cell_length_c   13.19053168
_cell_angle_alpha   84.49145733
_cell_angle_beta   78.91320669
_cell_angle_gamma   59.95595975
_symmetry_Int_Tables_number   1
_chemical_formula_structural   Ho2Th2(Al8Pt3)3
_chemical_formula_sum   'Ho2 Th2 Al24 Pt9'
_cell_volume   646.64358578
_cell_formula_units_Z   1
loop_
 _symmetry_equiv_pos_site_id
 _symmetry_equiv_pos_as_xyz
  1  'x, y, z'
loop_
 _atom_site_type_symbol
 _atom_site_label
 _atom_site_symmetry_multiplicity
 _atom_site_fract_x
 _atom_site_fract_y
 _atom_site_fract_z
 _atom_site_occupancy
  Ho  Ho0  1  0.733578  0.498493  0.806786  1
  Ho  Ho1  1  0.266422  0.501507  0.193214  1
  Th  Th2  1  0.394726  0.168148  0.806901  1
  Th  Th3  1  0.605274  0.831852  0.193099  1
  Al  Al4  1  0.687973  0.830227  0.943780  1
  Al  Al5  1  0.312027  0.169773  0.056220  1
  Al  Al6  1  0.145686  0.832874  0.561475  1
  Al  Al7  1  0.854314  0.167126  0.438525  1
  Al  Al8  1  0.480776  0.167245  0.557602  1
  Al  Al9  1  0.519224  0.832755  0.442398  1
  Al  Al10  1  0.212795  0.168920  0.333078  1
  Al  Al11  1  0.787205  0.831080  0.666922  1
  Al  Al12  1  0.438308  0.510367  0.667396  1
  Al  Al13  1  0.561692  0.489633  0.332604  1
  Al  Al14  1  0.107514  0.160054  0.665691  1
  Al  Al15  1  0.892486  0.839946  0.334309  1
  Al  Al16  1  0.352258  0.502390  0.945981  1
  Al  Al17  1  0.647742  0.497610  0.054019  1
  Al  Al18  1  0.012370  0.167693  0.954301  1
  Al  Al19  1  0.987630  0.832307  0.045699  1
  Al  Al20  1  0.186186  0.500078  0.441015  1
  Al  Al21  1  0.813814  0.499922  0.558985  1
  Al  Al22  1  0.734619  0.167588  0.183538  1
  Al  Al23  1  0.265381  0.832412  0.816462  1
  Al  Al24  1  0.059164  0.634317  0.814963  1
  Al  Al25  1  0.940836  0.365683  0.185037  1
  Al  Al26  1  0.859902  0.041041  0.815895  1
  Al  Al27  1  0.140098  0.958959  0.184105  1
  Pt  Pt28  1  0.120359  0.491554  0.638805  1
  Pt  Pt29  1  0.879641  0.508446  0.361195  1
  Pt  Pt30  1  0.656474  0.171140  0.999810  1
  Pt  Pt31  1  0.343526  0.828860  0.000190  1
  Pt  Pt32  1  0.537682  0.166187  0.361199  1
  Pt  Pt33  1  0.462318  0.833813  0.638801  1
  Pt  Pt34  1  0.778267  0.175280  0.637707  1
  Pt  Pt35  1  0.221733  0.824720  0.362293  1
  Pt  Pt36  1  0.000000  0.500000  0.000000  1
