# generated using pymatgen
data_Ca(YbP)4
_symmetry_space_group_name_H-M   'P 1'
_cell_length_a   7.49452600
_cell_length_b   7.47068888
_cell_length_c   8.22094395
_cell_angle_alpha   63.94333196
_cell_angle_beta   90.00000000
_cell_angle_gamma   90.00000000
_symmetry_Int_Tables_number   1
_chemical_formula_structural   Ca(YbP)4
_chemical_formula_sum   'Ca2 Yb8 P8'
_cell_volume   413.50135179
_cell_formula_units_Z   2
loop_
 _symmetry_equiv_pos_site_id
 _symmetry_equiv_pos_as_xyz
  1  'x, y, z'
loop_
 _atom_site_type_symbol
 _atom_site_label
 _atom_site_symmetry_multiplicity
 _atom_site_fract_x
 _atom_site_fract_y
 _atom_site_fract_z
 _atom_site_occupancy
  Ca  Ca0  1  0.000000  0.000000  0.000000  1
  Ca  Ca1  1  0.500000  0.500000  0.000000  1
  Yb  Yb2  1  0.332020  0.028906  0.297786  1
  Yb  Yb3  1  0.167980  0.528906  0.297786  1
  Yb  Yb4  1  0.832020  0.471094  0.702214  1
  Yb  Yb5  1  0.338753  0.306484  0.709842  1
  Yb  Yb6  1  0.667980  0.971094  0.702214  1
  Yb  Yb7  1  0.838753  0.193516  0.290158  1
  Yb  Yb8  1  0.161247  0.806484  0.709842  1
  Yb  Yb9  1  0.661247  0.693516  0.290158  1
  P  P10  1  0.891839  0.608747  0.998707  1
  P  P11  1  0.991710  0.807075  0.395856  1
  P  P12  1  0.108161  0.391253  0.001293  1
  P  P13  1  0.508290  0.307075  0.395856  1
  P  P14  1  0.391839  0.891253  0.001293  1
  P  P15  1  0.491710  0.692925  0.604144  1
  P  P16  1  0.008290  0.192925  0.604144  1
  P  P17  1  0.608161  0.108747  0.998707  1
