# generated using pymatgen
data_CeHoPa(Ga2Co3)3
_symmetry_space_group_name_H-M   'P 1'
_cell_length_a   8.92241400
_cell_length_b   8.92241384
_cell_length_c   3.88136700
_cell_angle_alpha   90.00000000
_cell_angle_beta   90.00000000
_cell_angle_gamma   120.00000060
_symmetry_Int_Tables_number   1
_chemical_formula_structural   CeHoPa(Ga2Co3)3
_chemical_formula_sum   'Ce1 Ho1 Pa1 Ga6 Co9'
_cell_volume   267.59627986
_cell_formula_units_Z   1
loop_
 _symmetry_equiv_pos_site_id
 _symmetry_equiv_pos_as_xyz
  1  'x, y, z'
loop_
 _atom_site_type_symbol
 _atom_site_label
 _atom_site_symmetry_multiplicity
 _atom_site_fract_x
 _atom_site_fract_y
 _atom_site_fract_z
 _atom_site_occupancy
  Ce  Ce0  1  0.666667  0.333333  0.500000  1
  Ho  Ho1  1  0.333333  0.666667  0.500000  1
  Pa  Pa2  1  0.000000  0.000000  0.000000  1
  Ga  Ga3  1  0.677538  0.680185  0.500000  1
  Ga  Ga4  1  0.319815  0.997353  0.500000  1
  Ga  Ga5  1  0.002647  0.322462  0.500000  1
  Ga  Ga6  1  0.319815  0.322462  0.500000  1
  Ga  Ga7  1  0.677538  0.997353  0.500000  1
  Ga  Ga8  1  0.002647  0.680185  0.500000  1
  Co  Co9  1  0.499457  0.500543  0.000000  1
  Co  Co10  1  0.499457  0.998914  0.000000  1
  Co  Co11  1  0.001086  0.500543  0.000000  1
  Co  Co12  1  0.829133  0.170867  0.000000  1
  Co  Co13  1  0.829133  0.658267  0.000000  1
  Co  Co14  1  0.341733  0.170867  0.000000  1
  Co  Co15  1  0.171921  0.828079  0.000000  1
  Co  Co16  1  0.656158  0.828079  0.000000  1
  Co  Co17  1  0.171921  0.343842  0.000000  1
