# generated using pymatgen
data_Hf6Zr4NiGeSb6
_symmetry_space_group_name_H-M   'P 1'
_cell_length_a   8.62832724
_cell_length_b   8.63610611
_cell_length_c   5.81118418
_cell_angle_alpha   89.97122514
_cell_angle_beta   90.01439897
_cell_angle_gamma   120.02982356
_symmetry_Int_Tables_number   1
_chemical_formula_structural   Hf6Zr4NiGeSb6
_chemical_formula_sum   'Hf6 Zr4 Ni1 Ge1 Sb6'
_cell_volume   374.89461434
_cell_formula_units_Z   1
loop_
 _symmetry_equiv_pos_site_id
 _symmetry_equiv_pos_as_xyz
  1  'x, y, z'
loop_
 _atom_site_type_symbol
 _atom_site_label
 _atom_site_symmetry_multiplicity
 _atom_site_fract_x
 _atom_site_fract_y
 _atom_site_fract_z
 _atom_site_occupancy
  Hf  Hf0  1  0.666456  0.333642  0.998690  1
  Hf  Hf1  1  0.333544  0.667187  0.998690  1
  Hf  Hf2  1  0.333572  0.667467  0.502009  1
  Hf  Hf3  1  0.666428  0.333894  0.502009  1
  Hf  Hf4  1  0.729570  0.730060  0.758435  1
  Hf  Hf5  1  0.270430  0.000490  0.758435  1
  Zr  Zr6  1  0.000000  0.270879  0.757071  1
  Zr  Zr7  1  0.255438  0.254791  0.245470  1
  Zr  Zr8  1  0.744562  0.999353  0.245470  1
  Zr  Zr9  1  0.000000  0.744886  0.244399  1
  Ni  Ni10  1  0.000000  0.997677  0.967782  1
  Ge  Ge11  1  0.000000  0.998890  0.521484  1
  Sb  Sb12  1  0.385931  0.385523  0.750376  1
  Sb  Sb13  1  0.614069  0.999592  0.750376  1
  Sb  Sb14  1  0.000000  0.615794  0.749978  1
  Sb  Sb15  1  0.605767  0.606057  0.249835  1
  Sb  Sb16  1  0.394233  0.000290  0.249835  1
  Sb  Sb17  1  0.000000  0.393528  0.249656  1
