# generated using pymatgen
data_Ba6SrYUPbSe12
_symmetry_space_group_name_H-M   'P 1'
_cell_length_a   8.97264592
_cell_length_b   8.97264394
_cell_length_c   8.97264500
_cell_angle_alpha   90.96738882
_cell_angle_beta   90.96739500
_cell_angle_gamma   90.96739778
_symmetry_Int_Tables_number   1
_chemical_formula_structural   Ba6SrYUPbSe12
_chemical_formula_sum   'Ba6 Sr1 Y1 U1 Pb1 Se12'
_cell_volume   722.06049543
_cell_formula_units_Z   1
loop_
 _symmetry_equiv_pos_site_id
 _symmetry_equiv_pos_as_xyz
  1  'x, y, z'
loop_
 _atom_site_type_symbol
 _atom_site_label
 _atom_site_symmetry_multiplicity
 _atom_site_fract_x
 _atom_site_fract_y
 _atom_site_fract_z
 _atom_site_occupancy
  Ba  Ba0  1  0.870774  0.621644  0.257696  1
  Ba  Ba1  1  0.257696  0.870774  0.621644  1
  Ba  Ba2  1  0.621644  0.257696  0.870774  1
  Ba  Ba3  1  0.742281  0.129249  0.378279  1
  Ba  Ba4  1  0.378279  0.742281  0.129249  1
  Ba  Ba5  1  0.129249  0.378279  0.742281  1
  Sr  Sr6  1  0.745081  0.745081  0.745081  1
  Y  Y7  1  0.499862  0.499862  0.499862  1
  U  U8  1  0.999920  0.999920  0.999920  1
  Pb  Pb9  1  0.255744  0.255744  0.255744  1
  Se  Se10  1  0.197715  0.556735  0.413355  1
  Se  Se11  1  0.413355  0.197715  0.556735  1
  Se  Se12  1  0.556735  0.413355  0.197715  1
  Se  Se13  1  0.922761  0.051283  0.704683  1
  Se  Se14  1  0.704683  0.922761  0.051283  1
  Se  Se15  1  0.051283  0.704683  0.922761  1
  Se  Se16  1  0.802093  0.443106  0.586403  1
  Se  Se17  1  0.586403  0.802093  0.443106  1
  Se  Se18  1  0.443106  0.586403  0.802093  1
  Se  Se19  1  0.077286  0.948282  0.295769  1
  Se  Se20  1  0.295769  0.077286  0.948282  1
  Se  Se21  1  0.948282  0.295769  0.077286  1
