# generated using pymatgen
data_Yb2YSc2Re2C7
_symmetry_space_group_name_H-M   'P 1'
_cell_length_a   8.10583241
_cell_length_b   8.49073148
_cell_length_c   3.30813000
_cell_angle_alpha   90.00000000
_cell_angle_beta   90.00000000
_cell_angle_gamma   124.29875661
_symmetry_Int_Tables_number   1
_chemical_formula_structural   Yb2YSc2Re2C7
_chemical_formula_sum   'Yb2 Y1 Sc2 Re2 C7'
_cell_volume   188.08902234
_cell_formula_units_Z   1
loop_
 _symmetry_equiv_pos_site_id
 _symmetry_equiv_pos_as_xyz
  1  'x, y, z'
loop_
 _atom_site_type_symbol
 _atom_site_label
 _atom_site_symmetry_multiplicity
 _atom_site_fract_x
 _atom_site_fract_y
 _atom_site_fract_z
 _atom_site_occupancy
  Yb  Yb0  1  0.292452  0.058656  0.500000  1
  Yb  Yb1  1  0.707548  0.941344  0.500000  1
  Y  Y2  1  0.500000  0.500000  0.000000  1
  Sc  Sc3  1  0.076065  0.355151  0.500000  1
  Sc  Sc4  1  0.923935  0.644849  0.500000  1
  Re  Re5  1  0.297471  0.718958  0.000000  1
  Re  Re6  1  0.702529  0.281042  0.000000  1
  C  C7  1  0.136347  0.187961  0.000000  1
  C  C8  1  0.863653  0.812039  0.000000  1
  C  C9  1  0.000000  0.000000  0.000000  1
  C  C10  1  0.381257  0.631947  0.500000  1
  C  C11  1  0.618743  0.368053  0.500000  1
  C  C12  1  0.500000  0.000000  0.000000  1
  C  C13  1  0.000000  0.500000  0.000000  1
