# generated using pymatgen
data_Cs3YNpBr9
_symmetry_space_group_name_H-M   'P 1'
_cell_length_a   10.57803346
_cell_length_b   10.57803355
_cell_length_c   10.57803330
_cell_angle_alpha   83.34808728
_cell_angle_beta   83.34808545
_cell_angle_gamma   83.34808599
_symmetry_Int_Tables_number   1
_chemical_formula_structural   Cs3YNpBr9
_chemical_formula_sum   'Cs6 Y2 Np2 Br18'
_cell_volume   1161.43526248
_cell_formula_units_Z   2
loop_
 _symmetry_equiv_pos_site_id
 _symmetry_equiv_pos_as_xyz
  1  'x, y, z'
loop_
 _atom_site_type_symbol
 _atom_site_label
 _atom_site_symmetry_multiplicity
 _atom_site_fract_x
 _atom_site_fract_y
 _atom_site_fract_z
 _atom_site_occupancy
  Cs  Cs0  1  0.089404  0.750960  0.410671  1
  Cs  Cs1  1  0.750960  0.410671  0.089404  1
  Cs  Cs2  1  0.249040  0.589329  0.910596  1
  Cs  Cs3  1  0.410671  0.089404  0.750960  1
  Cs  Cs4  1  0.910596  0.249040  0.589329  1
  Cs  Cs5  1  0.589329  0.910596  0.249040  1
  Y  Y6  1  0.847542  0.847542  0.847542  1
  Y  Y7  1  0.152458  0.152458  0.152458  1
  Np  Np8  1  0.347787  0.347787  0.347787  1
  Np  Np9  1  0.652213  0.652213  0.652213  1
  Br  Br10  1  0.264427  0.921895  0.082752  1
  Br  Br11  1  0.735573  0.078105  0.917248  1
  Br  Br12  1  0.907663  0.597363  0.752395  1
  Br  Br13  1  0.078105  0.917248  0.735573  1
  Br  Br14  1  0.597363  0.752395  0.907663  1
  Br  Br15  1  0.420103  0.585688  0.232512  1
  Br  Br16  1  0.247605  0.092337  0.402637  1
  Br  Br17  1  0.921895  0.082752  0.264427  1
  Br  Br18  1  0.579897  0.414312  0.767488  1
  Br  Br19  1  0.082752  0.264427  0.921895  1
  Br  Br20  1  0.917248  0.735573  0.078105  1
  Br  Br21  1  0.414312  0.767488  0.579897  1
  Br  Br22  1  0.232512  0.420103  0.585688  1
  Br  Br23  1  0.752395  0.907663  0.597363  1
  Br  Br24  1  0.092337  0.402637  0.247605  1
  Br  Br25  1  0.767488  0.579897  0.414312  1
  Br  Br26  1  0.402637  0.247605  0.092337  1
  Br  Br27  1  0.585688  0.232512  0.420103  1
