# generated using pymatgen
data_Sc2Cl2O
_symmetry_space_group_name_H-M   'P 1'
_cell_length_a   4.80441444
_cell_length_b   3.39679449
_cell_length_c   9.56312951
_cell_angle_alpha   87.19201436
_cell_angle_beta   72.29375180
_cell_angle_gamma   44.99057393
_symmetry_Int_Tables_number   1
_chemical_formula_structural   Sc2Cl2O
_chemical_formula_sum   'Sc2 Cl2 O1'
_cell_volume   101.86382655
_cell_formula_units_Z   1
loop_
 _symmetry_equiv_pos_site_id
 _symmetry_equiv_pos_as_xyz
  1  'x, y, z'
loop_
 _atom_site_type_symbol
 _atom_site_label
 _atom_site_symmetry_multiplicity
 _atom_site_fract_x
 _atom_site_fract_y
 _atom_site_fract_z
 _atom_site_occupancy
  Sc  Sc0  1  0.594060  0.234327  0.683424  1
  Sc  Sc1  1  0.811110  0.480768  0.946252  1
  Cl  Cl2  1  0.261266  0.087433  0.524131  1
  Cl  Cl3  1  0.131839  0.638089  0.104981  1
  O  O4  1  0.453377  0.857006  0.814749  1
