# generated using pymatgen
data_Tb17Dy3(IrPt5)2
_symmetry_space_group_name_H-M   'P 1'
_cell_length_a   11.08295700
_cell_length_b   11.08302400
_cell_length_c   6.44218100
_cell_angle_alpha   90.00000000
_cell_angle_beta   90.00000000
_cell_angle_gamma   90.00186109
_symmetry_Int_Tables_number   1
_chemical_formula_structural   Tb17Dy3(IrPt5)2
_chemical_formula_sum   'Tb17 Dy3 Ir2 Pt10'
_cell_volume   791.31034690
_cell_formula_units_Z   1
loop_
 _symmetry_equiv_pos_site_id
 _symmetry_equiv_pos_as_xyz
  1  'x, y, z'
loop_
 _atom_site_type_symbol
 _atom_site_label
 _atom_site_symmetry_multiplicity
 _atom_site_fract_x
 _atom_site_fract_y
 _atom_site_fract_z
 _atom_site_occupancy
  Tb  Tb0  1  0.292787  0.089178  0.375511  1
  Tb  Tb1  1  0.292613  0.910901  0.875816  1
  Tb  Tb2  1  0.707387  0.089099  0.875816  1
  Tb  Tb3  1  0.707213  0.910822  0.375511  1
  Tb  Tb4  1  0.589080  0.792382  0.875795  1
  Tb  Tb5  1  0.589063  0.207610  0.375795  1
  Tb  Tb6  1  0.410937  0.792390  0.375795  1
  Tb  Tb7  1  0.410920  0.207618  0.875795  1
  Tb  Tb8  1  0.205142  0.411573  0.624338  1
  Tb  Tb9  1  0.205171  0.588435  0.124387  1
  Tb  Tb10  1  0.794829  0.411565  0.124387  1
  Tb  Tb11  1  0.794858  0.588427  0.624338  1
  Tb  Tb12  1  0.911572  0.704899  0.124359  1
  Tb  Tb13  1  0.911482  0.295297  0.624680  1
  Tb  Tb14  1  0.088518  0.704703  0.624680  1
  Tb  Tb15  1  0.088428  0.295101  0.124359  1
  Tb  Tb16  1  0.000000  0.000000  0.501100  1
  Dy  Dy17  1  0.000000  0.000000  0.001025  1
  Dy  Dy18  1  0.500000  0.500000  0.001018  1
  Dy  Dy19  1  0.500000  0.500000  0.501039  1
  Ir  Ir20  1  0.000000  0.500000  0.879334  1
  Ir  Ir21  1  0.000000  0.500000  0.379217  1
  Pt  Pt22  1  0.846351  0.152153  0.249305  1
  Pt  Pt23  1  0.846341  0.847831  0.751427  1
  Pt  Pt24  1  0.153659  0.152169  0.751427  1
  Pt  Pt25  1  0.153649  0.847847  0.249305  1
  Pt  Pt26  1  0.651547  0.346958  0.750430  1
  Pt  Pt27  1  0.651556  0.653049  0.250358  1
  Pt  Pt28  1  0.348444  0.346951  0.250358  1
  Pt  Pt29  1  0.348453  0.653042  0.750430  1
  Pt  Pt30  1  0.500000  0.000000  0.116430  1
  Pt  Pt31  1  0.500000  0.000000  0.616438  1
