# generated using pymatgen
data_Hf16Tc3Ni4Ru
_symmetry_space_group_name_H-M   'P 1'
_cell_length_a   8.61206896
_cell_length_b   8.61206868
_cell_length_c   8.61206927
_cell_angle_alpha   60.14779619
_cell_angle_beta   60.14779549
_cell_angle_gamma   60.14779648
_symmetry_Int_Tables_number   1
_chemical_formula_structural   Hf16Tc3Ni4Ru
_chemical_formula_sum   'Hf16 Tc3 Ni4 Ru1'
_cell_volume   453.16774431
_cell_formula_units_Z   1
loop_
 _symmetry_equiv_pos_site_id
 _symmetry_equiv_pos_as_xyz
  1  'x, y, z'
loop_
 _atom_site_type_symbol
 _atom_site_label
 _atom_site_symmetry_multiplicity
 _atom_site_fract_x
 _atom_site_fract_y
 _atom_site_fract_z
 _atom_site_occupancy
  Hf  Hf0  1  0.677146  0.108314  0.108314  1
  Hf  Hf1  1  0.108314  0.677146  0.108314  1
  Hf  Hf2  1  0.108314  0.108314  0.677146  1
  Hf  Hf3  1  0.105459  0.105459  0.105459  1
  Hf  Hf4  1  0.316469  0.316469  0.685540  1
  Hf  Hf5  1  0.684376  0.684376  0.316240  1
  Hf  Hf6  1  0.316469  0.685540  0.316469  1
  Hf  Hf7  1  0.684376  0.316240  0.684376  1
  Hf  Hf8  1  0.685540  0.316469  0.316469  1
  Hf  Hf9  1  0.316240  0.684376  0.684376  1
  Hf  Hf10  1  0.949941  0.949941  0.549843  1
  Hf  Hf11  1  0.551058  0.551058  0.949152  1
  Hf  Hf12  1  0.949941  0.549843  0.949941  1
  Hf  Hf13  1  0.551058  0.949152  0.551058  1
  Hf  Hf14  1  0.549843  0.949941  0.949941  1
  Hf  Hf15  1  0.949152  0.551058  0.551058  1
  Tc  Tc16  1  0.996572  0.333600  0.333600  1
  Tc  Tc17  1  0.333600  0.996572  0.333600  1
  Tc  Tc18  1  0.333600  0.333600  0.996572  1
  Ni  Ni19  1  0.318624  0.892875  0.892875  1
  Ni  Ni20  1  0.892875  0.318624  0.892875  1
  Ni  Ni21  1  0.892875  0.892875  0.318624  1
  Ni  Ni22  1  0.894449  0.894449  0.894449  1
  Ru  Ru23  1  0.333710  0.333710  0.333710  1
