# generated using pymatgen
data_Ho8Ti11Si16Ir
_symmetry_space_group_name_H-M   'P 1'
_cell_length_a   7.02006721
_cell_length_b   7.02006721
_cell_length_c   12.84388361
_cell_angle_alpha   90.10391464
_cell_angle_beta   89.89608536
_cell_angle_gamma   89.83446219
_symmetry_Int_Tables_number   1
_chemical_formula_structural   Ho8Ti11Si16Ir
_chemical_formula_sum   'Ho8 Ti11 Si16 Ir1'
_cell_volume   632.95911205
_cell_formula_units_Z   1
loop_
 _symmetry_equiv_pos_site_id
 _symmetry_equiv_pos_as_xyz
  1  'x, y, z'
loop_
 _atom_site_type_symbol
 _atom_site_label
 _atom_site_symmetry_multiplicity
 _atom_site_fract_x
 _atom_site_fract_y
 _atom_site_fract_z
 _atom_site_occupancy
  Ho  Ho0  1  0.340787  0.003852  0.467328  1
  Ho  Ho1  1  0.496665  0.841657  0.718009  1
  Ho  Ho2  1  0.500855  0.158537  0.215169  1
  Ho  Ho3  1  0.841657  0.496665  0.281991  1
  Ho  Ho4  1  0.158537  0.500855  0.784831  1
  Ho  Ho5  1  0.657799  0.998021  0.968505  1
  Ho  Ho6  1  0.003852  0.340787  0.532672  1
  Ho  Ho7  1  0.998021  0.657799  0.031495  1
  Ti  Ti8  1  0.175624  0.827166  0.248162  1
  Ti  Ti9  1  0.827166  0.175624  0.751838  1
  Ti  Ti10  1  0.673639  0.673639  0.500000  1
  Ti  Ti11  1  0.149425  0.002320  0.875733  1
  Ti  Ti12  1  0.493941  0.656675  0.124593  1
  Ti  Ti13  1  0.506528  0.349746  0.627908  1
  Ti  Ti14  1  0.656675  0.493941  0.875407  1
  Ti  Ti15  1  0.349746  0.506528  0.372092  1
  Ti  Ti16  1  0.848910  0.994073  0.374927  1
  Ti  Ti17  1  0.002320  0.149425  0.124267  1
  Ti  Ti18  1  0.994073  0.848910  0.625073  1
  Si  Si19  1  0.202514  0.132894  0.685238  1
  Si  Si20  1  0.372067  0.701874  0.933487  1
  Si  Si21  1  0.631469  0.295659  0.434070  1
  Si  Si22  1  0.701874  0.372067  0.066513  1
  Si  Si23  1  0.295659  0.631469  0.565930  1
  Si  Si24  1  0.796262  0.867917  0.183793  1
  Si  Si25  1  0.132894  0.202514  0.314762  1
  Si  Si26  1  0.867917  0.796262  0.816207  1
  Si  Si27  1  0.286661  0.951976  0.064078  1
  Si  Si28  1  0.547180  0.792154  0.315661  1
  Si  Si29  1  0.449686  0.209756  0.818304  1
  Si  Si30  1  0.792154  0.547180  0.684339  1
  Si  Si31  1  0.209756  0.449686  0.181696  1
  Si  Si32  1  0.708473  0.047999  0.565742  1
  Si  Si33  1  0.951976  0.286661  0.935922  1
  Si  Si34  1  0.047999  0.708473  0.434258  1
  Ir  Ir35  1  0.329239  0.329239  0.000000  1
