# generated using pymatgen
data_CaLu3(Ga2Ag)4
_symmetry_space_group_name_H-M   'P 1'
_cell_length_a   4.33085400
_cell_length_b   6.92816946
_cell_length_c   10.27627878
_cell_angle_alpha   90.58263475
_cell_angle_beta   90.00000000
_cell_angle_gamma   90.00000000
_symmetry_Int_Tables_number   1
_chemical_formula_structural   CaLu3(Ga2Ag)4
_chemical_formula_sum   'Ca1 Lu3 Ga8 Ag4'
_cell_volume   308.32267693
_cell_formula_units_Z   1
loop_
 _symmetry_equiv_pos_site_id
 _symmetry_equiv_pos_as_xyz
  1  'x, y, z'
loop_
 _atom_site_type_symbol
 _atom_site_label
 _atom_site_symmetry_multiplicity
 _atom_site_fract_x
 _atom_site_fract_y
 _atom_site_fract_z
 _atom_site_occupancy
  Ca  Ca0  1  0.250000  0.274020  0.674943  1
  Lu  Lu1  1  0.250000  0.776031  0.826964  1
  Lu  Lu2  1  0.750000  0.225531  0.173833  1
  Lu  Lu3  1  0.750000  0.724935  0.326581  1
  Ga  Ga4  1  0.250000  0.706632  0.535015  1
  Ga  Ga5  1  0.750000  0.299968  0.461912  1
  Ga  Ga6  1  0.750000  0.795318  0.037642  1
  Ga  Ga7  1  0.250000  0.196130  0.967354  1
  Ga  Ga8  1  0.250000  0.927892  0.156704  1
  Ga  Ga9  1  0.750000  0.065687  0.848695  1
  Ga  Ga10  1  0.750000  0.574155  0.652478  1
  Ga  Ga11  1  0.250000  0.432449  0.342543  1
  Ag  Ag12  1  0.250000  0.544001  0.096090  1
  Ag  Ag13  1  0.750000  0.455014  0.903006  1
  Ag  Ag14  1  0.750000  0.955895  0.595758  1
  Ag  Ag15  1  0.250000  0.046341  0.400483  1
