# generated using pymatgen
data_CeNdEr2(AsPt)4
_symmetry_space_group_name_H-M   'P 1'
_cell_length_a   4.29484600
_cell_length_b   4.29484572
_cell_length_c   15.60155700
_cell_angle_alpha   90.00000000
_cell_angle_beta   90.00000000
_cell_angle_gamma   119.99998672
_symmetry_Int_Tables_number   1
_chemical_formula_structural   CeNdEr2(AsPt)4
_chemical_formula_sum   'Ce1 Nd1 Er2 As4 Pt4'
_cell_volume   249.22625751
_cell_formula_units_Z   1
loop_
 _symmetry_equiv_pos_site_id
 _symmetry_equiv_pos_as_xyz
  1  'x, y, z'
loop_
 _atom_site_type_symbol
 _atom_site_label
 _atom_site_symmetry_multiplicity
 _atom_site_fract_x
 _atom_site_fract_y
 _atom_site_fract_z
 _atom_site_occupancy
  Ce  Ce0  1  0.000000  0.000000  0.000000  1
  Nd  Nd1  1  0.000000  0.000000  0.500000  1
  Er  Er2  1  0.000000  0.000000  0.250556  1
  Er  Er3  1  0.000000  0.000000  0.749444  1
  As  As4  1  0.333333  0.666667  0.885515  1
  As  As5  1  0.666667  0.333333  0.114485  1
  As  As6  1  0.666667  0.333333  0.381754  1
  As  As7  1  0.333333  0.666667  0.618246  1
  Pt  Pt8  1  0.333333  0.666667  0.353700  1
  Pt  Pt9  1  0.666667  0.333333  0.646300  1
  Pt  Pt10  1  0.666667  0.333333  0.856747  1
  Pt  Pt11  1  0.333333  0.666667  0.143253  1
