# generated using pymatgen
data_HfTa7Re8
_symmetry_space_group_name_H-M   'P 1'
_cell_length_a   6.42564000
_cell_length_b   6.42564000
_cell_length_c   6.42564000
_cell_angle_alpha   90.00000000
_cell_angle_beta   90.00000000
_cell_angle_gamma   90.00000000
_symmetry_Int_Tables_number   1
_chemical_formula_structural   HfTa7Re8
_chemical_formula_sum   'Hf1 Ta7 Re8'
_cell_volume   265.30728232
_cell_formula_units_Z   1
loop_
 _symmetry_equiv_pos_site_id
 _symmetry_equiv_pos_as_xyz
  1  'x, y, z'
loop_
 _atom_site_type_symbol
 _atom_site_label
 _atom_site_symmetry_multiplicity
 _atom_site_fract_x
 _atom_site_fract_y
 _atom_site_fract_z
 _atom_site_occupancy
  Hf  Hf0  1  0.000000  0.000000  0.000000  1
  Ta  Ta1  1  0.500001  0.000000  0.000000  1
  Ta  Ta2  1  0.000000  0.500001  0.000000  1
  Ta  Ta3  1  0.500001  0.500001  0.000000  1
  Ta  Ta4  1  0.000000  0.000000  0.500001  1
  Ta  Ta5  1  0.500001  0.000000  0.500001  1
  Ta  Ta6  1  0.000000  0.500001  0.500001  1
  Ta  Ta7  1  0.500001  0.500001  0.500001  1
  Re  Re8  1  0.251805  0.251805  0.251805  1
  Re  Re9  1  0.748195  0.251805  0.251805  1
  Re  Re10  1  0.251805  0.748195  0.251805  1
  Re  Re11  1  0.748195  0.748195  0.251805  1
  Re  Re12  1  0.251805  0.251805  0.748195  1
  Re  Re13  1  0.748195  0.251805  0.748195  1
  Re  Re14  1  0.251805  0.748195  0.748195  1
  Re  Re15  1  0.748195  0.748195  0.748195  1
