# generated using pymatgen
data_Ca5Ac6Nd9Sn16
_symmetry_space_group_name_H-M   'P 1'
_cell_length_a   8.11930867
_cell_length_b   8.52522565
_cell_length_c   16.09602200
_cell_angle_alpha   89.95877501
_cell_angle_beta   89.61565931
_cell_angle_gamma   89.96638265
_symmetry_Int_Tables_number   1
_chemical_formula_structural   Ca5Ac6Nd9Sn16
_chemical_formula_sum   'Ca5 Ac6 Nd9 Sn16'
_cell_volume   1114.12401407
_cell_formula_units_Z   1
loop_
 _symmetry_equiv_pos_site_id
 _symmetry_equiv_pos_as_xyz
  1  'x, y, z'
loop_
 _atom_site_type_symbol
 _atom_site_label
 _atom_site_symmetry_multiplicity
 _atom_site_fract_x
 _atom_site_fract_y
 _atom_site_fract_z
 _atom_site_occupancy
  Ca  Ca0  1  0.332667  0.831119  0.874727  1
  Ca  Ca1  1  0.169433  0.498390  0.750429  1
  Ca  Ca2  1  0.668517  0.004451  0.750769  1
  Ca  Ca3  1  0.829856  0.502313  0.250588  1
  Ca  Ca4  1  0.329445  0.996611  0.249758  1
  Ac  Ac5  1  0.505484  0.680025  0.406917  1
  Ac  Ac6  1  0.004987  0.819115  0.093157  1
  Ac  Ac7  1  0.501733  0.676897  0.092496  1
  Ac  Ac8  1  0.002891  0.822213  0.405883  1
  Ac  Ac9  1  0.496705  0.318887  0.595963  1
  Ac  Ac10  1  0.996750  0.180035  0.903531  1
  Nd  Nd11  1  0.837385  0.672776  0.625978  1
  Nd  Nd12  1  0.660053  0.169027  0.377217  1
  Nd  Nd13  1  0.164298  0.328990  0.123001  1
  Nd  Nd14  1  0.663826  0.172329  0.123290  1
  Nd  Nd15  1  0.161276  0.326934  0.376217  1
  Nd  Nd16  1  0.341100  0.827876  0.625283  1
  Nd  Nd17  1  0.837138  0.673508  0.874715  1
  Nd  Nd18  1  0.494810  0.317336  0.900984  1
  Nd  Nd19  1  0.998059  0.182250  0.598555  1
  Sn  Sn20  1  0.333395  0.043352  0.035878  1
  Sn  Sn21  1  0.829018  0.454002  0.465868  1
  Sn  Sn22  1  0.684322  0.963758  0.540713  1
  Sn  Sn23  1  0.176803  0.534524  0.958413  1
  Sn  Sn24  1  0.666450  0.964309  0.959593  1
  Sn  Sn25  1  0.171765  0.536739  0.539660  1
  Sn  Sn26  1  0.319474  0.042123  0.465318  1
  Sn  Sn27  1  0.826228  0.458799  0.035416  1
  Sn  Sn28  1  0.536274  0.608003  0.752031  1
  Sn  Sn29  1  0.037254  0.890905  0.748174  1
  Sn  Sn30  1  0.463300  0.385159  0.250222  1
  Sn  Sn31  1  0.963088  0.114751  0.249450  1
  Sn  Sn32  1  0.295797  0.137930  0.749860  1
  Sn  Sn33  1  0.796393  0.365392  0.750539  1
  Sn  Sn34  1  0.702197  0.866176  0.249663  1
  Sn  Sn35  1  0.201831  0.632998  0.249744  1
