# generated using pymatgen
data_Tb5DyEr4(CoBi2)2
_symmetry_space_group_name_H-M   'P 1'
_cell_length_a   7.98107121
_cell_length_b   8.90742900
_cell_length_c   12.47431550
_cell_angle_alpha   90.00000000
_cell_angle_beta   89.98068280
_cell_angle_gamma   90.00000000
_symmetry_Int_Tables_number   1
_chemical_formula_structural   Tb5DyEr4(CoBi2)2
_chemical_formula_sum   'Tb10 Dy2 Er8 Co4 Bi8'
_cell_volume   886.80933125
_cell_formula_units_Z   2
loop_
 _symmetry_equiv_pos_site_id
 _symmetry_equiv_pos_as_xyz
  1  'x, y, z'
loop_
 _atom_site_type_symbol
 _atom_site_label
 _atom_site_symmetry_multiplicity
 _atom_site_fract_x
 _atom_site_fract_y
 _atom_site_fract_z
 _atom_site_occupancy
  Tb  Tb0  1  0.152449  0.250000  0.800605  1
  Tb  Tb1  1  0.847551  0.750000  0.199395  1
  Tb  Tb2  1  0.119910  0.750000  0.812763  1
  Tb  Tb3  1  0.880090  0.250000  0.187237  1
  Tb  Tb4  1  0.619972  0.250000  0.687091  1
  Tb  Tb5  1  0.380028  0.750000  0.312909  1
  Tb  Tb6  1  0.551491  0.750000  0.997142  1
  Tb  Tb7  1  0.448509  0.250000  0.002858  1
  Tb  Tb8  1  0.051893  0.250000  0.502516  1
  Tb  Tb9  1  0.948107  0.750000  0.497484  1
  Dy  Dy10  1  0.652536  0.750000  0.699497  1
  Dy  Dy11  1  0.347464  0.250000  0.300503  1
  Er  Er12  1  0.826737  0.463756  0.936279  1
  Er  Er13  1  0.173263  0.536244  0.063721  1
  Er  Er14  1  0.326939  0.536317  0.563752  1
  Er  Er15  1  0.173263  0.963756  0.063721  1
  Er  Er16  1  0.673061  0.463683  0.436248  1
  Er  Er17  1  0.826737  0.036244  0.936279  1
  Er  Er18  1  0.673061  0.036317  0.436248  1
  Er  Er19  1  0.326939  0.963683  0.563752  1
  Co  Co20  1  0.937979  0.750000  0.992907  1
  Co  Co21  1  0.062021  0.250000  0.007093  1
  Co  Co22  1  0.438038  0.250000  0.506544  1
  Co  Co23  1  0.561962  0.750000  0.493456  1
  Bi  Bi24  1  0.931340  0.007575  0.673856  1
  Bi  Bi25  1  0.068660  0.992425  0.326144  1
  Bi  Bi26  1  0.431919  0.992206  0.826052  1
  Bi  Bi27  1  0.068660  0.507575  0.326144  1
  Bi  Bi28  1  0.568081  0.007794  0.173948  1
  Bi  Bi29  1  0.931340  0.492425  0.673856  1
  Bi  Bi30  1  0.568081  0.492206  0.173948  1
  Bi  Bi31  1  0.431919  0.507794  0.826052  1
