# generated using pymatgen
data_Tb4Dy2TcTe2
_symmetry_space_group_name_H-M   'P 1'
_cell_length_a   8.35505200
_cell_length_b   8.35456343
_cell_length_c   4.07904300
_cell_angle_alpha   90.00000000
_cell_angle_beta   90.00000000
_cell_angle_gamma   119.99806842
_symmetry_Int_Tables_number   1
_chemical_formula_structural   Tb4Dy2TcTe2
_chemical_formula_sum   'Tb4 Dy2 Tc1 Te2'
_cell_volume   246.58706184
_cell_formula_units_Z   1
loop_
 _symmetry_equiv_pos_site_id
 _symmetry_equiv_pos_as_xyz
  1  'x, y, z'
loop_
 _atom_site_type_symbol
 _atom_site_label
 _atom_site_symmetry_multiplicity
 _atom_site_fract_x
 _atom_site_fract_y
 _atom_site_fract_z
 _atom_site_occupancy
  Tb  Tb0  1  0.607107  0.999921  0.500000  1
  Tb  Tb1  1  0.392893  0.392814  0.500000  1
  Tb  Tb2  1  0.000000  0.607383  0.500000  1
  Tb  Tb3  1  0.000000  0.239105  0.000000  1
  Dy  Dy4  1  0.761020  0.760964  0.000000  1
  Dy  Dy5  1  0.238980  0.999944  0.000000  1
  Tc  Tc6  1  0.000000  0.999665  0.500000  1
  Te  Te7  1  0.333544  0.666874  0.000000  1
  Te  Te8  1  0.666456  0.333330  0.000000  1
