# generated using pymatgen
data_TbHo11Th4(MgRh)4
_symmetry_space_group_name_H-M   'P 1'
_cell_length_a   9.76465975
_cell_length_b   9.76466006
_cell_length_c   9.78051600
_cell_angle_alpha   59.94627707
_cell_angle_beta   59.94627602
_cell_angle_gamma   59.87641776
_symmetry_Int_Tables_number   1
_chemical_formula_structural   TbHo11Th4(MgRh)4
_chemical_formula_sum   'Tb1 Ho11 Th4 Mg4 Rh4'
_cell_volume   658.26577143
_cell_formula_units_Z   1
loop_
 _symmetry_equiv_pos_site_id
 _symmetry_equiv_pos_as_xyz
  1  'x, y, z'
loop_
 _atom_site_type_symbol
 _atom_site_label
 _atom_site_symmetry_multiplicity
 _atom_site_fract_x
 _atom_site_fract_y
 _atom_site_fract_z
 _atom_site_occupancy
  Tb  Tb0  1  0.934230  0.934230  0.565770  1
  Ho  Ho1  1  0.812996  0.187086  0.186719  1
  Ho  Ho2  1  0.187086  0.812996  0.813199  1
  Ho  Ho3  1  0.187086  0.812996  0.186719  1
  Ho  Ho4  1  0.812996  0.187086  0.813199  1
  Ho  Ho5  1  0.187403  0.187403  0.812597  1
  Ho  Ho6  1  0.813498  0.813498  0.186502  1
  Ho  Ho7  1  0.934517  0.565748  0.566119  1
  Ho  Ho8  1  0.565748  0.934517  0.933617  1
  Ho  Ho9  1  0.565748  0.934517  0.566119  1
  Ho  Ho10  1  0.934517  0.565748  0.933617  1
  Ho  Ho11  1  0.566341  0.566341  0.933659  1
  Th  Th12  1  0.348725  0.348725  0.347850  1
  Th  Th13  1  0.348725  0.348725  0.954701  1
  Th  Th14  1  0.349777  0.953183  0.348521  1
  Th  Th15  1  0.953183  0.349777  0.348521  1
  Mg  Mg16  1  0.580012  0.580012  0.581198  1
  Mg  Mg17  1  0.580012  0.580012  0.258778  1
  Mg  Mg18  1  0.579500  0.258823  0.580839  1
  Mg  Mg19  1  0.258823  0.579500  0.580839  1
  Rh  Rh20  1  0.143904  0.143904  0.144384  1
  Rh  Rh21  1  0.143904  0.143904  0.567805  1
  Rh  Rh22  1  0.143442  0.567826  0.144365  1
  Rh  Rh23  1  0.567826  0.143442  0.144365  1
