# generated using pymatgen
data_YHo7Ti3Si16Mo9
_symmetry_space_group_name_H-M   'P 1'
_cell_length_a   6.91299517
_cell_length_b   6.91287394
_cell_length_c   12.79855399
_cell_angle_alpha   90.00885720
_cell_angle_beta   89.98366412
_cell_angle_gamma   89.79696159
_symmetry_Int_Tables_number   1
_chemical_formula_structural   YHo7Ti3Si16Mo9
_chemical_formula_sum   'Y1 Ho7 Ti3 Si16 Mo9'
_cell_volume   611.62192566
_cell_formula_units_Z   1
loop_
 _symmetry_equiv_pos_site_id
 _symmetry_equiv_pos_as_xyz
  1  'x, y, z'
loop_
 _atom_site_type_symbol
 _atom_site_label
 _atom_site_symmetry_multiplicity
 _atom_site_fract_x
 _atom_site_fract_y
 _atom_site_fract_z
 _atom_site_occupancy
  Y  Y0  1  0.340387  0.002613  0.468372  1
  Ho  Ho1  1  0.496379  0.840263  0.719260  1
  Ho  Ho2  1  0.500235  0.160510  0.217388  1
  Ho  Ho3  1  0.840338  0.496347  0.280813  1
  Ho  Ho4  1  0.160522  0.500256  0.782548  1
  Ho  Ho5  1  0.658402  0.999181  0.968658  1
  Ho  Ho6  1  0.002322  0.340739  0.531573  1
  Ho  Ho7  1  0.999198  0.658417  0.031358  1
  Ti  Ti8  1  0.171031  0.830291  0.248580  1
  Ti  Ti9  1  0.830333  0.171093  0.751337  1
  Ti  Ti10  1  0.669955  0.669617  0.500017  1
  Si  Si11  1  0.199811  0.130168  0.684008  1
  Si  Si12  1  0.372738  0.696410  0.934394  1
  Si  Si13  1  0.629977  0.300141  0.433733  1
  Si  Si14  1  0.696420  0.372747  0.065601  1
  Si  Si15  1  0.299837  0.629317  0.566354  1
  Si  Si16  1  0.797898  0.870760  0.184274  1
  Si  Si17  1  0.129794  0.200108  0.315911  1
  Si  Si18  1  0.870789  0.797844  0.815728  1
  Si  Si19  1  0.287227  0.962470  0.061769  1
  Si  Si20  1  0.540811  0.790056  0.313332  1
  Si  Si21  1  0.456975  0.211794  0.815156  1
  Si  Si22  1  0.790338  0.540604  0.686465  1
  Si  Si23  1  0.211782  0.457019  0.184847  1
  Si  Si24  1  0.710982  0.042140  0.563916  1
  Si  Si25  1  0.962492  0.287246  0.938263  1
  Si  Si26  1  0.041848  0.710348  0.436150  1
  Mo  Mo27  1  0.330688  0.330687  0.000003  1
  Mo  Mo28  1  0.155121  0.001594  0.873219  1
  Mo  Mo29  1  0.496601  0.665771  0.124634  1
  Mo  Mo30  1  0.505720  0.341285  0.624777  1
  Mo  Mo31  1  0.665755  0.496622  0.875372  1
  Mo  Mo32  1  0.341087  0.505695  0.375316  1
  Mo  Mo33  1  0.841181  0.993602  0.374283  1
  Mo  Mo34  1  0.001596  0.155126  0.126792  1
  Mo  Mo35  1  0.993432  0.841116  0.625802  1
