# generated using pymatgen
data_GdHo7(BeB14)2
_symmetry_space_group_name_H-M   'P 1'
_cell_length_a   7.20171018
_cell_length_b   7.20313118
_cell_length_c   7.37966600
_cell_angle_alpha   90.00000000
_cell_angle_beta   90.00000000
_cell_angle_gamma   89.91084749
_symmetry_Int_Tables_number   1
_chemical_formula_structural   GdHo7(BeB14)2
_chemical_formula_sum   'Gd1 Ho7 Be2 B28'
_cell_volume   382.81870036
_cell_formula_units_Z   1
loop_
 _symmetry_equiv_pos_site_id
 _symmetry_equiv_pos_as_xyz
  1  'x, y, z'
loop_
 _atom_site_type_symbol
 _atom_site_label
 _atom_site_symmetry_multiplicity
 _atom_site_fract_x
 _atom_site_fract_y
 _atom_site_fract_z
 _atom_site_occupancy
  Gd  Gd0  1  0.195147  0.328599  0.000000  1
  Ho  Ho1  1  0.671197  0.195030  0.000000  1
  Ho  Ho2  1  0.329262  0.805438  0.000000  1
  Ho  Ho3  1  0.695028  0.170985  0.500000  1
  Ho  Ho4  1  0.304938  0.828886  0.500000  1
  Ho  Ho5  1  0.805041  0.671030  0.000000  1
  Ho  Ho6  1  0.828812  0.695221  0.500000  1
  Ho  Ho7  1  0.171249  0.304946  0.500000  1
  Be  Be8  1  0.999713  0.999372  0.000000  1
  Be  Be9  1  0.499982  0.500092  0.500000  1
  B  B10  1  0.173718  0.038088  0.228457  1
  B  B11  1  0.960451  0.173564  0.228461  1
  B  B12  1  0.038653  0.825477  0.228362  1
  B  B13  1  0.674446  0.461438  0.272577  1
  B  B14  1  0.326439  0.539407  0.272748  1
  B  B15  1  0.825551  0.960978  0.228174  1
  B  B16  1  0.539093  0.674375  0.272501  1
  B  B17  1  0.461622  0.326224  0.272416  1
  B  B18  1  0.825551  0.960978  0.771826  1
  B  B19  1  0.038653  0.825477  0.771638  1
  B  B20  1  0.960451  0.173564  0.771539  1
  B  B21  1  0.326439  0.539407  0.727252  1
  B  B22  1  0.674446  0.461438  0.727423  1
  B  B23  1  0.173718  0.038088  0.771543  1
  B  B24  1  0.461622  0.326224  0.727584  1
  B  B25  1  0.539093  0.674375  0.727499  1
  B  B26  1  0.088185  0.588555  0.251359  1
  B  B27  1  0.411587  0.088425  0.250298  1
  B  B28  1  0.588311  0.911698  0.250355  1
  B  B29  1  0.911549  0.411770  0.250805  1
  B  B30  1  0.911549  0.411770  0.749195  1
  B  B31  1  0.588311  0.911698  0.749645  1
  B  B32  1  0.411587  0.088425  0.749702  1
  B  B33  1  0.088185  0.588555  0.748641  1
  B  B34  1  0.999619  0.999693  0.388127  1
  B  B35  1  0.500589  0.500509  0.112303  1
  B  B36  1  0.999619  0.999693  0.611873  1
  B  B37  1  0.500589  0.500509  0.887697  1
