# generated using pymatgen
data_Cs6HgTe4
_symmetry_space_group_name_H-M   'P 1'
_cell_length_a   11.98720400
_cell_length_b   11.98720384
_cell_length_c   9.28744300
_cell_angle_alpha   90.00000000
_cell_angle_beta   90.00000000
_cell_angle_gamma   120.00000044
_symmetry_Int_Tables_number   1
_chemical_formula_structural   Cs6HgTe4
_chemical_formula_sum   'Cs12 Hg2 Te8'
_cell_volume   1155.74647604
_cell_formula_units_Z   2
loop_
 _symmetry_equiv_pos_site_id
 _symmetry_equiv_pos_as_xyz
  1  'x, y, z'
loop_
 _atom_site_type_symbol
 _atom_site_label
 _atom_site_symmetry_multiplicity
 _atom_site_fract_x
 _atom_site_fract_y
 _atom_site_fract_z
 _atom_site_occupancy
  Cs  Cs0  1  0.148971  0.297942  0.204990  1
  Cs  Cs1  1  0.148971  0.851029  0.204990  1
  Cs  Cs2  1  0.702058  0.851029  0.204990  1
  Cs  Cs3  1  0.851029  0.702058  0.704990  1
  Cs  Cs4  1  0.851029  0.148971  0.704990  1
  Cs  Cs5  1  0.297942  0.148971  0.704990  1
  Cs  Cs6  1  0.526424  0.052849  0.379358  1
  Cs  Cs7  1  0.526424  0.473576  0.379358  1
  Cs  Cs8  1  0.947151  0.473576  0.379358  1
  Cs  Cs9  1  0.473576  0.947151  0.879358  1
  Cs  Cs10  1  0.473576  0.526424  0.879358  1
  Cs  Cs11  1  0.052849  0.526424  0.879358  1
  Hg  Hg12  1  0.333333  0.666667  0.499471  1
  Hg  Hg13  1  0.666667  0.333333  0.999471  1
  Te  Te14  1  0.333333  0.666667  0.174874  1
  Te  Te15  1  0.666667  0.333333  0.674874  1
  Te  Te16  1  0.803222  0.606444  0.097509  1
  Te  Te17  1  0.803222  0.196778  0.097509  1
  Te  Te18  1  0.393556  0.196778  0.097509  1
  Te  Te19  1  0.196778  0.393556  0.597509  1
  Te  Te20  1  0.196778  0.803222  0.597509  1
  Te  Te21  1  0.606444  0.803222  0.597509  1
