# generated using pymatgen
data_Tb16MgFe(NiAg)3
_symmetry_space_group_name_H-M   'P 1'
_cell_length_a   9.48534451
_cell_length_b   9.50825766
_cell_length_c   9.50825783
_cell_angle_alpha   60.01355098
_cell_angle_beta   60.14482144
_cell_angle_gamma   60.14480862
_symmetry_Int_Tables_number   1
_chemical_formula_structural   Tb16MgFe(NiAg)3
_chemical_formula_sum   'Tb16 Mg1 Fe1 Ni3 Ag3'
_cell_volume   607.75957791
_cell_formula_units_Z   1
loop_
 _symmetry_equiv_pos_site_id
 _symmetry_equiv_pos_as_xyz
  1  'x, y, z'
loop_
 _atom_site_type_symbol
 _atom_site_label
 _atom_site_symmetry_multiplicity
 _atom_site_fract_x
 _atom_site_fract_y
 _atom_site_fract_z
 _atom_site_occupancy
  Tb  Tb0  1  0.184546  0.814247  0.814247  1
  Tb  Tb1  1  0.809936  0.187343  0.187343  1
  Tb  Tb2  1  0.812336  0.186143  0.814272  1
  Tb  Tb3  1  0.186081  0.811225  0.188189  1
  Tb  Tb4  1  0.812336  0.814272  0.186143  1
  Tb  Tb5  1  0.186081  0.188189  0.811225  1
  Tb  Tb6  1  0.064735  0.438302  0.438302  1
  Tb  Tb7  1  0.436268  0.062343  0.062343  1
  Tb  Tb8  1  0.434987  0.067373  0.436649  1
  Tb  Tb9  1  0.058799  0.439707  0.059435  1
  Tb  Tb10  1  0.434987  0.436649  0.067373  1
  Tb  Tb11  1  0.058799  0.059435  0.439707  1
  Tb  Tb12  1  0.597079  0.596908  0.596908  1
  Tb  Tb13  1  0.595950  0.595863  0.210453  1
  Tb  Tb14  1  0.595950  0.210453  0.595863  1
  Tb  Tb15  1  0.198626  0.600250  0.600250  1
  Mg  Mg16  1  0.538184  0.819871  0.819871  1
  Fe  Fe17  1  0.389904  0.393170  0.393170  1
  Ni  Ni18  1  0.391017  0.394117  0.823398  1
  Ni  Ni19  1  0.391017  0.823398  0.394117  1
  Ni  Ni20  1  0.823724  0.393130  0.393130  1
  Ag  Ag21  1  0.832991  0.833912  0.833912  1
  Ag  Ag22  1  0.832834  0.834426  0.499277  1
  Ag  Ag23  1  0.832834  0.499277  0.834426  1
