# generated using pymatgen
data_Ta7Fe4Co4Si14Mo
_symmetry_space_group_name_H-M   'P 1'
_cell_length_a   9.20871384
_cell_length_b   9.19120826
_cell_length_c   9.21527000
_cell_angle_alpha   94.20747868
_cell_angle_beta   94.30850046
_cell_angle_gamma   148.34875048
_symmetry_Int_Tables_number   1
_chemical_formula_structural   Ta7Fe4Co4Si14Mo
_chemical_formula_sum   'Ta7 Fe4 Co4 Si14 Mo1'
_cell_volume   393.82767598
_cell_formula_units_Z   1
loop_
 _symmetry_equiv_pos_site_id
 _symmetry_equiv_pos_as_xyz
  1  'x, y, z'
loop_
 _atom_site_type_symbol
 _atom_site_label
 _atom_site_symmetry_multiplicity
 _atom_site_fract_x
 _atom_site_fract_y
 _atom_site_fract_z
 _atom_site_occupancy
  Ta  Ta0  1  0.866411  0.866426  0.732822  1
  Ta  Ta1  1  0.864241  0.133367  0.997974  1
  Ta  Ta2  1  0.133734  0.864606  0.997974  1
  Ta  Ta3  1  0.500107  0.691047  0.191503  1
  Ta  Ta4  1  0.498673  0.309467  0.809911  1
  Ta  Ta5  1  0.311220  0.500432  0.809906  1
  Ta  Ta6  1  0.691394  0.500460  0.191495  1
  Fe  Fe7  1  0.598080  0.400733  0.499577  1
  Fe  Fe8  1  0.901519  0.098869  0.499575  1
  Fe  Fe9  1  0.901656  0.401645  0.803317  1
  Fe  Fe10  1  0.598928  0.098918  0.197827  1
  Co  Co11  1  0.397841  0.897833  0.795672  1
  Co  Co12  1  0.102671  0.602664  0.205345  1
  Co  Co13  1  0.102321  0.898221  0.499356  1
  Co  Co14  1  0.397021  0.601148  0.499354  1
  Si  Si15  1  0.290545  0.290522  0.580987  1
  Si  Si16  1  0.708688  0.708671  0.417444  1
  Si  Si17  1  0.708526  0.291452  0.000306  1
  Si  Si18  1  0.291777  0.708849  0.000305  1
  Si  Si19  1  0.996238  0.289426  0.296209  1
  Si  Si20  1  0.992640  0.694800  0.701182  1
  Si  Si21  1  0.708511  0.006357  0.701181  1
  Si  Si22  1  0.299994  0.006804  0.296205  1
  Si  Si23  1  0.513179  0.919747  0.406261  1
  Si  Si24  1  0.512489  0.106949  0.594512  1
  Si  Si25  1  0.082042  0.487579  0.594514  1
  Si  Si26  1  0.893062  0.486490  0.406260  1
  Si  Si27  1  0.752629  0.752602  0.002696  1
  Si  Si28  1  0.250060  0.250091  0.002694  1
  Mo  Mo29  1  0.133802  0.133824  0.267632  1
