# generated using pymatgen
data_CrBi3Sb2O11
_symmetry_space_group_name_H-M   'P 1'
_cell_length_a   9.56223200
_cell_length_b   9.48462848
_cell_length_c   13.46485500
_cell_angle_alpha   45.27297131
_cell_angle_beta   90.00000000
_cell_angle_gamma   90.00000000
_symmetry_Int_Tables_number   1
_chemical_formula_structural   CrBi3Sb2O11
_chemical_formula_sum   'Cr4 Bi12 Sb8 O44'
_cell_volume   867.61198672
_cell_formula_units_Z   4
loop_
 _symmetry_equiv_pos_site_id
 _symmetry_equiv_pos_as_xyz
  1  'x, y, z'
loop_
 _atom_site_type_symbol
 _atom_site_label
 _atom_site_symmetry_multiplicity
 _atom_site_fract_x
 _atom_site_fract_y
 _atom_site_fract_z
 _atom_site_occupancy
  Cr  Cr0  1  0.249386  0.840785  0.251426  1
  Cr  Cr1  1  0.751472  0.657537  0.091512  1
  Cr  Cr2  1  0.750614  0.840785  0.751426  1
  Cr  Cr3  1  0.248528  0.657537  0.591512  1
  Bi  Bi4  1  0.001904  0.986896  0.510184  1
  Bi  Bi5  1  0.518810  0.518494  0.993797  1
  Bi  Bi6  1  0.481190  0.518494  0.493797  1
  Bi  Bi7  1  0.998096  0.986896  0.010184  1
  Bi  Bi8  1  0.380385  0.005712  0.877621  1
  Bi  Bi9  1  0.125598  0.272609  0.621809  1
  Bi  Bi10  1  0.110189  0.747174  0.872811  1
  Bi  Bi11  1  0.381891  0.982254  0.627608  1
  Bi  Bi12  1  0.618109  0.982254  0.127608  1
  Bi  Bi13  1  0.889811  0.747174  0.372811  1
  Bi  Bi14  1  0.874402  0.272609  0.121809  1
  Bi  Bi15  1  0.619615  0.005712  0.377621  1
  Sb  Sb16  1  0.249676  0.147119  0.253487  1
  Sb  Sb17  1  0.749895  0.341609  0.406562  1
  Sb  Sb18  1  0.909701  0.503825  0.747704  1
  Sb  Sb19  1  0.589222  0.503941  0.747932  1
  Sb  Sb20  1  0.750324  0.147119  0.753487  1
  Sb  Sb21  1  0.250105  0.341609  0.906562  1
  Sb  Sb22  1  0.090299  0.503825  0.247704  1
  Sb  Sb23  1  0.410778  0.503941  0.247932  1
  O  O24  1  0.148417  0.004063  0.645523  1
  O  O25  1  0.350531  0.794340  0.854167  1
  O  O26  1  0.353314  0.205343  0.646213  1
  O  O27  1  0.147742  0.000990  0.852853  1
  O  O28  1  0.852258  0.000990  0.352853  1
  O  O29  1  0.646686  0.205343  0.146213  1
  O  O30  1  0.649469  0.794340  0.354167  1
  O  O31  1  0.851583  0.004063  0.145523  1
  O  O32  1  0.244775  0.049151  0.037666  1
  O  O33  1  0.255720  0.620535  0.462121  1
  O  O34  1  0.248660  0.371133  0.040364  1
  O  O35  1  0.243749  0.955510  0.462390  1
  O  O36  1  0.963251  0.667351  0.084275  1
  O  O37  1  0.538948  0.661093  0.085372  1
  O  O38  1  0.964251  0.332837  0.414266  1
  O  O39  1  0.536590  0.332295  0.415125  1
  O  O40  1  0.914255  0.287640  0.750343  1
  O  O41  1  0.918791  0.718263  0.743658  1
  O  O42  1  0.587015  0.290996  0.746856  1
  O  O43  1  0.580994  0.707700  0.754159  1
  O  O44  1  0.756251  0.955510  0.962390  1
  O  O45  1  0.751340  0.371133  0.540364  1
  O  O46  1  0.744280  0.620535  0.962121  1
  O  O47  1  0.755225  0.049151  0.537666  1
  O  O48  1  0.035749  0.332837  0.914266  1
  O  O49  1  0.463410  0.332295  0.915125  1
  O  O50  1  0.036749  0.667351  0.584275  1
  O  O51  1  0.461052  0.661093  0.585372  1
  O  O52  1  0.081209  0.718263  0.243658  1
  O  O53  1  0.085745  0.287640  0.250343  1
  O  O54  1  0.419006  0.707700  0.254159  1
  O  O55  1  0.412985  0.290996  0.246856  1
  O  O56  1  0.250456  0.358417  0.748870  1
  O  O57  1  0.247941  0.638257  0.751923  1
  O  O58  1  0.251011  0.641014  0.110134  1
  O  O59  1  0.249860  0.364955  0.386037  1
  O  O60  1  0.892920  0.995351  0.751694  1
  O  O61  1  0.607765  0.994813  0.753537  1
  O  O62  1  0.752059  0.638257  0.251923  1
  O  O63  1  0.749544  0.358417  0.248870  1
  O  O64  1  0.750140  0.364955  0.886037  1
  O  O65  1  0.748989  0.641014  0.610134  1
  O  O66  1  0.107080  0.995351  0.251694  1
  O  O67  1  0.392235  0.994813  0.253537  1
