# generated using pymatgen
data_Rb3PdAu6
_symmetry_space_group_name_H-M   'P 1'
_cell_length_a   7.33475425
_cell_length_b   7.28356172
_cell_length_c   7.38580600
_cell_angle_alpha   90.00000000
_cell_angle_beta   90.00000000
_cell_angle_gamma   134.03645728
_symmetry_Int_Tables_number   1
_chemical_formula_structural   Rb3PdAu6
_chemical_formula_sum   'Rb3 Pd1 Au6'
_cell_volume   283.65753760
_cell_formula_units_Z   1
loop_
 _symmetry_equiv_pos_site_id
 _symmetry_equiv_pos_as_xyz
  1  'x, y, z'
loop_
 _atom_site_type_symbol
 _atom_site_label
 _atom_site_symmetry_multiplicity
 _atom_site_fract_x
 _atom_site_fract_y
 _atom_site_fract_z
 _atom_site_occupancy
  Rb  Rb0  1  0.500000  0.500000  0.000000  1
  Rb  Rb1  1  0.662208  0.338279  0.500000  1
  Rb  Rb2  1  0.337792  0.661721  0.500000  1
  Pd  Pd3  1  0.000000  0.500000  0.000000  1
  Au  Au4  1  0.000000  0.000000  0.500000  1
  Au  Au5  1  0.500000  0.000000  0.000000  1
  Au  Au6  1  0.102610  0.885760  0.194274  1
  Au  Au7  1  0.897390  0.114240  0.194274  1
  Au  Au8  1  0.897390  0.114240  0.805726  1
  Au  Au9  1  0.102610  0.885760  0.805726  1
