# generated using pymatgen
data_TbFe2CoP2
_symmetry_space_group_name_H-M   'P 1'
_cell_length_a   3.72728200
_cell_length_b   10.58639100
_cell_length_c   12.13514700
_cell_angle_alpha   90.00000000
_cell_angle_beta   90.00000000
_cell_angle_gamma   90.00000000
_symmetry_Int_Tables_number   1
_chemical_formula_structural   TbFe2CoP2
_chemical_formula_sum   'Tb6 Fe12 Co6 P12'
_cell_volume   478.83426855
_cell_formula_units_Z   6
loop_
 _symmetry_equiv_pos_site_id
 _symmetry_equiv_pos_as_xyz
  1  'x, y, z'
loop_
 _atom_site_type_symbol
 _atom_site_label
 _atom_site_symmetry_multiplicity
 _atom_site_fract_x
 _atom_site_fract_y
 _atom_site_fract_z
 _atom_site_occupancy
  Tb  Tb0  1  0.000000  0.500000  0.524021  1
  Tb  Tb1  1  0.500000  0.000000  0.475979  1
  Tb  Tb2  1  0.500000  0.820549  0.205425  1
  Tb  Tb3  1  0.500000  0.179451  0.205425  1
  Tb  Tb4  1  0.000000  0.679451  0.794575  1
  Tb  Tb5  1  0.000000  0.320549  0.794575  1
  Fe  Fe6  1  0.500000  0.500000  0.153806  1
  Fe  Fe7  1  0.000000  0.000000  0.846194  1
  Fe  Fe8  1  0.000000  0.500000  0.989542  1
  Fe  Fe9  1  0.500000  0.000000  0.010458  1
  Fe  Fe10  1  0.500000  0.331429  0.996873  1
  Fe  Fe11  1  0.500000  0.668571  0.996873  1
  Fe  Fe12  1  0.000000  0.168571  0.003127  1
  Fe  Fe13  1  0.000000  0.831429  0.003127  1
  Fe  Fe14  1  0.500000  0.298378  0.428955  1
  Fe  Fe15  1  0.500000  0.701622  0.428955  1
  Fe  Fe16  1  0.000000  0.201622  0.571045  1
  Fe  Fe17  1  0.000000  0.798378  0.571045  1
  Co  Co18  1  0.500000  0.500000  0.700507  1
  Co  Co19  1  0.000000  0.000000  0.299493  1
  Co  Co20  1  0.500000  0.881380  0.711858  1
  Co  Co21  1  0.500000  0.118620  0.711858  1
  Co  Co22  1  0.000000  0.618620  0.288142  1
  Co  Co23  1  0.000000  0.381380  0.288142  1
  P  P24  1  0.500000  0.500000  0.886607  1
  P  P25  1  0.000000  0.000000  0.113393  1
  P  P26  1  0.500000  0.500000  0.341761  1
  P  P27  1  0.000000  0.000000  0.658239  1
  P  P28  1  0.500000  0.306056  0.614354  1
  P  P29  1  0.500000  0.693944  0.614354  1
  P  P30  1  0.000000  0.193944  0.385646  1
  P  P31  1  0.000000  0.806056  0.385646  1
  P  P32  1  0.500000  0.846112  0.894628  1
  P  P33  1  0.500000  0.153888  0.894628  1
  P  P34  1  0.000000  0.653888  0.105372  1
  P  P35  1  0.000000  0.346112  0.105372  1
