# generated using pymatgen
data_CdSi2P4(Pd10Pb)2
_symmetry_space_group_name_H-M   'P 1'
_cell_length_a   8.71066629
_cell_length_b   8.67817276
_cell_length_c   8.67817291
_cell_angle_alpha   60.24787831
_cell_angle_beta   59.87607305
_cell_angle_gamma   59.87606428
_symmetry_Int_Tables_number   1
_chemical_formula_structural   CdSi2P4(Pd10Pb)2
_chemical_formula_sum   'Cd1 Si2 P4 Pd20 Pb2'
_cell_volume   463.85345639
_cell_formula_units_Z   1
loop_
 _symmetry_equiv_pos_site_id
 _symmetry_equiv_pos_as_xyz
  1  'x, y, z'
loop_
 _atom_site_type_symbol
 _atom_site_label
 _atom_site_symmetry_multiplicity
 _atom_site_fract_x
 _atom_site_fract_y
 _atom_site_fract_z
 _atom_site_occupancy
  Cd  Cd0  1  0.000000  0.000000  0.000000  1
  Si  Si1  1  0.733484  0.266516  0.266516  1
  Si  Si2  1  0.266516  0.733484  0.733484  1
  P  P3  1  0.266455  0.733545  0.266455  1
  P  P4  1  0.733545  0.266455  0.733545  1
  P  P5  1  0.266455  0.266455  0.733545  1
  P  P6  1  0.733545  0.733545  0.266455  1
  Pd  Pd7  1  0.383251  0.384556  0.384556  1
  Pd  Pd8  1  0.616749  0.615444  0.615444  1
  Pd  Pd9  1  0.384556  0.383251  0.847637  1
  Pd  Pd10  1  0.384556  0.847637  0.383251  1
  Pd  Pd11  1  0.615444  0.616749  0.152363  1
  Pd  Pd12  1  0.615444  0.152363  0.616749  1
  Pd  Pd13  1  0.847637  0.384556  0.384556  1
  Pd  Pd14  1  0.152363  0.615444  0.615444  1
  Pd  Pd15  1  0.341544  0.000000  0.000000  1
  Pd  Pd16  1  0.658456  0.000000  0.000000  1
  Pd  Pd17  1  0.000000  0.341544  0.658456  1
  Pd  Pd18  1  0.000000  0.658456  0.341544  1
  Pd  Pd19  1  0.001205  0.342840  0.998795  1
  Pd  Pd20  1  0.657160  0.998795  0.342840  1
  Pd  Pd21  1  0.998795  0.657160  0.001205  1
  Pd  Pd22  1  0.342840  0.001205  0.657160  1
  Pd  Pd23  1  0.001205  0.998795  0.342840  1
  Pd  Pd24  1  0.998795  0.001205  0.657160  1
  Pd  Pd25  1  0.657160  0.342840  0.998795  1
  Pd  Pd26  1  0.342840  0.657160  0.001205  1
  Pb  Pb27  1  0.250000  0.250000  0.250000  1
  Pb  Pb28  1  0.750000  0.750000  0.750000  1
