# generated using pymatgen
data_SmY2Ti(Co4P3)2
_symmetry_space_group_name_H-M   'P 1'
_cell_length_a   3.71023400
_cell_length_b   10.62980100
_cell_length_c   12.32019500
_cell_angle_alpha   90.00000000
_cell_angle_beta   90.00000000
_cell_angle_gamma   90.00000000
_symmetry_Int_Tables_number   1
_chemical_formula_structural   SmY2Ti(Co4P3)2
_chemical_formula_sum   'Sm2 Y4 Ti2 Co16 P12'
_cell_volume   485.89677532
_cell_formula_units_Z   2
loop_
 _symmetry_equiv_pos_site_id
 _symmetry_equiv_pos_as_xyz
  1  'x, y, z'
loop_
 _atom_site_type_symbol
 _atom_site_label
 _atom_site_symmetry_multiplicity
 _atom_site_fract_x
 _atom_site_fract_y
 _atom_site_fract_z
 _atom_site_occupancy
  Sm  Sm0  1  0.000000  0.500000  0.526029  1
  Sm  Sm1  1  0.500000  0.000000  0.473971  1
  Y  Y2  1  0.500000  0.819779  0.203978  1
  Y  Y3  1  0.500000  0.180221  0.203978  1
  Y  Y4  1  0.000000  0.680221  0.796022  1
  Y  Y5  1  0.000000  0.319779  0.796022  1
  Ti  Ti6  1  0.500000  0.500000  0.152664  1
  Ti  Ti7  1  0.000000  0.000000  0.847336  1
  Co  Co8  1  0.500000  0.500000  0.704538  1
  Co  Co9  1  0.000000  0.000000  0.295462  1
  Co  Co10  1  0.000000  0.500000  0.987604  1
  Co  Co11  1  0.500000  0.000000  0.012396  1
  Co  Co12  1  0.500000  0.332114  0.994137  1
  Co  Co13  1  0.500000  0.667886  0.994137  1
  Co  Co14  1  0.000000  0.167886  0.005863  1
  Co  Co15  1  0.000000  0.832114  0.005863  1
  Co  Co16  1  0.500000  0.295545  0.431259  1
  Co  Co17  1  0.500000  0.704455  0.431259  1
  Co  Co18  1  0.000000  0.204455  0.568741  1
  Co  Co19  1  0.000000  0.795545  0.568741  1
  Co  Co20  1  0.500000  0.878788  0.706848  1
  Co  Co21  1  0.500000  0.121212  0.706848  1
  Co  Co22  1  0.000000  0.621212  0.293152  1
  Co  Co23  1  0.000000  0.378788  0.293152  1
  P  P24  1  0.500000  0.500000  0.884069  1
  P  P25  1  0.000000  0.000000  0.115931  1
  P  P26  1  0.500000  0.500000  0.350968  1
  P  P27  1  0.000000  0.000000  0.649032  1
  P  P28  1  0.500000  0.308423  0.616292  1
  P  P29  1  0.500000  0.691577  0.616292  1
  P  P30  1  0.000000  0.191577  0.383708  1
  P  P31  1  0.000000  0.808423  0.383708  1
  P  P32  1  0.500000  0.843115  0.892522  1
  P  P33  1  0.500000  0.156885  0.892522  1
  P  P34  1  0.000000  0.656885  0.107478  1
  P  P35  1  0.000000  0.343115  0.107478  1
