# generated using pymatgen
data_Te(PdCl6)2
_symmetry_space_group_name_H-M   'P 1'
_cell_length_a   8.79815747
_cell_length_b   11.41742800
_cell_length_c   9.69168978
_cell_angle_alpha   90.00000000
_cell_angle_beta   91.27020408
_cell_angle_gamma   90.00000000
_symmetry_Int_Tables_number   1
_chemical_formula_structural   Te(PdCl6)2
_chemical_formula_sum   'Te2 Pd4 Cl24'
_cell_volume   973.31358505
_cell_formula_units_Z   2
loop_
 _symmetry_equiv_pos_site_id
 _symmetry_equiv_pos_as_xyz
  1  'x, y, z'
loop_
 _atom_site_type_symbol
 _atom_site_label
 _atom_site_symmetry_multiplicity
 _atom_site_fract_x
 _atom_site_fract_y
 _atom_site_fract_z
 _atom_site_occupancy
  Te  Te0  1  0.847580  0.750000  0.077116  1
  Te  Te1  1  0.152421  0.250000  0.922885  1
  Pd  Pd2  1  0.126511  0.750000  0.363844  1
  Pd  Pd3  1  0.641016  0.250000  0.388775  1
  Pd  Pd4  1  0.358984  0.750000  0.611225  1
  Pd  Pd5  1  0.873489  0.250000  0.636156  1
  Cl  Cl6  1  0.166845  0.096697  0.085166  1
  Cl  Cl7  1  0.166845  0.403303  0.085166  1
  Cl  Cl8  1  0.189798  0.750000  0.131473  1
  Cl  Cl9  1  0.589371  0.750000  0.129900  1
  Cl  Cl10  1  0.626315  0.106849  0.224081  1
  Cl  Cl11  1  0.626315  0.393151  0.224081  1
  Cl  Cl12  1  0.943657  0.605721  0.320624  1
  Cl  Cl13  1  0.943657  0.894278  0.320624  1
  Cl  Cl14  1  0.917840  0.250000  0.394499  1
  Cl  Cl15  1  0.319376  0.610819  0.423789  1
  Cl  Cl16  1  0.319376  0.889180  0.423789  1
  Cl  Cl17  1  0.383217  0.250000  0.410079  1
  Cl  Cl18  1  0.616783  0.750000  0.589921  1
  Cl  Cl19  1  0.680624  0.110820  0.576210  1
  Cl  Cl20  1  0.680624  0.389181  0.576210  1
  Cl  Cl21  1  0.082160  0.750000  0.605501  1
  Cl  Cl22  1  0.056342  0.105722  0.679376  1
  Cl  Cl23  1  0.056342  0.394279  0.679376  1
  Cl  Cl24  1  0.373685  0.606849  0.775919  1
  Cl  Cl25  1  0.373685  0.893151  0.775919  1
  Cl  Cl26  1  0.410630  0.250000  0.870100  1
  Cl  Cl27  1  0.810202  0.250000  0.868526  1
  Cl  Cl28  1  0.833156  0.596697  0.914834  1
  Cl  Cl29  1  0.833156  0.903303  0.914834  1
