# generated using pymatgen
data_Pr5NdHo4(Sn5Rh2)4
_symmetry_space_group_name_H-M   'P 1'
_cell_length_a   14.19805400
_cell_length_b   14.19805400
_cell_length_c   4.58480200
_cell_angle_alpha   90.00000000
_cell_angle_beta   90.00000000
_cell_angle_gamma   90.00000000
_symmetry_Int_Tables_number   1
_chemical_formula_structural   Pr5NdHo4(Sn5Rh2)4
_chemical_formula_sum   'Pr5 Nd1 Ho4 Sn20 Rh8'
_cell_volume   924.22610714
_cell_formula_units_Z   1
loop_
 _symmetry_equiv_pos_site_id
 _symmetry_equiv_pos_as_xyz
  1  'x, y, z'
loop_
 _atom_site_type_symbol
 _atom_site_label
 _atom_site_symmetry_multiplicity
 _atom_site_fract_x
 _atom_site_fract_y
 _atom_site_fract_z
 _atom_site_occupancy
  Pr  Pr0  1  0.000000  0.000000  0.000000  1
  Pr  Pr1  1  0.888191  0.388196  0.500000  1
  Pr  Pr2  1  0.111809  0.611804  0.500000  1
  Pr  Pr3  1  0.388196  0.111809  0.500000  1
  Pr  Pr4  1  0.611804  0.888191  0.500000  1
  Nd  Nd5  1  0.500000  0.500000  0.000000  1
  Ho  Ho6  1  0.676603  0.176603  0.500000  1
  Ho  Ho7  1  0.323397  0.823397  0.500000  1
  Ho  Ho8  1  0.176603  0.323397  0.500000  1
  Ho  Ho9  1  0.823397  0.676603  0.500000  1
  Sn  Sn10  1  0.570021  0.070020  0.000000  1
  Sn  Sn11  1  0.429979  0.929980  0.000000  1
  Sn  Sn12  1  0.070020  0.429979  0.000000  1
  Sn  Sn13  1  0.929980  0.570021  0.000000  1
  Sn  Sn14  1  0.654133  0.698481  0.000000  1
  Sn  Sn15  1  0.345867  0.301519  0.000000  1
  Sn  Sn16  1  0.154155  0.801483  0.000000  1
  Sn  Sn17  1  0.845845  0.198517  0.000000  1
  Sn  Sn18  1  0.301519  0.654133  0.000000  1
  Sn  Sn19  1  0.698481  0.345867  0.000000  1
  Sn  Sn20  1  0.198517  0.154155  0.000000  1
  Sn  Sn21  1  0.801483  0.845845  0.000000  1
  Sn  Sn22  1  0.664052  0.506135  0.500000  1
  Sn  Sn23  1  0.335948  0.493865  0.500000  1
  Sn  Sn24  1  0.164283  0.993849  0.500000  1
  Sn  Sn25  1  0.835717  0.006151  0.500000  1
  Sn  Sn26  1  0.493865  0.664052  0.500000  1
  Sn  Sn27  1  0.506135  0.335948  0.500000  1
  Sn  Sn28  1  0.006151  0.164283  0.500000  1
  Sn  Sn29  1  0.993849  0.835717  0.500000  1
  Rh  Rh30  1  0.747332  0.530244  0.000000  1
  Rh  Rh31  1  0.252668  0.469756  0.000000  1
  Rh  Rh32  1  0.247450  0.969740  0.000000  1
  Rh  Rh33  1  0.752550  0.030260  0.000000  1
  Rh  Rh34  1  0.469756  0.747332  0.000000  1
  Rh  Rh35  1  0.530244  0.252668  0.000000  1
  Rh  Rh36  1  0.030260  0.247450  0.000000  1
  Rh  Rh37  1  0.969740  0.752550  0.000000  1
