# generated using pymatgen
data_Tm8Re(TcB8)3
_symmetry_space_group_name_H-M   'P 1'
_cell_length_a   3.64248000
_cell_length_b   9.09889028
_cell_length_c   11.45977135
_cell_angle_alpha   90.02835880
_cell_angle_beta   90.00000000
_cell_angle_gamma   90.00000000
_symmetry_Int_Tables_number   1
_chemical_formula_structural   Tm8Re(TcB8)3
_chemical_formula_sum   'Tm8 Re1 Tc3 B24'
_cell_volume   379.80572185
_cell_formula_units_Z   1
loop_
 _symmetry_equiv_pos_site_id
 _symmetry_equiv_pos_as_xyz
  1  'x, y, z'
loop_
 _atom_site_type_symbol
 _atom_site_label
 _atom_site_symmetry_multiplicity
 _atom_site_fract_x
 _atom_site_fract_y
 _atom_site_fract_z
 _atom_site_occupancy
  Tm  Tm0  1  0.000000  0.323932  0.413916  1
  Tm  Tm1  1  0.000000  0.676210  0.585986  1
  Tm  Tm2  1  0.000000  0.823791  0.086261  1
  Tm  Tm3  1  0.000000  0.176538  0.914030  1
  Tm  Tm4  1  0.000000  0.943104  0.369432  1
  Tm  Tm5  1  0.000000  0.057360  0.629759  1
  Tm  Tm6  1  0.000000  0.443231  0.130597  1
  Tm  Tm7  1  0.000000  0.555837  0.869849  1
  Re  Re8  1  0.000000  0.860886  0.820632  1
  Tc  Tc9  1  0.000000  0.639297  0.320476  1
  Tc  Tc10  1  0.000000  0.360725  0.679460  1
  Tc  Tc11  1  0.000000  0.139324  0.179567  1
  B  B12  1  0.500000  0.553371  0.433382  1
  B  B13  1  0.500000  0.446670  0.566596  1
  B  B14  1  0.500000  0.053405  0.066695  1
  B  B15  1  0.500000  0.946831  0.933619  1
  B  B16  1  0.500000  0.749909  0.419393  1
  B  B17  1  0.500000  0.250179  0.580591  1
  B  B18  1  0.500000  0.249925  0.080566  1
  B  B19  1  0.500000  0.749720  0.919542  1
  B  B20  1  0.500000  0.793056  0.265155  1
  B  B21  1  0.500000  0.206943  0.734762  1
  B  B22  1  0.500000  0.293066  0.234912  1
  B  B23  1  0.500000  0.706559  0.765184  1
  B  B24  1  0.500000  0.631099  0.184998  1
  B  B25  1  0.500000  0.368811  0.815022  1
  B  B26  1  0.500000  0.131120  0.315085  1
  B  B27  1  0.500000  0.869078  0.684779  1
  B  B28  1  0.500000  0.981826  0.211807  1
  B  B29  1  0.500000  0.018479  0.788015  1
  B  B30  1  0.500000  0.481861  0.288177  1
  B  B31  1  0.500000  0.518061  0.711882  1
  B  B32  1  0.500000  0.599888  0.027959  1
  B  B33  1  0.500000  0.399794  0.972174  1
  B  B34  1  0.500000  0.100059  0.471918  1
  B  B35  1  0.500000  0.900057  0.527822  1
