# generated using pymatgen
data_NpScTcB6
_symmetry_space_group_name_H-M   'P 1'
_cell_length_a   3.58923500
_cell_length_b   8.98791500
_cell_length_c   11.34518600
_cell_angle_alpha   90.00000000
_cell_angle_beta   90.00000000
_cell_angle_gamma   90.00000000
_symmetry_Int_Tables_number   1
_chemical_formula_structural   NpScTcB6
_chemical_formula_sum   'Np4 Sc4 Tc4 B24'
_cell_volume   365.99274034
_cell_formula_units_Z   4
loop_
 _symmetry_equiv_pos_site_id
 _symmetry_equiv_pos_as_xyz
  1  'x, y, z'
loop_
 _atom_site_type_symbol
 _atom_site_label
 _atom_site_symmetry_multiplicity
 _atom_site_fract_x
 _atom_site_fract_y
 _atom_site_fract_z
 _atom_site_occupancy
  Np  Np0  1  0.000000  0.822043  0.084681  1
  Np  Np1  1  0.000000  0.177957  0.915319  1
  Np  Np2  1  0.000000  0.322043  0.415319  1
  Np  Np3  1  0.000000  0.677957  0.584681  1
  Sc  Sc4  1  0.000000  0.445140  0.126589  1
  Sc  Sc5  1  0.000000  0.554860  0.873411  1
  Sc  Sc6  1  0.000000  0.945140  0.373411  1
  Sc  Sc7  1  0.000000  0.054860  0.626589  1
  Tc  Tc8  1  0.000000  0.139754  0.179953  1
  Tc  Tc9  1  0.000000  0.860246  0.820047  1
  Tc  Tc10  1  0.000000  0.639754  0.320047  1
  Tc  Tc11  1  0.000000  0.360246  0.679953  1
  B  B12  1  0.500000  0.053279  0.066636  1
  B  B13  1  0.500000  0.946721  0.933364  1
  B  B14  1  0.500000  0.553279  0.433364  1
  B  B15  1  0.500000  0.446721  0.566636  1
  B  B16  1  0.500000  0.253190  0.080255  1
  B  B17  1  0.500000  0.746810  0.919745  1
  B  B18  1  0.500000  0.753190  0.419745  1
  B  B19  1  0.500000  0.246810  0.580255  1
  B  B20  1  0.500000  0.295111  0.235473  1
  B  B21  1  0.500000  0.704889  0.764527  1
  B  B22  1  0.500000  0.795111  0.264527  1
  B  B23  1  0.500000  0.204889  0.735473  1
  B  B24  1  0.500000  0.130484  0.317748  1
  B  B25  1  0.500000  0.869516  0.682252  1
  B  B26  1  0.500000  0.630484  0.182252  1
  B  B27  1  0.500000  0.369516  0.817748  1
  B  B28  1  0.500000  0.480659  0.285929  1
  B  B29  1  0.500000  0.519341  0.714071  1
  B  B30  1  0.500000  0.980659  0.214071  1
  B  B31  1  0.500000  0.019341  0.785929  1
  B  B32  1  0.500000  0.100080  0.472585  1
  B  B33  1  0.500000  0.899920  0.527415  1
  B  B34  1  0.500000  0.600080  0.027415  1
  B  B35  1  0.500000  0.399920  0.972585  1
