# generated using pymatgen
data_RuPt3(Pb2O7)2
_symmetry_space_group_name_H-M   'P 1'
_cell_length_a   7.36809556
_cell_length_b   7.36809428
_cell_length_c   7.44356702
_cell_angle_alpha   60.33483584
_cell_angle_beta   60.33484314
_cell_angle_gamma   59.99999860
_symmetry_Int_Tables_number   1
_chemical_formula_structural   RuPt3(Pb2O7)2
_chemical_formula_sum   'Ru1 Pt3 Pb4 O14'
_cell_volume   287.18125576
_cell_formula_units_Z   1
loop_
 _symmetry_equiv_pos_site_id
 _symmetry_equiv_pos_as_xyz
  1  'x, y, z'
loop_
 _atom_site_type_symbol
 _atom_site_label
 _atom_site_symmetry_multiplicity
 _atom_site_fract_x
 _atom_site_fract_y
 _atom_site_fract_z
 _atom_site_occupancy
  Ru  Ru0  1  0.625000  0.625000  0.125000  1
  Pt  Pt1  1  0.625000  0.625000  0.625000  1
  Pt  Pt2  1  0.625000  0.125000  0.625000  1
  Pt  Pt3  1  0.125000  0.625000  0.625000  1
  Pb  Pb4  1  0.125000  0.125000  0.125000  1
  Pb  Pb5  1  0.625000  0.125000  0.125000  1
  Pb  Pb6  1  0.125000  0.625000  0.125000  1
  Pb  Pb7  1  0.125000  0.125000  0.625000  1
  O  O8  1  0.702390  0.299988  0.295234  1
  O  O9  1  0.710603  0.293609  0.702179  1
  O  O10  1  0.008223  0.008223  0.975329  1
  O  O11  1  0.299988  0.702390  0.295234  1
  O  O12  1  0.702390  0.702390  0.295234  1
  O  O13  1  0.956391  0.539397  0.547821  1
  O  O14  1  0.293609  0.710603  0.702179  1
  O  O15  1  0.241777  0.241777  0.274671  1
  O  O16  1  0.950012  0.547610  0.954766  1
  O  O17  1  0.539397  0.956391  0.547821  1
  O  O18  1  0.547610  0.547610  0.954766  1
  O  O19  1  0.956391  0.956391  0.547821  1
  O  O20  1  0.547610  0.950012  0.954766  1
  O  O21  1  0.293609  0.293609  0.702179  1
