# generated using pymatgen
data_Tb5Pr2Th(Si3Pd)4
_symmetry_space_group_name_H-M   'P 1'
_cell_length_a   8.21555300
_cell_length_b   8.20537124
_cell_length_c   8.34515300
_cell_angle_alpha   90.00000000
_cell_angle_beta   90.00000000
_cell_angle_gamma   120.04106002
_symmetry_Int_Tables_number   1
_chemical_formula_structural   Tb5Pr2Th(Si3Pd)4
_chemical_formula_sum   'Tb5 Pr2 Th1 Si12 Pd4'
_cell_volume   486.99010225
_cell_formula_units_Z   1
loop_
 _symmetry_equiv_pos_site_id
 _symmetry_equiv_pos_as_xyz
  1  'x, y, z'
loop_
 _atom_site_type_symbol
 _atom_site_label
 _atom_site_symmetry_multiplicity
 _atom_site_fract_x
 _atom_site_fract_y
 _atom_site_fract_z
 _atom_site_occupancy
  Tb  Tb0  1  0.499548  0.999098  0.750000  1
  Tb  Tb1  1  0.999200  0.499629  0.250000  1
  Tb  Tb2  1  0.001039  0.500515  0.750000  1
  Tb  Tb3  1  0.500430  0.499629  0.250000  1
  Tb  Tb4  1  0.499474  0.500515  0.750000  1
  Pr  Pr5  1  0.000000  0.999999  0.250000  1
  Pr  Pr6  1  0.999970  0.999941  0.750000  1
  Th  Th7  1  0.500294  0.000586  0.250000  1
  Si  Si8  1  0.167104  0.334209  0.000976  1
  Si  Si9  1  0.832856  0.665713  0.000028  1
  Si  Si10  1  0.667406  0.832946  0.998655  1
  Si  Si11  1  0.832856  0.665713  0.499972  1
  Si  Si12  1  0.332672  0.167113  0.997572  1
  Si  Si13  1  0.167104  0.334209  0.499024  1
  Si  Si14  1  0.165539  0.832946  0.998655  1
  Si  Si15  1  0.332672  0.167113  0.502428  1
  Si  Si16  1  0.834441  0.167113  0.997572  1
  Si  Si17  1  0.667406  0.832946  0.501345  1
  Si  Si18  1  0.834441  0.167113  0.502428  1
  Si  Si19  1  0.165539  0.832946  0.501345  1
  Pd  Pd20  1  0.333275  0.666551  0.998043  1
  Pd  Pd21  1  0.666727  0.333454  0.996316  1
  Pd  Pd22  1  0.666727  0.333454  0.503684  1
  Pd  Pd23  1  0.333275  0.666551  0.501957  1
