# generated using pymatgen
data_In12Tc2IrRh
_symmetry_space_group_name_H-M   'P 1'
_cell_length_a   7.13864018
_cell_length_b   7.13864083
_cell_length_c   7.37586700
_cell_angle_alpha   90.00000000
_cell_angle_beta   90.00000000
_cell_angle_gamma   90.40329075
_symmetry_Int_Tables_number   1
_chemical_formula_structural   In12Tc2IrRh
_chemical_formula_sum   'In12 Tc2 Ir1 Rh1'
_cell_volume   375.86625993
_cell_formula_units_Z   1
loop_
 _symmetry_equiv_pos_site_id
 _symmetry_equiv_pos_as_xyz
  1  'x, y, z'
loop_
 _atom_site_type_symbol
 _atom_site_label
 _atom_site_symmetry_multiplicity
 _atom_site_fract_x
 _atom_site_fract_y
 _atom_site_fract_z
 _atom_site_occupancy
  In  In0  1  0.999080  0.498769  0.500000  1
  In  In1  1  0.500282  0.000390  0.000000  1
  In  In2  1  0.501231  0.000920  0.500000  1
  In  In3  1  0.999610  0.499718  0.000000  1
  In  In4  1  0.343882  0.656118  0.236006  1
  In  In5  1  0.656117  0.343883  0.236035  1
  In  In6  1  0.154425  0.153954  0.740237  1
  In  In7  1  0.846046  0.845575  0.740237  1
  In  In8  1  0.656117  0.343883  0.763965  1
  In  In9  1  0.343882  0.656118  0.763994  1
  In  In10  1  0.846046  0.845575  0.259763  1
  In  In11  1  0.154425  0.153954  0.259763  1
  Tc  Tc12  1  0.343175  0.343824  0.000000  1
  Tc  Tc13  1  0.656176  0.656825  0.000000  1
  Ir  Ir14  1  0.153987  0.846013  0.500000  1
  Rh  Rh15  1  0.845521  0.154479  0.500000  1
