# generated using pymatgen
data_Dy3Mg3CuAgIr
_symmetry_space_group_name_H-M   'P 1'
_cell_length_a   7.73981300
_cell_length_b   7.73981130
_cell_length_c   3.84035900
_cell_angle_alpha   90.00000000
_cell_angle_beta   90.00000000
_cell_angle_gamma   120.00000301
_symmetry_Int_Tables_number   1
_chemical_formula_structural   Dy3Mg3CuAgIr
_chemical_formula_sum   'Dy3 Mg3 Cu1 Ag1 Ir1'
_cell_volume   199.23392151
_cell_formula_units_Z   1
loop_
 _symmetry_equiv_pos_site_id
 _symmetry_equiv_pos_as_xyz
  1  'x, y, z'
loop_
 _atom_site_type_symbol
 _atom_site_label
 _atom_site_symmetry_multiplicity
 _atom_site_fract_x
 _atom_site_fract_y
 _atom_site_fract_z
 _atom_site_occupancy
  Dy  Dy0  1  0.425773  0.395715  0.500000  1
  Dy  Dy1  1  0.604285  0.030057  0.500000  1
  Dy  Dy2  1  0.969943  0.574227  0.500000  1
  Mg  Mg3  1  0.752614  0.753965  0.000000  1
  Mg  Mg4  1  0.246035  0.998649  0.000000  1
  Mg  Mg5  1  0.001351  0.247386  0.000000  1
  Cu  Cu6  1  0.000000  0.000000  0.500000  1
  Ag  Ag7  1  0.333333  0.666667  0.000000  1
  Ir  Ir8  1  0.666667  0.333333  0.000000  1
