# generated using pymatgen
data_Y4ErIrRh2
_symmetry_space_group_name_H-M   'P 1'
_cell_length_a   10.92221200
_cell_length_b   10.92221200
_cell_length_c   6.38787600
_cell_angle_alpha   90.00000000
_cell_angle_beta   90.00000000
_cell_angle_gamma   90.00000000
_symmetry_Int_Tables_number   1
_chemical_formula_structural   Y4ErIrRh2
_chemical_formula_sum   'Y16 Er4 Ir4 Rh8'
_cell_volume   762.03984670
_cell_formula_units_Z   4
loop_
 _symmetry_equiv_pos_site_id
 _symmetry_equiv_pos_as_xyz
  1  'x, y, z'
loop_
 _atom_site_type_symbol
 _atom_site_label
 _atom_site_symmetry_multiplicity
 _atom_site_fract_x
 _atom_site_fract_y
 _atom_site_fract_z
 _atom_site_occupancy
  Y  Y0  1  0.290818  0.089628  0.378444  1
  Y  Y1  1  0.290818  0.910372  0.878444  1
  Y  Y2  1  0.709182  0.089628  0.878444  1
  Y  Y3  1  0.709182  0.910372  0.378444  1
  Y  Y4  1  0.587303  0.789341  0.879287  1
  Y  Y5  1  0.587303  0.210659  0.379287  1
  Y  Y6  1  0.412697  0.789341  0.379287  1
  Y  Y7  1  0.412697  0.210659  0.879287  1
  Y  Y8  1  0.210659  0.412697  0.620713  1
  Y  Y9  1  0.210659  0.587303  0.120713  1
  Y  Y10  1  0.789341  0.412697  0.120713  1
  Y  Y11  1  0.789341  0.587303  0.620713  1
  Y  Y12  1  0.910372  0.709182  0.121556  1
  Y  Y13  1  0.910372  0.290818  0.621556  1
  Y  Y14  1  0.089628  0.709182  0.621556  1
  Y  Y15  1  0.089628  0.290818  0.121556  1
  Er  Er16  1  0.000000  0.000000  0.500000  1
  Er  Er17  1  0.000000  0.000000  0.000000  1
  Er  Er18  1  0.500000  0.500000  0.000000  1
  Er  Er19  1  0.500000  0.500000  0.500000  1
  Ir  Ir20  1  0.652918  0.347082  0.750000  1
  Ir  Ir21  1  0.652918  0.652918  0.250000  1
  Ir  Ir22  1  0.347082  0.347082  0.250000  1
  Ir  Ir23  1  0.347082  0.652918  0.750000  1
  Rh  Rh24  1  0.848917  0.151083  0.250000  1
  Rh  Rh25  1  0.848917  0.848917  0.750000  1
  Rh  Rh26  1  0.151083  0.151083  0.750000  1
  Rh  Rh27  1  0.151083  0.848917  0.250000  1
  Rh  Rh28  1  0.500000  0.000000  0.124023  1
  Rh  Rh29  1  0.500000  0.000000  0.624023  1
  Rh  Rh30  1  0.000000  0.500000  0.875977  1
  Rh  Rh31  1  0.000000  0.500000  0.375977  1
