# generated using pymatgen
data_Ba6HfFe3O13
_symmetry_space_group_name_H-M   'P 1'
_cell_length_a   11.27734500
_cell_length_b   11.27734450
_cell_length_c   5.74412600
_cell_angle_alpha   90.00000000
_cell_angle_beta   90.00000000
_cell_angle_gamma   150.40281984
_symmetry_Int_Tables_number   1
_chemical_formula_structural   Ba6HfFe3O13
_chemical_formula_sum   'Ba6 Hf1 Fe3 O13'
_cell_volume   360.80777158
_cell_formula_units_Z   1
loop_
 _symmetry_equiv_pos_site_id
 _symmetry_equiv_pos_as_xyz
  1  'x, y, z'
loop_
 _atom_site_type_symbol
 _atom_site_label
 _atom_site_symmetry_multiplicity
 _atom_site_fract_x
 _atom_site_fract_y
 _atom_site_fract_z
 _atom_site_occupancy
  Ba  Ba0  1  0.502368  0.497632  0.000000  1
  Ba  Ba1  1  0.002441  0.997559  0.500000  1
  Ba  Ba2  1  0.180524  0.819476  0.500000  1
  Ba  Ba3  1  0.681507  0.318493  0.000000  1
  Ba  Ba4  1  0.315050  0.684950  0.000000  1
  Ba  Ba5  1  0.816530  0.183470  0.500000  1
  Hf  Hf6  1  0.906945  0.093055  0.000000  1
  Fe  Fe7  1  0.392640  0.607360  0.500000  1
  Fe  Fe8  1  0.094549  0.905451  0.000000  1
  Fe  Fe9  1  0.606081  0.393919  0.500000  1
  O  O10  1  0.651515  0.832741  0.743163  1
  O  O11  1  0.167259  0.348485  0.256837  1
  O  O12  1  0.828638  0.646198  0.738084  1
  O  O13  1  0.353802  0.171362  0.261916  1
  O  O14  1  0.167259  0.348485  0.743163  1
  O  O15  1  0.651515  0.832741  0.256837  1
  O  O16  1  0.353802  0.171362  0.738084  1
  O  O17  1  0.828638  0.646198  0.261916  1
  O  O18  1  0.304532  0.695468  0.500000  1
  O  O19  1  0.811567  0.188433  0.000000  1
  O  O20  1  0.184035  0.815965  0.000000  1
  O  O21  1  0.694668  0.305332  0.500000  1
  O  O22  1  0.004135  0.995865  0.000000  1
