# generated using pymatgen
data_Tm6Co17TcAs12
_symmetry_space_group_name_H-M   'P 1'
_cell_length_a   3.80139400
_cell_length_b   10.91781600
_cell_length_c   12.67709600
_cell_angle_alpha   90.00000000
_cell_angle_beta   90.00000000
_cell_angle_gamma   90.00000000
_symmetry_Int_Tables_number   1
_chemical_formula_structural   Tm6Co17TcAs12
_chemical_formula_sum   'Tm6 Co17 Tc1 As12'
_cell_volume   526.13650411
_cell_formula_units_Z   1
loop_
 _symmetry_equiv_pos_site_id
 _symmetry_equiv_pos_as_xyz
  1  'x, y, z'
loop_
 _atom_site_type_symbol
 _atom_site_label
 _atom_site_symmetry_multiplicity
 _atom_site_fract_x
 _atom_site_fract_y
 _atom_site_fract_z
 _atom_site_occupancy
  Tm  Tm0  1  0.000000  0.500000  0.527097  1
  Tm  Tm1  1  0.500000  0.000000  0.476121  1
  Tm  Tm2  1  0.500000  0.818234  0.207730  1
  Tm  Tm3  1  0.500000  0.181766  0.207730  1
  Tm  Tm4  1  0.000000  0.682344  0.794329  1
  Tm  Tm5  1  0.000000  0.317656  0.794329  1
  Co  Co6  1  0.000000  0.000000  0.841101  1
  Co  Co7  1  0.500000  0.500000  0.702166  1
  Co  Co8  1  0.000000  0.000000  0.297612  1
  Co  Co9  1  0.000000  0.500000  0.988091  1
  Co  Co10  1  0.500000  0.000000  0.014859  1
  Co  Co11  1  0.500000  0.332034  0.992450  1
  Co  Co12  1  0.500000  0.667966  0.992450  1
  Co  Co13  1  0.000000  0.166289  0.004427  1
  Co  Co14  1  0.000000  0.833711  0.004427  1
  Co  Co15  1  0.500000  0.298253  0.431033  1
  Co  Co16  1  0.500000  0.701747  0.431033  1
  Co  Co17  1  0.000000  0.202051  0.568388  1
  Co  Co18  1  0.000000  0.797949  0.568388  1
  Co  Co19  1  0.500000  0.878662  0.706172  1
  Co  Co20  1  0.500000  0.121338  0.706172  1
  Co  Co21  1  0.000000  0.620625  0.293291  1
  Co  Co22  1  0.000000  0.379375  0.293291  1
  Tc  Tc23  1  0.500000  0.500000  0.156061  1
  As  As24  1  0.500000  0.500000  0.879871  1
  As  As25  1  0.000000  0.000000  0.119982  1
  As  As26  1  0.500000  0.500000  0.352182  1
  As  As27  1  0.000000  0.000000  0.651466  1
  As  As28  1  0.500000  0.313728  0.616920  1
  As  As29  1  0.500000  0.686272  0.616920  1
  As  As30  1  0.000000  0.185845  0.383686  1
  As  As31  1  0.000000  0.814155  0.383686  1
  As  As32  1  0.500000  0.848357  0.888855  1
  As  As33  1  0.500000  0.151643  0.888855  1
  As  As34  1  0.000000  0.657145  0.109411  1
  As  As35  1  0.000000  0.342855  0.109411  1
