# generated using pymatgen
data_DyEr4InSb2
_symmetry_space_group_name_H-M   'P 1'
_cell_length_a   8.92304027
_cell_length_b   8.88961468
_cell_length_c   6.42446500
_cell_angle_alpha   90.00000000
_cell_angle_beta   90.00000000
_cell_angle_gamma   119.87615939
_symmetry_Int_Tables_number   1
_chemical_formula_structural   DyEr4InSb2
_chemical_formula_sum   'Dy2 Er8 In2 Sb4'
_cell_volume   441.87964206
_cell_formula_units_Z   2
loop_
 _symmetry_equiv_pos_site_id
 _symmetry_equiv_pos_as_xyz
  1  'x, y, z'
loop_
 _atom_site_type_symbol
 _atom_site_label
 _atom_site_symmetry_multiplicity
 _atom_site_fract_x
 _atom_site_fract_y
 _atom_site_fract_z
 _atom_site_occupancy
  Dy  Dy0  1  0.002477  0.761282  0.750000  1
  Dy  Dy1  1  0.002477  0.241197  0.250000  1
  Er  Er2  1  0.757708  0.759806  0.250000  1
  Er  Er3  1  0.757708  0.997902  0.750000  1
  Er  Er4  1  0.241663  0.237154  0.750000  1
  Er  Er5  1  0.241663  0.004511  0.250000  1
  Er  Er6  1  0.333508  0.666755  0.500000  1
  Er  Er7  1  0.663257  0.331628  0.000000  1
  Er  Er8  1  0.663257  0.331628  0.500000  1
  Er  Er9  1  0.333508  0.666755  0.000000  1
  In  In10  1  0.395122  0.998672  0.750000  1
  In  In11  1  0.395122  0.396450  0.250000  1
  Sb  Sb12  1  0.998951  0.609013  0.250000  1
  Sb  Sb13  1  0.998951  0.389938  0.750000  1
  Sb  Sb14  1  0.607312  0.607467  0.750000  1
  Sb  Sb15  1  0.607312  0.999846  0.250000  1
