# generated using pymatgen
data_Zr10ZnSb5
_symmetry_space_group_name_H-M   'P 1'
_cell_length_a   5.56527958
_cell_length_b   8.41454822
_cell_length_c   8.41443877
_cell_angle_alpha   96.28061789
_cell_angle_beta   109.30995157
_cell_angle_gamma   70.68791848
_symmetry_Int_Tables_number   1
_chemical_formula_structural   Zr10ZnSb5
_chemical_formula_sum   'Zr10 Zn1 Sb5'
_cell_volume   350.95001280
_cell_formula_units_Z   1
loop_
 _symmetry_equiv_pos_site_id
 _symmetry_equiv_pos_as_xyz
  1  'x, y, z'
loop_
 _atom_site_type_symbol
 _atom_site_label
 _atom_site_symmetry_multiplicity
 _atom_site_fract_x
 _atom_site_fract_y
 _atom_site_fract_z
 _atom_site_occupancy
  Zr  Zr0  1  0.929002  0.859797  0.705866  1
  Zr  Zr1  1  0.082925  0.140209  0.294138  1
  Zr  Zr2  1  0.417067  0.294134  0.140203  1
  Zr  Zr3  1  0.571004  0.705862  0.859791  1
  Zr  Zr4  1  0.223138  0.705842  0.140225  1
  Zr  Zr5  1  0.788765  0.294154  0.859776  1
  Zr  Zr6  1  0.276857  0.140224  0.705846  1
  Zr  Zr7  1  0.711245  0.859775  0.294158  1
  Zr  Zr8  1  0.249996  0.500004  0.499996  1
  Zr  Zr9  1  0.750000  0.500000  0.500000  1
  Zn  Zn10  1  0.250008  0.999992  0.000008  1
  Sb  Sb11  1  0.336653  0.826813  0.500075  1
  Sb  Sb12  1  0.663396  0.173195  0.499938  1
  Sb  Sb13  1  0.836609  0.499925  0.173187  1
  Sb  Sb14  1  0.163346  0.500062  0.826805  1
  Sb  Sb15  1  0.749988  0.000012  0.999988  1
