# generated using pymatgen
data_Nd11In9(IrAu)2
_symmetry_space_group_name_H-M   'P 1'
_cell_length_a   13.43616800
_cell_length_b   13.50356402
_cell_length_c   3.84923100
_cell_angle_alpha   90.00000000
_cell_angle_beta   90.00000000
_cell_angle_gamma   111.19971997
_symmetry_Int_Tables_number   1
_chemical_formula_structural   Nd11In9(IrAu)2
_chemical_formula_sum   'Nd11 In9 Ir2 Au2'
_cell_volume   651.12654740
_cell_formula_units_Z   1
loop_
 _symmetry_equiv_pos_site_id
 _symmetry_equiv_pos_as_xyz
  1  'x, y, z'
loop_
 _atom_site_type_symbol
 _atom_site_label
 _atom_site_symmetry_multiplicity
 _atom_site_fract_x
 _atom_site_fract_y
 _atom_site_fract_z
 _atom_site_occupancy
  Nd  Nd0  1  0.068070  0.418180  0.000000  1
  Nd  Nd1  1  0.931930  0.581820  0.000000  1
  Nd  Nd2  1  0.417766  0.073643  0.000000  1
  Nd  Nd3  1  0.582234  0.926357  0.000000  1
  Nd  Nd4  1  0.619813  0.360675  0.000000  1
  Nd  Nd5  1  0.380187  0.639325  0.000000  1
  Nd  Nd6  1  0.840264  0.158362  0.000000  1
  Nd  Nd7  1  0.159736  0.841638  0.000000  1
  Nd  Nd8  1  0.000000  0.000000  0.000000  1
  Nd  Nd9  1  0.314530  0.301412  0.000000  1
  Nd  Nd10  1  0.685470  0.698588  0.000000  1
  In  In11  1  0.840969  0.365527  0.500000  1
  In  In12  1  0.159031  0.634473  0.500000  1
  In  In13  1  0.366198  0.839243  0.500000  1
  In  In14  1  0.633802  0.160757  0.500000  1
  In  In15  1  0.072345  0.217014  0.500000  1
  In  In16  1  0.927655  0.782986  0.500000  1
  In  In17  1  0.219436  0.076159  0.500000  1
  In  In18  1  0.780564  0.923841  0.500000  1
  In  In19  1  0.500000  0.500000  0.500000  1
  Ir  Ir20  1  0.449383  0.241978  0.500000  1
  Ir  Ir21  1  0.550617  0.758022  0.500000  1
  Au  Au22  1  0.251639  0.450934  0.500000  1
  Au  Au23  1  0.748361  0.549066  0.500000  1
