# generated using pymatgen
data_Tm8Ga12CoCu3
_symmetry_space_group_name_H-M   'P 1'
_cell_length_a   6.88200100
_cell_length_b   8.75310586
_cell_length_c   8.75310700
_cell_angle_alpha   120.00000052
_cell_angle_beta   90.00000000
_cell_angle_gamma   90.00000000
_symmetry_Int_Tables_number   1
_chemical_formula_structural   Tm8Ga12CoCu3
_chemical_formula_sum   'Tm8 Ga12 Co1 Cu3'
_cell_volume   456.63561317
_cell_formula_units_Z   1
loop_
 _symmetry_equiv_pos_site_id
 _symmetry_equiv_pos_as_xyz
  1  'x, y, z'
loop_
 _atom_site_type_symbol
 _atom_site_label
 _atom_site_symmetry_multiplicity
 _atom_site_fract_x
 _atom_site_fract_y
 _atom_site_fract_z
 _atom_site_occupancy
  Tm  Tm0  1  0.745923  0.000000  0.000000  1
  Tm  Tm1  1  0.250098  0.000000  0.000000  1
  Tm  Tm2  1  0.749691  0.484775  0.515225  1
  Tm  Tm3  1  0.256467  0.523135  0.476865  1
  Tm  Tm4  1  0.749691  0.030450  0.515225  1
  Tm  Tm5  1  0.256467  0.953729  0.476865  1
  Tm  Tm6  1  0.749691  0.484775  0.969550  1
  Tm  Tm7  1  0.256467  0.523135  0.046271  1
  Ga  Ga8  1  0.960948  0.831109  0.168891  1
  Ga  Ga9  1  0.041376  0.170567  0.829433  1
  Ga  Ga10  1  0.960948  0.337783  0.168891  1
  Ga  Ga11  1  0.462027  0.169761  0.830239  1
  Ga  Ga12  1  0.041376  0.658864  0.829433  1
  Ga  Ga13  1  0.542659  0.826906  0.173094  1
  Ga  Ga14  1  0.960948  0.831109  0.662217  1
  Ga  Ga15  1  0.462027  0.660476  0.830239  1
  Ga  Ga16  1  0.041376  0.170567  0.341136  1
  Ga  Ga17  1  0.542659  0.346188  0.173094  1
  Ga  Ga18  1  0.462027  0.169761  0.339524  1
  Ga  Ga19  1  0.542659  0.826906  0.653812  1
  Co  Co20  1  0.514062  0.666667  0.333333  1
  Cu  Cu21  1  0.948339  0.666667  0.333333  1
  Cu  Cu22  1  0.045734  0.333333  0.666667  1
  Cu  Cu23  1  0.456344  0.333333  0.666667  1
