# generated using pymatgen
data_Cs2Np2O7
_symmetry_space_group_name_H-M   'P 1'
_cell_length_a   7.51748880
_cell_length_b   7.51748899
_cell_length_c   7.66320167
_cell_angle_alpha   68.17233392
_cell_angle_beta   68.17233393
_cell_angle_gamma   33.94761531
_symmetry_Int_Tables_number   1
_chemical_formula_structural   Cs2Np2O7
_chemical_formula_sum   'Cs2 Np2 O7'
_cell_volume   222.81763300
_cell_formula_units_Z   1
loop_
 _symmetry_equiv_pos_site_id
 _symmetry_equiv_pos_as_xyz
  1  'x, y, z'
loop_
 _atom_site_type_symbol
 _atom_site_label
 _atom_site_symmetry_multiplicity
 _atom_site_fract_x
 _atom_site_fract_y
 _atom_site_fract_z
 _atom_site_occupancy
  Cs  Cs0  1  0.396103  0.396103  0.913619  1
  Cs  Cs1  1  0.603897  0.603897  0.086381  1
  Np  Np2  1  0.148689  0.148689  0.507954  1
  Np  Np3  1  0.851311  0.851311  0.492046  1
  O  O4  1  0.798768  0.798768  0.755141  1
  O  O5  1  0.309591  0.309591  0.497198  1
  O  O6  1  0.093053  0.093053  0.770839  1
  O  O7  1  0.000000  0.000000  0.500000  1
  O  O8  1  0.690409  0.690409  0.502802  1
  O  O9  1  0.906947  0.906947  0.229161  1
  O  O10  1  0.201232  0.201232  0.244859  1
