# generated using pymatgen
data_Tb4Nd16Sn11Bi5
_symmetry_space_group_name_H-M   'P 1'
_cell_length_a   8.37903363
_cell_length_b   8.39418866
_cell_length_c   16.05654015
_cell_angle_alpha   90.07714025
_cell_angle_beta   90.19215589
_cell_angle_gamma   89.93744219
_symmetry_Int_Tables_number   1
_chemical_formula_structural   Tb4Nd16Sn11Bi5
_chemical_formula_sum   'Tb4 Nd16 Sn11 Bi5'
_cell_volume   1129.33174420
_cell_formula_units_Z   1
loop_
 _symmetry_equiv_pos_site_id
 _symmetry_equiv_pos_as_xyz
  1  'x, y, z'
loop_
 _atom_site_type_symbol
 _atom_site_label
 _atom_site_symmetry_multiplicity
 _atom_site_fract_x
 _atom_site_fract_y
 _atom_site_fract_z
 _atom_site_occupancy
  Tb  Tb0  1  0.209093  0.500157  0.745259  1
  Tb  Tb1  1  0.708865  0.001086  0.748996  1
  Tb  Tb2  1  0.791214  0.499718  0.247583  1
  Tb  Tb3  1  0.291413  0.999238  0.254033  1
  Nd  Nd4  1  0.378456  0.839811  0.877768  1
  Nd  Nd5  1  0.880541  0.659757  0.621892  1
  Nd  Nd6  1  0.619135  0.159487  0.377802  1
  Nd  Nd7  1  0.117066  0.339262  0.121992  1
  Nd  Nd8  1  0.623300  0.163735  0.122341  1
  Nd  Nd9  1  0.125482  0.337630  0.379788  1
  Nd  Nd10  1  0.372981  0.838995  0.620889  1
  Nd  Nd11  1  0.876567  0.657543  0.878681  1
  Nd  Nd12  1  0.544995  0.330261  0.893541  1
  Nd  Nd13  1  0.044033  0.175148  0.605011  1
  Nd  Nd14  1  0.456413  0.675570  0.395200  1
  Nd  Nd15  1  0.958602  0.821592  0.107603  1
  Nd  Nd16  1  0.465925  0.671111  0.106260  1
  Nd  Nd17  1  0.971107  0.824427  0.396117  1
  Nd  Nd18  1  0.528492  0.325190  0.603391  1
  Nd  Nd19  1  0.037113  0.178381  0.893692  1
  Sn  Sn20  1  0.218797  0.530233  0.545290  1
  Sn  Sn21  1  0.281114  0.029087  0.454594  1
  Sn  Sn22  1  0.778777  0.472668  0.045839  1
  Sn  Sn23  1  0.573989  0.624367  0.749201  1
  Sn  Sn24  1  0.073257  0.877332  0.751701  1
  Sn  Sn25  1  0.424574  0.376638  0.249809  1
  Sn  Sn26  1  0.925842  0.122237  0.251032  1
  Sn  Sn27  1  0.342704  0.146141  0.751180  1
  Sn  Sn28  1  0.841396  0.354142  0.748439  1
  Sn  Sn29  1  0.659174  0.854198  0.251182  1
  Sn  Sn30  1  0.159299  0.643780  0.249957  1
  Bi  Bi31  1  0.276623  0.023801  0.046688  1
  Bi  Bi32  1  0.778057  0.473489  0.454091  1
  Bi  Bi33  1  0.721068  0.973614  0.545375  1
  Bi  Bi34  1  0.222310  0.525879  0.953957  1
  Bi  Bi35  1  0.722227  0.974296  0.953823  1
