# generated using pymatgen
data_RbEr3Te5
_symmetry_space_group_name_H-M   'P 1'
_cell_length_a   4.37337100
_cell_length_b   13.15214100
_cell_length_c   23.46079600
_cell_angle_alpha   90.00000000
_cell_angle_beta   90.00000000
_cell_angle_gamma   90.00000000
_symmetry_Int_Tables_number   1
_chemical_formula_structural   RbEr3Te5
_chemical_formula_sum   'Rb4 Er12 Te20'
_cell_volume   1349.44603047
_cell_formula_units_Z   4
loop_
 _symmetry_equiv_pos_site_id
 _symmetry_equiv_pos_as_xyz
  1  'x, y, z'
loop_
 _atom_site_type_symbol
 _atom_site_label
 _atom_site_symmetry_multiplicity
 _atom_site_fract_x
 _atom_site_fract_y
 _atom_site_fract_z
 _atom_site_occupancy
  Rb  Rb0  1  0.250000  0.351652  0.090563  1
  Rb  Rb1  1  0.750000  0.648348  0.909437  1
  Rb  Rb2  1  0.750000  0.851652  0.409437  1
  Rb  Rb3  1  0.250000  0.148348  0.590563  1
  Er  Er4  1  0.250000  0.454010  0.698064  1
  Er  Er5  1  0.750000  0.545990  0.301936  1
  Er  Er6  1  0.750000  0.954010  0.801936  1
  Er  Er7  1  0.250000  0.045990  0.198064  1
  Er  Er8  1  0.250000  0.797813  0.674086  1
  Er  Er9  1  0.750000  0.202187  0.325914  1
  Er  Er10  1  0.750000  0.297813  0.825914  1
  Er  Er11  1  0.250000  0.702187  0.174086  1
  Er  Er12  1  0.250000  0.391703  0.444476  1
  Er  Er13  1  0.750000  0.608297  0.555524  1
  Er  Er14  1  0.750000  0.891703  0.055524  1
  Er  Er15  1  0.250000  0.108297  0.944476  1
  Te  Te16  1  0.250000  0.443597  0.569150  1
  Te  Te17  1  0.750000  0.556403  0.430850  1
  Te  Te18  1  0.750000  0.943597  0.930850  1
  Te  Te19  1  0.250000  0.056403  0.069150  1
  Te  Te20  1  0.250000  0.769995  0.545081  1
  Te  Te21  1  0.750000  0.230005  0.454919  1
  Te  Te22  1  0.750000  0.269995  0.954919  1
  Te  Te23  1  0.250000  0.730005  0.045081  1
  Te  Te24  1  0.250000  0.797219  0.803472  1
  Te  Te25  1  0.750000  0.202781  0.196528  1
  Te  Te26  1  0.750000  0.297219  0.696528  1
  Te  Te27  1  0.250000  0.702781  0.303472  1
  Te  Te28  1  0.250000  0.456277  0.827713  1
  Te  Te29  1  0.750000  0.543723  0.172287  1
  Te  Te30  1  0.750000  0.956277  0.672287  1
  Te  Te31  1  0.250000  0.043723  0.327713  1
  Te  Te32  1  0.250000  0.374560  0.313123  1
  Te  Te33  1  0.750000  0.625440  0.686877  1
  Te  Te34  1  0.750000  0.874560  0.186877  1
  Te  Te35  1  0.250000  0.125440  0.813123  1
