# generated using pymatgen
data_Cs2NaFe3F12
_symmetry_space_group_name_H-M   'P 1'
_cell_length_a   7.65566950
_cell_length_b   7.65566963
_cell_length_c   7.65566911
_cell_angle_alpha   59.11208326
_cell_angle_beta   59.11208172
_cell_angle_gamma   59.11207912
_symmetry_Int_Tables_number   1
_chemical_formula_structural   Cs2NaFe3F12
_chemical_formula_sum   'Cs2 Na1 Fe3 F12'
_cell_volume   310.85222824
_cell_formula_units_Z   1
loop_
 _symmetry_equiv_pos_site_id
 _symmetry_equiv_pos_as_xyz
  1  'x, y, z'
loop_
 _atom_site_type_symbol
 _atom_site_label
 _atom_site_symmetry_multiplicity
 _atom_site_fract_x
 _atom_site_fract_y
 _atom_site_fract_z
 _atom_site_occupancy
  Cs  Cs0  1  0.628379  0.628379  0.628379  1
  Cs  Cs1  1  0.371621  0.371621  0.371621  1
  Na  Na2  1  0.000000  0.000000  0.000000  1
  Fe  Fe3  1  0.500000  0.000000  0.000000  1
  Fe  Fe4  1  0.000000  0.500000  0.000000  1
  Fe  Fe5  1  0.000000  0.000000  0.500000  1
  F  F6  1  0.924473  0.307414  0.307414  1
  F  F7  1  0.080140  0.080140  0.639127  1
  F  F8  1  0.080140  0.639127  0.080140  1
  F  F9  1  0.919860  0.360873  0.919860  1
  F  F10  1  0.919860  0.919860  0.360873  1
  F  F11  1  0.639127  0.080140  0.080140  1
  F  F12  1  0.307414  0.307414  0.924473  1
  F  F13  1  0.307414  0.924473  0.307414  1
  F  F14  1  0.692586  0.075527  0.692586  1
  F  F15  1  0.075527  0.692586  0.692586  1
  F  F16  1  0.692586  0.692586  0.075527  1
  F  F17  1  0.360873  0.919860  0.919860  1
