# generated using pymatgen
data_HfZrNbSi2W
_symmetry_space_group_name_H-M   'P 1'
_cell_length_a   3.56977400
_cell_length_b   6.99139800
_cell_length_c   8.37217100
_cell_angle_alpha   90.00000000
_cell_angle_beta   90.00000000
_cell_angle_gamma   90.00000000
_symmetry_Int_Tables_number   1
_chemical_formula_structural   HfZrNbSi2W
_chemical_formula_sum   'Hf2 Zr2 Nb2 Si4 W2'
_cell_volume   208.95022262
_cell_formula_units_Z   2
loop_
 _symmetry_equiv_pos_site_id
 _symmetry_equiv_pos_as_xyz
  1  'x, y, z'
loop_
 _atom_site_type_symbol
 _atom_site_label
 _atom_site_symmetry_multiplicity
 _atom_site_fract_x
 _atom_site_fract_y
 _atom_site_fract_z
 _atom_site_occupancy
  Hf  Hf0  1  0.250000  0.542964  0.166571  1
  Hf  Hf1  1  0.250000  0.042964  0.333429  1
  Zr  Zr2  1  0.750000  0.459235  0.832629  1
  Zr  Zr3  1  0.750000  0.959235  0.667371  1
  Nb  Nb4  1  0.250000  0.631652  0.558565  1
  Nb  Nb5  1  0.250000  0.131652  0.941435  1
  Si  Si6  1  0.250000  0.756221  0.864761  1
  Si  Si7  1  0.250000  0.256221  0.635239  1
  Si  Si8  1  0.750000  0.243364  0.143477  1
  Si  Si9  1  0.750000  0.743364  0.356523  1
  W  W10  1  0.750000  0.366563  0.437587  1
  W  W11  1  0.750000  0.866563  0.062413  1
