# generated using pymatgen
data_LaHo4Hf3(Co4P3)4
_symmetry_space_group_name_H-M   'P 1'
_cell_length_a   12.32594800
_cell_length_b   12.32594705
_cell_length_c   3.71922400
_cell_angle_alpha   90.00000000
_cell_angle_beta   90.00000000
_cell_angle_gamma   120.00000254
_symmetry_Int_Tables_number   1
_chemical_formula_structural   LaHo4Hf3(Co4P3)4
_chemical_formula_sum   'La1 Ho4 Hf3 Co16 P12'
_cell_volume   489.35449882
_cell_formula_units_Z   1
loop_
 _symmetry_equiv_pos_site_id
 _symmetry_equiv_pos_as_xyz
  1  'x, y, z'
loop_
 _atom_site_type_symbol
 _atom_site_label
 _atom_site_symmetry_multiplicity
 _atom_site_fract_x
 _atom_site_fract_y
 _atom_site_fract_z
 _atom_site_occupancy
  La  La0  1  0.666667  0.333333  0.000000  1
  Ho  Ho1  1  0.333333  0.666667  0.000000  1
  Ho  Ho2  1  0.817897  0.817123  0.500000  1
  Ho  Ho3  1  0.182877  0.000774  0.500000  1
  Ho  Ho4  1  0.999226  0.182103  0.500000  1
  Hf  Hf5  1  0.439674  0.442328  0.000000  1
  Hf  Hf6  1  0.557672  0.997346  0.000000  1
  Hf  Hf7  1  0.002654  0.560326  0.000000  1
  Co  Co8  1  0.879813  0.354052  0.500000  1
  Co  Co9  1  0.645948  0.525761  0.500000  1
  Co  Co10  1  0.474239  0.120187  0.500000  1
  Co  Co11  1  0.356330  0.874008  0.500000  1
  Co  Co12  1  0.517678  0.643670  0.500000  1
  Co  Co13  1  0.125992  0.482322  0.500000  1
  Co  Co14  1  0.805538  0.174880  0.000000  1
  Co  Co15  1  0.825120  0.630657  0.000000  1
  Co  Co16  1  0.369343  0.194462  0.000000  1
  Co  Co17  1  0.179209  0.805520  0.000000  1
  Co  Co18  1  0.626310  0.820791  0.000000  1
  Co  Co19  1  0.194480  0.373690  0.000000  1
  Co  Co20  1  0.275587  0.278447  0.500000  1
  Co  Co21  1  0.721553  0.997140  0.500000  1
  Co  Co22  1  0.002860  0.724413  0.500000  1
  Co  Co23  1  0.000000  0.000000  0.000000  1
  P  P24  1  0.695182  0.166027  0.500000  1
  P  P25  1  0.833973  0.529155  0.500000  1
  P  P26  1  0.470845  0.304818  0.500000  1
  P  P27  1  0.172572  0.693318  0.500000  1
  P  P28  1  0.520745  0.827428  0.500000  1
  P  P29  1  0.306682  0.479255  0.500000  1
  P  P30  1  0.175836  0.177903  0.000000  1
  P  P31  1  0.822097  0.997933  0.000000  1
  P  P32  1  0.002067  0.824164  0.000000  1
  P  P33  1  0.648507  0.648148  0.000000  1
  P  P34  1  0.351852  0.000359  0.000000  1
  P  P35  1  0.999641  0.351493  0.000000  1
