# generated using pymatgen
data_Ca3Y(FeO3)4
_symmetry_space_group_name_H-M   'P 1'
_cell_length_a   7.63674200
_cell_length_b   5.35930635
_cell_length_c   5.53935126
_cell_angle_alpha   89.87691091
_cell_angle_beta   90.00000000
_cell_angle_gamma   90.00000000
_symmetry_Int_Tables_number   1
_chemical_formula_structural   Ca3Y(FeO3)4
_chemical_formula_sum   'Ca3 Y1 Fe4 O12'
_cell_volume   226.71205050
_cell_formula_units_Z   1
loop_
 _symmetry_equiv_pos_site_id
 _symmetry_equiv_pos_as_xyz
  1  'x, y, z'
loop_
 _atom_site_type_symbol
 _atom_site_label
 _atom_site_symmetry_multiplicity
 _atom_site_fract_x
 _atom_site_fract_y
 _atom_site_fract_z
 _atom_site_occupancy
  Ca  Ca0  1  0.500000  0.489145  0.551844  1
  Ca  Ca1  1  0.000000  0.989213  0.951694  1
  Ca  Ca2  1  0.000000  0.512270  0.448108  1
  Y  Y3  1  0.500000  0.014777  0.062017  1
  Fe  Fe4  1  0.248073  0.999599  0.503827  1
  Fe  Fe5  1  0.751229  0.501032  0.997957  1
  Fe  Fe6  1  0.751927  0.999599  0.503827  1
  Fe  Fe7  1  0.248771  0.501032  0.997957  1
  O  O8  1  0.500000  0.595004  0.978707  1
  O  O9  1  0.500000  0.920287  0.476938  1
  O  O10  1  0.000000  0.421546  0.022864  1
  O  O11  1  0.000000  0.081294  0.520979  1
  O  O12  1  0.784810  0.793708  0.200098  1
  O  O13  1  0.208408  0.704543  0.703028  1
  O  O14  1  0.298986  0.205027  0.801666  1
  O  O15  1  0.700335  0.284323  0.286849  1
  O  O16  1  0.701014  0.205027  0.801666  1
  O  O17  1  0.299665  0.284323  0.286849  1
  O  O18  1  0.215190  0.793708  0.200098  1
  O  O19  1  0.791592  0.704543  0.703028  1
