# generated using pymatgen
data_Dy2Er5Th(ReB6)4
_symmetry_space_group_name_H-M   'P 1'
_cell_length_a   3.69123000
_cell_length_b   9.16658460
_cell_length_c   11.56084604
_cell_angle_alpha   90.03848532
_cell_angle_beta   90.00000000
_cell_angle_gamma   90.00000000
_symmetry_Int_Tables_number   1
_chemical_formula_structural   Dy2Er5Th(ReB6)4
_chemical_formula_sum   'Dy2 Er5 Th1 Re4 B24'
_cell_volume   391.17237541
_cell_formula_units_Z   1
loop_
 _symmetry_equiv_pos_site_id
 _symmetry_equiv_pos_as_xyz
  1  'x, y, z'
loop_
 _atom_site_type_symbol
 _atom_site_label
 _atom_site_symmetry_multiplicity
 _atom_site_fract_x
 _atom_site_fract_y
 _atom_site_fract_z
 _atom_site_occupancy
  Dy  Dy0  1  0.000000  0.677985  0.587397  1
  Dy  Dy1  1  0.000000  0.823198  0.085080  1
  Er  Er2  1  0.000000  0.175869  0.913944  1
  Er  Er3  1  0.000000  0.942054  0.369442  1
  Er  Er4  1  0.000000  0.055928  0.631422  1
  Er  Er5  1  0.000000  0.443508  0.128051  1
  Er  Er6  1  0.000000  0.557384  0.870743  1
  Th  Th7  1  0.000000  0.322223  0.414130  1
  Re  Re8  1  0.000000  0.639427  0.320165  1
  Re  Re9  1  0.000000  0.361410  0.680907  1
  Re  Re10  1  0.000000  0.138460  0.178071  1
  Re  Re11  1  0.000000  0.861576  0.820924  1
  B  B12  1  0.500000  0.556016  0.432125  1
  B  B13  1  0.500000  0.446886  0.569895  1
  B  B14  1  0.500000  0.053204  0.066071  1
  B  B15  1  0.500000  0.946659  0.932786  1
  B  B16  1  0.500000  0.750654  0.418120  1
  B  B17  1  0.500000  0.250257  0.585308  1
  B  B18  1  0.500000  0.249125  0.079721  1
  B  B19  1  0.500000  0.750571  0.918285  1
  B  B20  1  0.500000  0.792377  0.264998  1
  B  B21  1  0.500000  0.207719  0.736517  1
  B  B22  1  0.500000  0.290656  0.231836  1
  B  B23  1  0.500000  0.707999  0.765882  1
  B  B24  1  0.500000  0.631837  0.184206  1
  B  B25  1  0.500000  0.369665  0.815807  1
  B  B26  1  0.500000  0.128909  0.312228  1
  B  B27  1  0.500000  0.869212  0.686057  1
  B  B28  1  0.500000  0.981889  0.210965  1
  B  B29  1  0.500000  0.017533  0.788611  1
  B  B30  1  0.500000  0.485376  0.285848  1
  B  B31  1  0.500000  0.518165  0.713944  1
  B  B32  1  0.500000  0.600681  0.027446  1
  B  B33  1  0.500000  0.399698  0.971600  1
  B  B34  1  0.500000  0.096402  0.473227  1
  B  B35  1  0.500000  0.899487  0.528242  1
