# generated using pymatgen
data_Tb12Sm8Si15Ag
_symmetry_space_group_name_H-M   'P 1'
_cell_length_a   7.52830082
_cell_length_b   7.78503093
_cell_length_c   14.88349340
_cell_angle_alpha   89.70776439
_cell_angle_beta   89.22383561
_cell_angle_gamma   90.12877536
_symmetry_Int_Tables_number   1
_chemical_formula_structural   Tb12Sm8Si15Ag
_chemical_formula_sum   'Tb12 Sm8 Si15 Ag1'
_cell_volume   872.19887252
_cell_formula_units_Z   1
loop_
 _symmetry_equiv_pos_site_id
 _symmetry_equiv_pos_as_xyz
  1  'x, y, z'
loop_
 _atom_site_type_symbol
 _atom_site_label
 _atom_site_symmetry_multiplicity
 _atom_site_fract_x
 _atom_site_fract_y
 _atom_site_fract_z
 _atom_site_occupancy
  Tb  Tb0  1  0.162347  0.511379  0.751344  1
  Tb  Tb1  1  0.839901  0.488824  0.252171  1
  Tb  Tb2  1  0.339525  0.007870  0.249854  1
  Tb  Tb3  1  0.664111  0.988102  0.750199  1
  Tb  Tb4  1  0.337398  0.174419  0.623769  1
  Tb  Tb5  1  0.665247  0.821271  0.376761  1
  Tb  Tb6  1  0.169179  0.675072  0.374834  1
  Tb  Tb7  1  0.674637  0.820997  0.122701  1
  Tb  Tb8  1  0.826400  0.325250  0.622054  1
  Tb  Tb9  1  0.325417  0.179704  0.877651  1
  Tb  Tb10  1  0.825503  0.319406  0.878533  1
  Tb  Tb11  1  0.173211  0.679633  0.122570  1
  Sm  Sm12  1  0.022357  0.181718  0.099971  1
  Sm  Sm13  1  0.978490  0.819890  0.902188  1
  Sm  Sm14  1  0.478057  0.681980  0.902052  1
  Sm  Sm15  1  0.982087  0.828386  0.599416  1
  Sm  Sm16  1  0.520400  0.317975  0.097852  1
  Sm  Sm17  1  0.013469  0.173436  0.398146  1
  Sm  Sm18  1  0.518903  0.315768  0.399132  1
  Sm  Sm19  1  0.488614  0.685958  0.601620  1
  Si  Si20  1  0.036780  0.112452  0.751164  1
  Si  Si21  1  0.964568  0.891107  0.249119  1
  Si  Si22  1  0.465602  0.605158  0.247789  1
  Si  Si23  1  0.536051  0.395001  0.751697  1
  Si  Si24  1  0.276200  0.878200  0.751260  1
  Si  Si25  1  0.722870  0.123273  0.248234  1
  Si  Si26  1  0.225022  0.373569  0.248463  1
  Si  Si27  1  0.778072  0.623691  0.753002  1
  Si  Si28  1  0.836574  0.532754  0.458719  1
  Si  Si29  1  0.337863  0.966870  0.460847  1
  Si  Si30  1  0.849759  0.531627  0.038435  1
  Si  Si31  1  0.659141  0.033030  0.538019  1
  Si  Si32  1  0.148108  0.468552  0.962584  1
  Si  Si33  1  0.648366  0.029990  0.960955  1
  Si  Si34  1  0.350405  0.969289  0.039354  1
  Ag  Ag35  1  0.159362  0.468400  0.537540  1
