# generated using pymatgen
data_TbEu3MnW3O14
_symmetry_space_group_name_H-M   'P 1'
_cell_length_a   7.55457575
_cell_length_b   7.41545701
_cell_length_c   7.55457712
_cell_angle_alpha   59.01759042
_cell_angle_beta   59.96135983
_cell_angle_gamma   59.01759431
_symmetry_Int_Tables_number   1
_chemical_formula_structural   TbEu3MnW3O14
_chemical_formula_sum   'Tb1 Eu3 Mn1 W3 O14'
_cell_volume   294.65175065
_cell_formula_units_Z   1
loop_
 _symmetry_equiv_pos_site_id
 _symmetry_equiv_pos_as_xyz
  1  'x, y, z'
loop_
 _atom_site_type_symbol
 _atom_site_label
 _atom_site_symmetry_multiplicity
 _atom_site_fract_x
 _atom_site_fract_y
 _atom_site_fract_z
 _atom_site_occupancy
  Tb  Tb0  1  0.125000  0.125000  0.125000  1
  Eu  Eu1  1  0.125000  0.625000  0.125000  1
  Eu  Eu2  1  0.125000  0.125000  0.625000  1
  Eu  Eu3  1  0.625000  0.125000  0.125000  1
  Mn  Mn4  1  0.625000  0.125000  0.625000  1
  W  W5  1  0.625000  0.625000  0.625000  1
  W  W6  1  0.125000  0.625000  0.625000  1
  W  W7  1  0.625000  0.625000  0.125000  1
  O  O8  1  0.298807  0.689162  0.711761  1
  O  O9  1  0.532550  0.948295  0.974902  1
  O  O10  1  0.711761  0.689162  0.298807  1
  O  O11  1  0.275098  0.301705  0.717450  1
  O  O12  1  0.002870  0.005927  0.002870  1
  O  O13  1  0.298899  0.691290  0.298899  1
  O  O14  1  0.709537  0.303495  0.709537  1
  O  O15  1  0.951101  0.558710  0.951101  1
  O  O16  1  0.538239  0.560838  0.951193  1
  O  O17  1  0.974902  0.948295  0.532550  1
  O  O18  1  0.247130  0.244073  0.247130  1
  O  O19  1  0.540463  0.946505  0.540463  1
  O  O20  1  0.717450  0.301705  0.275098  1
  O  O21  1  0.951193  0.560838  0.538239  1
