# generated using pymatgen
data_SrZn9Pt2
_symmetry_space_group_name_H-M   'P 1'
_cell_length_a   8.39341248
_cell_length_b   8.39341282
_cell_length_c   8.39341222
_cell_angle_alpha   100.03345430
_cell_angle_beta   100.03345603
_cell_angle_gamma   130.65884020
_symmetry_Int_Tables_number   1
_chemical_formula_structural   SrZn9Pt2
_chemical_formula_sum   'Sr2 Zn18 Pt4'
_cell_volume   407.62552649
_cell_formula_units_Z   2
loop_
 _symmetry_equiv_pos_site_id
 _symmetry_equiv_pos_as_xyz
  1  'x, y, z'
loop_
 _atom_site_type_symbol
 _atom_site_label
 _atom_site_symmetry_multiplicity
 _atom_site_fract_x
 _atom_site_fract_y
 _atom_site_fract_z
 _atom_site_occupancy
  Sr  Sr0  1  0.000000  0.000000  0.000000  1
  Sr  Sr1  1  0.250000  0.750000  0.500000  1
  Zn  Zn2  1  0.065832  0.650540  0.829868  1
  Zn  Zn3  1  0.820673  0.235965  0.170132  1
  Zn  Zn4  1  0.750000  0.250000  0.500000  1
  Zn  Zn5  1  0.500000  0.500000  0.000000  1
  Zn  Zn6  1  0.820673  0.650540  0.584708  1
  Zn  Zn7  1  0.900540  0.815832  0.329868  1
  Zn  Zn8  1  0.485965  0.570673  0.670132  1
  Zn  Zn9  1  0.065832  0.235965  0.415292  1
  Zn  Zn10  1  0.764035  0.934168  0.584708  1
  Zn  Zn11  1  0.349460  0.179327  0.415292  1
  Zn  Zn12  1  0.429327  0.514035  0.329868  1
  Zn  Zn13  1  0.184168  0.099460  0.670132  1
  Zn  Zn14  1  0.429327  0.099460  0.915292  1
  Zn  Zn15  1  0.349460  0.934168  0.170132  1
  Zn  Zn16  1  0.764035  0.179327  0.829868  1
  Zn  Zn17  1  0.184168  0.514035  0.084708  1
  Zn  Zn18  1  0.485965  0.815832  0.915292  1
  Zn  Zn19  1  0.900540  0.570673  0.084708  1
  Pt  Pt20  1  0.625000  0.375000  0.750000  1
  Pt  Pt21  1  0.625000  0.375000  0.250000  1
  Pt  Pt22  1  0.125000  0.375000  0.750000  1
  Pt  Pt23  1  0.625000  0.875000  0.250000  1
