# generated using pymatgen
data_CsNi8Bi8P
_symmetry_space_group_name_H-M   'P 1'
_cell_length_a   9.94996300
_cell_length_b   9.94996300
_cell_length_c   4.29791100
_cell_angle_alpha   90.00000000
_cell_angle_beta   90.00000000
_cell_angle_gamma   90.00000000
_symmetry_Int_Tables_number   1
_chemical_formula_structural   CsNi8Bi8P
_chemical_formula_sum   'Cs1 Ni8 Bi8 P1'
_cell_volume   425.50076923
_cell_formula_units_Z   1
loop_
 _symmetry_equiv_pos_site_id
 _symmetry_equiv_pos_as_xyz
  1  'x, y, z'
loop_
 _atom_site_type_symbol
 _atom_site_label
 _atom_site_symmetry_multiplicity
 _atom_site_fract_x
 _atom_site_fract_y
 _atom_site_fract_z
 _atom_site_occupancy
  Cs  Cs0  1  0.500000  0.500000  0.513873  1
  Ni  Ni1  1  0.085406  0.823145  0.503126  1
  Ni  Ni2  1  0.914594  0.176855  0.503126  1
  Ni  Ni3  1  0.823145  0.914594  0.503126  1
  Ni  Ni4  1  0.176855  0.085406  0.503126  1
  Ni  Ni5  1  0.186153  0.940702  0.999859  1
  Ni  Ni6  1  0.813847  0.059298  0.999859  1
  Ni  Ni7  1  0.940702  0.813847  0.999859  1
  Ni  Ni8  1  0.059298  0.186153  0.999859  1
  Bi  Bi9  1  0.351259  0.879162  0.499673  1
  Bi  Bi10  1  0.648741  0.120838  0.499673  1
  Bi  Bi11  1  0.879162  0.648741  0.499673  1
  Bi  Bi12  1  0.120838  0.351259  0.499673  1
  Bi  Bi13  1  0.168343  0.669078  0.002578  1
  Bi  Bi14  1  0.831657  0.330922  0.002578  1
  Bi  Bi15  1  0.669078  0.831657  0.002578  1
  Bi  Bi16  1  0.330922  0.168343  0.002578  1
  P  P17  1  0.000000  0.000000  0.254583  1
