# generated using pymatgen
data_Li3UTl2Se5
_symmetry_space_group_name_H-M   'P 1'
_cell_length_a   4.21788100
_cell_length_b   7.38689461
_cell_length_c   18.80830400
_cell_angle_alpha   90.00000000
_cell_angle_beta   90.00000000
_cell_angle_gamma   73.41141069
_symmetry_Int_Tables_number   1
_chemical_formula_structural   Li3UTl2Se5
_chemical_formula_sum   'Li6 U2 Tl4 Se10'
_cell_volume   561.62102082
_cell_formula_units_Z   2
loop_
 _symmetry_equiv_pos_site_id
 _symmetry_equiv_pos_as_xyz
  1  'x, y, z'
loop_
 _atom_site_type_symbol
 _atom_site_label
 _atom_site_symmetry_multiplicity
 _atom_site_fract_x
 _atom_site_fract_y
 _atom_site_fract_z
 _atom_site_occupancy
  Li  Li0  1  0.043095  0.913809  0.147025  1
  Li  Li1  1  0.556455  0.887090  0.250000  1
  Li  Li2  1  0.043095  0.913809  0.352975  1
  Li  Li3  1  0.956905  0.086191  0.647025  1
  Li  Li4  1  0.443545  0.112910  0.750000  1
  Li  Li5  1  0.956905  0.086191  0.852975  1
  U  U6  1  0.500000  0.000000  0.000000  1
  U  U7  1  0.500000  0.000000  0.500000  1
  Tl  Tl8  1  0.763241  0.473518  0.137406  1
  Tl  Tl9  1  0.763241  0.473518  0.362594  1
  Tl  Tl10  1  0.236759  0.526483  0.637406  1
  Tl  Tl11  1  0.236759  0.526483  0.862594  1
  Se  Se12  1  0.125451  0.749101  0.025666  1
  Se  Se13  1  0.445349  0.109302  0.138432  1
  Se  Se14  1  0.155361  0.689279  0.250000  1
  Se  Se15  1  0.445349  0.109302  0.361568  1
  Se  Se16  1  0.125451  0.749101  0.474334  1
  Se  Se17  1  0.874550  0.250898  0.525666  1
  Se  Se18  1  0.554652  0.890698  0.638432  1
  Se  Se19  1  0.844640  0.310721  0.750000  1
  Se  Se20  1  0.554652  0.890698  0.861568  1
  Se  Se21  1  0.874550  0.250898  0.974334  1
