# generated using pymatgen
data_Tm12In3Tc2
_symmetry_space_group_name_H-M   'P 1'
_cell_length_a   8.40818337
_cell_length_b   8.40821016
_cell_length_c   8.41461001
_cell_angle_alpha   110.36226187
_cell_angle_beta   110.39381321
_cell_angle_gamma   107.64087896
_symmetry_Int_Tables_number   1
_chemical_formula_structural   Tm12In3Tc2
_chemical_formula_sum   'Tm12 In3 Tc2'
_cell_volume   457.78473451
_cell_formula_units_Z   1
loop_
 _symmetry_equiv_pos_site_id
 _symmetry_equiv_pos_as_xyz
  1  'x, y, z'
loop_
 _atom_site_type_symbol
 _atom_site_label
 _atom_site_symmetry_multiplicity
 _atom_site_fract_x
 _atom_site_fract_y
 _atom_site_fract_z
 _atom_site_occupancy
  Tm  Tm0  1  0.317738  0.317629  0.635354  1
  Tm  Tm1  1  0.682245  0.682354  0.364646  1
  Tm  Tm2  1  0.317283  0.682799  0.000099  1
  Tm  Tm3  1  0.682702  0.317186  0.999901  1
  Tm  Tm4  1  0.453930  0.200809  0.252435  1
  Tm  Tm5  1  0.546063  0.799180  0.747556  1
  Tm  Tm6  1  0.948385  0.201497  0.747559  1
  Tm  Tm7  1  0.201463  0.948315  0.747526  1
  Tm  Tm8  1  0.051614  0.798506  0.252451  1
  Tm  Tm9  1  0.798538  0.051683  0.252484  1
  Tm  Tm10  1  0.200772  0.453926  0.252466  1
  Tm  Tm11  1  0.799217  0.546065  0.747525  1
  In  In12  1  0.000000  0.000000  0.000000  1
  In  In13  1  0.500009  0.000009  0.499999  1
  In  In14  1  0.000009  0.500009  0.500000  1
  Tc  Tc15  1  0.340350  0.340350  0.000012  1
  Tc  Tc16  1  0.659682  0.659682  0.999988  1
