# generated using pymatgen
data_Dy4U2CoTc5
_symmetry_space_group_name_H-M   'P 1'
_cell_length_a   5.76190841
_cell_length_b   5.76190795
_cell_length_c   8.13459100
_cell_angle_alpha   90.00000000
_cell_angle_beta   90.00000000
_cell_angle_gamma   119.91972158
_symmetry_Int_Tables_number   1
_chemical_formula_structural   Dy4U2CoTc5
_chemical_formula_sum   'Dy4 U2 Co1 Tc5'
_cell_volume   234.07216357
_cell_formula_units_Z   1
loop_
 _symmetry_equiv_pos_site_id
 _symmetry_equiv_pos_as_xyz
  1  'x, y, z'
loop_
 _atom_site_type_symbol
 _atom_site_label
 _atom_site_symmetry_multiplicity
 _atom_site_fract_x
 _atom_site_fract_y
 _atom_site_fract_z
 _atom_site_occupancy
  Dy  Dy0  1  0.332812  0.667188  0.438479  1
  Dy  Dy1  1  0.666626  0.333374  0.556654  1
  Dy  Dy2  1  0.666626  0.333374  0.943346  1
  Dy  Dy3  1  0.332812  0.667188  0.061521  1
  U  U4  1  0.000361  0.999639  0.498101  1
  U  U5  1  0.000361  0.999639  0.001899  1
  Co  Co6  1  0.839990  0.160010  0.250000  1
  Tc  Tc7  1  0.834028  0.673179  0.250000  1
  Tc  Tc8  1  0.326821  0.165972  0.250000  1
  Tc  Tc9  1  0.163382  0.836618  0.750000  1
  Tc  Tc10  1  0.164001  0.327822  0.750000  1
  Tc  Tc11  1  0.672178  0.835999  0.750000  1
