# generated using pymatgen
data_SmZnAgPt3
_symmetry_space_group_name_H-M   'P 1'
_cell_length_a   5.50893392
_cell_length_b   5.50893433
_cell_length_c   5.21330911
_cell_angle_alpha   58.10574883
_cell_angle_beta   58.10575251
_cell_angle_gamma   59.99999722
_symmetry_Int_Tables_number   1
_chemical_formula_structural   SmZnAgPt3
_chemical_formula_sum   'Sm1 Zn1 Ag1 Pt3'
_cell_volume   108.56420949
_cell_formula_units_Z   1
loop_
 _symmetry_equiv_pos_site_id
 _symmetry_equiv_pos_as_xyz
  1  'x, y, z'
loop_
 _atom_site_type_symbol
 _atom_site_label
 _atom_site_symmetry_multiplicity
 _atom_site_fract_x
 _atom_site_fract_y
 _atom_site_fract_z
 _atom_site_occupancy
  Sm  Sm0  1  0.996425  0.996425  0.010724  1
  Zn  Zn1  1  0.376513  0.376513  0.870461  1
  Ag  Ag2  1  0.747866  0.747866  0.756403  1
  Pt  Pt3  1  0.377556  0.377556  0.370804  1
  Pt  Pt4  1  0.874086  0.377556  0.370804  1
  Pt  Pt5  1  0.377556  0.874086  0.370804  1
