# generated using pymatgen
data_Ho5GaP11Ir19
_symmetry_space_group_name_H-M   'P 1'
_cell_length_a   12.73971643
_cell_length_b   12.73971744
_cell_length_c   3.97296900
_cell_angle_alpha   90.00000000
_cell_angle_beta   90.00000000
_cell_angle_gamma   119.80397827
_symmetry_Int_Tables_number   1
_chemical_formula_structural   Ho5GaP11Ir19
_chemical_formula_sum   'Ho5 Ga1 P11 Ir19'
_cell_volume   559.52541587
_cell_formula_units_Z   1
loop_
 _symmetry_equiv_pos_site_id
 _symmetry_equiv_pos_as_xyz
  1  'x, y, z'
loop_
 _atom_site_type_symbol
 _atom_site_label
 _atom_site_symmetry_multiplicity
 _atom_site_fract_x
 _atom_site_fract_y
 _atom_site_fract_z
 _atom_site_occupancy
  Ho  Ho0  1  0.334944  0.666247  0.500000  1
  Ho  Ho1  1  0.666247  0.334944  0.500000  1
  Ho  Ho2  1  0.179838  0.179838  0.000000  1
  Ho  Ho3  1  0.815831  0.001821  0.000000  1
  Ho  Ho4  1  0.001821  0.815831  0.000000  1
  Ga  Ga5  1  0.355066  0.355066  0.500000  1
  P  P6  1  0.311756  0.826260  0.000000  1
  P  P7  1  0.174286  0.484310  0.000000  1
  P  P8  1  0.519170  0.685192  0.000000  1
  P  P9  1  0.826260  0.311756  0.000000  1
  P  P10  1  0.484310  0.174286  0.000000  1
  P  P11  1  0.685192  0.519170  0.000000  1
  P  P12  1  0.644473  0.000480  0.500000  1
  P  P13  1  0.000480  0.644473  0.500000  1
  P  P14  1  0.825321  0.825321  0.500000  1
  P  P15  1  0.179951  0.998746  0.500000  1
  P  P16  1  0.998746  0.179951  0.500000  1
  Ir  Ir17  1  0.194380  0.816741  0.500000  1
  Ir  Ir18  1  0.169715  0.381374  0.500000  1
  Ir  Ir19  1  0.629806  0.809148  0.500000  1
  Ir  Ir20  1  0.816741  0.194380  0.500000  1
  Ir  Ir21  1  0.381374  0.169715  0.500000  1
  Ir  Ir22  1  0.809148  0.629806  0.500000  1
  Ir  Ir23  1  0.130176  0.636455  0.000000  1
  Ir  Ir24  1  0.361631  0.493633  0.000000  1
  Ir  Ir25  1  0.506351  0.862628  0.000000  1
  Ir  Ir26  1  0.636455  0.130176  0.000000  1
  Ir  Ir27  1  0.493633  0.361631  0.000000  1
  Ir  Ir28  1  0.862628  0.506351  0.000000  1
  Ir  Ir29  1  0.551204  0.551204  0.500000  1
  Ir  Ir30  1  0.461600  0.992178  0.500000  1
  Ir  Ir31  1  0.992178  0.461600  0.500000  1
  Ir  Ir32  1  0.719320  0.719320  0.000000  1
  Ir  Ir33  1  0.281470  0.995432  0.000000  1
  Ir  Ir34  1  0.995432  0.281470  0.000000  1
  Ir  Ir35  1  0.003069  0.003069  0.500000  1
