# generated using pymatgen
data_TiNb8SnS16
_symmetry_space_group_name_H-M   'P 1'
_cell_length_a   6.66106000
_cell_length_b   6.66105848
_cell_length_c   13.50711100
_cell_angle_alpha   90.00000000
_cell_angle_beta   90.00000000
_cell_angle_gamma   119.99999761
_symmetry_Int_Tables_number   1
_chemical_formula_structural   TiNb8SnS16
_chemical_formula_sum   'Ti1 Nb8 Sn1 S16'
_cell_volume   519.01475347
_cell_formula_units_Z   1
loop_
 _symmetry_equiv_pos_site_id
 _symmetry_equiv_pos_as_xyz
  1  'x, y, z'
loop_
 _atom_site_type_symbol
 _atom_site_label
 _atom_site_symmetry_multiplicity
 _atom_site_fract_x
 _atom_site_fract_y
 _atom_site_fract_z
 _atom_site_occupancy
  Ti  Ti0  1  0.000000  0.000000  0.000000  1
  Nb  Nb1  1  0.000000  0.000000  0.227775  1
  Nb  Nb2  1  0.000000  0.000000  0.772225  1
  Nb  Nb3  1  0.504672  0.009344  0.227523  1
  Nb  Nb4  1  0.990656  0.495328  0.227523  1
  Nb  Nb5  1  0.504672  0.495328  0.227523  1
  Nb  Nb6  1  0.495328  0.990656  0.772477  1
  Nb  Nb7  1  0.009344  0.504672  0.772477  1
  Nb  Nb8  1  0.495328  0.504672  0.772477  1
  Sn  Sn9  1  0.000000  0.000000  0.500000  1
  S  S10  1  0.333333  0.666667  0.890346  1
  S  S11  1  0.666667  0.333333  0.109654  1
  S  S12  1  0.666667  0.333333  0.346891  1
  S  S13  1  0.333333  0.666667  0.653109  1
  S  S14  1  0.832696  0.665391  0.889786  1
  S  S15  1  0.334609  0.167304  0.889786  1
  S  S16  1  0.832696  0.167304  0.889786  1
  S  S17  1  0.167304  0.334609  0.110214  1
  S  S18  1  0.665391  0.832696  0.110214  1
  S  S19  1  0.167304  0.832696  0.110214  1
  S  S20  1  0.167977  0.335956  0.344543  1
  S  S21  1  0.664044  0.832023  0.344543  1
  S  S22  1  0.167977  0.832023  0.344543  1
  S  S23  1  0.832023  0.664044  0.655457  1
  S  S24  1  0.335956  0.167977  0.655457  1
  S  S25  1  0.832023  0.167977  0.655457  1
