# generated using pymatgen
data_Ho3Tm(P3Rh4)2
_symmetry_space_group_name_H-M   'P 1'
_cell_length_a   3.95503900
_cell_length_b   11.30827800
_cell_length_c   12.95702200
_cell_angle_alpha   90.00000000
_cell_angle_beta   90.00000000
_cell_angle_gamma   90.00000000
_symmetry_Int_Tables_number   1
_chemical_formula_structural   Ho3Tm(P3Rh4)2
_chemical_formula_sum   'Ho6 Tm2 P12 Rh16'
_cell_volume   579.49866935
_cell_formula_units_Z   2
loop_
 _symmetry_equiv_pos_site_id
 _symmetry_equiv_pos_as_xyz
  1  'x, y, z'
loop_
 _atom_site_type_symbol
 _atom_site_label
 _atom_site_symmetry_multiplicity
 _atom_site_fract_x
 _atom_site_fract_y
 _atom_site_fract_z
 _atom_site_occupancy
  Ho  Ho0  1  0.000000  0.500000  0.522930  1
  Ho  Ho1  1  0.500000  0.000000  0.477070  1
  Ho  Ho2  1  0.500000  0.820408  0.203922  1
  Ho  Ho3  1  0.500000  0.179592  0.203922  1
  Ho  Ho4  1  0.000000  0.679592  0.796078  1
  Ho  Ho5  1  0.000000  0.320408  0.796078  1
  Tm  Tm6  1  0.500000  0.500000  0.159833  1
  Tm  Tm7  1  0.000000  0.000000  0.840167  1
  P  P8  1  0.500000  0.312898  0.616696  1
  P  P9  1  0.500000  0.687102  0.616696  1
  P  P10  1  0.000000  0.187102  0.383304  1
  P  P11  1  0.000000  0.812898  0.383304  1
  P  P12  1  0.500000  0.500000  0.879385  1
  P  P13  1  0.000000  0.000000  0.120615  1
  P  P14  1  0.500000  0.838524  0.889308  1
  P  P15  1  0.500000  0.161476  0.889308  1
  P  P16  1  0.000000  0.661476  0.110692  1
  P  P17  1  0.000000  0.338524  0.110692  1
  P  P18  1  0.500000  0.500000  0.365485  1
  P  P19  1  0.000000  0.000000  0.634515  1
  Rh  Rh20  1  0.000000  0.500000  0.981807  1
  Rh  Rh21  1  0.500000  0.000000  0.018193  1
  Rh  Rh22  1  0.500000  0.290132  0.432440  1
  Rh  Rh23  1  0.500000  0.709868  0.432440  1
  Rh  Rh24  1  0.000000  0.209868  0.567560  1
  Rh  Rh25  1  0.000000  0.790132  0.567560  1
  Rh  Rh26  1  0.500000  0.872961  0.705009  1
  Rh  Rh27  1  0.500000  0.127039  0.705009  1
  Rh  Rh28  1  0.000000  0.627039  0.294991  1
  Rh  Rh29  1  0.000000  0.372961  0.294991  1
  Rh  Rh30  1  0.500000  0.331373  0.990610  1
  Rh  Rh31  1  0.500000  0.668627  0.990610  1
  Rh  Rh32  1  0.000000  0.168627  0.009390  1
  Rh  Rh33  1  0.000000  0.831373  0.009390  1
  Rh  Rh34  1  0.500000  0.500000  0.701074  1
  Rh  Rh35  1  0.000000  0.000000  0.298926  1
