# generated using pymatgen
data_La8Cd2OsPt
_symmetry_space_group_name_H-M   'P 1'
_cell_length_a   10.15248288
_cell_length_b   10.15248291
_cell_length_c   10.23773500
_cell_angle_alpha   59.72183631
_cell_angle_beta   59.72183620
_cell_angle_gamma   59.75003402
_symmetry_Int_Tables_number   1
_chemical_formula_structural   La8Cd2OsPt
_chemical_formula_sum   'La16 Cd4 Os2 Pt2'
_cell_volume   741.60796703
_cell_formula_units_Z   2
loop_
 _symmetry_equiv_pos_site_id
 _symmetry_equiv_pos_as_xyz
  1  'x, y, z'
loop_
 _atom_site_type_symbol
 _atom_site_label
 _atom_site_symmetry_multiplicity
 _atom_site_fract_x
 _atom_site_fract_y
 _atom_site_fract_z
 _atom_site_occupancy
  La  La0  1  0.595468  0.595468  0.604111  1
  La  La1  1  0.595468  0.595468  0.204955  1
  La  La2  1  0.592648  0.209089  0.599132  1
  La  La3  1  0.209089  0.592648  0.599132  1
  La  La4  1  0.065928  0.439282  0.441039  1
  La  La5  1  0.439282  0.065928  0.053750  1
  La  La6  1  0.439282  0.065928  0.441039  1
  La  La7  1  0.065928  0.439282  0.053750  1
  La  La8  1  0.438805  0.438805  0.061195  1
  La  La9  1  0.055336  0.055336  0.444664  1
  La  La10  1  0.190149  0.806778  0.813322  1
  La  La11  1  0.806778  0.190149  0.189751  1
  La  La12  1  0.806778  0.190149  0.813322  1
  La  La13  1  0.190149  0.806778  0.189751  1
  La  La14  1  0.811902  0.811902  0.188098  1
  La  La15  1  0.191174  0.191174  0.808826  1
  Cd  Cd16  1  0.829065  0.829065  0.829612  1
  Cd  Cd17  1  0.829065  0.829065  0.512257  1
  Cd  Cd18  1  0.829692  0.510487  0.829911  1
  Cd  Cd19  1  0.510487  0.829692  0.829911  1
  Os  Os20  1  0.392517  0.392517  0.386515  1
  Os  Os21  1  0.392517  0.392517  0.828451  1
  Pt  Pt22  1  0.395980  0.826514  0.388753  1
  Pt  Pt23  1  0.826514  0.395980  0.388753  1
