# generated using pymatgen
data_Ce4CoSn2Rh3
_symmetry_space_group_name_H-M   'P 1'
_cell_length_a   7.57094058
_cell_length_b   7.57094007
_cell_length_c   3.73615800
_cell_angle_alpha   90.00000000
_cell_angle_beta   90.00000000
_cell_angle_gamma   89.39477923
_symmetry_Int_Tables_number   1
_chemical_formula_structural   Ce4CoSn2Rh3
_chemical_formula_sum   'Ce4 Co1 Sn2 Rh3'
_cell_volume   214.14140644
_cell_formula_units_Z   1
loop_
 _symmetry_equiv_pos_site_id
 _symmetry_equiv_pos_as_xyz
  1  'x, y, z'
loop_
 _atom_site_type_symbol
 _atom_site_label
 _atom_site_symmetry_multiplicity
 _atom_site_fract_x
 _atom_site_fract_y
 _atom_site_fract_z
 _atom_site_occupancy
  Ce  Ce0  1  0.669145  0.170667  0.500000  1
  Ce  Ce1  1  0.329333  0.830855  0.500000  1
  Ce  Ce2  1  0.182883  0.317117  0.500000  1
  Ce  Ce3  1  0.829783  0.670217  0.500000  1
  Co  Co4  1  0.358775  0.141225  0.000000  1
  Sn  Sn5  1  0.004725  0.000479  0.000000  1
  Sn  Sn6  1  0.499521  0.495275  0.000000  1
  Rh  Rh7  1  0.135520  0.635766  0.000000  1
  Rh  Rh8  1  0.864234  0.364480  0.000000  1
  Rh  Rh9  1  0.626080  0.873920  0.000000  1
