# generated using pymatgen
data_Y3Pa5(CoB14)2
_symmetry_space_group_name_H-M   'P 1'
_cell_length_a   7.22640228
_cell_length_b   7.22623631
_cell_length_c   7.57603800
_cell_angle_alpha   90.00000000
_cell_angle_beta   90.00000000
_cell_angle_gamma   90.47196893
_symmetry_Int_Tables_number   1
_chemical_formula_structural   Y3Pa5(CoB14)2
_chemical_formula_sum   'Y3 Pa5 Co2 B28'
_cell_volume   395.60493741
_cell_formula_units_Z   1
loop_
 _symmetry_equiv_pos_site_id
 _symmetry_equiv_pos_as_xyz
  1  'x, y, z'
loop_
 _atom_site_type_symbol
 _atom_site_label
 _atom_site_symmetry_multiplicity
 _atom_site_fract_x
 _atom_site_fract_y
 _atom_site_fract_z
 _atom_site_occupancy
  Y  Y0  1  0.808291  0.665185  0.000000  1
  Y  Y1  1  0.833471  0.691967  0.500000  1
  Y  Y2  1  0.166882  0.308407  0.500000  1
  Pa  Pa3  1  0.191420  0.328139  0.000000  1
  Pa  Pa4  1  0.671947  0.193273  0.000000  1
  Pa  Pa5  1  0.327140  0.805497  0.000000  1
  Pa  Pa6  1  0.693014  0.173416  0.500000  1
  Pa  Pa7  1  0.308524  0.827064  0.500000  1
  Co  Co8  1  0.999981  0.001469  0.000000  1
  Co  Co9  1  0.501142  0.500868  0.500000  1
  B  B10  1  0.173818  0.039525  0.232361  1
  B  B11  1  0.960078  0.174476  0.234555  1
  B  B12  1  0.040148  0.826210  0.230894  1
  B  B13  1  0.674340  0.460099  0.268935  1
  B  B14  1  0.325750  0.539711  0.268007  1
  B  B15  1  0.825508  0.961235  0.229527  1
  B  B16  1  0.539601  0.674492  0.270773  1
  B  B17  1  0.460478  0.326144  0.269029  1
  B  B18  1  0.825508  0.961235  0.770473  1
  B  B19  1  0.040148  0.826210  0.769106  1
  B  B20  1  0.960078  0.174476  0.765445  1
  B  B21  1  0.325750  0.539711  0.731993  1
  B  B22  1  0.674340  0.460099  0.731065  1
  B  B23  1  0.173818  0.039525  0.767639  1
  B  B24  1  0.460478  0.326144  0.730971  1
  B  B25  1  0.539601  0.674492  0.729227  1
  B  B26  1  0.091948  0.591681  0.247005  1
  B  B27  1  0.410503  0.089639  0.247828  1
  B  B28  1  0.588289  0.912038  0.249691  1
  B  B29  1  0.909356  0.408626  0.248012  1
  B  B30  1  0.909356  0.408626  0.751988  1
  B  B31  1  0.588289  0.912038  0.750309  1
  B  B32  1  0.410503  0.089639  0.752172  1
  B  B33  1  0.091948  0.591681  0.752995  1
  B  B34  1  0.998820  0.997949  0.391503  1
  B  B35  1  0.500456  0.500533  0.109011  1
  B  B36  1  0.998820  0.997949  0.608497  1
  B  B37  1  0.500456  0.500533  0.890989  1
