# generated using pymatgen
data_YHo2(SiRh2)3
_symmetry_space_group_name_H-M   'P 1'
_cell_length_a   5.57333200
_cell_length_b   5.57342841
_cell_length_c   15.02585600
_cell_angle_alpha   90.00000000
_cell_angle_beta   90.00000000
_cell_angle_gamma   119.99710280
_symmetry_Int_Tables_number   1
_chemical_formula_structural   YHo2(SiRh2)3
_chemical_formula_sum   'Y2 Ho4 Si6 Rh12'
_cell_volume   404.22193254
_cell_formula_units_Z   2
loop_
 _symmetry_equiv_pos_site_id
 _symmetry_equiv_pos_as_xyz
  1  'x, y, z'
loop_
 _atom_site_type_symbol
 _atom_site_label
 _atom_site_symmetry_multiplicity
 _atom_site_fract_x
 _atom_site_fract_y
 _atom_site_fract_z
 _atom_site_occupancy
  Y  Y0  1  0.666670  0.333331  0.750000  1
  Y  Y1  1  0.333330  0.666669  0.250000  1
  Ho  Ho2  1  0.666664  0.333341  0.962919  1
  Ho  Ho3  1  0.666664  0.333341  0.537081  1
  Ho  Ho4  1  0.333336  0.666659  0.037081  1
  Ho  Ho5  1  0.333336  0.666659  0.462919  1
  Si  Si6  1  0.666642  0.333362  0.250000  1
  Si  Si7  1  0.000000  0.000000  0.500000  1
  Si  Si8  1  0.000023  0.999961  0.250000  1
  Si  Si9  1  0.999977  0.000039  0.750000  1
  Si  Si10  1  0.333358  0.666638  0.750000  1
  Si  Si11  1  0.000000  0.000000  0.000000  1
  Rh  Rh12  1  0.166791  0.333582  0.869936  1
  Rh  Rh13  1  0.166791  0.333582  0.630064  1
  Rh  Rh14  1  0.666424  0.833213  0.869926  1
  Rh  Rh15  1  0.333576  0.166787  0.369926  1
  Rh  Rh16  1  0.833209  0.666418  0.369936  1
  Rh  Rh17  1  0.833207  0.166792  0.369896  1
  Rh  Rh18  1  0.833207  0.166792  0.130104  1
  Rh  Rh19  1  0.333576  0.166787  0.130074  1
  Rh  Rh20  1  0.666424  0.833213  0.630074  1
  Rh  Rh21  1  0.166793  0.833208  0.630104  1
  Rh  Rh22  1  0.833209  0.666418  0.130064  1
  Rh  Rh23  1  0.166793  0.833208  0.869896  1
