# generated using pymatgen
data_Pr3Nd(Ga5Rh3)2
_symmetry_space_group_name_H-M   'P 1'
_cell_length_a   8.69573959
_cell_length_b   8.69521317
_cell_length_c   5.80575908
_cell_angle_alpha   70.44675161
_cell_angle_beta   70.44879260
_cell_angle_gamma   95.25497121
_symmetry_Int_Tables_number   1
_chemical_formula_structural   Pr3Nd(Ga5Rh3)2
_chemical_formula_sum   'Pr3 Nd1 Ga10 Rh6'
_cell_volume   379.43126407
_cell_formula_units_Z   1
loop_
 _symmetry_equiv_pos_site_id
 _symmetry_equiv_pos_as_xyz
  1  'x, y, z'
loop_
 _atom_site_type_symbol
 _atom_site_label
 _atom_site_symmetry_multiplicity
 _atom_site_fract_x
 _atom_site_fract_y
 _atom_site_fract_z
 _atom_site_occupancy
  Pr  Pr0  1  0.863903  0.592153  0.772800  1
  Pr  Pr1  1  0.407916  0.135983  0.727228  1
  Pr  Pr2  1  0.136057  0.407865  0.227211  1
  Nd  Nd3  1  0.592201  0.863887  0.272808  1
  Ga  Ga4  1  0.077169  0.261742  0.830293  1
  Ga  Ga5  1  0.738091  0.922718  0.669845  1
  Ga  Ga6  1  0.922617  0.738402  0.169728  1
  Ga  Ga7  1  0.261714  0.077129  0.330335  1
  Ga  Ga8  1  0.207262  0.792871  0.749883  1
  Ga  Ga9  1  0.792760  0.206950  0.249983  1
  Ga  Ga10  1  0.500594  0.499662  0.749777  1
  Ga  Ga11  1  0.499531  0.500719  0.249970  1
  Ga  Ga12  1  0.791716  0.207991  0.750302  1
  Ga  Ga13  1  0.208313  0.791838  0.249978  1
  Rh  Rh14  1  0.260103  0.553205  0.594679  1
  Rh  Rh15  1  0.447093  0.740258  0.904976  1
  Rh  Rh16  1  0.740121  0.446982  0.405123  1
  Rh  Rh17  1  0.552997  0.259727  0.094967  1
  Rh  Rh18  1  0.999217  0.000668  0.750101  1
  Rh  Rh19  1  0.000625  0.999251  0.250012  1
