# generated using pymatgen
data_SmTh3(Nb3Ge4)2
_symmetry_space_group_name_H-M   'P 1'
_cell_length_a   7.16977000
_cell_length_b   7.32105436
_cell_length_c   13.81096567
_cell_angle_alpha   90.03590956
_cell_angle_beta   90.00000000
_cell_angle_gamma   90.00000000
_symmetry_Int_Tables_number   1
_chemical_formula_structural   SmTh3(Nb3Ge4)2
_chemical_formula_sum   'Sm2 Th6 Nb12 Ge16'
_cell_volume   724.94125672
_cell_formula_units_Z   2
loop_
 _symmetry_equiv_pos_site_id
 _symmetry_equiv_pos_as_xyz
  1  'x, y, z'
loop_
 _atom_site_type_symbol
 _atom_site_label
 _atom_site_symmetry_multiplicity
 _atom_site_fract_x
 _atom_site_fract_y
 _atom_site_fract_z
 _atom_site_occupancy
  Sm  Sm0  1  0.495765  0.328335  0.095971  1
  Sm  Sm1  1  0.995765  0.171665  0.404029  1
  Th  Th2  1  0.505840  0.671263  0.593053  1
  Th  Th3  1  0.005840  0.828737  0.906947  1
  Th  Th4  1  0.505608  0.670925  0.906450  1
  Th  Th5  1  0.005608  0.829075  0.593550  1
  Th  Th6  1  0.496740  0.328971  0.405600  1
  Th  Th7  1  0.996740  0.171029  0.094400  1
  Nb  Nb8  1  0.665677  0.008619  0.749648  1
  Nb  Nb9  1  0.165677  0.491381  0.750352  1
  Nb  Nb10  1  0.333519  0.988536  0.251147  1
  Nb  Nb11  1  0.833519  0.511464  0.248853  1
  Nb  Nb12  1  0.837259  0.334229  0.626098  1
  Nb  Nb13  1  0.337259  0.165771  0.873902  1
  Nb  Nb14  1  0.159610  0.669180  0.126103  1
  Nb  Nb15  1  0.659610  0.830820  0.373897  1
  Nb  Nb16  1  0.163348  0.666856  0.373946  1
  Nb  Nb17  1  0.663348  0.833144  0.126054  1
  Nb  Nb18  1  0.838459  0.333261  0.874320  1
  Nb  Nb19  1  0.338459  0.166739  0.625680  1
  Ge  Ge20  1  0.808710  0.628469  0.749954  1
  Ge  Ge21  1  0.308710  0.871531  0.750046  1
  Ge  Ge22  1  0.191676  0.370158  0.250488  1
  Ge  Ge23  1  0.691676  0.129842  0.249512  1
  Ge  Ge24  1  0.537343  0.367368  0.750216  1
  Ge  Ge25  1  0.037343  0.132632  0.749784  1
  Ge  Ge26  1  0.462162  0.631186  0.248755  1
  Ge  Ge27  1  0.962162  0.868814  0.251245  1
  Ge  Ge28  1  0.671088  0.046840  0.544192  1
  Ge  Ge29  1  0.171088  0.453160  0.955808  1
  Ge  Ge30  1  0.332795  0.956382  0.045946  1
  Ge  Ge31  1  0.832795  0.543618  0.454054  1
  Ge  Ge32  1  0.326467  0.956083  0.454124  1
  Ge  Ge33  1  0.826467  0.543917  0.045876  1
  Ge  Ge34  1  0.667933  0.047784  0.955712  1
  Ge  Ge35  1  0.167933  0.452216  0.544288  1
