# generated using pymatgen
data_Cs5Ce2S4Cl9
_symmetry_space_group_name_H-M   'P 1'
_cell_length_a   10.95431947
_cell_length_b   10.95431992
_cell_length_c   10.95431908
_cell_angle_alpha   139.86529787
_cell_angle_beta   122.08694427
_cell_angle_gamma   72.79828303
_symmetry_Int_Tables_number   1
_chemical_formula_structural   Cs5Ce2S4Cl9
_chemical_formula_sum   'Cs5 Ce2 S4 Cl9'
_cell_volume   703.05218874
_cell_formula_units_Z   1
loop_
 _symmetry_equiv_pos_site_id
 _symmetry_equiv_pos_as_xyz
  1  'x, y, z'
loop_
 _atom_site_type_symbol
 _atom_site_label
 _atom_site_symmetry_multiplicity
 _atom_site_fract_x
 _atom_site_fract_y
 _atom_site_fract_z
 _atom_site_occupancy
  Cs  Cs0  1  0.436086  0.659388  0.776698  1
  Cs  Cs1  1  0.882690  0.659388  0.223302  1
  Cs  Cs2  1  0.500000  0.000000  0.500000  1
  Cs  Cs3  1  0.563914  0.340612  0.223302  1
  Cs  Cs4  1  0.117310  0.340612  0.776698  1
  Ce  Ce5  1  0.110713  0.110713  0.000000  1
  Ce  Ce6  1  0.889287  0.889287  0.000000  1
  S  S7  1  0.096464  0.760208  0.856671  1
  S  S8  1  0.903536  0.760208  0.663745  1
  S  S9  1  0.903536  0.239792  0.143329  1
  S  S10  1  0.096464  0.239792  0.336255  1
  Cl  Cl11  1  0.218788  0.968748  0.749959  1
  Cl  Cl12  1  0.603731  0.861317  0.742415  1
  Cl  Cl13  1  0.781212  0.031252  0.250041  1
  Cl  Cl14  1  0.396269  0.138683  0.257585  1
  Cl  Cl15  1  0.118902  0.861317  0.257585  1
  Cl  Cl16  1  0.218788  0.468829  0.250041  1
  Cl  Cl17  1  0.781212  0.531171  0.749959  1
  Cl  Cl18  1  0.881098  0.138683  0.742415  1
  Cl  Cl19  1  0.500000  0.500000  0.000000  1
