# generated using pymatgen
data_Tb5PrCo16(ReP6)2
_symmetry_space_group_name_H-M   'P 1'
_cell_length_a   3.74464600
_cell_length_b   10.56133800
_cell_length_c   12.28590200
_cell_angle_alpha   90.00000000
_cell_angle_beta   90.00000000
_cell_angle_gamma   90.00000000
_symmetry_Int_Tables_number   1
_chemical_formula_structural   Tb5PrCo16(ReP6)2
_chemical_formula_sum   'Tb5 Pr1 Co16 Re2 P12'
_cell_volume   485.88865243
_cell_formula_units_Z   1
loop_
 _symmetry_equiv_pos_site_id
 _symmetry_equiv_pos_as_xyz
  1  'x, y, z'
loop_
 _atom_site_type_symbol
 _atom_site_label
 _atom_site_symmetry_multiplicity
 _atom_site_fract_x
 _atom_site_fract_y
 _atom_site_fract_z
 _atom_site_occupancy
  Tb  Tb0  1  0.000000  0.500000  0.523116  1
  Tb  Tb1  1  0.500000  0.817176  0.204847  1
  Tb  Tb2  1  0.500000  0.182824  0.204847  1
  Tb  Tb3  1  0.000000  0.681906  0.794498  1
  Tb  Tb4  1  0.000000  0.318094  0.794498  1
  Pr  Pr5  1  0.500000  0.000000  0.475828  1
  Co  Co6  1  0.500000  0.500000  0.702607  1
  Co  Co7  1  0.000000  0.000000  0.295368  1
  Co  Co8  1  0.000000  0.500000  0.987689  1
  Co  Co9  1  0.500000  0.000000  0.012264  1
  Co  Co10  1  0.500000  0.332707  0.989981  1
  Co  Co11  1  0.500000  0.667293  0.989981  1
  Co  Co12  1  0.000000  0.168063  0.010182  1
  Co  Co13  1  0.000000  0.831937  0.010182  1
  Co  Co14  1  0.500000  0.299129  0.429989  1
  Co  Co15  1  0.500000  0.700871  0.429989  1
  Co  Co16  1  0.000000  0.206863  0.569954  1
  Co  Co17  1  0.000000  0.793137  0.569954  1
  Co  Co18  1  0.500000  0.879249  0.711027  1
  Co  Co19  1  0.500000  0.120751  0.711027  1
  Co  Co20  1  0.000000  0.619454  0.289803  1
  Co  Co21  1  0.000000  0.380546  0.289803  1
  Re  Re22  1  0.500000  0.500000  0.155265  1
  Re  Re23  1  0.000000  0.000000  0.846415  1
  P  P24  1  0.500000  0.500000  0.880663  1
  P  P25  1  0.000000  0.000000  0.118569  1
  P  P26  1  0.500000  0.500000  0.347445  1
  P  P27  1  0.000000  0.000000  0.655963  1
  P  P28  1  0.500000  0.311601  0.615865  1
  P  P29  1  0.500000  0.688399  0.615865  1
  P  P30  1  0.000000  0.193121  0.382744  1
  P  P31  1  0.000000  0.806879  0.382744  1
  P  P32  1  0.500000  0.845709  0.893769  1
  P  P33  1  0.500000  0.154291  0.893769  1
  P  P34  1  0.000000  0.653475  0.106743  1
  P  P35  1  0.000000  0.346525  0.106743  1
