# generated using pymatgen
data_Zr6Nb4Al11GaOs7
_symmetry_space_group_name_H-M   'P 1'
_cell_length_a   8.86624624
_cell_length_b   8.86624599
_cell_length_c   8.86624577
_cell_angle_alpha   60.07399742
_cell_angle_beta   60.07399767
_cell_angle_gamma   60.07399774
_symmetry_Int_Tables_number   1
_chemical_formula_structural   Zr6Nb4Al11GaOs7
_chemical_formula_sum   'Zr6 Nb4 Al11 Ga1 Os7'
_cell_volume   493.66461977
_cell_formula_units_Z   1
loop_
 _symmetry_equiv_pos_site_id
 _symmetry_equiv_pos_as_xyz
  1  'x, y, z'
loop_
 _atom_site_type_symbol
 _atom_site_label
 _atom_site_symmetry_multiplicity
 _atom_site_fract_x
 _atom_site_fract_y
 _atom_site_fract_z
 _atom_site_occupancy
  Zr  Zr0  1  0.701139  0.701139  0.299123  1
  Zr  Zr1  1  0.299109  0.699764  0.299109  1
  Zr  Zr2  1  0.699764  0.299109  0.299109  1
  Zr  Zr3  1  0.299109  0.299109  0.699764  1
  Zr  Zr4  1  0.701139  0.299123  0.701139  1
  Zr  Zr5  1  0.299123  0.701139  0.701139  1
  Nb  Nb6  1  0.879041  0.879041  0.362455  1
  Nb  Nb7  1  0.879041  0.362455  0.879041  1
  Nb  Nb8  1  0.362455  0.879041  0.879041  1
  Nb  Nb9  1  0.879053  0.879053  0.879053  1
  Al  Al10  1  0.120798  0.120798  0.636579  1
  Al  Al11  1  0.120798  0.636579  0.120798  1
  Al  Al12  1  0.636579  0.120798  0.120798  1
  Al  Al13  1  0.121028  0.121028  0.121028  1
  Al  Al14  1  0.660447  0.660447  0.018680  1
  Al  Al15  1  0.660447  0.018680  0.660447  1
  Al  Al16  1  0.018680  0.660447  0.660447  1
  Al  Al17  1  0.660672  0.660672  0.660672  1
  Al  Al18  1  0.334448  0.334448  0.995627  1
  Al  Al19  1  0.334448  0.995627  0.334448  1
  Al  Al20  1  0.995627  0.334448  0.334448  1
  Ga  Ga21  1  0.337639  0.337639  0.337639  1
  Os  Os22  1  0.999983  0.999983  0.999983  1
  Os  Os23  1  0.998348  0.998348  0.501726  1
  Os  Os24  1  0.502590  0.995829  0.502590  1
  Os  Os25  1  0.995829  0.502590  0.502590  1
  Os  Os26  1  0.502590  0.502590  0.995829  1
  Os  Os27  1  0.998348  0.501726  0.998348  1
  Os  Os28  1  0.501726  0.998348  0.998348  1
