# generated using pymatgen
data_Hf6BiPtPb
_symmetry_space_group_name_H-M   'P 1'
_cell_length_a   7.97258100
_cell_length_b   7.97257980
_cell_length_c   3.63775200
_cell_angle_alpha   90.00000000
_cell_angle_beta   90.00000000
_cell_angle_gamma   120.00000915
_symmetry_Int_Tables_number   1
_chemical_formula_structural   Hf6BiPtPb
_chemical_formula_sum   'Hf6 Bi1 Pt1 Pb1'
_cell_volume   200.24491422
_cell_formula_units_Z   1
loop_
 _symmetry_equiv_pos_site_id
 _symmetry_equiv_pos_as_xyz
  1  'x, y, z'
loop_
 _atom_site_type_symbol
 _atom_site_label
 _atom_site_symmetry_multiplicity
 _atom_site_fract_x
 _atom_site_fract_y
 _atom_site_fract_z
 _atom_site_occupancy
  Hf  Hf0  1  0.002615  0.752319  0.500000  1
  Hf  Hf1  1  0.247681  0.250297  0.500000  1
  Hf  Hf2  1  0.749703  0.997385  0.500000  1
  Hf  Hf3  1  0.998237  0.391376  0.000000  1
  Hf  Hf4  1  0.608624  0.606859  0.000000  1
  Hf  Hf5  1  0.393141  0.001763  0.000000  1
  Bi  Bi6  1  0.666667  0.333333  0.500000  1
  Pt  Pt7  1  0.000000  0.000000  0.000000  1
  Pb  Pb8  1  0.333333  0.666667  0.500000  1
