# generated using pymatgen
data_Ta4B3C2
_symmetry_space_group_name_H-M   'P 1'
_cell_length_a   18.86567748
_cell_length_b   3.24248966
_cell_length_c   3.14414200
_cell_angle_alpha   90.00000000
_cell_angle_beta   90.00000000
_cell_angle_gamma   94.92986137
_symmetry_Int_Tables_number   1
_chemical_formula_structural   Ta4B3C2
_chemical_formula_sum   'Ta8 B6 C4'
_cell_volume   191.62120531
_cell_formula_units_Z   2
loop_
 _symmetry_equiv_pos_site_id
 _symmetry_equiv_pos_as_xyz
  1  'x, y, z'
loop_
 _atom_site_type_symbol
 _atom_site_label
 _atom_site_symmetry_multiplicity
 _atom_site_fract_x
 _atom_site_fract_y
 _atom_site_fract_z
 _atom_site_occupancy
  Ta  Ta0  1  0.928303  0.464151  0.250000  1
  Ta  Ta1  1  0.210872  0.605437  0.250000  1
  Ta  Ta2  1  0.438920  0.719462  0.250000  1
  Ta  Ta3  1  0.677066  0.838533  0.250000  1
  Ta  Ta4  1  0.322934  0.161468  0.749999  1
  Ta  Ta5  1  0.561080  0.280539  0.749999  1
  Ta  Ta6  1  0.789128  0.394564  0.749999  1
  Ta  Ta7  1  0.071697  0.535850  0.749999  1
  B  B8  1  0.023584  0.011792  0.250000  1
  B  B9  1  0.120242  0.060122  0.250000  1
  B  B10  1  0.828133  0.914067  0.250000  1
  B  B11  1  0.171867  0.085934  0.749999  1
  B  B12  1  0.879758  0.939879  0.749999  1
  B  B13  1  0.976416  0.988209  0.749999  1
  C  C14  1  0.324056  0.662030  0.250000  1
  C  C15  1  0.559494  0.779748  0.250000  1
  C  C16  1  0.440506  0.220253  0.749999  1
  C  C17  1  0.675944  0.337971  0.749999  1
