# generated using pymatgen
data_Cs4Na2DyHoSb4
_symmetry_space_group_name_H-M   'P 1'
_cell_length_a   11.64509603
_cell_length_b   11.64509467
_cell_length_c   7.59050700
_cell_angle_alpha   90.00000000
_cell_angle_beta   90.00000000
_cell_angle_gamma   99.82110217
_symmetry_Int_Tables_number   1
_chemical_formula_structural   Cs4Na2DyHoSb4
_chemical_formula_sum   'Cs8 Na4 Dy2 Ho2 Sb8'
_cell_volume   1014.25057643
_cell_formula_units_Z   2
loop_
 _symmetry_equiv_pos_site_id
 _symmetry_equiv_pos_as_xyz
  1  'x, y, z'
loop_
 _atom_site_type_symbol
 _atom_site_label
 _atom_site_symmetry_multiplicity
 _atom_site_fract_x
 _atom_site_fract_y
 _atom_site_fract_z
 _atom_site_occupancy
  Cs  Cs0  1  0.070370  0.429630  0.250000  1
  Cs  Cs1  1  0.429630  0.070370  0.750000  1
  Cs  Cs2  1  0.929704  0.570296  0.750000  1
  Cs  Cs3  1  0.570296  0.929704  0.250000  1
  Cs  Cs4  1  0.677312  0.322619  0.212618  1
  Cs  Cs5  1  0.822688  0.177381  0.712618  1
  Cs  Cs6  1  0.322619  0.677312  0.787382  1
  Cs  Cs7  1  0.177381  0.822688  0.287382  1
  Na  Na8  1  0.382157  0.382157  0.000000  1
  Na  Na9  1  0.117843  0.117843  0.500000  1
  Na  Na10  1  0.617761  0.617761  0.000000  1
  Na  Na11  1  0.882239  0.882239  0.500000  1
  Dy  Dy12  1  0.869323  0.869323  0.000000  1
  Dy  Dy13  1  0.630677  0.630677  0.500000  1
  Ho  Ho14  1  0.130755  0.130755  0.000000  1
  Ho  Ho15  1  0.369245  0.369245  0.500000  1
  Sb  Sb16  1  0.842051  0.657948  0.250000  1
  Sb  Sb17  1  0.657948  0.842051  0.750000  1
  Sb  Sb18  1  0.158388  0.341611  0.750000  1
  Sb  Sb19  1  0.341611  0.158388  0.250000  1
  Sb  Sb20  1  0.905039  0.095599  0.210529  1
  Sb  Sb21  1  0.594961  0.404401  0.710529  1
  Sb  Sb22  1  0.095599  0.905039  0.789471  1
  Sb  Sb23  1  0.404401  0.594961  0.289471  1
