# generated using pymatgen
data_ErTm9In8(PtRh)2
_symmetry_space_group_name_H-M   'P 1'
_cell_length_a   3.58013800
_cell_length_b   8.05786054
_cell_length_c   18.07166654
_cell_angle_alpha   90.11103866
_cell_angle_beta   90.00000000
_cell_angle_gamma   90.00000000
_symmetry_Int_Tables_number   1
_chemical_formula_structural   ErTm9In8(PtRh)2
_chemical_formula_sum   'Er1 Tm9 In8 Pt2 Rh2'
_cell_volume   521.33502467
_cell_formula_units_Z   1
loop_
 _symmetry_equiv_pos_site_id
 _symmetry_equiv_pos_as_xyz
  1  'x, y, z'
loop_
 _atom_site_type_symbol
 _atom_site_label
 _atom_site_symmetry_multiplicity
 _atom_site_fract_x
 _atom_site_fract_y
 _atom_site_fract_z
 _atom_site_occupancy
  Er  Er0  1  0.000000  0.500000  0.500000  1
  Tm  Tm1  1  0.000000  0.115198  0.412306  1
  Tm  Tm2  1  0.000000  0.884802  0.587694  1
  Tm  Tm3  1  0.000000  0.383018  0.913579  1
  Tm  Tm4  1  0.000000  0.616982  0.086421  1
  Tm  Tm5  1  0.000000  0.239301  0.221453  1
  Tm  Tm6  1  0.000000  0.760699  0.778547  1
  Tm  Tm7  1  0.000000  0.251593  0.720486  1
  Tm  Tm8  1  0.000000  0.748407  0.279514  1
  Tm  Tm9  1  0.000000  0.000000  0.000000  1
  In  In10  1  0.500000  0.422759  0.351502  1
  In  In11  1  0.500000  0.577241  0.648498  1
  In  In12  1  0.500000  0.073288  0.850325  1
  In  In13  1  0.500000  0.926712  0.149675  1
  In  In14  1  0.500000  0.291961  0.066071  1
  In  In15  1  0.500000  0.708039  0.933929  1
  In  In16  1  0.500000  0.206415  0.567513  1
  In  In17  1  0.500000  0.793585  0.432487  1
  Pt  Pt18  1  0.500000  0.478030  0.803629  1
  Pt  Pt19  1  0.500000  0.521970  0.196371  1
  Rh  Rh20  1  0.500000  0.022307  0.304507  1
  Rh  Rh21  1  0.500000  0.977693  0.695493  1
