# generated using pymatgen
data_YEr9In8Pd3Ru
_symmetry_space_group_name_H-M   'P 1'
_cell_length_a   3.60828700
_cell_length_b   8.08970854
_cell_length_c   18.19717808
_cell_angle_alpha   90.02647047
_cell_angle_beta   90.00000000
_cell_angle_gamma   90.00000000
_symmetry_Int_Tables_number   1
_chemical_formula_structural   YEr9In8Pd3Ru
_chemical_formula_sum   'Y1 Er9 In8 Pd3 Ru1'
_cell_volume   531.17539273
_cell_formula_units_Z   1
loop_
 _symmetry_equiv_pos_site_id
 _symmetry_equiv_pos_as_xyz
  1  'x, y, z'
loop_
 _atom_site_type_symbol
 _atom_site_label
 _atom_site_symmetry_multiplicity
 _atom_site_fract_x
 _atom_site_fract_y
 _atom_site_fract_z
 _atom_site_occupancy
  Y  Y0  1  0.000000  0.499885  0.499686  1
  Er  Er1  1  0.000000  0.999721  0.000873  1
  Er  Er2  1  0.000000  0.726815  0.276890  1
  Er  Er3  1  0.000000  0.259419  0.720439  1
  Er  Er4  1  0.000000  0.759567  0.779483  1
  Er  Er5  1  0.000000  0.253485  0.220374  1
  Er  Er6  1  0.000000  0.614724  0.087452  1
  Er  Er7  1  0.000000  0.384004  0.915944  1
  Er  Er8  1  0.000000  0.883723  0.584197  1
  Er  Er9  1  0.000000  0.118346  0.414374  1
  In  In10  1  0.500000  0.710080  0.931927  1
  In  In11  1  0.500000  0.292280  0.068880  1
  In  In12  1  0.500000  0.792628  0.432237  1
  In  In13  1  0.500000  0.208485  0.567659  1
  In  In14  1  0.500000  0.579213  0.649407  1
  In  In15  1  0.500000  0.425730  0.349785  1
  In  In16  1  0.500000  0.921900  0.150136  1
  In  In17  1  0.500000  0.077738  0.851386  1
  Pd  Pd18  1  0.500000  0.477421  0.804219  1
  Pd  Pd19  1  0.500000  0.977905  0.695511  1
  Pd  Pd20  1  0.500000  0.018388  0.303999  1
  Ru  Ru21  1  0.500000  0.518544  0.195139  1
