# generated using pymatgen
data_YbEr5Sc4(In2Pt)4
_symmetry_space_group_name_H-M   'P 1'
_cell_length_a   3.58610900
_cell_length_b   7.95315456
_cell_length_c   17.85494007
_cell_angle_alpha   89.91637848
_cell_angle_beta   90.00000000
_cell_angle_gamma   90.00000000
_symmetry_Int_Tables_number   1
_chemical_formula_structural   YbEr5Sc4(In2Pt)4
_chemical_formula_sum   'Yb1 Er5 Sc4 In8 Pt4'
_cell_volume   509.23804582
_cell_formula_units_Z   1
loop_
 _symmetry_equiv_pos_site_id
 _symmetry_equiv_pos_as_xyz
  1  'x, y, z'
loop_
 _atom_site_type_symbol
 _atom_site_label
 _atom_site_symmetry_multiplicity
 _atom_site_fract_x
 _atom_site_fract_y
 _atom_site_fract_z
 _atom_site_occupancy
  Yb  Yb0  1  0.000000  0.000000  0.000000  1
  Er  Er1  1  0.000000  0.242647  0.219189  1
  Er  Er2  1  0.000000  0.757353  0.780811  1
  Er  Er3  1  0.000000  0.257912  0.719273  1
  Er  Er4  1  0.000000  0.742088  0.280727  1
  Er  Er5  1  0.000000  0.500000  0.500000  1
  Sc  Sc6  1  0.000000  0.116890  0.413552  1
  Sc  Sc7  1  0.000000  0.883110  0.586448  1
  Sc  Sc8  1  0.000000  0.381841  0.913522  1
  Sc  Sc9  1  0.000000  0.618159  0.086478  1
  In  In10  1  0.500000  0.417812  0.351984  1
  In  In11  1  0.500000  0.582188  0.648016  1
  In  In12  1  0.500000  0.080506  0.851807  1
  In  In13  1  0.500000  0.919494  0.148193  1
  In  In14  1  0.500000  0.304138  0.062346  1
  In  In15  1  0.500000  0.695862  0.937654  1
  In  In16  1  0.500000  0.199459  0.562470  1
  In  In17  1  0.500000  0.800541  0.437530  1
  Pt  Pt18  1  0.500000  0.028079  0.307446  1
  Pt  Pt19  1  0.500000  0.971921  0.692554  1
  Pt  Pt20  1  0.500000  0.472822  0.806446  1
  Pt  Pt21  1  0.500000  0.527178  0.193554  1
