# generated using pymatgen
data_Np2TaNbN4
_symmetry_space_group_name_H-M   'P 1'
_cell_length_a   3.25628100
_cell_length_b   5.68307274
_cell_length_c   10.97845984
_cell_angle_alpha   90.21219344
_cell_angle_beta   90.00000000
_cell_angle_gamma   90.00000000
_symmetry_Int_Tables_number   1
_chemical_formula_structural   Np2TaNbN4
_chemical_formula_sum   'Np4 Ta2 Nb2 N8'
_cell_volume   203.16249081
_cell_formula_units_Z   2
loop_
 _symmetry_equiv_pos_site_id
 _symmetry_equiv_pos_as_xyz
  1  'x, y, z'
loop_
 _atom_site_type_symbol
 _atom_site_label
 _atom_site_symmetry_multiplicity
 _atom_site_fract_x
 _atom_site_fract_y
 _atom_site_fract_z
 _atom_site_occupancy
  Np  Np0  1  0.250000  0.575834  0.859466  1
  Np  Np1  1  0.750000  0.424166  0.140534  1
  Np  Np2  1  0.750000  0.919777  0.359328  1
  Np  Np3  1  0.250000  0.080223  0.640672  1
  Ta  Ta4  1  0.750000  0.579494  0.603952  1
  Ta  Ta5  1  0.250000  0.420506  0.396048  1
  Nb  Nb6  1  0.250000  0.923574  0.101428  1
  Nb  Nb7  1  0.750000  0.076426  0.898572  1
  N  N8  1  0.250000  0.659128  0.246447  1
  N  N9  1  0.750000  0.340872  0.753553  1
  N  N10  1  0.750000  0.838619  0.743148  1
  N  N11  1  0.250000  0.161381  0.256852  1
  N  N12  1  0.250000  0.754259  0.505789  1
  N  N13  1  0.750000  0.245741  0.494211  1
  N  N14  1  0.750000  0.738580  0.004655  1
  N  N15  1  0.250000  0.261420  0.995345  1
