# generated using pymatgen
data_Ho2Er6Ti12Si15As
_symmetry_space_group_name_H-M   'P 1'
_cell_length_a   7.04152800
_cell_length_b   7.03456356
_cell_length_c   12.93093304
_cell_angle_alpha   89.97599079
_cell_angle_beta   89.82499346
_cell_angle_gamma   89.93113072
_symmetry_Int_Tables_number   1
_chemical_formula_structural   Ho2Er6Ti12Si15As
_chemical_formula_sum   'Ho2 Er6 Ti12 Si15 As1'
_cell_volume   640.51831774
_cell_formula_units_Z   1
loop_
 _symmetry_equiv_pos_site_id
 _symmetry_equiv_pos_as_xyz
  1  'x, y, z'
loop_
 _atom_site_type_symbol
 _atom_site_label
 _atom_site_symmetry_multiplicity
 _atom_site_fract_x
 _atom_site_fract_y
 _atom_site_fract_z
 _atom_site_occupancy
  Ho  Ho0  1  0.341294  0.001416  0.465975  1
  Ho  Ho1  1  0.497690  0.842285  0.717543  1
  Er  Er2  1  0.501827  0.158834  0.216411  1
  Er  Er3  1  0.840216  0.497173  0.283097  1
  Er  Er4  1  0.159034  0.501132  0.783320  1
  Er  Er5  1  0.661029  0.995463  0.967771  1
  Er  Er6  1  0.998923  0.343514  0.531797  1
  Er  Er7  1  0.998820  0.659110  0.033439  1
  Ti  Ti8  1  0.326610  0.326948  0.999830  1
  Ti  Ti9  1  0.172769  0.827123  0.249867  1
  Ti  Ti10  1  0.824249  0.173699  0.750211  1
  Ti  Ti11  1  0.672397  0.672731  0.500110  1
  Ti  Ti12  1  0.154185  0.009071  0.875170  1
  Ti  Ti13  1  0.492316  0.651295  0.125351  1
  Ti  Ti14  1  0.508466  0.347817  0.626923  1
  Ti  Ti15  1  0.654591  0.495185  0.875445  1
  Ti  Ti16  1  0.347143  0.507336  0.374179  1
  Ti  Ti17  1  0.847191  0.992826  0.375451  1
  Ti  Ti18  1  0.007689  0.151201  0.124413  1
  Ti  Ti19  1  0.989824  0.844447  0.623297  1
  Si  Si20  1  0.368648  0.703658  0.933072  1
  Si  Si21  1  0.629593  0.297370  0.433984  1
  Si  Si22  1  0.703871  0.368985  0.066908  1
  Si  Si23  1  0.296630  0.630667  0.566682  1
  Si  Si24  1  0.796517  0.868754  0.183837  1
  Si  Si25  1  0.130745  0.203199  0.316573  1
  Si  Si26  1  0.870430  0.797431  0.816063  1
  Si  Si27  1  0.291799  0.953136  0.064367  1
  Si  Si28  1  0.546603  0.790741  0.314307  1
  Si  Si29  1  0.462296  0.211109  0.819598  1
  Si  Si30  1  0.791208  0.546479  0.685453  1
  Si  Si31  1  0.208345  0.452985  0.185480  1
  Si  Si32  1  0.708031  0.046357  0.564229  1
  Si  Si33  1  0.954214  0.291368  0.935578  1
  Si  Si34  1  0.046282  0.709107  0.434797  1
  As  As35  1  0.198524  0.130044  0.679473  1
