# generated using pymatgen
data_TbDy4Bi3Se
_symmetry_space_group_name_H-M   'P 1'
_cell_length_a   9.28398705
_cell_length_b   9.28398754
_cell_length_c   6.62617500
_cell_angle_alpha   90.00000000
_cell_angle_beta   90.00000000
_cell_angle_gamma   120.01204064
_symmetry_Int_Tables_number   1
_chemical_formula_structural   TbDy4Bi3Se
_chemical_formula_sum   'Tb2 Dy8 Bi6 Se2'
_cell_volume   494.54965420
_cell_formula_units_Z   2
loop_
 _symmetry_equiv_pos_site_id
 _symmetry_equiv_pos_as_xyz
  1  'x, y, z'
loop_
 _atom_site_type_symbol
 _atom_site_label
 _atom_site_symmetry_multiplicity
 _atom_site_fract_x
 _atom_site_fract_y
 _atom_site_fract_z
 _atom_site_occupancy
  Tb  Tb0  1  0.745348  0.999999  0.750000  1
  Tb  Tb1  1  0.999999  0.745348  0.750000  1
  Dy  Dy2  1  0.666651  0.333323  0.499992  1
  Dy  Dy3  1  0.333323  0.666651  0.499992  1
  Dy  Dy4  1  0.333323  0.666651  0.000008  1
  Dy  Dy5  1  0.666651  0.333323  0.000008  1
  Dy  Dy6  1  0.745433  0.745433  0.250000  1
  Dy  Dy7  1  0.254557  0.000020  0.250000  1
  Dy  Dy8  1  0.000020  0.254557  0.250000  1
  Dy  Dy9  1  0.254507  0.254507  0.750000  1
  Bi  Bi10  1  0.394030  0.394030  0.250000  1
  Bi  Bi11  1  0.605960  0.999994  0.250000  1
  Bi  Bi12  1  0.999994  0.605960  0.250000  1
  Bi  Bi13  1  0.605853  0.605853  0.750000  1
  Bi  Bi14  1  0.394039  0.000077  0.750000  1
  Bi  Bi15  1  0.000077  0.394039  0.750000  1
  Se  Se16  1  0.000118  0.000118  0.499773  1
  Se  Se17  1  0.000118  0.000118  0.000227  1
