# generated using pymatgen
data_Dy2Er3GaBi2
_symmetry_space_group_name_H-M   'P 1'
_cell_length_a   8.05264700
_cell_length_b   9.24984000
_cell_length_c   12.06112000
_cell_angle_alpha   90.00000000
_cell_angle_beta   90.00000000
_cell_angle_gamma   90.00000000
_symmetry_Int_Tables_number   1
_chemical_formula_structural   Dy2Er3GaBi2
_chemical_formula_sum   'Dy8 Er12 Ga4 Bi8'
_cell_volume   898.38092168
_cell_formula_units_Z   4
loop_
 _symmetry_equiv_pos_site_id
 _symmetry_equiv_pos_as_xyz
  1  'x, y, z'
loop_
 _atom_site_type_symbol
 _atom_site_label
 _atom_site_symmetry_multiplicity
 _atom_site_fract_x
 _atom_site_fract_y
 _atom_site_fract_z
 _atom_site_occupancy
  Dy  Dy0  1  0.667803  0.750000  0.715775  1
  Dy  Dy1  1  0.332197  0.250000  0.284225  1
  Dy  Dy2  1  0.167803  0.250000  0.784225  1
  Dy  Dy3  1  0.832197  0.750000  0.215775  1
  Dy  Dy4  1  0.143294  0.750000  0.795070  1
  Dy  Dy5  1  0.856706  0.250000  0.204930  1
  Dy  Dy6  1  0.643294  0.250000  0.704930  1
  Dy  Dy7  1  0.356706  0.750000  0.295070  1
  Er  Er8  1  0.540295  0.750000  0.002465  1
  Er  Er9  1  0.459705  0.250000  0.997535  1
  Er  Er10  1  0.040295  0.250000  0.497535  1
  Er  Er11  1  0.959705  0.750000  0.502465  1
  Er  Er12  1  0.819313  0.446735  0.935980  1
  Er  Er13  1  0.180687  0.553265  0.064020  1
  Er  Er14  1  0.319313  0.553265  0.564020  1
  Er  Er15  1  0.180687  0.946735  0.064020  1
  Er  Er16  1  0.680687  0.446735  0.435980  1
  Er  Er17  1  0.819313  0.053265  0.935980  1
  Er  Er18  1  0.680687  0.053265  0.435980  1
  Er  Er19  1  0.319313  0.946735  0.564020  1
  Ga  Ga20  1  0.908798  0.750000  0.975883  1
  Ga  Ga21  1  0.091202  0.250000  0.024117  1
  Ga  Ga22  1  0.408798  0.250000  0.524117  1
  Ga  Ga23  1  0.591202  0.750000  0.475883  1
  Bi  Bi24  1  0.935369  0.008661  0.673781  1
  Bi  Bi25  1  0.064631  0.991339  0.326219  1
  Bi  Bi26  1  0.435369  0.991339  0.826219  1
  Bi  Bi27  1  0.064631  0.508661  0.326219  1
  Bi  Bi28  1  0.564631  0.008661  0.173781  1
  Bi  Bi29  1  0.935369  0.491339  0.673781  1
  Bi  Bi30  1  0.564631  0.491339  0.173781  1
  Bi  Bi31  1  0.435369  0.508661  0.826219  1
