# generated using pymatgen
data_Dy10Er2Tc3Ni
_symmetry_space_group_name_H-M   'P 1'
_cell_length_a   6.27020407
_cell_length_b   7.30194593
_cell_length_c   9.17816119
_cell_angle_alpha   89.99771838
_cell_angle_beta   90.20174084
_cell_angle_gamma   90.21029637
_symmetry_Int_Tables_number   1
_chemical_formula_structural   Dy10Er2Tc3Ni
_chemical_formula_sum   'Dy10 Er2 Tc3 Ni1'
_cell_volume   420.21383885
_cell_formula_units_Z   1
loop_
 _symmetry_equiv_pos_site_id
 _symmetry_equiv_pos_as_xyz
  1  'x, y, z'
loop_
 _atom_site_type_symbol
 _atom_site_label
 _atom_site_symmetry_multiplicity
 _atom_site_fract_x
 _atom_site_fract_y
 _atom_site_fract_z
 _atom_site_occupancy
  Dy  Dy0  1  0.328401  0.677858  0.067677  1
  Dy  Dy1  1  0.163988  0.177147  0.436439  1
  Dy  Dy2  1  0.666589  0.322714  0.562528  1
  Dy  Dy3  1  0.834560  0.823751  0.938291  1
  Dy  Dy4  1  0.667030  0.322282  0.937383  1
  Dy  Dy5  1  0.834115  0.823374  0.561898  1
  Dy  Dy6  1  0.871448  0.541293  0.250107  1
  Dy  Dy7  1  0.623510  0.040141  0.249927  1
  Dy  Dy8  1  0.140665  0.457882  0.749891  1
  Dy  Dy9  1  0.371969  0.957038  0.750151  1
  Er  Er10  1  0.328956  0.677467  0.432906  1
  Er  Er11  1  0.163558  0.176871  0.062877  1
  Tc  Tc12  1  0.037654  0.886065  0.250434  1
  Tc  Tc13  1  0.460009  0.388466  0.249819  1
  Tc  Tc14  1  0.961560  0.113274  0.751179  1
  Ni  Ni15  1  0.545988  0.614377  0.748494  1
