# generated using pymatgen
data_Pa2(Al3Rh)3
_symmetry_space_group_name_H-M   'P 1'
_cell_length_a   7.62348383
_cell_length_b   7.62348426
_cell_length_c   9.46267600
_cell_angle_alpha   90.00000000
_cell_angle_beta   90.00000000
_cell_angle_gamma   119.52027174
_symmetry_Int_Tables_number   1
_chemical_formula_structural   Pa2(Al3Rh)3
_chemical_formula_sum   'Pa4 Al18 Rh6'
_cell_volume   478.55379679
_cell_formula_units_Z   2
loop_
 _symmetry_equiv_pos_site_id
 _symmetry_equiv_pos_as_xyz
  1  'x, y, z'
loop_
 _atom_site_type_symbol
 _atom_site_label
 _atom_site_symmetry_multiplicity
 _atom_site_fract_x
 _atom_site_fract_y
 _atom_site_fract_z
 _atom_site_occupancy
  Pa  Pa0  1  0.996171  0.671417  0.750000  1
  Pa  Pa1  1  0.003829  0.328583  0.250000  1
  Pa  Pa2  1  0.671417  0.996171  0.750000  1
  Pa  Pa3  1  0.328583  0.003829  0.250000  1
  Al  Al4  1  0.128650  0.128650  0.750000  1
  Al  Al5  1  0.871350  0.871350  0.250000  1
  Al  Al6  1  0.001937  0.335359  0.574166  1
  Al  Al7  1  0.998063  0.664641  0.425834  1
  Al  Al8  1  0.998063  0.664641  0.074166  1
  Al  Al9  1  0.335359  0.001937  0.925834  1
  Al  Al10  1  0.001937  0.335359  0.925834  1
  Al  Al11  1  0.664641  0.998063  0.074166  1
  Al  Al12  1  0.664641  0.998063  0.425834  1
  Al  Al13  1  0.335359  0.001937  0.574166  1
  Al  Al14  1  0.334251  0.334251  0.051468  1
  Al  Al15  1  0.665749  0.665749  0.948532  1
  Al  Al16  1  0.665749  0.665749  0.551468  1
  Al  Al17  1  0.334251  0.334251  0.448532  1
  Al  Al18  1  0.340870  0.548710  0.750000  1
  Al  Al19  1  0.659130  0.451290  0.250000  1
  Al  Al20  1  0.548710  0.340870  0.750000  1
  Al  Al21  1  0.451290  0.659130  0.250000  1
  Rh  Rh22  1  0.671902  0.328098  0.500000  1
  Rh  Rh23  1  0.328098  0.671902  0.500000  1
  Rh  Rh24  1  0.328098  0.671902  0.000000  1
  Rh  Rh25  1  0.671902  0.328098  0.000000  1
  Rh  Rh26  1  0.000000  0.000000  0.500000  1
  Rh  Rh27  1  0.000000  0.000000  0.000000  1
