# generated using pymatgen
data_Pr3(MoC3)2
_symmetry_space_group_name_H-M   'P 1'
_cell_length_a   8.60932000
_cell_length_b   8.60932001
_cell_length_c   5.32166100
_cell_angle_alpha   90.00000000
_cell_angle_beta   90.00000000
_cell_angle_gamma   119.99998458
_symmetry_Int_Tables_number   1
_chemical_formula_structural   Pr3(MoC3)2
_chemical_formula_sum   'Pr6 Mo4 C12'
_cell_volume   341.59822584
_cell_formula_units_Z   2
loop_
 _symmetry_equiv_pos_site_id
 _symmetry_equiv_pos_as_xyz
  1  'x, y, z'
loop_
 _atom_site_type_symbol
 _atom_site_label
 _atom_site_symmetry_multiplicity
 _atom_site_fract_x
 _atom_site_fract_y
 _atom_site_fract_z
 _atom_site_occupancy
  Pr  Pr0  1  0.617683  0.691235  0.750000  1
  Pr  Pr1  1  0.926447  0.617683  0.250000  1
  Pr  Pr2  1  0.691235  0.073553  0.250000  1
  Pr  Pr3  1  0.308765  0.926447  0.750000  1
  Pr  Pr4  1  0.073553  0.382317  0.750000  1
  Pr  Pr5  1  0.382317  0.308765  0.250000  1
  Mo  Mo6  1  0.000000  0.000000  0.500000  1
  Mo  Mo7  1  0.000000  0.000000  0.000000  1
  Mo  Mo8  1  0.666667  0.333333  0.750000  1
  Mo  Mo9  1  0.333333  0.666667  0.250000  1
  C  C10  1  0.957478  0.770840  0.750000  1
  C  C11  1  0.186638  0.957478  0.250000  1
  C  C12  1  0.770840  0.813362  0.250000  1
  C  C13  1  0.229160  0.186638  0.750000  1
  C  C14  1  0.813362  0.042522  0.750000  1
  C  C15  1  0.042522  0.229160  0.250000  1
  C  C16  1  0.863092  0.586855  0.750000  1
  C  C17  1  0.276237  0.863092  0.250000  1
  C  C18  1  0.586855  0.723763  0.250000  1
  C  C19  1  0.413145  0.276237  0.750000  1
  C  C20  1  0.136908  0.413145  0.250000  1
  C  C21  1  0.723763  0.136908  0.750000  1
