# generated using pymatgen
data_La14Pr3(NdIr4)3
_symmetry_space_group_name_H-M   'P 1'
_cell_length_a   11.40215325
_cell_length_b   11.40429339
_cell_length_c   6.66140648
_cell_angle_alpha   89.92587288
_cell_angle_beta   89.89001706
_cell_angle_gamma   89.99498021
_symmetry_Int_Tables_number   1
_chemical_formula_structural   La14Pr3(NdIr4)3
_chemical_formula_sum   'La14 Pr3 Nd3 Ir12'
_cell_volume   866.20368092
_cell_formula_units_Z   1
loop_
 _symmetry_equiv_pos_site_id
 _symmetry_equiv_pos_as_xyz
  1  'x, y, z'
loop_
 _atom_site_type_symbol
 _atom_site_label
 _atom_site_symmetry_multiplicity
 _atom_site_fract_x
 _atom_site_fract_y
 _atom_site_fract_z
 _atom_site_occupancy
  La  La0  1  0.208240  0.589863  0.112790  1
  La  La1  1  0.909172  0.707628  0.113079  1
  La  La2  1  0.409165  0.791069  0.386741  1
  La  La3  1  0.591244  0.209328  0.386536  1
  La  La4  1  0.290918  0.091354  0.386690  1
  La  La5  1  0.708891  0.909238  0.387157  1
  La  La6  1  0.408965  0.209011  0.887340  1
  La  La7  1  0.708683  0.091505  0.887527  1
  La  La8  1  0.291483  0.909179  0.886289  1
  La  La9  1  0.590970  0.791161  0.887217  1
  La  La10  1  0.091254  0.709005  0.613156  1
  La  La11  1  0.908924  0.291868  0.612755  1
  La  La12  1  0.208506  0.408343  0.613269  1
  La  La13  1  0.791098  0.590345  0.613111  1
  Pr  Pr14  1  0.089480  0.291546  0.114390  1
  Pr  Pr15  1  0.791473  0.409614  0.114001  1
  Pr  Pr16  1  0.000145  0.000462  0.000227  1
  Nd  Nd17  1  0.500612  0.499435  0.000293  1
  Nd  Nd18  1  0.500133  0.500112  0.499654  1
  Nd  Nd19  1  0.999890  0.000040  0.499714  1
  Ir  Ir20  1  0.154288  0.846129  0.250298  1
  Ir  Ir21  1  0.346815  0.346549  0.250230  1
  Ir  Ir22  1  0.653468  0.653384  0.249397  1
  Ir  Ir23  1  0.846219  0.153743  0.250884  1
  Ir  Ir24  1  0.346631  0.653480  0.750133  1
  Ir  Ir25  1  0.154277  0.153267  0.747912  1
  Ir  Ir26  1  0.845876  0.846193  0.749394  1
  Ir  Ir27  1  0.652516  0.346204  0.748696  1
  Ir  Ir28  1  0.000428  0.501140  0.381452  1
  Ir  Ir29  1  0.499893  0.000184  0.120504  1
  Ir  Ir30  1  0.500114  0.999661  0.620876  1
  Ir  Ir31  1  0.000231  0.499962  0.878289  1
