# generated using pymatgen
data_Er3Sc5Re3B24Os
_symmetry_space_group_name_H-M   'P 1'
_cell_length_a   3.55563300
_cell_length_b   8.96014082
_cell_length_c   11.31803512
_cell_angle_alpha   90.04470832
_cell_angle_beta   90.00000000
_cell_angle_gamma   90.00000000
_symmetry_Int_Tables_number   1
_chemical_formula_structural   Er3Sc5Re3B24Os
_chemical_formula_sum   'Er3 Sc5 Re3 B24 Os1'
_cell_volume   360.58085831
_cell_formula_units_Z   1
loop_
 _symmetry_equiv_pos_site_id
 _symmetry_equiv_pos_as_xyz
  1  'x, y, z'
loop_
 _atom_site_type_symbol
 _atom_site_label
 _atom_site_symmetry_multiplicity
 _atom_site_fract_x
 _atom_site_fract_y
 _atom_site_fract_z
 _atom_site_occupancy
  Er  Er0  1  0.000000  0.320067  0.414341  1
  Er  Er1  1  0.000000  0.679422  0.587538  1
  Er  Er2  1  0.000000  0.822274  0.084387  1
  Sc  Sc3  1  0.000000  0.178203  0.912530  1
  Sc  Sc4  1  0.000000  0.943958  0.370628  1
  Sc  Sc5  1  0.000000  0.055966  0.629486  1
  Sc  Sc6  1  0.000000  0.442779  0.127620  1
  Sc  Sc7  1  0.000000  0.555671  0.871733  1
  Re  Re8  1  0.000000  0.359718  0.682013  1
  Re  Re9  1  0.000000  0.139939  0.179990  1
  Re  Re10  1  0.000000  0.862521  0.819852  1
  B  B11  1  0.500000  0.554417  0.433207  1
  B  B12  1  0.500000  0.446113  0.566844  1
  B  B13  1  0.500000  0.054362  0.065294  1
  B  B14  1  0.500000  0.948091  0.933304  1
  B  B15  1  0.500000  0.752901  0.418908  1
  B  B16  1  0.500000  0.245530  0.581129  1
  B  B17  1  0.500000  0.253286  0.078685  1
  B  B18  1  0.500000  0.746887  0.919305  1
  B  B19  1  0.500000  0.793610  0.264877  1
  B  B20  1  0.500000  0.205150  0.736516  1
  B  B21  1  0.500000  0.294587  0.234810  1
  B  B22  1  0.500000  0.705853  0.765421  1
  B  B23  1  0.500000  0.628770  0.183157  1
  B  B24  1  0.500000  0.370185  0.818099  1
  B  B25  1  0.500000  0.128686  0.316917  1
  B  B26  1  0.500000  0.871749  0.683361  1
  B  B27  1  0.500000  0.980296  0.212999  1
  B  B28  1  0.500000  0.021295  0.787372  1
  B  B29  1  0.500000  0.480943  0.286511  1
  B  B30  1  0.500000  0.519607  0.714212  1
  B  B31  1  0.500000  0.597136  0.027040  1
  B  B32  1  0.500000  0.401693  0.973153  1
  B  B33  1  0.500000  0.096080  0.473375  1
  B  B34  1  0.500000  0.902647  0.526568  1
  Os  Os35  1  0.000000  0.639608  0.318818  1
