# generated using pymatgen
data_Ba2NaNb3O9
_symmetry_space_group_name_H-M   'P 1'
_cell_length_a   5.80909300
_cell_length_b   5.80909439
_cell_length_c   7.12381500
_cell_angle_alpha   90.00000000
_cell_angle_beta   90.00000000
_cell_angle_gamma   119.99998641
_symmetry_Int_Tables_number   1
_chemical_formula_structural   Ba2NaNb3O9
_chemical_formula_sum   'Ba2 Na1 Nb3 O9'
_cell_volume   208.19010588
_cell_formula_units_Z   1
loop_
 _symmetry_equiv_pos_site_id
 _symmetry_equiv_pos_as_xyz
  1  'x, y, z'
loop_
 _atom_site_type_symbol
 _atom_site_label
 _atom_site_symmetry_multiplicity
 _atom_site_fract_x
 _atom_site_fract_y
 _atom_site_fract_z
 _atom_site_occupancy
  Ba  Ba0  1  0.666667  0.333333  0.328386  1
  Ba  Ba1  1  0.333333  0.666667  0.671614  1
  Na  Na2  1  0.000000  0.000000  0.000000  1
  Nb  Nb3  1  0.000000  0.000000  0.500000  1
  Nb  Nb4  1  0.666667  0.333333  0.836542  1
  Nb  Nb5  1  0.333333  0.666667  0.163458  1
  O  O6  1  0.832776  0.167224  0.665511  1
  O  O7  1  0.500000  0.500000  0.000000  1
  O  O8  1  0.167224  0.832776  0.334489  1
  O  O9  1  0.665553  0.832776  0.334489  1
  O  O10  1  0.334447  0.167224  0.665511  1
  O  O11  1  0.000000  0.500000  0.000000  1
  O  O12  1  0.832776  0.665553  0.665511  1
  O  O13  1  0.500000  0.000000  0.000000  1
  O  O14  1  0.167224  0.334447  0.334489  1
