# generated using pymatgen
data_TbLuFeB6
_symmetry_space_group_name_H-M   'P 1'
_cell_length_a   3.52377600
_cell_length_b   9.03352500
_cell_length_c   11.41356100
_cell_angle_alpha   90.00000000
_cell_angle_beta   90.00000000
_cell_angle_gamma   90.00000000
_symmetry_Int_Tables_number   1
_chemical_formula_structural   TbLuFeB6
_chemical_formula_sum   'Tb4 Lu4 Fe4 B24'
_cell_volume   363.31782729
_cell_formula_units_Z   4
loop_
 _symmetry_equiv_pos_site_id
 _symmetry_equiv_pos_as_xyz
  1  'x, y, z'
loop_
 _atom_site_type_symbol
 _atom_site_label
 _atom_site_symmetry_multiplicity
 _atom_site_fract_x
 _atom_site_fract_y
 _atom_site_fract_z
 _atom_site_occupancy
  Tb  Tb0  1  0.000000  0.823477  0.085664  1
  Tb  Tb1  1  0.000000  0.176523  0.914336  1
  Tb  Tb2  1  0.000000  0.323477  0.414336  1
  Tb  Tb3  1  0.000000  0.676523  0.585664  1
  Lu  Lu4  1  0.000000  0.443495  0.129222  1
  Lu  Lu5  1  0.000000  0.556505  0.870778  1
  Lu  Lu6  1  0.000000  0.943495  0.370778  1
  Lu  Lu7  1  0.000000  0.056505  0.629222  1
  Fe  Fe8  1  0.000000  0.139394  0.180255  1
  Fe  Fe9  1  0.000000  0.860606  0.819745  1
  Fe  Fe10  1  0.000000  0.639394  0.319745  1
  Fe  Fe11  1  0.000000  0.360606  0.680255  1
  B  B12  1  0.500000  0.055143  0.068804  1
  B  B13  1  0.500000  0.944857  0.931196  1
  B  B14  1  0.500000  0.555143  0.431196  1
  B  B15  1  0.500000  0.444857  0.568804  1
  B  B16  1  0.500000  0.248309  0.082155  1
  B  B17  1  0.500000  0.751691  0.917845  1
  B  B18  1  0.500000  0.748309  0.417845  1
  B  B19  1  0.500000  0.251691  0.582155  1
  B  B20  1  0.500000  0.290106  0.233437  1
  B  B21  1  0.500000  0.709894  0.766563  1
  B  B22  1  0.500000  0.790106  0.266563  1
  B  B23  1  0.500000  0.209894  0.733437  1
  B  B24  1  0.500000  0.131130  0.314497  1
  B  B25  1  0.500000  0.868870  0.685503  1
  B  B26  1  0.500000  0.631130  0.185503  1
  B  B27  1  0.500000  0.368870  0.814497  1
  B  B28  1  0.500000  0.485831  0.287425  1
  B  B29  1  0.500000  0.514169  0.712575  1
  B  B30  1  0.500000  0.985831  0.212575  1
  B  B31  1  0.500000  0.014169  0.787425  1
  B  B32  1  0.500000  0.105186  0.471232  1
  B  B33  1  0.500000  0.894814  0.528768  1
  B  B34  1  0.500000  0.605186  0.028768  1
  B  B35  1  0.500000  0.394814  0.971232  1
