# generated using pymatgen
data_Cs3NaYbI6
_symmetry_space_group_name_H-M   'P 1'
_cell_length_a   10.23806764
_cell_length_b   10.23806786
_cell_length_c   10.23806931
_cell_angle_alpha   93.35001140
_cell_angle_beta   93.35000781
_cell_angle_gamma   93.35001468
_symmetry_Int_Tables_number   1
_chemical_formula_structural   Cs3NaYbI6
_chemical_formula_sum   'Cs6 Na2 Yb2 I12'
_cell_volume   1067.40821610
_cell_formula_units_Z   2
loop_
 _symmetry_equiv_pos_site_id
 _symmetry_equiv_pos_as_xyz
  1  'x, y, z'
loop_
 _atom_site_type_symbol
 _atom_site_label
 _atom_site_symmetry_multiplicity
 _atom_site_fract_x
 _atom_site_fract_y
 _atom_site_fract_z
 _atom_site_occupancy
  Cs  Cs0  1  0.868024  0.631976  0.250000  1
  Cs  Cs1  1  0.631976  0.250000  0.868024  1
  Cs  Cs2  1  0.250000  0.868024  0.631976  1
  Cs  Cs3  1  0.131976  0.368024  0.750000  1
  Cs  Cs4  1  0.368024  0.750000  0.131976  1
  Cs  Cs5  1  0.750000  0.131976  0.368024  1
  Na  Na6  1  0.250000  0.250000  0.250000  1
  Na  Na7  1  0.750000  0.750000  0.750000  1
  Yb  Yb8  1  0.000000  0.000000  0.000000  1
  Yb  Yb9  1  0.500000  0.500000  0.500000  1
  I  I10  1  0.205341  0.536897  0.415328  1
  I  I11  1  0.036897  0.705341  0.915328  1
  I  I12  1  0.915328  0.036897  0.705341  1
  I  I13  1  0.794659  0.463103  0.584672  1
  I  I14  1  0.705341  0.915328  0.036897  1
  I  I15  1  0.463103  0.584672  0.794659  1
  I  I16  1  0.584672  0.794659  0.463103  1
  I  I17  1  0.536897  0.415328  0.205341  1
  I  I18  1  0.084672  0.963103  0.294659  1
  I  I19  1  0.963103  0.294659  0.084672  1
  I  I20  1  0.294659  0.084672  0.963103  1
  I  I21  1  0.415328  0.205341  0.536897  1
