# generated using pymatgen
data_YNp2Pa3As8
_symmetry_space_group_name_H-M   'P 1'
_cell_length_a   7.44521077
_cell_length_b   7.46329559
_cell_length_c   7.46816404
_cell_angle_alpha   109.50534816
_cell_angle_beta   109.38753154
_cell_angle_gamma   109.36951501
_symmetry_Int_Tables_number   1
_chemical_formula_structural   YNp2Pa3As8
_chemical_formula_sum   'Y1 Np2 Pa3 As8'
_cell_volume   320.04214652
_cell_formula_units_Z   1
loop_
 _symmetry_equiv_pos_site_id
 _symmetry_equiv_pos_as_xyz
  1  'x, y, z'
loop_
 _atom_site_type_symbol
 _atom_site_label
 _atom_site_symmetry_multiplicity
 _atom_site_fract_x
 _atom_site_fract_y
 _atom_site_fract_z
 _atom_site_occupancy
  Y  Y0  1  0.248654  0.125646  0.872905  1
  Np  Np1  1  0.622545  0.743648  0.371298  1
  Np  Np2  1  0.375074  0.629375  0.754526  1
  Pa  Pa3  1  0.128685  0.879546  0.257069  1
  Pa  Pa4  1  0.751538  0.378041  0.624012  1
  Pa  Pa5  1  0.874771  0.244902  0.120216  1
  As  As6  1  0.505677  0.004835  0.659393  1
  As  As7  1  0.995368  0.651471  0.490701  1
  As  As8  1  0.661518  0.501914  0.998966  1
  As  As9  1  0.994621  0.156198  0.494833  1
  As  As10  1  0.842577  0.838758  0.846393  1
  As  As11  1  0.339475  0.338443  0.346262  1
  As  As12  1  0.154637  0.503161  0.000545  1
  As  As13  1  0.504858  0.004060  0.162884  1
