# generated using pymatgen
data_Pa8CoCu2Si12Pd
_symmetry_space_group_name_H-M   'P 1'
_cell_length_a   8.07198800
_cell_length_b   8.07198792
_cell_length_c   7.93527700
_cell_angle_alpha   90.00000000
_cell_angle_beta   90.00000000
_cell_angle_gamma   120.00000851
_symmetry_Int_Tables_number   1
_chemical_formula_structural   Pa8CoCu2Si12Pd
_chemical_formula_sum   'Pa8 Co1 Cu2 Si12 Pd1'
_cell_volume   447.76866363
_cell_formula_units_Z   1
loop_
 _symmetry_equiv_pos_site_id
 _symmetry_equiv_pos_as_xyz
  1  'x, y, z'
loop_
 _atom_site_type_symbol
 _atom_site_label
 _atom_site_symmetry_multiplicity
 _atom_site_fract_x
 _atom_site_fract_y
 _atom_site_fract_z
 _atom_site_occupancy
  Pa  Pa0  1  0.497153  0.994304  0.243201  1
  Pa  Pa1  1  0.497325  0.994651  0.756778  1
  Pa  Pa2  1  0.005696  0.502847  0.243201  1
  Pa  Pa3  1  0.005349  0.502675  0.756778  1
  Pa  Pa4  1  0.497153  0.502847  0.243201  1
  Pa  Pa5  1  0.497325  0.502675  0.756778  1
  Pa  Pa6  1  0.000000  0.000000  0.248739  1
  Pa  Pa7  1  0.000000  0.000000  0.751276  1
  Co  Co8  1  0.333333  0.666667  0.000155  1
  Cu  Cu9  1  0.666667  0.333333  0.000108  1
  Cu  Cu10  1  0.666667  0.333333  0.499315  1
  Si  Si11  1  0.169190  0.338378  0.999868  1
  Si  Si12  1  0.830639  0.661278  0.000112  1
  Si  Si13  1  0.661622  0.830810  0.999868  1
  Si  Si14  1  0.828056  0.656110  0.500077  1
  Si  Si15  1  0.338722  0.169361  0.000112  1
  Si  Si16  1  0.162182  0.324362  0.499950  1
  Si  Si17  1  0.169190  0.830810  0.999868  1
  Si  Si18  1  0.343890  0.171944  0.500077  1
  Si  Si19  1  0.830639  0.169361  0.000112  1
  Si  Si20  1  0.675638  0.837818  0.499950  1
  Si  Si21  1  0.828056  0.171944  0.500077  1
  Si  Si22  1  0.162182  0.837818  0.499950  1
  Pd  Pd23  1  0.333333  0.666667  0.500450  1
