# generated using pymatgen
data_Li3Ac3Sn4Hg
_symmetry_space_group_name_H-M   'P 1'
_cell_length_a   4.92357397
_cell_length_b   7.62680530
_cell_length_c   9.23413300
_cell_angle_alpha   114.24640171
_cell_angle_beta   105.46184368
_cell_angle_gamma   89.99999519
_symmetry_Int_Tables_number   1
_chemical_formula_structural   Li3Ac3Sn4Hg
_chemical_formula_sum   'Li3 Ac3 Sn4 Hg1'
_cell_volume   302.34792182
_cell_formula_units_Z   1
loop_
 _symmetry_equiv_pos_site_id
 _symmetry_equiv_pos_as_xyz
  1  'x, y, z'
loop_
 _atom_site_type_symbol
 _atom_site_label
 _atom_site_symmetry_multiplicity
 _atom_site_fract_x
 _atom_site_fract_y
 _atom_site_fract_z
 _atom_site_occupancy
  Li  Li0  1  0.329569  0.015307  0.658803  1
  Li  Li1  1  0.327927  0.645932  0.656167  1
  Li  Li2  1  0.669283  0.357737  0.338443  1
  Ac  Ac3  1  0.002034  0.001210  0.004401  1
  Ac  Ac4  1  0.130965  0.627126  0.261502  1
  Ac  Ac5  1  0.869680  0.363948  0.739852  1
  Sn  Sn6  1  0.494675  0.684613  0.989301  1
  Sn  Sn7  1  0.500193  0.305905  0.000088  1
  Sn  Sn8  1  0.787040  0.780582  0.574188  1
  Sn  Sn9  1  0.217729  0.236028  0.435256  1
  Hg  Hg10  1  0.670904  0.981612  0.342000  1
