# generated using pymatgen
data_LiSc(U3Sb5)2
_symmetry_space_group_name_H-M   'P 1'
_cell_length_a   9.21624800
_cell_length_b   9.21624809
_cell_length_c   6.15160300
_cell_angle_alpha   90.00000000
_cell_angle_beta   90.00000000
_cell_angle_gamma   119.99999968
_symmetry_Int_Tables_number   1
_chemical_formula_structural   LiSc(U3Sb5)2
_chemical_formula_sum   'Li1 Sc1 U6 Sb10'
_cell_volume   452.50902231
_cell_formula_units_Z   1
loop_
 _symmetry_equiv_pos_site_id
 _symmetry_equiv_pos_as_xyz
  1  'x, y, z'
loop_
 _atom_site_type_symbol
 _atom_site_label
 _atom_site_symmetry_multiplicity
 _atom_site_fract_x
 _atom_site_fract_y
 _atom_site_fract_z
 _atom_site_occupancy
  Li  Li0  1  0.000000  0.000000  0.000000  1
  Sc  Sc1  1  0.000000  0.000000  0.500000  1
  U  U2  1  0.387154  0.000000  0.749047  1
  U  U3  1  0.387154  0.387154  0.250953  1
  U  U4  1  0.000000  0.612846  0.250953  1
  U  U5  1  0.000000  0.387154  0.749047  1
  U  U6  1  0.612846  0.612846  0.749047  1
  U  U7  1  0.612846  0.000000  0.250953  1
  Sb  Sb8  1  0.666667  0.333333  0.500000  1
  Sb  Sb9  1  0.333333  0.666667  0.000000  1
  Sb  Sb10  1  0.735145  0.000000  0.753921  1
  Sb  Sb11  1  0.735145  0.735145  0.246079  1
  Sb  Sb12  1  0.333333  0.666667  0.500000  1
  Sb  Sb13  1  0.666667  0.333333  0.000000  1
  Sb  Sb14  1  0.264855  0.000000  0.246079  1
  Sb  Sb15  1  0.264855  0.264855  0.753921  1
  Sb  Sb16  1  0.000000  0.735145  0.753921  1
  Sb  Sb17  1  0.000000  0.264855  0.246079  1
