# generated using pymatgen
data_Tb2DyGa6(CuNi2)3
_symmetry_space_group_name_H-M   'P 1'
_cell_length_a   4.09123400
_cell_length_b   8.85266145
_cell_length_c   8.85266122
_cell_angle_alpha   60.06932321
_cell_angle_beta   90.00000000
_cell_angle_gamma   90.00000000
_symmetry_Int_Tables_number   1
_chemical_formula_structural   Tb2DyGa6(CuNi2)3
_chemical_formula_sum   'Tb2 Dy1 Ga6 Cu3 Ni6'
_cell_volume   277.86612451
_cell_formula_units_Z   1
loop_
 _symmetry_equiv_pos_site_id
 _symmetry_equiv_pos_as_xyz
  1  'x, y, z'
loop_
 _atom_site_type_symbol
 _atom_site_label
 _atom_site_symmetry_multiplicity
 _atom_site_fract_x
 _atom_site_fract_y
 _atom_site_fract_z
 _atom_site_occupancy
  Tb  Tb0  1  0.500000  0.333437  0.333389  1
  Tb  Tb1  1  0.500000  0.666611  0.666563  1
  Dy  Dy2  1  0.000000  0.999881  0.000119  1
  Ga  Ga3  1  0.000000  0.516251  0.483749  1
  Ga  Ga4  1  0.000000  0.483833  0.000033  1
  Ga  Ga5  1  0.000000  0.999967  0.516167  1
  Ga  Ga6  1  0.500000  0.279109  0.720891  1
  Ga  Ga7  1  0.500000  0.721019  0.000112  1
  Ga  Ga8  1  0.500000  0.999888  0.278981  1
  Cu  Cu9  1  0.500000  0.705878  0.294122  1
  Cu  Cu10  1  0.500000  0.293913  0.000032  1
  Cu  Cu11  1  0.500000  0.999968  0.706087  1
  Ni  Ni12  1  0.000000  0.174207  0.196690  1
  Ni  Ni13  1  0.000000  0.196859  0.628961  1
  Ni  Ni14  1  0.000000  0.628977  0.174247  1
  Ni  Ni15  1  0.000000  0.803310  0.825793  1
  Ni  Ni16  1  0.000000  0.371039  0.803141  1
  Ni  Ni17  1  0.000000  0.825753  0.371023  1
