# generated using pymatgen
data_NdHo2Co7(P3Rh)2
_symmetry_space_group_name_H-M   'P 1'
_cell_length_a   3.76462200
_cell_length_b   10.70092000
_cell_length_c   12.42899300
_cell_angle_alpha   90.00000000
_cell_angle_beta   90.00000000
_cell_angle_gamma   90.00000000
_symmetry_Int_Tables_number   1
_chemical_formula_structural   NdHo2Co7(P3Rh)2
_chemical_formula_sum   'Nd2 Ho4 Co14 P12 Rh4'
_cell_volume   500.70097442
_cell_formula_units_Z   2
loop_
 _symmetry_equiv_pos_site_id
 _symmetry_equiv_pos_as_xyz
  1  'x, y, z'
loop_
 _atom_site_type_symbol
 _atom_site_label
 _atom_site_symmetry_multiplicity
 _atom_site_fract_x
 _atom_site_fract_y
 _atom_site_fract_z
 _atom_site_occupancy
  Nd  Nd0  1  0.000000  0.500000  0.521742  1
  Nd  Nd1  1  0.500000  0.000000  0.478258  1
  Ho  Ho2  1  0.500000  0.813802  0.205545  1
  Ho  Ho3  1  0.500000  0.186198  0.205545  1
  Ho  Ho4  1  0.000000  0.686198  0.794455  1
  Ho  Ho5  1  0.000000  0.313802  0.794455  1
  Co  Co6  1  0.000000  0.500000  0.988833  1
  Co  Co7  1  0.500000  0.000000  0.011167  1
  Co  Co8  1  0.500000  0.299685  0.427959  1
  Co  Co9  1  0.500000  0.700315  0.427959  1
  Co  Co10  1  0.000000  0.200315  0.572041  1
  Co  Co11  1  0.000000  0.799685  0.572041  1
  Co  Co12  1  0.500000  0.880574  0.712349  1
  Co  Co13  1  0.500000  0.119426  0.712349  1
  Co  Co14  1  0.000000  0.619426  0.287651  1
  Co  Co15  1  0.000000  0.380574  0.287651  1
  Co  Co16  1  0.500000  0.331820  0.993911  1
  Co  Co17  1  0.500000  0.668180  0.993911  1
  Co  Co18  1  0.000000  0.168180  0.006089  1
  Co  Co19  1  0.000000  0.831820  0.006089  1
  P  P20  1  0.500000  0.299561  0.614411  1
  P  P21  1  0.500000  0.700439  0.614411  1
  P  P22  1  0.000000  0.200439  0.385589  1
  P  P23  1  0.000000  0.799561  0.385589  1
  P  P24  1  0.500000  0.500000  0.891778  1
  P  P25  1  0.000000  0.000000  0.108222  1
  P  P26  1  0.500000  0.844105  0.894972  1
  P  P27  1  0.500000  0.155895  0.894972  1
  P  P28  1  0.000000  0.655895  0.105028  1
  P  P29  1  0.000000  0.344105  0.105028  1
  P  P30  1  0.500000  0.500000  0.346170  1
  P  P31  1  0.000000  0.000000  0.653830  1
  Rh  Rh32  1  0.500000  0.500000  0.158160  1
  Rh  Rh33  1  0.000000  0.000000  0.841840  1
  Rh  Rh34  1  0.500000  0.500000  0.707627  1
  Rh  Rh35  1  0.000000  0.000000  0.292373  1
