# generated using pymatgen
data_HoPa3F15
_symmetry_space_group_name_H-M   'P 1'
_cell_length_a   8.67801608
_cell_length_b   8.67801586
_cell_length_c   8.67310641
_cell_angle_alpha   79.74999825
_cell_angle_beta   79.75001598
_cell_angle_gamma   99.90145801
_symmetry_Int_Tables_number   1
_chemical_formula_structural   HoPa3F15
_chemical_formula_sum   'Ho2 Pa6 F30'
_cell_volume   618.33177663
_cell_formula_units_Z   2
loop_
 _symmetry_equiv_pos_site_id
 _symmetry_equiv_pos_as_xyz
  1  'x, y, z'
loop_
 _atom_site_type_symbol
 _atom_site_label
 _atom_site_symmetry_multiplicity
 _atom_site_fract_x
 _atom_site_fract_y
 _atom_site_fract_z
 _atom_site_occupancy
  Ho  Ho0  1  0.178576  0.821424  0.250000  1
  Ho  Ho1  1  0.821424  0.178576  0.750000  1
  Pa  Pa2  1  0.749906  0.250094  0.250000  1
  Pa  Pa3  1  0.250094  0.749906  0.750000  1
  Pa  Pa4  1  0.755385  0.679475  0.672120  1
  Pa  Pa5  1  0.320525  0.244615  0.827880  1
  Pa  Pa6  1  0.244615  0.320525  0.327880  1
  Pa  Pa7  1  0.679475  0.755385  0.172120  1
  F  F8  1  0.467335  0.532665  0.250000  1
  F  F9  1  0.751743  0.966657  0.961754  1
  F  F10  1  0.033343  0.248257  0.538246  1
  F  F11  1  0.248257  0.033343  0.038246  1
  F  F12  1  0.966657  0.751743  0.461754  1
  F  F13  1  0.532665  0.467335  0.750000  1
  F  F14  1  0.217573  0.488398  0.776450  1
  F  F15  1  0.224982  0.723603  0.010644  1
  F  F16  1  0.986679  0.725039  0.786816  1
  F  F17  1  0.725039  0.986679  0.286816  1
  F  F18  1  0.723603  0.224982  0.510644  1
  F  F19  1  0.488398  0.217573  0.276450  1
  F  F20  1  0.782428  0.511602  0.223550  1
  F  F21  1  0.775018  0.276397  0.989356  1
  F  F22  1  0.013321  0.274961  0.213184  1
  F  F23  1  0.274961  0.013321  0.713184  1
  F  F24  1  0.276397  0.775018  0.489356  1
  F  F25  1  0.511602  0.782427  0.723550  1
  F  F26  1  0.551143  0.154504  0.816674  1
  F  F27  1  0.185438  0.052011  0.346159  1
  F  F28  1  0.647513  0.680465  0.448084  1
  F  F29  1  0.680465  0.647513  0.948084  1
  F  F30  1  0.052011  0.185438  0.846159  1
  F  F31  1  0.154504  0.551143  0.316674  1
  F  F32  1  0.448857  0.845496  0.183326  1
  F  F33  1  0.814562  0.947989  0.653841  1
  F  F34  1  0.352487  0.319535  0.551916  1
  F  F35  1  0.319535  0.352487  0.051916  1
  F  F36  1  0.947989  0.814562  0.153841  1
  F  F37  1  0.845496  0.448857  0.683326  1
