# generated using pymatgen
data_Y2Er3Cd2(InPd)2
_symmetry_space_group_name_H-M   'P 1'
_cell_length_a   3.60979600
_cell_length_b   8.08469519
_cell_length_c   18.26869130
_cell_angle_alpha   90.02269250
_cell_angle_beta   90.00000000
_cell_angle_gamma   90.00000000
_symmetry_Int_Tables_number   1
_chemical_formula_structural   Y2Er3Cd2(InPd)2
_chemical_formula_sum   'Y4 Er6 Cd4 In4 Pd4'
_cell_volume   533.15527825
_cell_formula_units_Z   2
loop_
 _symmetry_equiv_pos_site_id
 _symmetry_equiv_pos_as_xyz
  1  'x, y, z'
loop_
 _atom_site_type_symbol
 _atom_site_label
 _atom_site_symmetry_multiplicity
 _atom_site_fract_x
 _atom_site_fract_y
 _atom_site_fract_z
 _atom_site_occupancy
  Y  Y0  1  0.000000  0.500000  0.500000  1
  Y  Y1  1  0.000000  0.000000  0.000000  1
  Y  Y2  1  0.000000  0.746421  0.282098  1
  Y  Y3  1  0.000000  0.253579  0.717902  1
  Er  Er4  1  0.000000  0.753190  0.781839  1
  Er  Er5  1  0.000000  0.246810  0.218161  1
  Er  Er6  1  0.000000  0.614325  0.084366  1
  Er  Er7  1  0.000000  0.385675  0.915634  1
  Er  Er8  1  0.000000  0.884441  0.584414  1
  Er  Er9  1  0.000000  0.115559  0.415586  1
  Cd  Cd10  1  0.500000  0.707543  0.932372  1
  Cd  Cd11  1  0.500000  0.292457  0.067628  1
  Cd  Cd12  1  0.500000  0.794386  0.433066  1
  Cd  Cd13  1  0.500000  0.205614  0.566934  1
  In  In14  1  0.500000  0.574381  0.648037  1
  In  In15  1  0.500000  0.425619  0.351963  1
  In  In16  1  0.500000  0.927463  0.148168  1
  In  In17  1  0.500000  0.072537  0.851832  1
  Pd  Pd18  1  0.500000  0.526312  0.196242  1
  Pd  Pd19  1  0.500000  0.473688  0.803758  1
  Pd  Pd20  1  0.500000  0.966845  0.696840  1
  Pd  Pd21  1  0.500000  0.033155  0.303160  1
