# generated using pymatgen
data_Ac3In5Rh4
_symmetry_space_group_name_H-M   'P 1'
_cell_length_a   4.32910400
_cell_length_b   7.53500515
_cell_length_c   8.86281000
_cell_angle_alpha   89.45557962
_cell_angle_beta   90.00000000
_cell_angle_gamma   90.00000000
_symmetry_Int_Tables_number   1
_chemical_formula_structural   Ac3In5Rh4
_chemical_formula_sum   'Ac3 In5 Rh4'
_cell_volume   289.09022430
_cell_formula_units_Z   1
loop_
 _symmetry_equiv_pos_site_id
 _symmetry_equiv_pos_as_xyz
  1  'x, y, z'
loop_
 _atom_site_type_symbol
 _atom_site_label
 _atom_site_symmetry_multiplicity
 _atom_site_fract_x
 _atom_site_fract_y
 _atom_site_fract_z
 _atom_site_occupancy
  Ac  Ac0  1  0.250000  0.034432  0.177785  1
  Ac  Ac1  1  0.750000  0.968815  0.815322  1
  Ac  Ac2  1  0.250000  0.527900  0.339968  1
  In  In3  1  0.750000  0.460226  0.683035  1
  In  In4  1  0.750000  0.368496  0.049907  1
  In  In5  1  0.250000  0.636629  0.945231  1
  In  In6  1  0.750000  0.859404  0.447321  1
  In  In7  1  0.250000  0.142002  0.557406  1
  Rh  Rh8  1  0.250000  0.740010  0.635177  1
  Rh  Rh9  1  0.750000  0.232294  0.359421  1
  Rh  Rh10  1  0.250000  0.287512  0.848061  1
  Rh  Rh11  1  0.750000  0.742281  0.141366  1
