# generated using pymatgen
data_Dy3HoGa18(Ir2Pt)2
_symmetry_space_group_name_H-M   'P 1'
_cell_length_a   7.63761680
_cell_length_b   7.63813999
_cell_length_c   9.47222200
_cell_angle_alpha   90.00000000
_cell_angle_beta   90.00000000
_cell_angle_gamma   119.99620410
_symmetry_Int_Tables_number   1
_chemical_formula_structural   Dy3HoGa18(Ir2Pt)2
_chemical_formula_sum   'Dy3 Ho1 Ga18 Ir4 Pt2'
_cell_volume   478.56902832
_cell_formula_units_Z   1
loop_
 _symmetry_equiv_pos_site_id
 _symmetry_equiv_pos_as_xyz
  1  'x, y, z'
loop_
 _atom_site_type_symbol
 _atom_site_label
 _atom_site_symmetry_multiplicity
 _atom_site_fract_x
 _atom_site_fract_y
 _atom_site_fract_z
 _atom_site_occupancy
  Dy  Dy0  1  0.996396  0.670723  0.250000  1
  Dy  Dy1  1  0.003450  0.329417  0.750000  1
  Dy  Dy2  1  0.670642  0.996368  0.250000  1
  Ho  Ho3  1  0.329450  0.003453  0.750000  1
  Ga  Ga4  1  0.132694  0.132678  0.250000  1
  Ga  Ga5  1  0.867564  0.867421  0.750000  1
  Ga  Ga6  1  0.998267  0.338051  0.081816  1
  Ga  Ga7  1  0.001877  0.662374  0.918616  1
  Ga  Ga8  1  0.001877  0.662374  0.581384  1
  Ga  Ga9  1  0.337986  0.998292  0.418403  1
  Ga  Ga10  1  0.998267  0.338050  0.418184  1
  Ga  Ga11  1  0.661795  0.001638  0.581410  1
  Ga  Ga12  1  0.661795  0.001638  0.918590  1
  Ga  Ga13  1  0.337986  0.998292  0.081597  1
  Ga  Ga14  1  0.335665  0.335476  0.568524  1
  Ga  Ga15  1  0.664273  0.664305  0.431355  1
  Ga  Ga16  1  0.664273  0.664305  0.068645  1
  Ga  Ga17  1  0.335665  0.335476  0.931476  1
  Ga  Ga18  1  0.336954  0.547170  0.250000  1
  Ga  Ga19  1  0.663075  0.452927  0.750000  1
  Ga  Ga20  1  0.547122  0.336944  0.250000  1
  Ga  Ga21  1  0.453118  0.663405  0.750000  1
  Ir  Ir22  1  0.670885  0.328824  0.999798  1
  Ir  Ir23  1  0.328856  0.671136  0.999786  1
  Ir  Ir24  1  0.328856  0.671137  0.500214  1
  Ir  Ir25  1  0.670885  0.328824  0.500202  1
  Pt  Pt26  1  0.000164  0.999651  0.999662  1
  Pt  Pt27  1  0.000164  0.999651  0.500338  1
