# generated using pymatgen
data_Ac(YSe2)3
_symmetry_space_group_name_H-M   'P 1'
_cell_length_a   4.23389600
_cell_length_b   11.76788717
_cell_length_c   12.04885834
_cell_angle_alpha   71.02647500
_cell_angle_beta   90.00000000
_cell_angle_gamma   90.00000000
_symmetry_Int_Tables_number   1
_chemical_formula_structural   Ac(YSe2)3
_chemical_formula_sum   'Ac2 Y6 Se12'
_cell_volume   567.70627173
_cell_formula_units_Z   2
loop_
 _symmetry_equiv_pos_site_id
 _symmetry_equiv_pos_as_xyz
  1  'x, y, z'
loop_
 _atom_site_type_symbol
 _atom_site_label
 _atom_site_symmetry_multiplicity
 _atom_site_fract_x
 _atom_site_fract_y
 _atom_site_fract_z
 _atom_site_occupancy
  Ac  Ac0  1  0.750000  0.550992  0.802242  1
  Ac  Ac1  1  0.250000  0.449008  0.197758  1
  Y  Y2  1  0.750000  0.178347  0.999740  1
  Y  Y3  1  0.250000  0.821653  0.000260  1
  Y  Y4  1  0.750000  0.944570  0.665557  1
  Y  Y5  1  0.250000  0.055430  0.334443  1
  Y  Y6  1  0.750000  0.660951  0.411449  1
  Y  Y7  1  0.250000  0.339049  0.588551  1
  Se  Se8  1  0.750000  0.978888  0.887831  1
  Se  Se9  1  0.250000  0.021112  0.112169  1
  Se  Se10  1  0.750000  0.298773  0.748716  1
  Se  Se11  1  0.250000  0.701227  0.251284  1
  Se  Se12  1  0.750000  0.892616  0.442937  1
  Se  Se13  1  0.250000  0.107384  0.557063  1
  Se  Se14  1  0.750000  0.416756  0.410770  1
  Se  Se15  1  0.250000  0.583244  0.589230  1
  Se  Se16  1  0.750000  0.229247  0.230470  1
  Se  Se17  1  0.250000  0.770753  0.769530  1
  Se  Se18  1  0.750000  0.625146  0.034986  1
  Se  Se19  1  0.250000  0.374854  0.965014  1
