# generated using pymatgen
data_Sm5In2(AgRh)2
_symmetry_space_group_name_H-M   'P 1'
_cell_length_a   8.00328900
_cell_length_b   18.21251100
_cell_length_c   3.72744200
_cell_angle_alpha   90.00000000
_cell_angle_beta   90.00000000
_cell_angle_gamma   90.00000000
_symmetry_Int_Tables_number   1
_chemical_formula_structural   Sm5In2(AgRh)2
_chemical_formula_sum   'Sm10 In4 Ag4 Rh4'
_cell_volume   543.31190473
_cell_formula_units_Z   2
loop_
 _symmetry_equiv_pos_site_id
 _symmetry_equiv_pos_as_xyz
  1  'x, y, z'
loop_
 _atom_site_type_symbol
 _atom_site_label
 _atom_site_symmetry_multiplicity
 _atom_site_fract_x
 _atom_site_fract_y
 _atom_site_fract_z
 _atom_site_occupancy
  Sm  Sm0  1  0.500000  0.500000  0.000000  1
  Sm  Sm1  1  0.000000  0.000000  0.000000  1
  Sm  Sm2  1  0.751928  0.283194  0.000000  1
  Sm  Sm3  1  0.248072  0.716806  0.000000  1
  Sm  Sm4  1  0.748072  0.783194  0.000000  1
  Sm  Sm5  1  0.251928  0.216806  0.000000  1
  Sm  Sm6  1  0.610650  0.085162  0.000000  1
  Sm  Sm7  1  0.389350  0.914838  0.000000  1
  Sm  Sm8  1  0.889350  0.585162  0.000000  1
  Sm  Sm9  1  0.110650  0.414838  0.000000  1
  In  In10  1  0.575576  0.649603  0.500000  1
  In  In11  1  0.424424  0.350397  0.500000  1
  In  In12  1  0.924424  0.149603  0.500000  1
  In  In13  1  0.075576  0.850397  0.500000  1
  Ag  Ag14  1  0.714859  0.932795  0.500000  1
  Ag  Ag15  1  0.285141  0.067205  0.500000  1
  Ag  Ag16  1  0.785141  0.432795  0.500000  1
  Ag  Ag17  1  0.214859  0.567205  0.500000  1
  Rh  Rh18  1  0.544907  0.197892  0.500000  1
  Rh  Rh19  1  0.455093  0.802108  0.500000  1
  Rh  Rh20  1  0.955093  0.697892  0.500000  1
  Rh  Rh21  1  0.044907  0.302108  0.500000  1
