# generated using pymatgen
data_Dy8Hf12Si15Os
_symmetry_space_group_name_H-M   'P 1'
_cell_length_a   7.28713470
_cell_length_b   7.29186042
_cell_length_c   13.40500903
_cell_angle_alpha   89.87216657
_cell_angle_beta   89.85314145
_cell_angle_gamma   90.02039012
_symmetry_Int_Tables_number   1
_chemical_formula_structural   Dy8Hf12Si15Os
_chemical_formula_sum   'Dy8 Hf12 Si15 Os1'
_cell_volume   712.29471019
_cell_formula_units_Z   1
loop_
 _symmetry_equiv_pos_site_id
 _symmetry_equiv_pos_as_xyz
  1  'x, y, z'
loop_
 _atom_site_type_symbol
 _atom_site_label
 _atom_site_symmetry_multiplicity
 _atom_site_fract_x
 _atom_site_fract_y
 _atom_site_fract_z
 _atom_site_occupancy
  Dy  Dy0  1  0.997208  0.346716  0.214671  1
  Dy  Dy1  1  0.004293  0.655300  0.714556  1
  Dy  Dy2  1  0.158389  0.495284  0.463217  1
  Dy  Dy3  1  0.503701  0.843372  0.034305  1
  Dy  Dy4  1  0.844643  0.502401  0.965232  1
  Dy  Dy5  1  0.496344  0.158468  0.534713  1
  Dy  Dy6  1  0.343734  0.996770  0.784935  1
  Dy  Dy7  1  0.654733  0.003387  0.284547  1
  Hf  Hf8  1  0.175690  0.174597  0.998393  1
  Hf  Hf9  1  0.826841  0.825956  0.500567  1
  Hf  Hf10  1  0.325232  0.665585  0.253026  1
  Hf  Hf11  1  0.674193  0.325447  0.750289  1
  Hf  Hf12  1  0.155263  0.003285  0.373206  1
  Hf  Hf13  1  0.850378  0.003860  0.874793  1
  Hf  Hf14  1  0.503596  0.650584  0.626247  1
  Hf  Hf15  1  0.351081  0.496449  0.873211  1
  Hf  Hf16  1  0.494673  0.345767  0.128271  1
  Hf  Hf17  1  0.644493  0.498638  0.377311  1
  Hf  Hf18  1  0.997425  0.148901  0.625754  1
  Hf  Hf19  1  0.000094  0.848560  0.124569  1
  Si  Si20  1  0.638924  0.704987  0.818895  1
  Si  Si21  1  0.205964  0.861657  0.567528  1
  Si  Si22  1  0.137981  0.795644  0.932897  1
  Si  Si23  1  0.796890  0.137264  0.065971  1
  Si  Si24  1  0.862317  0.200471  0.434971  1
  Si  Si25  1  0.295853  0.361918  0.683119  1
  Si  Si26  1  0.703712  0.639867  0.182025  1
  Si  Si27  1  0.289813  0.046003  0.183427  1
  Si  Si28  1  0.705206  0.951570  0.685613  1
  Si  Si29  1  0.452992  0.798311  0.438715  1
  Si  Si30  1  0.206177  0.550947  0.061095  1
  Si  Si31  1  0.548106  0.204612  0.935296  1
  Si  Si32  1  0.795685  0.451918  0.566113  1
  Si  Si33  1  0.047624  0.295540  0.814463  1
  Si  Si34  1  0.946879  0.709966  0.313981  1
  Os  Os35  1  0.363874  0.299997  0.314077  1
