# generated using pymatgen
data_Dy4Cu2OsRu5
_symmetry_space_group_name_H-M   'P 1'
_cell_length_a   5.40199396
_cell_length_b   5.17760378
_cell_length_c   8.82006500
_cell_angle_alpha   90.00000000
_cell_angle_beta   90.00000000
_cell_angle_gamma   120.31403426
_symmetry_Int_Tables_number   1
_chemical_formula_structural   Dy4Cu2OsRu5
_chemical_formula_sum   'Dy4 Cu2 Os1 Ru5'
_cell_volume   212.96209912
_cell_formula_units_Z   1
loop_
 _symmetry_equiv_pos_site_id
 _symmetry_equiv_pos_as_xyz
  1  'x, y, z'
loop_
 _atom_site_type_symbol
 _atom_site_label
 _atom_site_symmetry_multiplicity
 _atom_site_fract_x
 _atom_site_fract_y
 _atom_site_fract_z
 _atom_site_occupancy
  Dy  Dy0  1  0.676360  0.341227  0.563808  1
  Dy  Dy1  1  0.341622  0.672355  0.436381  1
  Dy  Dy2  1  0.341622  0.672355  0.063619  1
  Dy  Dy3  1  0.676360  0.341227  0.936192  1
  Cu  Cu4  1  0.808438  0.650570  0.250000  1
  Cu  Cu5  1  0.813750  0.159130  0.250000  1
  Os  Os6  1  0.165371  0.326645  0.750000  1
  Ru  Ru7  1  0.022124  0.023850  0.498314  1
  Ru  Ru8  1  0.022124  0.023850  0.001686  1
  Ru  Ru9  1  0.172581  0.823066  0.750000  1
  Ru  Ru10  1  0.655401  0.818393  0.750000  1
  Ru  Ru11  1  0.304245  0.147333  0.250000  1
