# generated using pymatgen
data_Li2Dy5Ge4P8Ir17
_symmetry_space_group_name_H-M   'P 1'
_cell_length_a   12.84256508
_cell_length_b   12.87138604
_cell_length_c   3.99553700
_cell_angle_alpha   90.00000000
_cell_angle_beta   90.00000000
_cell_angle_gamma   119.93833491
_symmetry_Int_Tables_number   1
_chemical_formula_structural   Li2Dy5Ge4P8Ir17
_chemical_formula_sum   'Li2 Dy5 Ge4 P8 Ir17'
_cell_volume   572.33776763
_cell_formula_units_Z   1
loop_
 _symmetry_equiv_pos_site_id
 _symmetry_equiv_pos_as_xyz
  1  'x, y, z'
loop_
 _atom_site_type_symbol
 _atom_site_label
 _atom_site_symmetry_multiplicity
 _atom_site_fract_x
 _atom_site_fract_y
 _atom_site_fract_z
 _atom_site_occupancy
  Li  Li0  1  0.999355  0.438434  0.500000  1
  Li  Li1  1  0.562748  0.561187  0.500000  1
  Dy  Dy2  1  0.328342  0.662817  0.500000  1
  Dy  Dy3  1  0.668593  0.336921  0.500000  1
  Dy  Dy4  1  0.004772  0.813960  0.000000  1
  Dy  Dy5  1  0.187753  0.184046  0.000000  1
  Dy  Dy6  1  0.816598  0.000194  0.000000  1
  Ge  Ge7  1  0.999594  0.628523  0.500000  1
  Ge  Ge8  1  0.370187  0.369647  0.500000  1
  Ge  Ge9  1  0.638011  0.000957  0.500000  1
  Ge  Ge10  1  0.513080  0.682617  0.000000  1
  P  P11  1  0.307313  0.823798  0.000000  1
  P  P12  1  0.166621  0.478438  0.000000  1
  P  P13  1  0.483643  0.176429  0.000000  1
  P  P14  1  0.690627  0.520374  0.000000  1
  P  P15  1  0.827450  0.313511  0.000000  1
  P  P16  1  0.995872  0.178640  0.500000  1
  P  P17  1  0.820058  0.821814  0.500000  1
  P  P18  1  0.178874  0.999769  0.500000  1
  Ir  Ir19  1  0.503323  0.872978  0.000000  1
  Ir  Ir20  1  0.133683  0.638598  0.000000  1
  Ir  Ir21  1  0.347175  0.477506  0.000000  1
  Ir  Ir22  1  0.496020  0.361414  0.000000  1
  Ir  Ir23  1  0.866581  0.508300  0.000000  1
  Ir  Ir24  1  0.636829  0.135039  0.000000  1
  Ir  Ir25  1  0.450257  0.003982  0.500000  1
  Ir  Ir26  1  0.994689  0.274311  0.000000  1
  Ir  Ir27  1  0.729756  0.727611  0.000000  1
  Ir  Ir28  1  0.285937  0.000713  0.000000  1
  Ir  Ir29  1  0.627257  0.805657  0.500000  1
  Ir  Ir30  1  0.204701  0.827645  0.500000  1
  Ir  Ir31  1  0.168864  0.371337  0.500000  1
  Ir  Ir32  1  0.375664  0.173741  0.500000  1
  Ir  Ir33  1  0.799888  0.625018  0.500000  1
  Ir  Ir34  1  0.820288  0.202464  0.500000  1
  Ir  Ir35  1  0.999596  0.001609  0.500000  1
