# generated using pymatgen
data_Li3Sm2Tl(TeO6)2
_symmetry_space_group_name_H-M   'P 1'
_cell_length_a   10.90155727
_cell_length_b   10.86836190
_cell_length_c   10.87815474
_cell_angle_alpha   109.39870112
_cell_angle_beta   109.52207161
_cell_angle_gamma   109.51777107
_symmetry_Int_Tables_number   1
_chemical_formula_structural   Li3Sm2Tl(TeO6)2
_chemical_formula_sum   'Li12 Sm8 Tl4 Te8 O48'
_cell_volume   991.86383265
_cell_formula_units_Z   4
loop_
 _symmetry_equiv_pos_site_id
 _symmetry_equiv_pos_as_xyz
  1  'x, y, z'
loop_
 _atom_site_type_symbol
 _atom_site_label
 _atom_site_symmetry_multiplicity
 _atom_site_fract_x
 _atom_site_fract_y
 _atom_site_fract_z
 _atom_site_occupancy
  Li  Li0  1  0.752334  0.377521  0.125761  1
  Li  Li1  1  0.873421  0.748235  0.125758  1
  Li  Li2  1  0.123221  0.375145  0.249258  1
  Li  Li3  1  0.626041  0.874117  0.249261  1
  Li  Li4  1  0.622230  0.251430  0.375069  1
  Li  Li5  1  0.252841  0.123640  0.375072  1
  Li  Li6  1  0.752151  0.877255  0.626998  1
  Li  Li7  1  0.374851  0.749748  0.627003  1
  Li  Li8  1  0.374454  0.124714  0.748152  1
  Li  Li9  1  0.873700  0.623437  0.748151  1
  Li  Li10  1  0.250652  0.626662  0.874723  1
  Li  Li11  1  0.124073  0.248063  0.874727  1
  Sm  Sm12  1  0.748775  0.624659  0.374670  1
  Sm  Sm13  1  0.125894  0.750012  0.374669  1
  Sm  Sm14  1  0.875231  0.250873  0.624509  1
  Sm  Sm15  1  0.249278  0.373637  0.624508  1
  Sm  Sm16  1  0.125720  0.875720  0.751439  1
  Sm  Sm17  1  0.625057  0.375055  0.750112  1
  Sm  Sm18  1  0.749086  0.124754  0.875452  1
  Sm  Sm19  1  0.626367  0.750699  0.875452  1
  Tl  Tl20  1  0.250750  0.875097  0.125041  1
  Tl  Tl21  1  0.374291  0.249945  0.125043  1
  Tl  Tl22  1  0.374786  0.624786  0.249571  1
  Tl  Tl23  1  0.874904  0.124901  0.249804  1
  Te  Te24  1  0.000969  0.998295  0.002768  1
  Te  Te25  1  0.501798  0.004472  0.002768  1
  Te  Te26  1  0.001074  0.501631  0.999714  1
  Te  Te27  1  0.498638  0.498082  0.999713  1
  Te  Te28  1  0.000915  0.999857  0.498581  1
  Te  Te29  1  0.498309  0.500996  0.498987  1
  Te  Te30  1  0.500678  0.997992  0.498989  1
  Te  Te31  1  0.997664  0.498723  0.498579  1
  O  O32  1  0.195622  0.621988  0.021588  1
  O  O33  1  0.325963  0.399600  0.021586  1
  O  O34  1  0.694190  0.175301  0.076344  1
  O  O35  1  0.882155  0.901040  0.076347  1
  O  O36  1  0.621922  0.926597  0.097517  1
  O  O37  1  0.975597  0.170920  0.097517  1
  O  O38  1  0.018662  0.692270  0.117150  1
  O  O39  1  0.598487  0.424880  0.117153  1
  O  O40  1  0.196803  0.074229  0.173976  1
  O  O41  1  0.477173  0.099745  0.173974  1
  O  O42  1  0.122640  0.527188  0.197355  1
  O  O43  1  0.574716  0.670168  0.197356  1
  O  O44  1  0.478746  0.877651  0.304350  1
  O  O45  1  0.325604  0.426701  0.304349  1
  O  O46  1  0.907771  0.525763  0.328178  1
  O  O47  1  0.920408  0.802413  0.328181  1
  O  O48  1  0.303470  0.972132  0.377020  1
  O  O49  1  0.573553  0.404889  0.377021  1
  O  O50  1  0.829598  0.026462  0.403187  1
  O  O51  1  0.073590  0.376725  0.403187  1
  O  O52  1  0.824523  0.307857  0.424423  1
  O  O53  1  0.099902  0.116566  0.424423  1
  O  O54  1  0.383188  0.807342  0.482034  1
  O  O55  1  0.598846  0.674692  0.482037  1
  O  O56  1  0.616959  0.193886  0.522071  1
  O  O57  1  0.405112  0.328186  0.522071  1
  O  O58  1  0.171589  0.693947  0.577881  1
  O  O59  1  0.906293  0.883937  0.577884  1
  O  O60  1  0.171177  0.973872  0.592870  1
  O  O61  1  0.921691  0.618999  0.592868  1
  O  O62  1  0.421315  0.593119  0.619111  1
  O  O63  1  0.697799  0.025995  0.619112  1
  O  O64  1  0.076952  0.195468  0.670583  1
  O  O65  1  0.093633  0.475118  0.670584  1
  O  O66  1  0.670301  0.575891  0.694124  1
  O  O67  1  0.523822  0.118235  0.694126  1
  O  O68  1  0.880833  0.474024  0.802383  1
  O  O69  1  0.421551  0.328359  0.802383  1
  O  O70  1  0.806399  0.925142  0.830770  1
  O  O71  1  0.524371  0.905628  0.830770  1
  O  O72  1  0.977981  0.305724  0.883295  1
  O  O73  1  0.405315  0.577572  0.883294  1
  O  O74  1  0.381901  0.075170  0.901246  1
  O  O75  1  0.019341  0.826075  0.901244  1
  O  O76  1  0.121184  0.095933  0.926262  1
  O  O77  1  0.305078  0.830328  0.926263  1
  O  O78  1  0.806069  0.381671  0.976124  1
  O  O79  1  0.670050  0.594450  0.976121  1
