# generated using pymatgen
data_Pr4Y15ErBi12
_symmetry_space_group_name_H-M   'P 1'
_cell_length_a   8.36752329
_cell_length_b   9.57711711
_cell_length_c   12.21928545
_cell_angle_alpha   90.01315214
_cell_angle_beta   90.02817407
_cell_angle_gamma   90.01076050
_symmetry_Int_Tables_number   1
_chemical_formula_structural   Pr4Y15ErBi12
_chemical_formula_sum   'Pr4 Y15 Er1 Bi12'
_cell_volume   979.21366703
_cell_formula_units_Z   1
loop_
 _symmetry_equiv_pos_site_id
 _symmetry_equiv_pos_as_xyz
  1  'x, y, z'
loop_
 _atom_site_type_symbol
 _atom_site_label
 _atom_site_symmetry_multiplicity
 _atom_site_fract_x
 _atom_site_fract_y
 _atom_site_fract_z
 _atom_site_occupancy
  Pr  Pr0  1  0.170466  0.749964  0.225446  1
  Pr  Pr1  1  0.329409  0.749859  0.725307  1
  Pr  Pr2  1  0.829379  0.250073  0.774627  1
  Pr  Pr3  1  0.670478  0.249964  0.274530  1
  Y  Y4  1  0.811191  0.560311  0.064077  1
  Y  Y5  1  0.688716  0.939221  0.564083  1
  Y  Y6  1  0.188721  0.060309  0.935904  1
  Y  Y7  1  0.311326  0.439759  0.436006  1
  Y  Y8  1  0.188756  0.439721  0.935875  1
  Y  Y9  1  0.311466  0.060352  0.435980  1
  Y  Y10  1  0.811243  0.939667  0.064093  1
  Y  Y11  1  0.477919  0.749931  0.002453  1
  Y  Y12  1  0.021553  0.749653  0.502537  1
  Y  Y13  1  0.522123  0.250047  0.997487  1
  Y  Y14  1  0.977863  0.250056  0.497486  1
  Y  Y15  1  0.661629  0.749744  0.289360  1
  Y  Y16  1  0.838284  0.749475  0.788684  1
  Y  Y17  1  0.338444  0.249881  0.710866  1
  Y  Y18  1  0.161585  0.250006  0.210909  1
  Er  Er19  1  0.688850  0.561572  0.564119  1
  Bi  Bi20  1  0.403480  0.749627  0.467692  1
  Bi  Bi21  1  0.096674  0.750030  0.967536  1
  Bi  Bi22  1  0.597290  0.251218  0.532630  1
  Bi  Bi23  1  0.903225  0.250045  0.032430  1
  Bi  Bi24  1  0.934659  0.506486  0.329134  1
  Bi  Bi25  1  0.565362  0.993353  0.828907  1
  Bi  Bi26  1  0.065236  0.006567  0.671030  1
  Bi  Bi27  1  0.434760  0.493367  0.171094  1
  Bi  Bi28  1  0.065088  0.493297  0.670974  1
  Bi  Bi29  1  0.434673  0.006563  0.171090  1
  Bi  Bi30  1  0.934655  0.993343  0.328965  1
  Bi  Bi31  1  0.565496  0.506539  0.828689  1
