# generated using pymatgen
data_TbCe4(FeB3)2
_symmetry_space_group_name_H-M   'P 1'
_cell_length_a   5.30541362
_cell_length_b   5.30541443
_cell_length_c   8.72007316
_cell_angle_alpha   72.28953384
_cell_angle_beta   72.28954193
_cell_angle_gamma   59.99999260
_symmetry_Int_Tables_number   1
_chemical_formula_structural   TbCe4(FeB3)2
_chemical_formula_sum   'Tb1 Ce4 Fe2 B6'
_cell_volume   199.01815662
_cell_formula_units_Z   1
loop_
 _symmetry_equiv_pos_site_id
 _symmetry_equiv_pos_as_xyz
  1  'x, y, z'
loop_
 _atom_site_type_symbol
 _atom_site_label
 _atom_site_symmetry_multiplicity
 _atom_site_fract_x
 _atom_site_fract_y
 _atom_site_fract_z
 _atom_site_occupancy
  Tb  Tb0  1  0.000000  0.000000  0.000000  1
  Ce  Ce1  1  0.749201  0.749201  0.752396  1
  Ce  Ce2  1  0.250799  0.250799  0.247604  1
  Ce  Ce3  1  0.583657  0.583657  0.249028  1
  Ce  Ce4  1  0.416343  0.416343  0.750972  1
  Fe  Fe5  1  0.880789  0.880789  0.357636  1
  Fe  Fe6  1  0.119211  0.119211  0.642365  1
  B  B7  1  0.500000  0.167695  0.500000  1
  B  B8  1  0.832305  0.500000  0.500000  1
  B  B9  1  0.167695  0.832305  0.500000  1
  B  B10  1  0.167695  0.500000  0.500000  1
  B  B11  1  0.832305  0.167695  0.500000  1
  B  B12  1  0.500000  0.832305  0.500000  1
