# generated using pymatgen
data_Pr3(Hg2Pd)2
_symmetry_space_group_name_H-M   'P 1'
_cell_length_a   8.10037100
_cell_length_b   8.10037183
_cell_length_c   3.94112300
_cell_angle_alpha   90.00000000
_cell_angle_beta   90.00000000
_cell_angle_gamma   119.99996862
_symmetry_Int_Tables_number   1
_chemical_formula_structural   Pr3(Hg2Pd)2
_chemical_formula_sum   'Pr3 Hg4 Pd2'
_cell_volume   223.95492777
_cell_formula_units_Z   1
loop_
 _symmetry_equiv_pos_site_id
 _symmetry_equiv_pos_as_xyz
  1  'x, y, z'
loop_
 _atom_site_type_symbol
 _atom_site_label
 _atom_site_symmetry_multiplicity
 _atom_site_fract_x
 _atom_site_fract_y
 _atom_site_fract_z
 _atom_site_occupancy
  Pr  Pr0  1  0.405988  0.405988  0.500000  1
  Pr  Pr1  1  0.594013  0.999995  0.500000  1
  Pr  Pr2  1  0.999995  0.594013  0.500000  1
  Hg  Hg3  1  0.000003  0.000003  0.500000  1
  Hg  Hg4  1  0.720390  0.720390  0.000000  1
  Hg  Hg5  1  0.279612  0.000001  0.000000  1
  Hg  Hg6  1  0.000001  0.279612  0.000000  1
  Pd  Pd7  1  0.666667  0.333330  0.000000  1
  Pd  Pd8  1  0.333330  0.666667  0.000000  1
