# generated using pymatgen
data_Ta19Ti5P12
_symmetry_space_group_name_H-M   'P 1'
_cell_length_a   14.42213007
_cell_length_b   11.61958905
_cell_length_c   3.41479900
_cell_angle_alpha   90.00000000
_cell_angle_beta   90.00000000
_cell_angle_gamma   90.01064610
_symmetry_Int_Tables_number   1
_chemical_formula_structural   Ta19Ti5P12
_chemical_formula_sum   'Ta19 Ti5 P12'
_cell_volume   572.24935854
_cell_formula_units_Z   1
loop_
 _symmetry_equiv_pos_site_id
 _symmetry_equiv_pos_as_xyz
  1  'x, y, z'
loop_
 _atom_site_type_symbol
 _atom_site_label
 _atom_site_symmetry_multiplicity
 _atom_site_fract_x
 _atom_site_fract_y
 _atom_site_fract_z
 _atom_site_occupancy
  Ta  Ta0  1  0.521216  0.153111  0.000000  1
  Ta  Ta1  1  0.978791  0.652854  0.500001  1
  Ta  Ta2  1  0.021804  0.347710  0.500001  1
  Ta  Ta3  1  0.420665  0.411991  0.000000  1
  Ta  Ta4  1  0.579518  0.588857  0.000000  1
  Ta  Ta5  1  0.920699  0.087394  0.500001  1
  Ta  Ta6  1  0.079232  0.912420  0.500001  1
  Ta  Ta7  1  0.076336  0.122458  0.000000  1
  Ta  Ta8  1  0.923433  0.877004  0.000000  1
  Ta  Ta9  1  0.576391  0.377381  0.500001  1
  Ta  Ta10  1  0.424294  0.622325  0.500001  1
  Ta  Ta11  1  0.293112  0.190413  0.000000  1
  Ta  Ta12  1  0.706290  0.808799  0.000000  1
  Ta  Ta13  1  0.793050  0.309014  0.500001  1
  Ta  Ta14  1  0.207706  0.691454  0.500001  1
  Ta  Ta15  1  0.110489  0.529326  0.000000  1
  Ta  Ta16  1  0.889656  0.470752  0.000000  1
  Ta  Ta17  1  0.609242  0.970153  0.500001  1
  Ta  Ta18  1  0.390429  0.029342  0.500001  1
  Ti  Ti19  1  0.242996  0.916036  0.000000  1
  Ti  Ti20  1  0.756847  0.082035  0.000000  1
  Ti  Ti21  1  0.742188  0.583228  0.500001  1
  Ti  Ti22  1  0.257958  0.416387  0.500001  1
  Ti  Ti23  1  0.477970  0.847573  0.000000  1
  P  P24  1  0.152691  0.317273  0.000000  1
  P  P25  1  0.847113  0.682596  0.000000  1
  P  P26  1  0.652417  0.182319  0.500001  1
  P  P27  1  0.349894  0.817884  0.500001  1
  P  P28  1  0.087815  0.756754  0.000000  1
  P  P29  1  0.912813  0.243369  0.000000  1
  P  P30  1  0.584177  0.746469  0.500001  1
  P  P31  1  0.412454  0.256534  0.500001  1
  P  P32  1  0.295009  0.570499  0.000000  1
  P  P33  1  0.705389  0.429662  0.000000  1
  P  P34  1  0.794059  0.928949  0.500001  1
  P  P35  1  0.205854  0.069679  0.500001  1
