# generated using pymatgen
data_Tm2LuCo9(SiB2)2
_symmetry_space_group_name_H-M   'P 1'
_cell_length_a   5.08269100
_cell_length_b   5.08269166
_cell_length_c   9.32264100
_cell_angle_alpha   90.00000000
_cell_angle_beta   90.00000000
_cell_angle_gamma   120.00000221
_symmetry_Int_Tables_number   1
_chemical_formula_structural   Tm2LuCo9(SiB2)2
_chemical_formula_sum   'Tm2 Lu1 Co9 Si2 B4'
_cell_volume   208.57250377
_cell_formula_units_Z   1
loop_
 _symmetry_equiv_pos_site_id
 _symmetry_equiv_pos_as_xyz
  1  'x, y, z'
loop_
 _atom_site_type_symbol
 _atom_site_label
 _atom_site_symmetry_multiplicity
 _atom_site_fract_x
 _atom_site_fract_y
 _atom_site_fract_z
 _atom_site_occupancy
  Tm  Tm0  1  0.000000  0.000000  0.999956  1
  Tm  Tm1  1  0.000000  0.000000  0.338458  1
  Lu  Lu2  1  0.000000  0.000000  0.661585  1
  Co  Co3  1  0.500000  0.500000  0.500066  1
  Co  Co4  1  0.500000  0.000000  0.500066  1
  Co  Co5  1  0.000000  0.500000  0.500066  1
  Co  Co6  1  0.500000  0.500000  0.803513  1
  Co  Co7  1  0.500000  0.000000  0.803513  1
  Co  Co8  1  0.000000  0.500000  0.803513  1
  Co  Co9  1  0.500000  0.500000  0.196411  1
  Co  Co10  1  0.500000  0.000000  0.196411  1
  Co  Co11  1  0.000000  0.500000  0.196411  1
  Si  Si12  1  0.666667  0.333333  0.000014  1
  Si  Si13  1  0.333333  0.666667  0.000014  1
  B  B14  1  0.666667  0.333333  0.654197  1
  B  B15  1  0.333333  0.666667  0.654197  1
  B  B16  1  0.333333  0.666667  0.345804  1
  B  B17  1  0.666667  0.333333  0.345804  1
