# generated using pymatgen
data_Cs2HgS2
_symmetry_space_group_name_H-M   'P 1'
_cell_length_a   8.73105900
_cell_length_b   8.73105792
_cell_length_c   8.73105900
_cell_angle_alpha   132.11671574
_cell_angle_beta   129.41119076
_cell_angle_gamma   72.21027504
_symmetry_Int_Tables_number   1
_chemical_formula_structural   Cs2HgS2
_chemical_formula_sum   'Cs4 Hg2 S4'
_cell_volume   372.95686630
_cell_formula_units_Z   2
loop_
 _symmetry_equiv_pos_site_id
 _symmetry_equiv_pos_as_xyz
  1  'x, y, z'
loop_
 _atom_site_type_symbol
 _atom_site_label
 _atom_site_symmetry_multiplicity
 _atom_site_fract_x
 _atom_site_fract_y
 _atom_site_fract_z
 _atom_site_occupancy
  Cs  Cs0  1  0.811180  0.645579  0.165601  1
  Cs  Cs1  1  0.188820  0.354421  0.834399  1
  Cs  Cs2  1  0.520022  0.854421  0.665601  1
  Cs  Cs3  1  0.479978  0.145579  0.334399  1
  Hg  Hg4  1  0.000000  0.250000  0.250000  1
  Hg  Hg5  1  0.000000  0.750000  0.750000  1
  S  S6  1  0.713957  0.400245  0.313712  1
  S  S7  1  0.286043  0.599755  0.686288  1
  S  S8  1  0.913466  0.099755  0.813712  1
  S  S9  1  0.086534  0.900245  0.186288  1
