# generated using pymatgen
data_Nb12Ga8Fe3CoC4
_symmetry_space_group_name_H-M   'P 1'
_cell_length_a   8.22083640
_cell_length_b   8.22230350
_cell_length_c   8.22230200
_cell_angle_alpha   60.00000603
_cell_angle_beta   59.99410240
_cell_angle_gamma   59.99409818
_symmetry_Int_Tables_number   1
_chemical_formula_structural   Nb12Ga8Fe3CoC4
_chemical_formula_sum   'Nb12 Ga8 Fe3 Co1 C4'
_cell_volume   392.96079254
_cell_formula_units_Z   1
loop_
 _symmetry_equiv_pos_site_id
 _symmetry_equiv_pos_as_xyz
  1  'x, y, z'
loop_
 _atom_site_type_symbol
 _atom_site_label
 _atom_site_symmetry_multiplicity
 _atom_site_fract_x
 _atom_site_fract_y
 _atom_site_fract_z
 _atom_site_occupancy
  Nb  Nb0  1  0.697827  0.306169  0.689836  1
  Nb  Nb1  1  0.946972  0.553567  0.553567  1
  Nb  Nb2  1  0.552173  0.943831  0.943831  1
  Nb  Nb3  1  0.946972  0.553567  0.945894  1
  Nb  Nb4  1  0.552173  0.560164  0.943831  1
  Nb  Nb5  1  0.946972  0.945894  0.553567  1
  Nb  Nb6  1  0.697827  0.689836  0.306169  1
  Nb  Nb7  1  0.303028  0.696433  0.696433  1
  Nb  Nb8  1  0.697827  0.306169  0.306169  1
  Nb  Nb9  1  0.303028  0.304106  0.696433  1
  Nb  Nb10  1  0.552173  0.943831  0.560164  1
  Nb  Nb11  1  0.303028  0.696433  0.304106  1
  Ga  Ga12  1  0.336557  0.333162  0.333162  1
  Ga  Ga13  1  0.247748  0.917417  0.917417  1
  Ga  Ga14  1  0.913443  0.252880  0.916838  1
  Ga  Ga15  1  0.913443  0.916838  0.252880  1
  Ga  Ga16  1  0.336557  0.997120  0.333162  1
  Ga  Ga17  1  0.336557  0.333162  0.997120  1
  Ga  Ga18  1  0.002252  0.332583  0.332583  1
  Ga  Ga19  1  0.913443  0.916838  0.916838  1
  Fe  Fe20  1  0.125000  0.125000  0.125000  1
  Fe  Fe21  1  0.125000  0.625000  0.125000  1
  Fe  Fe22  1  0.125000  0.125000  0.625000  1
  Co  Co23  1  0.625000  0.125000  0.125000  1
  C  C24  1  0.625000  0.625000  0.625000  1
  C  C25  1  0.125000  0.625000  0.625000  1
  C  C26  1  0.625000  0.125000  0.625000  1
  C  C27  1  0.625000  0.625000  0.125000  1
