# generated using pymatgen
data_Nd3In3Ni2Au
_symmetry_space_group_name_H-M   'P 1'
_cell_length_a   7.71163200
_cell_length_b   7.71163181
_cell_length_c   3.98971700
_cell_angle_alpha   90.00000000
_cell_angle_beta   90.00000000
_cell_angle_gamma   120.00000080
_symmetry_Int_Tables_number   1
_chemical_formula_structural   Nd3In3Ni2Au
_chemical_formula_sum   'Nd3 In3 Ni2 Au1'
_cell_volume   205.47798702
_cell_formula_units_Z   1
loop_
 _symmetry_equiv_pos_site_id
 _symmetry_equiv_pos_as_xyz
  1  'x, y, z'
loop_
 _atom_site_type_symbol
 _atom_site_label
 _atom_site_symmetry_multiplicity
 _atom_site_fract_x
 _atom_site_fract_y
 _atom_site_fract_z
 _atom_site_occupancy
  Nd  Nd0  1  0.404042  0.419229  0.500000  1
  Nd  Nd1  1  0.580771  0.984814  0.500000  1
  Nd  Nd2  1  0.015186  0.595958  0.500000  1
  In  In3  1  0.754748  0.759787  0.000000  1
  In  In4  1  0.240213  0.994961  0.000000  1
  In  In5  1  0.005039  0.245252  0.000000  1
  Ni  Ni6  1  0.000000  0.000000  0.500000  1
  Ni  Ni7  1  0.333333  0.666667  0.000000  1
  Au  Au8  1  0.666667  0.333333  0.000000  1
