# generated using pymatgen
data_Ba2InRhI
_symmetry_space_group_name_H-M   'P 1'
_cell_length_a   4.69181300
_cell_length_b   4.69181304
_cell_length_c   19.44026300
_cell_angle_alpha   90.00000000
_cell_angle_beta   90.00000000
_cell_angle_gamma   120.00000680
_symmetry_Int_Tables_number   1
_chemical_formula_structural   Ba2InRhI
_chemical_formula_sum   'Ba4 In2 Rh2 I2'
_cell_volume   370.60743673
_cell_formula_units_Z   2
loop_
 _symmetry_equiv_pos_site_id
 _symmetry_equiv_pos_as_xyz
  1  'x, y, z'
loop_
 _atom_site_type_symbol
 _atom_site_label
 _atom_site_symmetry_multiplicity
 _atom_site_fract_x
 _atom_site_fract_y
 _atom_site_fract_z
 _atom_site_occupancy
  Ba  Ba0  1  0.000000  0.000000  0.385390  1
  Ba  Ba1  1  0.000000  0.000000  0.885390  1
  Ba  Ba2  1  0.000000  0.000000  0.616919  1
  Ba  Ba3  1  0.000000  0.000000  0.116919  1
  In  In4  1  0.333333  0.666667  0.501848  1
  In  In5  1  0.666667  0.333333  0.001848  1
  Rh  Rh6  1  0.666667  0.333333  0.497104  1
  Rh  Rh7  1  0.333333  0.666667  0.997104  1
  I  I8  1  0.333333  0.666667  0.248738  1
  I  I9  1  0.666667  0.333333  0.748738  1
