# generated using pymatgen
data_V7Tc5Ge4
_symmetry_space_group_name_H-M   'P 1'
_cell_length_a   4.80103839
_cell_length_b   4.77304903
_cell_length_c   9.60715686
_cell_angle_alpha   89.92421570
_cell_angle_beta   89.80088128
_cell_angle_gamma   89.93613845
_symmetry_Int_Tables_number   1
_chemical_formula_structural   V7Tc5Ge4
_chemical_formula_sum   'V7 Tc5 Ge4'
_cell_volume   220.15202537
_cell_formula_units_Z   1
loop_
 _symmetry_equiv_pos_site_id
 _symmetry_equiv_pos_as_xyz
  1  'x, y, z'
loop_
 _atom_site_type_symbol
 _atom_site_label
 _atom_site_symmetry_multiplicity
 _atom_site_fract_x
 _atom_site_fract_y
 _atom_site_fract_z
 _atom_site_occupancy
  V  V0  1  0.999563  0.751121  0.999982  1
  V  V1  1  0.498003  0.000426  0.375066  1
  V  V2  1  0.498562  0.001775  0.873325  1
  V  V3  1  0.250967  0.498900  0.250598  1
  V  V4  1  0.251563  0.499774  0.750565  1
  V  V5  1  0.002084  0.247775  0.499550  1
  V  V6  1  0.999699  0.252009  0.999889  1
  Tc  Tc7  1  0.498466  0.001352  0.624557  1
  Tc  Tc8  1  0.498966  0.000061  0.123756  1
  Tc  Tc9  1  0.751518  0.498390  0.250275  1
  Tc  Tc10  1  0.751346  0.500354  0.751779  1
  Tc  Tc11  1  0.002017  0.747729  0.499214  1
  Ge  Ge12  1  0.498387  0.497446  0.498604  1
  Ge  Ge13  1  0.493087  0.500465  0.998714  1
  Ge  Ge14  1  0.003133  0.001039  0.248832  1
  Ge  Ge15  1  0.002637  0.001386  0.755293  1
