# generated using pymatgen
data_Er3In4NiRh
_symmetry_space_group_name_H-M   'P 1'
_cell_length_a   7.89777500
_cell_length_b   7.89777544
_cell_length_c   3.65573000
_cell_angle_alpha   90.00000000
_cell_angle_beta   90.00000000
_cell_angle_gamma   120.00000236
_symmetry_Int_Tables_number   1
_chemical_formula_structural   Er3In4NiRh
_chemical_formula_sum   'Er3 In4 Ni1 Rh1'
_cell_volume   197.47597741
_cell_formula_units_Z   1
loop_
 _symmetry_equiv_pos_site_id
 _symmetry_equiv_pos_as_xyz
  1  'x, y, z'
loop_
 _atom_site_type_symbol
 _atom_site_label
 _atom_site_symmetry_multiplicity
 _atom_site_fract_x
 _atom_site_fract_y
 _atom_site_fract_z
 _atom_site_occupancy
  Er  Er0  1  0.296715  0.251297  0.500000  1
  Er  Er1  1  0.748703  0.045416  0.500000  1
  Er  Er2  1  0.954584  0.703285  0.500000  1
  In  In3  1  0.081739  0.418154  0.000000  1
  In  In4  1  0.581846  0.663583  0.000000  1
  In  In5  1  0.336417  0.918261  0.000000  1
  In  In6  1  0.666667  0.333333  0.000000  1
  Ni  Ni7  1  0.333333  0.666667  0.500000  1
  Rh  Rh8  1  0.000000  0.000000  0.000000  1
