# generated using pymatgen
data_Pr10Bi5PbC2
_symmetry_space_group_name_H-M   'P 1'
_cell_length_a   9.50803662
_cell_length_b   9.50803734
_cell_length_c   6.80145100
_cell_angle_alpha   90.00000000
_cell_angle_beta   90.00000000
_cell_angle_gamma   119.91495581
_symmetry_Int_Tables_number   1
_chemical_formula_structural   Pr10Bi5PbC2
_chemical_formula_sum   'Pr10 Bi5 Pb1 C2'
_cell_volume   532.94877170
_cell_formula_units_Z   1
loop_
 _symmetry_equiv_pos_site_id
 _symmetry_equiv_pos_as_xyz
  1  'x, y, z'
loop_
 _atom_site_type_symbol
 _atom_site_label
 _atom_site_symmetry_multiplicity
 _atom_site_fract_x
 _atom_site_fract_y
 _atom_site_fract_z
 _atom_site_occupancy
  Pr  Pr0  1  0.665943  0.333545  0.999047  1
  Pr  Pr1  1  0.333545  0.665943  0.999047  1
  Pr  Pr2  1  0.333545  0.665943  0.500953  1
  Pr  Pr3  1  0.665943  0.333545  0.500953  1
  Pr  Pr4  1  0.787544  0.787544  0.750000  1
  Pr  Pr5  1  0.212700  0.001199  0.750000  1
  Pr  Pr6  1  0.001199  0.212700  0.750000  1
  Pr  Pr7  1  0.212733  0.212733  0.250000  1
  Pr  Pr8  1  0.788159  0.000098  0.250000  1
  Pr  Pr9  1  0.000098  0.788159  0.250000  1
  Bi  Bi10  1  0.598282  0.999969  0.750000  1
  Bi  Bi11  1  0.999969  0.598282  0.750000  1
  Bi  Bi12  1  0.597953  0.597953  0.250000  1
  Bi  Bi13  1  0.401383  0.000017  0.250000  1
  Bi  Bi14  1  0.000017  0.401383  0.250000  1
  Pb  Pb15  1  0.402041  0.402041  0.750000  1
  C  C16  1  0.999473  0.999473  0.000416  1
  C  C17  1  0.999473  0.999473  0.499584  1
