# generated using pymatgen
data_Lu3Mn(Fe4P3)2
_symmetry_space_group_name_H-M   'P 1'
_cell_length_a   3.67330500
_cell_length_b   10.48191100
_cell_length_c   12.11655000
_cell_angle_alpha   90.00000000
_cell_angle_beta   90.00000000
_cell_angle_gamma   90.00000000
_symmetry_Int_Tables_number   1
_chemical_formula_structural   Lu3Mn(Fe4P3)2
_chemical_formula_sum   'Lu6 Mn2 Fe16 P12'
_cell_volume   466.52662753
_cell_formula_units_Z   2
loop_
 _symmetry_equiv_pos_site_id
 _symmetry_equiv_pos_as_xyz
  1  'x, y, z'
loop_
 _atom_site_type_symbol
 _atom_site_label
 _atom_site_symmetry_multiplicity
 _atom_site_fract_x
 _atom_site_fract_y
 _atom_site_fract_z
 _atom_site_occupancy
  Lu  Lu0  1  0.000000  0.500000  0.527392  1
  Lu  Lu1  1  0.500000  0.000000  0.472608  1
  Lu  Lu2  1  0.500000  0.822087  0.207530  1
  Lu  Lu3  1  0.500000  0.177913  0.207530  1
  Lu  Lu4  1  0.000000  0.677913  0.792470  1
  Lu  Lu5  1  0.000000  0.322087  0.792470  1
  Mn  Mn6  1  0.500000  0.500000  0.152631  1
  Mn  Mn7  1  0.000000  0.000000  0.847369  1
  Fe  Fe8  1  0.500000  0.500000  0.699023  1
  Fe  Fe9  1  0.000000  0.000000  0.300977  1
  Fe  Fe10  1  0.000000  0.500000  0.989041  1
  Fe  Fe11  1  0.500000  0.000000  0.010959  1
  Fe  Fe12  1  0.500000  0.326154  0.997408  1
  Fe  Fe13  1  0.500000  0.673846  0.997408  1
  Fe  Fe14  1  0.000000  0.173846  0.002592  1
  Fe  Fe15  1  0.000000  0.826154  0.002592  1
  Fe  Fe16  1  0.500000  0.299445  0.430780  1
  Fe  Fe17  1  0.500000  0.700555  0.430780  1
  Fe  Fe18  1  0.000000  0.200555  0.569220  1
  Fe  Fe19  1  0.000000  0.799445  0.569220  1
  Fe  Fe20  1  0.500000  0.882033  0.707505  1
  Fe  Fe21  1  0.500000  0.117967  0.707505  1
  Fe  Fe22  1  0.000000  0.617967  0.292495  1
  Fe  Fe23  1  0.000000  0.382033  0.292495  1
  P  P24  1  0.500000  0.500000  0.883679  1
  P  P25  1  0.000000  0.000000  0.116321  1
  P  P26  1  0.500000  0.500000  0.345071  1
  P  P27  1  0.000000  0.000000  0.654929  1
  P  P28  1  0.500000  0.307712  0.615494  1
  P  P29  1  0.500000  0.692288  0.615494  1
  P  P30  1  0.000000  0.192288  0.384506  1
  P  P31  1  0.000000  0.807712  0.384506  1
  P  P32  1  0.500000  0.847741  0.887350  1
  P  P33  1  0.500000  0.152259  0.887350  1
  P  P34  1  0.000000  0.652259  0.112650  1
  P  P35  1  0.000000  0.347741  0.112650  1
