# generated using pymatgen
data_NbCo4B4Mo3
_symmetry_space_group_name_H-M   'P 1'
_cell_length_a   3.26989500
_cell_length_b   5.77878483
_cell_length_c   6.67300895
_cell_angle_alpha   89.81184272
_cell_angle_beta   90.00000000
_cell_angle_gamma   90.00000000
_symmetry_Int_Tables_number   1
_chemical_formula_structural   NbCo4B4Mo3
_chemical_formula_sum   'Nb1 Co4 B4 Mo3'
_cell_volume   126.09262813
_cell_formula_units_Z   1
loop_
 _symmetry_equiv_pos_site_id
 _symmetry_equiv_pos_as_xyz
  1  'x, y, z'
loop_
 _atom_site_type_symbol
 _atom_site_label
 _atom_site_symmetry_multiplicity
 _atom_site_fract_x
 _atom_site_fract_y
 _atom_site_fract_z
 _atom_site_occupancy
  Nb  Nb0  1  0.250000  0.526904  0.676707  1
  Co  Co1  1  0.750000  0.857581  0.556260  1
  Co  Co2  1  0.250000  0.141911  0.441983  1
  Co  Co3  1  0.750000  0.356809  0.942987  1
  Co  Co4  1  0.250000  0.645471  0.059059  1
  B  B5  1  0.250000  0.771499  0.371532  1
  B  B6  1  0.750000  0.221298  0.621983  1
  B  B7  1  0.250000  0.272362  0.125486  1
  B  B8  1  0.750000  0.733926  0.880779  1
  Mo  Mo9  1  0.750000  0.472331  0.321590  1
  Mo  Mo10  1  0.250000  0.026793  0.826550  1
  Mo  Mo11  1  0.750000  0.973115  0.175085  1
