# generated using pymatgen
data_Ce3PrHf4F28
_symmetry_space_group_name_H-M   'P 1'
_cell_length_a   5.82246601
_cell_length_b   9.32568309
_cell_length_c   12.51995100
_cell_angle_alpha   62.06543757
_cell_angle_beta   90.00306038
_cell_angle_gamma   89.98672525
_symmetry_Int_Tables_number   1
_chemical_formula_structural   Ce3PrHf4F28
_chemical_formula_sum   'Ce3 Pr1 Hf4 F28'
_cell_volume   600.60441588
_cell_formula_units_Z   1
loop_
 _symmetry_equiv_pos_site_id
 _symmetry_equiv_pos_as_xyz
  1  'x, y, z'
loop_
 _atom_site_type_symbol
 _atom_site_label
 _atom_site_symmetry_multiplicity
 _atom_site_fract_x
 _atom_site_fract_y
 _atom_site_fract_z
 _atom_site_occupancy
  Ce  Ce0  1  0.756517  0.812294  0.765021  1
  Ce  Ce1  1  0.256554  0.187623  0.735049  1
  Ce  Ce2  1  0.242489  0.186444  0.234894  1
  Pr  Pr3  1  0.743038  0.811033  0.265362  1
  Hf  Hf4  1  0.755361  0.274013  0.956989  1
  Hf  Hf5  1  0.255475  0.725738  0.543038  1
  Hf  Hf6  1  0.245035  0.725079  0.043903  1
  Hf  Hf7  1  0.744611  0.274681  0.456094  1
  F  F8  1  0.451902  0.709299  0.922275  1
  F  F9  1  0.952596  0.290303  0.577427  1
  F  F10  1  0.546780  0.290437  0.077511  1
  F  F11  1  0.045799  0.711014  0.421699  1
  F  F12  1  0.460893  0.282517  0.545415  1
  F  F13  1  0.960946  0.717558  0.954802  1
  F  F14  1  0.540284  0.718088  0.454174  1
  F  F15  1  0.039925  0.283095  0.044949  1
  F  F16  1  0.769390  0.516179  0.861640  1
  F  F17  1  0.269272  0.483726  0.638305  1
  F  F18  1  0.230917  0.483171  0.138756  1
  F  F19  1  0.729936  0.517191  0.361635  1
  F  F20  1  0.762115  0.031538  0.055181  1
  F  F21  1  0.261396  0.968062  0.446713  1
  F  F22  1  0.238676  0.967614  0.946269  1
  F  F23  1  0.738628  0.032405  0.553557  1
  F  F24  1  0.986051  0.730729  0.640782  1
  F  F25  1  0.486252  0.269233  0.858847  1
  F  F26  1  0.014914  0.270075  0.358796  1
  F  F27  1  0.516427  0.731635  0.140254  1
  F  F28  1  0.044178  0.742978  0.168427  1
  F  F29  1  0.543336  0.256399  0.331928  1
  F  F30  1  0.956332  0.256953  0.831939  1
  F  F31  1  0.455209  0.743167  0.668193  1
  F  F32  1  0.411923  0.967980  0.230633  1
  F  F33  1  0.911743  0.031724  0.269385  1
  F  F34  1  0.587795  0.030317  0.769706  1
  F  F35  1  0.087304  0.969706  0.730454  1
