# generated using pymatgen
data_Y8Er8MgIn3Rh4
_symmetry_space_group_name_H-M   'P 1'
_cell_length_a   9.66852790
_cell_length_b   9.63012917
_cell_length_c   9.65504627
_cell_angle_alpha   60.12429096
_cell_angle_beta   59.79447581
_cell_angle_gamma   60.02299559
_symmetry_Int_Tables_number   1
_chemical_formula_structural   Y8Er8MgIn3Rh4
_chemical_formula_sum   'Y8 Er8 Mg1 In3 Rh4'
_cell_volume   635.37931150
_cell_formula_units_Z   1
loop_
 _symmetry_equiv_pos_site_id
 _symmetry_equiv_pos_as_xyz
  1  'x, y, z'
loop_
 _atom_site_type_symbol
 _atom_site_label
 _atom_site_symmetry_multiplicity
 _atom_site_fract_x
 _atom_site_fract_y
 _atom_site_fract_z
 _atom_site_occupancy
  Y  Y0  1  0.190124  0.191452  0.810062  1
  Y  Y1  1  0.439732  0.061103  0.061219  1
  Y  Y2  1  0.434506  0.065122  0.432943  1
  Y  Y3  1  0.062189  0.439621  0.062980  1
  Y  Y4  1  0.648836  0.051167  0.647688  1
  Y  Y5  1  0.189214  0.811386  0.812361  1
  Y  Y6  1  0.061773  0.062097  0.438189  1
  Y  Y7  1  0.810245  0.191116  0.189593  1
  Er  Er8  1  0.812150  0.811440  0.189065  1
  Er  Er9  1  0.650936  0.648864  0.046574  1
  Er  Er10  1  0.653095  0.652890  0.652548  1
  Er  Er11  1  0.061822  0.438109  0.437739  1
  Er  Er12  1  0.045066  0.650115  0.650812  1
  Er  Er13  1  0.809593  0.191232  0.810156  1
  Er  Er14  1  0.438043  0.437283  0.062449  1
  Er  Er15  1  0.188561  0.812572  0.188364  1
  Mg  Mg16  1  0.423246  0.732159  0.423550  1
  In  In17  1  0.416511  0.419842  0.748165  1
  In  In18  1  0.748062  0.419264  0.416886  1
  In  In19  1  0.416039  0.417850  0.416357  1
  Rh  Rh20  1  0.855830  0.428525  0.855112  1
  Rh  Rh21  1  0.862144  0.853331  0.424994  1
  Rh  Rh22  1  0.427522  0.854696  0.862604  1
  Rh  Rh23  1  0.854763  0.858764  0.859588  1
