# generated using pymatgen
data_SmRe3Si2W
_symmetry_space_group_name_H-M   'P 1'
_cell_length_a   7.84693688
_cell_length_b   7.10902460
_cell_length_c   4.20727000
_cell_angle_alpha   90.00000000
_cell_angle_beta   90.00000000
_cell_angle_gamma   89.84608655
_symmetry_Int_Tables_number   1
_chemical_formula_structural   SmRe3Si2W
_chemical_formula_sum   'Sm2 Re6 Si4 W2'
_cell_volume   234.69778590
_cell_formula_units_Z   2
loop_
 _symmetry_equiv_pos_site_id
 _symmetry_equiv_pos_as_xyz
  1  'x, y, z'
loop_
 _atom_site_type_symbol
 _atom_site_label
 _atom_site_symmetry_multiplicity
 _atom_site_fract_x
 _atom_site_fract_y
 _atom_site_fract_z
 _atom_site_occupancy
  Sm  Sm0  1  0.500000  0.500000  0.000000  1
  Sm  Sm1  1  0.000000  0.000000  0.500000  1
  Re  Re2  1  0.107989  0.344540  0.000000  1
  Re  Re3  1  0.892011  0.655460  0.000000  1
  Re  Re4  1  0.157357  0.578499  0.500000  1
  Re  Re5  1  0.842643  0.421501  0.500000  1
  Re  Re6  1  0.335415  0.079443  0.000000  1
  Re  Re7  1  0.664585  0.920557  0.000000  1
  Si  Si8  1  0.692530  0.726377  0.500000  1
  Si  Si9  1  0.307470  0.273623  0.500000  1
  Si  Si10  1  0.189439  0.770269  0.000000  1
  Si  Si11  1  0.810561  0.229731  0.000000  1
  W  W12  1  0.610964  0.152652  0.500000  1
  W  W13  1  0.389036  0.847348  0.500000  1
