# generated using pymatgen
data_DyY5PtI10
_symmetry_space_group_name_H-M   'P 1'
_cell_length_a   7.72938359
_cell_length_b   9.73765684
_cell_length_c   9.76588704
_cell_angle_alpha   107.37584516
_cell_angle_beta   96.99739804
_cell_angle_gamma   104.87082288
_symmetry_Int_Tables_number   1
_chemical_formula_structural   DyY5PtI10
_chemical_formula_sum   'Dy1 Y5 Pt1 I10'
_cell_volume   662.12204611
_cell_formula_units_Z   1
loop_
 _symmetry_equiv_pos_site_id
 _symmetry_equiv_pos_as_xyz
  1  'x, y, z'
loop_
 _atom_site_type_symbol
 _atom_site_label
 _atom_site_symmetry_multiplicity
 _atom_site_fract_x
 _atom_site_fract_y
 _atom_site_fract_z
 _atom_site_occupancy
  Dy  Dy0  1  0.885870  0.960577  0.242307  1
  Y  Y1  1  0.114410  0.039549  0.756898  1
  Y  Y2  1  0.351380  0.127285  0.166938  1
  Y  Y3  1  0.648632  0.872726  0.833038  1
  Y  Y4  1  0.972349  0.288519  0.087439  1
  Y  Y5  1  0.027658  0.711471  0.912608  1
  Pt  Pt6  1  0.999817  0.999932  0.000501  1
  I  I7  1  0.358289  0.455753  0.273853  1
  I  I8  1  0.641727  0.544239  0.726132  1
  I  I9  1  0.913863  0.627646  0.180407  1
  I  I10  1  0.086135  0.372543  0.819714  1
  I  I11  1  0.453102  0.816866  0.092537  1
  I  I12  1  0.547022  0.183210  0.907570  1
  I  I13  1  0.261467  0.088416  0.464471  1
  I  I14  1  0.738299  0.911505  0.535574  1
  I  I15  1  0.782707  0.261132  0.350049  1
  I  I16  1  0.217274  0.738631  0.649965  1
