# generated using pymatgen
data_Dy6Lu6TlCuNi4
_symmetry_space_group_name_H-M   'P 1'
_cell_length_a   8.25927947
_cell_length_b   8.25927919
_cell_length_c   8.25927928
_cell_angle_alpha   111.89428637
_cell_angle_beta   109.73433580
_cell_angle_gamma   106.82475504
_symmetry_Int_Tables_number   1
_chemical_formula_structural   Dy6Lu6TlCuNi4
_chemical_formula_sum   'Dy6 Lu6 Tl1 Cu1 Ni4'
_cell_volume   432.86345637
_cell_formula_units_Z   1
loop_
 _symmetry_equiv_pos_site_id
 _symmetry_equiv_pos_as_xyz
  1  'x, y, z'
loop_
 _atom_site_type_symbol
 _atom_site_label
 _atom_site_symmetry_multiplicity
 _atom_site_fract_x
 _atom_site_fract_y
 _atom_site_fract_z
 _atom_site_occupancy
  Dy  Dy0  1  0.321502  0.125729  0.804227  1
  Dy  Dy1  1  0.678498  0.482726  0.804227  1
  Dy  Dy2  1  0.181270  0.206999  0.388269  1
  Dy  Dy3  1  0.818730  0.206999  0.025728  1
  Dy  Dy4  1  0.183593  0.791173  0.974767  1
  Dy  Dy5  1  0.816407  0.791173  0.607580  1
  Lu  Lu6  1  0.025531  0.718337  0.305093  1
  Lu  Lu7  1  0.974469  0.279564  0.692808  1
  Lu  Lu8  1  0.586756  0.279564  0.305093  1
  Lu  Lu9  1  0.413244  0.718337  0.692808  1
  Lu  Lu10  1  0.676718  0.869590  0.192871  1
  Lu  Lu11  1  0.323282  0.516152  0.192871  1
  Tl  Tl12  1  0.500000  0.997765  0.497765  1
  Cu  Cu13  1  0.000000  0.507816  0.507816  1
  Ni  Ni14  1  0.640830  0.503679  0.144508  1
  Ni  Ni15  1  0.359170  0.503679  0.862849  1
  Ni  Ni16  1  0.872360  0.872720  0.000360  1
  Ni  Ni17  1  0.127640  0.127999  0.000360  1
