# generated using pymatgen
data_Ce2MnCoGe2C
_symmetry_space_group_name_H-M   'P 1'
_cell_length_a   5.85036622
_cell_length_b   5.85036611
_cell_length_c   7.05352474
_cell_angle_alpha   126.38527418
_cell_angle_beta   126.38527365
_cell_angle_gamma   40.25162416
_symmetry_Int_Tables_number   1
_chemical_formula_structural   Ce2MnCoGe2C
_chemical_formula_sum   'Ce2 Mn1 Co1 Ge2 C1'
_cell_volume   120.91574424
_cell_formula_units_Z   1
loop_
 _symmetry_equiv_pos_site_id
 _symmetry_equiv_pos_as_xyz
  1  'x, y, z'
loop_
 _atom_site_type_symbol
 _atom_site_label
 _atom_site_symmetry_multiplicity
 _atom_site_fract_x
 _atom_site_fract_y
 _atom_site_fract_z
 _atom_site_occupancy
  Ce  Ce0  1  0.553906  0.553906  0.288829  1
  Ce  Ce1  1  0.444664  0.444664  0.710742  1
  Mn  Mn2  1  0.188801  0.188801  0.074597  1
  Co  Co3  1  0.808629  0.808629  0.922172  1
  Ge  Ge4  1  0.830366  0.830366  0.284511  1
  Ge  Ge5  1  0.170510  0.170510  0.714406  1
  C  C6  1  0.003124  0.003124  0.004742  1
