# generated using pymatgen
data_Pr2NdHo(AsPt)4
_symmetry_space_group_name_H-M   'P 1'
_cell_length_a   4.32895500
_cell_length_b   4.32895611
_cell_length_c   16.09361500
_cell_angle_alpha   90.00000000
_cell_angle_beta   90.00000000
_cell_angle_gamma   119.99999913
_symmetry_Int_Tables_number   1
_chemical_formula_structural   Pr2NdHo(AsPt)4
_chemical_formula_sum   'Pr2 Nd1 Ho1 As4 Pt4'
_cell_volume   261.18636281
_cell_formula_units_Z   1
loop_
 _symmetry_equiv_pos_site_id
 _symmetry_equiv_pos_as_xyz
  1  'x, y, z'
loop_
 _atom_site_type_symbol
 _atom_site_label
 _atom_site_symmetry_multiplicity
 _atom_site_fract_x
 _atom_site_fract_y
 _atom_site_fract_z
 _atom_site_occupancy
  Pr  Pr0  1  0.000000  0.000000  0.504891  1
  Pr  Pr1  1  0.000000  0.000000  0.995109  1
  Nd  Nd2  1  0.000000  0.000000  0.250000  1
  Ho  Ho3  1  0.000000  0.000000  0.750000  1
  As  As4  1  0.333333  0.666667  0.877866  1
  As  As5  1  0.666667  0.333333  0.118419  1
  As  As6  1  0.666667  0.333333  0.381581  1
  As  As7  1  0.333333  0.666667  0.622134  1
  Pt  Pt8  1  0.333333  0.666667  0.372002  1
  Pt  Pt9  1  0.666667  0.333333  0.644342  1
  Pt  Pt10  1  0.666667  0.333333  0.855658  1
  Pt  Pt11  1  0.333333  0.666667  0.127998  1
