# generated using pymatgen
data_SrLa2Bi(Pt2O7)2
_symmetry_space_group_name_H-M   'P 1'
_cell_length_a   7.44120198
_cell_length_b   7.48322569
_cell_length_c   7.44120167
_cell_angle_alpha   60.48202399
_cell_angle_beta   60.56993093
_cell_angle_gamma   60.48202100
_symmetry_Int_Tables_number   1
_chemical_formula_structural   SrLa2Bi(Pt2O7)2
_chemical_formula_sum   'Sr1 La2 Bi1 Pt4 O14'
_cell_volume   296.37997765
_cell_formula_units_Z   1
loop_
 _symmetry_equiv_pos_site_id
 _symmetry_equiv_pos_as_xyz
  1  'x, y, z'
loop_
 _atom_site_type_symbol
 _atom_site_label
 _atom_site_symmetry_multiplicity
 _atom_site_fract_x
 _atom_site_fract_y
 _atom_site_fract_z
 _atom_site_occupancy
  Sr  Sr0  1  0.125000  0.125000  0.125000  1
  La  La1  1  0.125000  0.125000  0.625000  1
  La  La2  1  0.625000  0.125000  0.125000  1
  Bi  Bi3  1  0.125000  0.625000  0.125000  1
  Pt  Pt4  1  0.625000  0.625000  0.125000  1
  Pt  Pt5  1  0.625000  0.125000  0.625000  1
  Pt  Pt6  1  0.125000  0.625000  0.625000  1
  Pt  Pt7  1  0.625000  0.625000  0.625000  1
  O  O8  1  0.251802  0.260641  0.251802  1
  O  O9  1  0.998198  0.989359  0.998198  1
  O  O10  1  0.542437  0.955481  0.542437  1
  O  O11  1  0.295052  0.699746  0.295052  1
  O  O12  1  0.541218  0.546173  0.955416  1
  O  O13  1  0.955416  0.546173  0.541218  1
  O  O14  1  0.548940  0.954013  0.955951  1
  O  O15  1  0.955951  0.954013  0.548940  1
  O  O16  1  0.954948  0.550254  0.954948  1
  O  O17  1  0.701060  0.295987  0.294049  1
  O  O18  1  0.294584  0.703827  0.708782  1
  O  O19  1  0.707563  0.294519  0.707563  1
  O  O20  1  0.294049  0.295987  0.701060  1
  O  O21  1  0.708782  0.703827  0.294584  1
