# generated using pymatgen
data_Yb3(YGe2)2
_symmetry_space_group_name_H-M   'P 1'
_cell_length_a   7.45232000
_cell_length_b   7.90047200
_cell_length_c   15.22341300
_cell_angle_alpha   90.00000000
_cell_angle_beta   90.00000000
_cell_angle_gamma   90.00000000
_symmetry_Int_Tables_number   1
_chemical_formula_structural   Yb3(YGe2)2
_chemical_formula_sum   'Yb12 Y8 Ge16'
_cell_volume   896.30653511
_cell_formula_units_Z   4
loop_
 _symmetry_equiv_pos_site_id
 _symmetry_equiv_pos_as_xyz
  1  'x, y, z'
loop_
 _atom_site_type_symbol
 _atom_site_label
 _atom_site_symmetry_multiplicity
 _atom_site_fract_x
 _atom_site_fract_y
 _atom_site_fract_z
 _atom_site_occupancy
  Yb  Yb0  1  0.977971  0.812781  0.404487  1
  Yb  Yb1  1  0.477971  0.687219  0.095513  1
  Yb  Yb2  1  0.522029  0.312781  0.595513  1
  Yb  Yb3  1  0.022029  0.187219  0.904487  1
  Yb  Yb4  1  0.022029  0.187219  0.595513  1
  Yb  Yb5  1  0.522029  0.312781  0.904487  1
  Yb  Yb6  1  0.477971  0.687219  0.404487  1
  Yb  Yb7  1  0.977971  0.812781  0.095513  1
  Yb  Yb8  1  0.346303  0.019886  0.750000  1
  Yb  Yb9  1  0.846303  0.480114  0.750000  1
  Yb  Yb10  1  0.153697  0.519886  0.250000  1
  Yb  Yb11  1  0.653697  0.980114  0.250000  1
  Y  Y12  1  0.317609  0.172589  0.121318  1
  Y  Y13  1  0.817609  0.327411  0.378682  1
  Y  Y14  1  0.182391  0.672589  0.878682  1
  Y  Y15  1  0.682391  0.827411  0.621318  1
  Y  Y16  1  0.317609  0.172589  0.378682  1
  Y  Y17  1  0.817609  0.327411  0.121318  1
  Y  Y18  1  0.182391  0.672589  0.621318  1
  Y  Y19  1  0.682391  0.827411  0.878682  1
  Ge  Ge20  1  0.846456  0.532884  0.540357  1
  Ge  Ge21  1  0.346456  0.967116  0.959643  1
  Ge  Ge22  1  0.653544  0.032884  0.459643  1
  Ge  Ge23  1  0.153544  0.467116  0.040357  1
  Ge  Ge24  1  0.153544  0.467116  0.459643  1
  Ge  Ge25  1  0.653544  0.032884  0.040357  1
  Ge  Ge26  1  0.346456  0.967116  0.540357  1
  Ge  Ge27  1  0.846456  0.532884  0.959643  1
  Ge  Ge28  1  0.978644  0.882195  0.750000  1
  Ge  Ge29  1  0.478644  0.617805  0.750000  1
  Ge  Ge30  1  0.521356  0.382195  0.250000  1
  Ge  Ge31  1  0.021356  0.117805  0.250000  1
  Ge  Ge32  1  0.236647  0.384831  0.750000  1
  Ge  Ge33  1  0.736647  0.115169  0.750000  1
  Ge  Ge34  1  0.263353  0.884831  0.250000  1
  Ge  Ge35  1  0.763353  0.615169  0.250000  1
