# generated using pymatgen
data_Pr8Lu9Si16Ag3
_symmetry_space_group_name_H-M   'P 1'
_cell_length_a   7.19692275
_cell_length_b   7.74119096
_cell_length_c   14.65161600
_cell_angle_alpha   90.00000000
_cell_angle_beta   90.00000000
_cell_angle_gamma   90.13070643
_symmetry_Int_Tables_number   1
_chemical_formula_structural   Pr8Lu9Si16Ag3
_chemical_formula_sum   'Pr8 Lu9 Si16 Ag3'
_cell_volume   816.27974442
_cell_formula_units_Z   1
loop_
 _symmetry_equiv_pos_site_id
 _symmetry_equiv_pos_as_xyz
  1  'x, y, z'
loop_
 _atom_site_type_symbol
 _atom_site_label
 _atom_site_symmetry_multiplicity
 _atom_site_fract_x
 _atom_site_fract_y
 _atom_site_fract_z
 _atom_site_occupancy
  Pr  Pr0  1  0.017679  0.184305  0.397116  1
  Pr  Pr1  1  0.518428  0.319046  0.395439  1
  Pr  Pr2  1  0.488601  0.684708  0.900589  1
  Pr  Pr3  1  0.488601  0.684708  0.599411  1
  Pr  Pr4  1  0.977880  0.827709  0.600901  1
  Pr  Pr5  1  0.977880  0.827709  0.899099  1
  Pr  Pr6  1  0.518428  0.319046  0.104561  1
  Pr  Pr7  1  0.017679  0.184305  0.102884  1
  Lu  Lu8  1  0.335122  0.174619  0.625043  1
  Lu  Lu9  1  0.672762  0.816156  0.372722  1
  Lu  Lu10  1  0.169082  0.680212  0.374543  1
  Lu  Lu11  1  0.821798  0.309661  0.874796  1
  Lu  Lu12  1  0.821798  0.309661  0.625204  1
  Lu  Lu13  1  0.335122  0.174619  0.874957  1
  Lu  Lu14  1  0.169082  0.680212  0.125457  1
  Lu  Lu15  1  0.672762  0.816156  0.127278  1
  Lu  Lu16  1  0.156058  0.503144  0.750000  1
  Si  Si17  1  0.277042  0.880981  0.750000  1
  Si  Si18  1  0.469240  0.600297  0.250000  1
  Si  Si19  1  0.038401  0.113020  0.750000  1
  Si  Si20  1  0.528771  0.399661  0.750000  1
  Si  Si21  1  0.149942  0.469980  0.540163  1
  Si  Si22  1  0.972684  0.900303  0.250000  1
  Si  Si23  1  0.722627  0.107461  0.250000  1
  Si  Si24  1  0.845085  0.536679  0.030662  1
  Si  Si25  1  0.345479  0.963674  0.035223  1
  Si  Si26  1  0.149942  0.469980  0.959837  1
  Si  Si27  1  0.651701  0.038292  0.528193  1
  Si  Si28  1  0.345479  0.963674  0.464777  1
  Si  Si29  1  0.845085  0.536679  0.469338  1
  Si  Si30  1  0.783449  0.605748  0.750000  1
  Si  Si31  1  0.219815  0.393755  0.250000  1
  Si  Si32  1  0.651701  0.038292  0.971807  1
  Ag  Ag33  1  0.648394  0.987521  0.750000  1
  Ag  Ag34  1  0.846547  0.492737  0.250000  1
  Ag  Ag35  1  0.349855  0.005295  0.250000  1
