# generated using pymatgen
data_Ho2Zr(ScFe6)3
_symmetry_space_group_name_H-M   'P 1'
_cell_length_a   4.97451641
_cell_length_b   4.97451625
_cell_length_c   16.02870405
_cell_angle_alpha   98.92695283
_cell_angle_beta   98.92695264
_cell_angle_gamma   59.99998602
_symmetry_Int_Tables_number   1
_chemical_formula_structural   Ho2Zr(ScFe6)3
_chemical_formula_sum   'Ho2 Zr1 Sc3 Fe18'
_cell_volume   337.94393574
_cell_formula_units_Z   1
loop_
 _symmetry_equiv_pos_site_id
 _symmetry_equiv_pos_as_xyz
  1  'x, y, z'
loop_
 _atom_site_type_symbol
 _atom_site_label
 _atom_site_symmetry_multiplicity
 _atom_site_fract_x
 _atom_site_fract_y
 _atom_site_fract_z
 _atom_site_occupancy
  Ho  Ho0  1  0.000296  0.000296  0.000889  1
  Ho  Ho1  1  0.499396  0.499396  0.498190  1
  Zr  Zr2  1  0.571815  0.571815  0.715445  1
  Sc  Sc3  1  0.428241  0.428241  0.284724  1
  Sc  Sc4  1  0.928936  0.928936  0.786807  1
  Sc  Sc5  1  0.071686  0.071686  0.215057  1
  Fe  Fe6  1  0.455753  0.958717  0.373187  1
  Fe  Fe7  1  0.956652  0.458693  0.874038  1
  Fe  Fe8  1  0.958717  0.958717  0.373187  1
  Fe  Fe9  1  0.458693  0.458693  0.874038  1
  Fe  Fe10  1  0.958717  0.455753  0.373187  1
  Fe  Fe11  1  0.458693  0.956652  0.874038  1
  Fe  Fe12  1  0.043918  0.541287  0.126492  1
  Fe  Fe13  1  0.543713  0.041120  0.625953  1
  Fe  Fe14  1  0.541287  0.541287  0.126492  1
  Fe  Fe15  1  0.041120  0.041120  0.625953  1
  Fe  Fe16  1  0.541287  0.043918  0.126492  1
  Fe  Fe17  1  0.041120  0.543713  0.625953  1
  Fe  Fe18  1  0.333501  0.333501  0.000503  1
  Fe  Fe19  1  0.833487  0.833487  0.500460  1
  Fe  Fe20  1  0.166422  0.166422  0.499266  1
  Fe  Fe21  1  0.666523  0.666523  0.999567  1
  Fe  Fe22  1  0.749942  0.749942  0.249827  1
  Fe  Fe23  1  0.250083  0.250083  0.750249  1
