# generated using pymatgen
data_ScMo3(PO4)4
_symmetry_space_group_name_H-M   'P 1'
_cell_length_a   6.01644500
_cell_length_b   5.07054442
_cell_length_c   10.25838488
_cell_angle_alpha   88.80396908
_cell_angle_beta   90.00000000
_cell_angle_gamma   90.00000000
_symmetry_Int_Tables_number   1
_chemical_formula_structural   ScMo3(PO4)4
_chemical_formula_sum   'Sc1 Mo3 P4 O16'
_cell_volume   312.88079213
_cell_formula_units_Z   1
loop_
 _symmetry_equiv_pos_site_id
 _symmetry_equiv_pos_as_xyz
  1  'x, y, z'
loop_
 _atom_site_type_symbol
 _atom_site_label
 _atom_site_symmetry_multiplicity
 _atom_site_fract_x
 _atom_site_fract_y
 _atom_site_fract_z
 _atom_site_occupancy
  Sc  Sc0  1  0.500000  0.946510  0.729796  1
  Mo  Mo1  1  0.000000  0.050351  0.272063  1
  Mo  Mo2  1  0.000000  0.450828  0.773949  1
  Mo  Mo3  1  0.500000  0.550094  0.225471  1
  P  P4  1  0.500000  0.106470  0.408859  1
  P  P5  1  0.500000  0.374893  0.909177  1
  P  P6  1  0.000000  0.621717  0.087959  1
  P  P7  1  0.000000  0.896486  0.593530  1
  O  O8  1  0.500000  0.152440  0.554781  1
  O  O9  1  0.298394  0.256954  0.338400  1
  O  O10  1  0.701606  0.256954  0.338400  1
  O  O11  1  0.000000  0.193237  0.613431  1
  O  O12  1  0.000000  0.324997  0.113817  1
  O  O13  1  0.299258  0.232443  0.839146  1
  O  O14  1  0.700742  0.232443  0.839146  1
  O  O15  1  0.500000  0.317913  0.055275  1
  O  O16  1  0.000000  0.687661  0.942991  1
  O  O17  1  0.798369  0.764135  0.159742  1
  O  O18  1  0.201631  0.764135  0.159742  1
  O  O19  1  0.500000  0.669362  0.875532  1
  O  O20  1  0.500000  0.813021  0.381791  1
  O  O21  1  0.798944  0.755342  0.668503  1
  O  O22  1  0.201056  0.755342  0.668503  1
  O  O23  1  0.000000  0.826273  0.449997  1
