# generated using pymatgen
data_Lu5Tc2C7
_symmetry_space_group_name_H-M   'P 1'
_cell_length_a   8.13075657
_cell_length_b   8.13075725
_cell_length_c   3.36433200
_cell_angle_alpha   90.00000000
_cell_angle_beta   90.00000000
_cell_angle_gamma   121.56076196
_symmetry_Int_Tables_number   1
_chemical_formula_structural   Lu5Tc2C7
_chemical_formula_sum   'Lu5 Tc2 C7'
_cell_volume   189.51518542
_cell_formula_units_Z   1
loop_
 _symmetry_equiv_pos_site_id
 _symmetry_equiv_pos_as_xyz
  1  'x, y, z'
loop_
 _atom_site_type_symbol
 _atom_site_label
 _atom_site_symmetry_multiplicity
 _atom_site_fract_x
 _atom_site_fract_y
 _atom_site_fract_z
 _atom_site_occupancy
  Lu  Lu0  1  0.338765  0.079162  0.500000  1
  Lu  Lu1  1  0.661235  0.920838  0.500000  1
  Lu  Lu2  1  0.079162  0.338765  0.500000  1
  Lu  Lu3  1  0.920838  0.661235  0.500000  1
  Lu  Lu4  1  0.500000  0.500000  0.000000  1
  Tc  Tc5  1  0.285410  0.714590  0.000000  1
  Tc  Tc6  1  0.714590  0.285410  0.000000  1
  C  C7  1  0.170907  0.170907  0.000000  1
  C  C8  1  0.829093  0.829093  0.000000  1
  C  C9  1  0.000000  0.000000  0.000000  1
  C  C10  1  0.377617  0.622383  0.500000  1
  C  C11  1  0.622383  0.377617  0.500000  1
  C  C12  1  0.500000  0.000000  0.000000  1
  C  C13  1  0.000000  0.500000  0.000000  1
