# generated using pymatgen
data_ErSb3Pb4O13
_symmetry_space_group_name_H-M   'P 1'
_cell_length_a   7.66476999
_cell_length_b   7.66477025
_cell_length_c   7.66476960
_cell_angle_alpha   59.76768612
_cell_angle_beta   59.76768631
_cell_angle_gamma   59.76767700
_symmetry_Int_Tables_number   1
_chemical_formula_structural   ErSb3Pb4O13
_chemical_formula_sum   'Er1 Sb3 Pb4 O13'
_cell_volume   316.72728222
_cell_formula_units_Z   1
loop_
 _symmetry_equiv_pos_site_id
 _symmetry_equiv_pos_as_xyz
  1  'x, y, z'
loop_
 _atom_site_type_symbol
 _atom_site_label
 _atom_site_symmetry_multiplicity
 _atom_site_fract_x
 _atom_site_fract_y
 _atom_site_fract_z
 _atom_site_occupancy
  Er  Er0  1  0.500003  0.500003  0.500003  1
  Sb  Sb1  1  0.001161  0.499947  0.499947  1
  Sb  Sb2  1  0.499947  0.499947  0.001161  1
  Sb  Sb3  1  0.499947  0.001161  0.499947  1
  Pb  Pb4  1  0.998752  0.998752  0.998752  1
  Pb  Pb5  1  0.498338  0.001902  0.001902  1
  Pb  Pb6  1  0.001902  0.001902  0.498338  1
  Pb  Pb7  1  0.001902  0.498338  0.001902  1
  O  O8  1  0.851858  0.418168  0.418168  1
  O  O9  1  0.420184  0.816746  0.816746  1
  O  O10  1  0.418168  0.418168  0.851858  1
  O  O11  1  0.816746  0.816746  0.420184  1
  O  O12  1  0.816746  0.420184  0.816746  1
  O  O13  1  0.418168  0.851858  0.418168  1
  O  O14  1  0.152989  0.578984  0.578984  1
  O  O15  1  0.579517  0.184564  0.184564  1
  O  O16  1  0.578984  0.578984  0.152989  1
  O  O17  1  0.184564  0.184564  0.579517  1
  O  O18  1  0.184564  0.579517  0.184564  1
  O  O19  1  0.578984  0.152989  0.578984  1
  O  O20  1  0.121574  0.121574  0.121574  1
