# generated using pymatgen
data_Y5Tm15Cd6TcRu
_symmetry_space_group_name_H-M   'P 1'
_cell_length_a   9.47884415
_cell_length_b   9.47884344
_cell_length_c   9.78846200
_cell_angle_alpha   90.00000000
_cell_angle_beta   90.00000000
_cell_angle_gamma   119.97986047
_symmetry_Int_Tables_number   1
_chemical_formula_structural   Y5Tm15Cd6TcRu
_chemical_formula_sum   'Y5 Tm15 Cd6 Tc1 Ru1'
_cell_volume   761.80518299
_cell_formula_units_Z   1
loop_
 _symmetry_equiv_pos_site_id
 _symmetry_equiv_pos_as_xyz
  1  'x, y, z'
loop_
 _atom_site_type_symbol
 _atom_site_label
 _atom_site_symmetry_multiplicity
 _atom_site_fract_x
 _atom_site_fract_y
 _atom_site_fract_z
 _atom_site_occupancy
  Y  Y0  1  0.539206  0.460794  0.250000  1
  Y  Y1  1  0.539152  0.078130  0.250000  1
  Y  Y2  1  0.921870  0.460848  0.250000  1
  Y  Y3  1  0.459727  0.918743  0.750000  1
  Y  Y4  1  0.081257  0.540273  0.750000  1
  Tm  Tm5  1  0.999905  0.000095  0.500255  1
  Tm  Tm6  1  0.999905  0.000095  0.999745  1
  Tm  Tm7  1  0.210038  0.789962  0.441547  1
  Tm  Tm8  1  0.210731  0.420321  0.442005  1
  Tm  Tm9  1  0.579679  0.789269  0.442005  1
  Tm  Tm10  1  0.789739  0.210261  0.559189  1
  Tm  Tm11  1  0.788987  0.579511  0.559449  1
  Tm  Tm12  1  0.420489  0.211013  0.559449  1
  Tm  Tm13  1  0.789739  0.210261  0.940811  1
  Tm  Tm14  1  0.788987  0.579511  0.940551  1
  Tm  Tm15  1  0.420489  0.211013  0.940551  1
  Tm  Tm16  1  0.210038  0.789962  0.058453  1
  Tm  Tm17  1  0.210731  0.420321  0.057995  1
  Tm  Tm18  1  0.579679  0.789269  0.057995  1
  Tm  Tm19  1  0.460175  0.539825  0.750000  1
  Cd  Cd20  1  0.886177  0.113823  0.250000  1
  Cd  Cd21  1  0.886077  0.772401  0.250000  1
  Cd  Cd22  1  0.227599  0.113923  0.250000  1
  Cd  Cd23  1  0.113564  0.886436  0.750000  1
  Cd  Cd24  1  0.114688  0.228057  0.750000  1
  Cd  Cd25  1  0.771943  0.885312  0.750000  1
  Tc  Tc26  1  0.333170  0.666830  0.250000  1
  Ru  Ru27  1  0.666263  0.333737  0.750000  1
