# generated using pymatgen
data_HoTm2ZnCd3Ga2
_symmetry_space_group_name_H-M   'P 1'
_cell_length_a   7.22581755
_cell_length_b   7.21062555
_cell_length_c   4.34250700
_cell_angle_alpha   90.00000000
_cell_angle_beta   90.00000000
_cell_angle_gamma   119.93046999
_symmetry_Int_Tables_number   1
_chemical_formula_structural   HoTm2ZnCd3Ga2
_chemical_formula_sum   'Ho1 Tm2 Zn1 Cd3 Ga2'
_cell_volume   196.08074464
_cell_formula_units_Z   1
loop_
 _symmetry_equiv_pos_site_id
 _symmetry_equiv_pos_as_xyz
  1  'x, y, z'
loop_
 _atom_site_type_symbol
 _atom_site_label
 _atom_site_symmetry_multiplicity
 _atom_site_fract_x
 _atom_site_fract_y
 _atom_site_fract_z
 _atom_site_occupancy
  Ho  Ho0  1  0.000000  0.576504  0.500000  1
  Tm  Tm1  1  0.423536  0.423173  0.500000  1
  Tm  Tm2  1  0.576464  0.999638  0.500000  1
  Zn  Zn3  1  0.000000  0.000996  0.500000  1
  Cd  Cd4  1  0.753938  0.754573  0.000000  1
  Cd  Cd5  1  0.246062  0.000634  0.000000  1
  Cd  Cd6  1  0.000000  0.245295  0.000000  1
  Ga  Ga7  1  0.665390  0.332287  0.000000  1
  Ga  Ga8  1  0.334610  0.666900  0.000000  1
