# generated using pymatgen
data_LaDy6MnBr12
_symmetry_space_group_name_H-M   'P 1'
_cell_length_a   9.35342147
_cell_length_b   9.36060758
_cell_length_c   9.09004604
_cell_angle_alpha   106.34013357
_cell_angle_beta   107.36759536
_cell_angle_gamma   106.74181460
_symmetry_Int_Tables_number   1
_chemical_formula_structural   LaDy6MnBr12
_chemical_formula_sum   'La1 Dy6 Mn1 Br12'
_cell_volume   666.05330071
_cell_formula_units_Z   1
loop_
 _symmetry_equiv_pos_site_id
 _symmetry_equiv_pos_as_xyz
  1  'x, y, z'
loop_
 _atom_site_type_symbol
 _atom_site_label
 _atom_site_symmetry_multiplicity
 _atom_site_fract_x
 _atom_site_fract_y
 _atom_site_fract_z
 _atom_site_occupancy
  La  La0  1  0.593793  0.520763  0.789128  1
  Dy  Dy1  1  0.000243  0.002776  0.996630  1
  Dy  Dy2  1  0.520376  0.805051  0.598968  1
  Dy  Dy3  1  0.808357  0.600183  0.523978  1
  Dy  Dy4  1  0.404280  0.477627  0.211111  1
  Dy  Dy5  1  0.479123  0.192251  0.399367  1
  Dy  Dy6  1  0.191195  0.399514  0.481226  1
  Mn  Mn7  1  0.508000  0.500003  0.525808  1
  Br  Br8  1  0.567130  0.164357  0.712983  1
  Br  Br9  1  0.178127  0.717242  0.564725  1
  Br  Br10  1  0.714172  0.566419  0.181089  1
  Br  Br11  1  0.426239  0.810025  0.272385  1
  Br  Br12  1  0.818474  0.280850  0.425675  1
  Br  Br13  1  0.261475  0.424074  0.817897  1
  Br  Br14  1  0.675051  0.900475  0.966253  1
  Br  Br15  1  0.881842  0.959415  0.658069  1
  Br  Br16  1  0.978058  0.681751  0.888029  1
  Br  Br17  1  0.332609  0.123368  0.037611  1
  Br  Br18  1  0.118003  0.039863  0.333663  1
  Br  Br19  1  0.043453  0.333991  0.115401  1
