# generated using pymatgen
data_Ho8Ti9Nb2Si16Ir
_symmetry_space_group_name_H-M   'P 1'
_cell_length_a   7.02432802
_cell_length_b   7.02432766
_cell_length_c   12.87483935
_cell_angle_alpha   90.17058290
_cell_angle_beta   89.82941872
_cell_angle_gamma   89.73164580
_symmetry_Int_Tables_number   1
_chemical_formula_structural   Ho8Ti9Nb2Si16Ir
_chemical_formula_sum   'Ho8 Ti9 Nb2 Si16 Ir1'
_cell_volume   635.24716195
_cell_formula_units_Z   1
loop_
 _symmetry_equiv_pos_site_id
 _symmetry_equiv_pos_as_xyz
  1  'x, y, z'
loop_
 _atom_site_type_symbol
 _atom_site_label
 _atom_site_symmetry_multiplicity
 _atom_site_fract_x
 _atom_site_fract_y
 _atom_site_fract_z
 _atom_site_occupancy
  Ho  Ho0  1  0.340979  0.003457  0.467024  1
  Ho  Ho1  1  0.497325  0.842468  0.718401  1
  Ho  Ho2  1  0.500927  0.157679  0.215365  1
  Ho  Ho3  1  0.842468  0.497325  0.281599  1
  Ho  Ho4  1  0.157679  0.500927  0.784635  1
  Ho  Ho5  1  0.658162  0.998742  0.968420  1
  Ho  Ho6  1  0.003457  0.340979  0.532976  1
  Ho  Ho7  1  0.998742  0.658162  0.031580  1
  Ti  Ti8  1  0.673642  0.673642  0.500000  1
  Ti  Ti9  1  0.148447  0.002275  0.875060  1
  Ti  Ti10  1  0.492633  0.657536  0.125123  1
  Ti  Ti11  1  0.507667  0.348360  0.628716  1
  Ti  Ti12  1  0.657536  0.492633  0.874877  1
  Ti  Ti13  1  0.348360  0.507667  0.371284  1
  Ti  Ti14  1  0.849446  0.993397  0.373781  1
  Ti  Ti15  1  0.002275  0.148447  0.124940  1
  Ti  Ti16  1  0.993397  0.849446  0.626219  1
  Nb  Nb17  1  0.175251  0.826489  0.247850  1
  Nb  Nb18  1  0.826489  0.175251  0.752150  1
  Si  Si19  1  0.203513  0.132487  0.684822  1
  Si  Si20  1  0.372117  0.701558  0.933469  1
  Si  Si21  1  0.630969  0.296288  0.434110  1
  Si  Si22  1  0.701558  0.372117  0.066531  1
  Si  Si23  1  0.296288  0.630969  0.565890  1
  Si  Si24  1  0.795744  0.867849  0.183779  1
  Si  Si25  1  0.132487  0.203513  0.315178  1
  Si  Si26  1  0.867849  0.795744  0.816221  1
  Si  Si27  1  0.287831  0.953447  0.061638  1
  Si  Si28  1  0.548534  0.791832  0.315739  1
  Si  Si29  1  0.448164  0.209511  0.818472  1
  Si  Si30  1  0.791832  0.548534  0.684261  1
  Si  Si31  1  0.209511  0.448164  0.181528  1
  Si  Si32  1  0.707640  0.047372  0.564657  1
  Si  Si33  1  0.953447  0.287831  0.938362  1
  Si  Si34  1  0.047372  0.707640  0.435343  1
  Ir  Ir35  1  0.330262  0.330262  0.000000  1
