# generated using pymatgen
data_Th4Np3RhN12
_symmetry_space_group_name_H-M   'P 1'
_cell_length_a   5.80160247
_cell_length_b   5.90869376
_cell_length_c   8.33686092
_cell_angle_alpha   89.25252574
_cell_angle_beta   90.03509164
_cell_angle_gamma   89.53148685
_symmetry_Int_Tables_number   1
_chemical_formula_structural   Th4Np3RhN12
_chemical_formula_sum   'Th4 Np3 Rh1 N12'
_cell_volume   285.75274731
_cell_formula_units_Z   1
loop_
 _symmetry_equiv_pos_site_id
 _symmetry_equiv_pos_as_xyz
  1  'x, y, z'
loop_
 _atom_site_type_symbol
 _atom_site_label
 _atom_site_symmetry_multiplicity
 _atom_site_fract_x
 _atom_site_fract_y
 _atom_site_fract_z
 _atom_site_occupancy
  Th  Th0  1  0.505741  0.542731  0.231176  1
  Th  Th1  1  0.986686  0.062509  0.231998  1
  Th  Th2  1  0.494259  0.457269  0.768824  1
  Th  Th3  1  0.013314  0.937491  0.768002  1
  Np  Np4  1  0.500000  0.000000  0.500000  1
  Np  Np5  1  0.000000  0.500000  0.500000  1
  Np  Np6  1  0.500000  0.000000  0.000000  1
  Rh  Rh7  1  0.000000  0.500000  0.000000  1
  N  N8  1  0.381969  0.961157  0.254495  1
  N  N9  1  0.102628  0.466808  0.255990  1
  N  N10  1  0.618031  0.038843  0.745505  1
  N  N11  1  0.897372  0.533192  0.744010  1
  N  N12  1  0.793931  0.800647  0.039384  1
  N  N13  1  0.700897  0.305630  0.429441  1
  N  N14  1  0.208167  0.190919  0.569073  1
  N  N15  1  0.299398  0.702302  0.953148  1
  N  N16  1  0.206069  0.199353  0.960616  1
  N  N17  1  0.299103  0.694370  0.570559  1
  N  N18  1  0.791833  0.809081  0.430927  1
  N  N19  1  0.700602  0.297698  0.046852  1
