# generated using pymatgen
data_Dy4ThPb3C
_symmetry_space_group_name_H-M   'P 1'
_cell_length_a   9.10235100
_cell_length_b   9.18234126
_cell_length_c   6.65788900
_cell_angle_alpha   90.00000000
_cell_angle_beta   90.00000000
_cell_angle_gamma   119.71225159
_symmetry_Int_Tables_number   1
_chemical_formula_structural   Dy4ThPb3C
_chemical_formula_sum   'Dy8 Th2 Pb6 C2'
_cell_volume   483.31041875
_cell_formula_units_Z   2
loop_
 _symmetry_equiv_pos_site_id
 _symmetry_equiv_pos_as_xyz
  1  'x, y, z'
loop_
 _atom_site_type_symbol
 _atom_site_label
 _atom_site_symmetry_multiplicity
 _atom_site_fract_x
 _atom_site_fract_y
 _atom_site_fract_z
 _atom_site_occupancy
  Dy  Dy0  1  0.998290  0.212867  0.250000  1
  Dy  Dy1  1  0.001710  0.787133  0.750000  1
  Dy  Dy2  1  0.785423  0.787133  0.250000  1
  Dy  Dy3  1  0.214577  0.212867  0.750000  1
  Dy  Dy4  1  0.332859  0.665719  0.000000  1
  Dy  Dy5  1  0.667141  0.334281  0.000000  1
  Dy  Dy6  1  0.667141  0.334281  0.500000  1
  Dy  Dy7  1  0.332859  0.665719  0.500000  1
  Th  Th8  1  0.213710  0.000000  0.250000  1
  Th  Th9  1  0.786290  0.000000  0.750000  1
  Pb  Pb10  1  0.594483  0.000000  0.250000  1
  Pb  Pb11  1  0.405517  0.000000  0.750000  1
  Pb  Pb12  1  0.997037  0.589611  0.250000  1
  Pb  Pb13  1  0.002963  0.410389  0.750000  1
  Pb  Pb14  1  0.407426  0.410389  0.250000  1
  Pb  Pb15  1  0.592574  0.589611  0.750000  1
  C  C16  1  0.000000  0.000000  0.000000  1
  C  C17  1  0.000000  0.000000  0.500000  1
