# generated using pymatgen
data_CaDy4(In2Pt)2
_symmetry_space_group_name_H-M   'P 1'
_cell_length_a   3.62777200
_cell_length_b   8.22607000
_cell_length_c   18.41857900
_cell_angle_alpha   90.00000000
_cell_angle_beta   90.00000000
_cell_angle_gamma   90.00000000
_symmetry_Int_Tables_number   1
_chemical_formula_structural   CaDy4(In2Pt)2
_chemical_formula_sum   'Ca2 Dy8 In8 Pt4'
_cell_volume   549.65287827
_cell_formula_units_Z   2
loop_
 _symmetry_equiv_pos_site_id
 _symmetry_equiv_pos_as_xyz
  1  'x, y, z'
loop_
 _atom_site_type_symbol
 _atom_site_label
 _atom_site_symmetry_multiplicity
 _atom_site_fract_x
 _atom_site_fract_y
 _atom_site_fract_z
 _atom_site_occupancy
  Ca  Ca0  1  0.000000  0.000000  0.000000  1
  Ca  Ca1  1  0.000000  0.500000  0.500000  1
  Dy  Dy2  1  0.000000  0.117433  0.413707  1
  Dy  Dy3  1  0.000000  0.882567  0.586293  1
  Dy  Dy4  1  0.000000  0.382567  0.913707  1
  Dy  Dy5  1  0.000000  0.617433  0.086293  1
  Dy  Dy6  1  0.000000  0.244430  0.220746  1
  Dy  Dy7  1  0.000000  0.755570  0.779254  1
  Dy  Dy8  1  0.000000  0.255570  0.720746  1
  Dy  Dy9  1  0.000000  0.744430  0.279254  1
  In  In10  1  0.500000  0.425711  0.350802  1
  In  In11  1  0.500000  0.574289  0.649198  1
  In  In12  1  0.500000  0.074289  0.850802  1
  In  In13  1  0.500000  0.925711  0.149198  1
  In  In14  1  0.500000  0.293324  0.067498  1
  In  In15  1  0.500000  0.706676  0.932502  1
  In  In16  1  0.500000  0.206676  0.567498  1
  In  In17  1  0.500000  0.793324  0.432502  1
  Pt  Pt18  1  0.500000  0.024122  0.302894  1
  Pt  Pt19  1  0.500000  0.975878  0.697106  1
  Pt  Pt20  1  0.500000  0.475878  0.802894  1
  Pt  Pt21  1  0.500000  0.524122  0.197106  1
