# generated using pymatgen
data_Pr2Zn2Ga3Si
_symmetry_space_group_name_H-M   'P 1'
_cell_length_a   9.27108000
_cell_length_b   9.27108004
_cell_length_c   4.23423600
_cell_angle_alpha   90.00000000
_cell_angle_beta   90.00000000
_cell_angle_gamma   153.20277480
_symmetry_Int_Tables_number   1
_chemical_formula_structural   Pr2Zn2Ga3Si
_chemical_formula_sum   'Pr2 Zn2 Ga3 Si1'
_cell_volume   164.07887970
_cell_formula_units_Z   1
loop_
 _symmetry_equiv_pos_site_id
 _symmetry_equiv_pos_as_xyz
  1  'x, y, z'
loop_
 _atom_site_type_symbol
 _atom_site_label
 _atom_site_symmetry_multiplicity
 _atom_site_fract_x
 _atom_site_fract_y
 _atom_site_fract_z
 _atom_site_occupancy
  Pr  Pr0  1  0.897813  0.102187  0.750000  1
  Pr  Pr1  1  0.101073  0.898927  0.250000  1
  Zn  Zn2  1  0.669468  0.330532  0.750000  1
  Zn  Zn3  1  0.331915  0.668085  0.250000  1
  Ga  Ga4  1  0.250120  0.749880  0.750000  1
  Ga  Ga5  1  0.750590  0.249410  0.250000  1
  Ga  Ga6  1  0.533608  0.466392  0.750000  1
  Si  Si7  1  0.465411  0.534589  0.250000  1
