# generated using pymatgen
data_Tb5ErAl24ZnRu7
_symmetry_space_group_name_H-M   'P 1'
_cell_length_a   8.85344414
_cell_length_b   8.85344407
_cell_length_c   9.55856323
_cell_angle_alpha   90.03210673
_cell_angle_beta   89.96789357
_cell_angle_gamma   119.95456169
_symmetry_Int_Tables_number   1
_chemical_formula_structural   Tb5ErAl24ZnRu7
_chemical_formula_sum   'Tb5 Er1 Al24 Zn1 Ru7'
_cell_volume   649.15188770
_cell_formula_units_Z   1
loop_
 _symmetry_equiv_pos_site_id
 _symmetry_equiv_pos_as_xyz
  1  'x, y, z'
loop_
 _atom_site_type_symbol
 _atom_site_label
 _atom_site_symmetry_multiplicity
 _atom_site_fract_x
 _atom_site_fract_y
 _atom_site_fract_z
 _atom_site_occupancy
  Tb  Tb0  1  0.192756  0.385436  0.247350  1
  Tb  Tb1  1  0.807187  0.614231  0.752565  1
  Tb  Tb2  1  0.614564  0.807244  0.247350  1
  Tb  Tb3  1  0.385769  0.192813  0.752565  1
  Tb  Tb4  1  0.193894  0.806106  0.253022  1
  Er  Er5  1  0.805435  0.194565  0.747038  1
  Al  Al6  1  0.329053  0.670947  0.020337  1
  Al  Al7  1  0.671228  0.328772  0.979015  1
  Al  Al8  1  0.666576  0.333424  0.516101  1
  Al  Al9  1  0.333661  0.666339  0.484466  1
  Al  Al10  1  0.161754  0.324236  0.576842  1
  Al  Al11  1  0.837749  0.675520  0.423527  1
  Al  Al12  1  0.675764  0.838246  0.576842  1
  Al  Al13  1  0.849279  0.677782  0.081502  1
  Al  Al14  1  0.324480  0.162251  0.423527  1
  Al  Al15  1  0.150069  0.321790  0.918061  1
  Al  Al16  1  0.162513  0.837487  0.578309  1
  Al  Al17  1  0.322218  0.150721  0.081502  1
  Al  Al18  1  0.837519  0.162481  0.422406  1
  Al  Al19  1  0.678210  0.849931  0.918061  1
  Al  Al20  1  0.837226  0.162774  0.077668  1
  Al  Al21  1  0.162791  0.837209  0.921674  1
  Al  Al22  1  0.561532  0.121758  0.248507  1
  Al  Al23  1  0.439353  0.878955  0.751459  1
  Al  Al24  1  0.878242  0.438468  0.248507  1
  Al  Al25  1  0.121045  0.560647  0.751459  1
  Al  Al26  1  0.563730  0.436270  0.254826  1
  Al  Al27  1  0.436210  0.563790  0.745206  1
  Al  Al28  1  0.999169  0.000831  0.250378  1
  Al  Al29  1  0.000361  0.999639  0.749634  1
  Zn  Zn30  1  0.500029  0.499971  0.000035  1
  Ru  Ru31  1  0.500380  0.000168  0.999730  1
  Ru  Ru32  1  0.999832  0.499620  0.999730  1
  Ru  Ru33  1  0.500478  0.000256  0.500346  1
  Ru  Ru34  1  0.999744  0.499522  0.500346  1
  Ru  Ru35  1  0.500117  0.499883  0.500064  1
  Ru  Ru36  1  0.000060  0.999940  0.999968  1
  Ru  Ru37  1  0.000022  0.999978  0.500071  1
