# generated using pymatgen
data_Ho3ErTh6(Si3C)2
_symmetry_space_group_name_H-M   'P 1'
_cell_length_a   8.74237400
_cell_length_b   8.74237402
_cell_length_c   6.35615900
_cell_angle_alpha   90.00000000
_cell_angle_beta   90.00000000
_cell_angle_gamma   119.99999991
_symmetry_Int_Tables_number   1
_chemical_formula_structural   Ho3ErTh6(Si3C)2
_chemical_formula_sum   'Ho3 Er1 Th6 Si6 C2'
_cell_volume   420.71127314
_cell_formula_units_Z   1
loop_
 _symmetry_equiv_pos_site_id
 _symmetry_equiv_pos_as_xyz
  1  'x, y, z'
loop_
 _atom_site_type_symbol
 _atom_site_label
 _atom_site_symmetry_multiplicity
 _atom_site_fract_x
 _atom_site_fract_y
 _atom_site_fract_z
 _atom_site_occupancy
  Ho  Ho0  1  0.666667  0.333333  0.000000  1
  Ho  Ho1  1  0.333333  0.666667  0.000000  1
  Ho  Ho2  1  0.333333  0.666667  0.500000  1
  Er  Er3  1  0.666667  0.333333  0.500000  1
  Th  Th4  1  0.766344  0.766328  0.749978  1
  Th  Th5  1  0.233672  0.000017  0.749978  1
  Th  Th6  1  0.999983  0.233656  0.749978  1
  Th  Th7  1  0.233672  0.233656  0.250022  1
  Th  Th8  1  0.766344  0.000017  0.250022  1
  Th  Th9  1  0.999983  0.766328  0.250022  1
  Si  Si10  1  0.402821  0.402771  0.749969  1
  Si  Si11  1  0.597229  0.000049  0.749969  1
  Si  Si12  1  0.999951  0.597179  0.749969  1
  Si  Si13  1  0.597229  0.597179  0.250031  1
  Si  Si14  1  0.402821  0.000049  0.250031  1
  Si  Si15  1  0.999951  0.402771  0.250031  1
  C  C16  1  0.000000  0.000000  0.000000  1
  C  C17  1  0.000000  0.000000  0.500000  1
