# generated using pymatgen
data_Sr2V3Fe3(PO4)6
_symmetry_space_group_name_H-M   'P 1'
_cell_length_a   9.25612102
_cell_length_b   9.25612047
_cell_length_c   9.25945194
_cell_angle_alpha   137.93133165
_cell_angle_beta   110.15734843
_cell_angle_gamma   84.98980773
_symmetry_Int_Tables_number   1
_chemical_formula_structural   Sr2V3Fe3(PO4)6
_chemical_formula_sum   'Sr2 V3 Fe3 P6 O24'
_cell_volume   480.74458554
_cell_formula_units_Z   1
loop_
 _symmetry_equiv_pos_site_id
 _symmetry_equiv_pos_as_xyz
  1  'x, y, z'
loop_
 _atom_site_type_symbol
 _atom_site_label
 _atom_site_symmetry_multiplicity
 _atom_site_fract_x
 _atom_site_fract_y
 _atom_site_fract_z
 _atom_site_occupancy
  Sr  Sr0  1  0.749759  0.149285  0.397896  1
  Sr  Sr1  1  0.251388  0.851863  0.602104  1
  V  V2  1  0.618282  0.618282  0.500000  1
  V  V3  1  0.000183  0.999964  0.999684  1
  V  V4  1  0.500281  0.500500  0.000316  1
  Fe  Fe5  1  0.382199  0.382199  0.500000  1
  Fe  Fe6  1  0.117502  0.617502  0.000000  1
  Fe  Fe7  1  0.882474  0.382474  0.000000  1
  P  P8  1  0.323996  0.823996  0.000000  1
  P  P9  1  0.750257  0.655952  0.906600  1
  P  P10  1  0.175921  0.175921  0.500000  1
  P  P11  1  0.675955  0.175955  0.000000  1
  P  P12  1  0.249353  0.343658  0.093400  1
  P  P13  1  0.824386  0.824386  0.500000  1
  O  O14  1  0.571948  0.933801  0.778636  1
  O  O15  1  0.073331  0.295762  0.641347  1
  O  O16  1  0.841975  0.883051  0.041105  1
  O  O17  1  0.345467  0.704015  0.777591  1
  O  O18  1  0.140139  0.203925  0.342514  1
  O  O19  1  0.341946  0.300871  0.958895  1
  O  O20  1  0.638394  0.702625  0.342918  1
  O  O21  1  0.859707  0.795476  0.657082  1
  O  O22  1  0.365516  0.488300  0.354462  1
  O  O23  1  0.154415  0.931983  0.358653  1
  O  O24  1  0.640866  0.298991  0.937522  1
  O  O25  1  0.633838  0.511054  0.645538  1
  O  O26  1  0.861469  0.203344  0.062478  1
  O  O27  1  0.845443  0.067814  0.641147  1
  O  O28  1  0.359695  0.702278  0.063732  1
  O  O29  1  0.361411  0.297625  0.657486  1
  O  O30  1  0.658536  0.700165  0.042640  1
  O  O31  1  0.926667  0.704296  0.358853  1
  O  O32  1  0.157525  0.115895  0.957360  1
  O  O33  1  0.866064  0.510023  0.876445  1
  O  O34  1  0.133577  0.489618  0.123555  1
  O  O35  1  0.138546  0.795963  0.936268  1
  O  O36  1  0.655165  0.293312  0.221364  1
  O  O37  1  0.426424  0.067876  0.222409  1
