# generated using pymatgen
data_NdHo5Rh18
_symmetry_space_group_name_H-M   'P 1'
_cell_length_a   5.27096500
_cell_length_b   5.27096424
_cell_length_c   17.48257800
_cell_angle_alpha   90.00000000
_cell_angle_beta   90.00000000
_cell_angle_gamma   119.99999851
_symmetry_Int_Tables_number   1
_chemical_formula_structural   NdHo5Rh18
_chemical_formula_sum   'Nd1 Ho5 Rh18'
_cell_volume   420.64556539
_cell_formula_units_Z   1
loop_
 _symmetry_equiv_pos_site_id
 _symmetry_equiv_pos_as_xyz
  1  'x, y, z'
loop_
 _atom_site_type_symbol
 _atom_site_label
 _atom_site_symmetry_multiplicity
 _atom_site_fract_x
 _atom_site_fract_y
 _atom_site_fract_z
 _atom_site_occupancy
  Nd  Nd0  1  0.666667  0.333333  0.250000  1
  Ho  Ho1  1  0.333333  0.666667  0.542330  1
  Ho  Ho2  1  0.666667  0.333333  0.041321  1
  Ho  Ho3  1  0.666667  0.333333  0.458679  1
  Ho  Ho4  1  0.333333  0.666667  0.957670  1
  Ho  Ho5  1  0.333333  0.666667  0.750000  1
  Rh  Rh6  1  0.167438  0.334875  0.124633  1
  Rh  Rh7  1  0.832554  0.665109  0.625676  1
  Rh  Rh8  1  0.665125  0.832562  0.124633  1
  Rh  Rh9  1  0.167438  0.832562  0.124633  1
  Rh  Rh10  1  0.832554  0.167446  0.625676  1
  Rh  Rh11  1  0.334891  0.167446  0.625676  1
  Rh  Rh12  1  0.832554  0.665109  0.874324  1
  Rh  Rh13  1  0.832554  0.167446  0.874324  1
  Rh  Rh14  1  0.334891  0.167446  0.874324  1
  Rh  Rh15  1  0.665125  0.832562  0.375367  1
  Rh  Rh16  1  0.167438  0.832562  0.375367  1
  Rh  Rh17  1  0.167438  0.334875  0.375367  1
  Rh  Rh18  1  0.000000  0.000000  0.250000  1
  Rh  Rh19  1  0.000000  0.000000  0.750000  1
  Rh  Rh20  1  0.333333  0.666667  0.250000  1
  Rh  Rh21  1  0.666667  0.333333  0.750000  1
  Rh  Rh22  1  0.000000  0.000000  0.999559  1
  Rh  Rh23  1  0.000000  0.000000  0.500441  1
