# generated using pymatgen
data_Rb4Th6PCl18
_symmetry_space_group_name_H-M   'P 1'
_cell_length_a   10.77943061
_cell_length_b   10.80495975
_cell_length_c   10.98448100
_cell_angle_alpha   117.86361633
_cell_angle_beta   100.08600915
_cell_angle_gamma   104.78777122
_symmetry_Int_Tables_number   1
_chemical_formula_structural   Rb4Th6PCl18
_chemical_formula_sum   'Rb4 Th6 P1 Cl18'
_cell_volume   1026.66978131
_cell_formula_units_Z   1
loop_
 _symmetry_equiv_pos_site_id
 _symmetry_equiv_pos_as_xyz
  1  'x, y, z'
loop_
 _atom_site_type_symbol
 _atom_site_label
 _atom_site_symmetry_multiplicity
 _atom_site_fract_x
 _atom_site_fract_y
 _atom_site_fract_z
 _atom_site_occupancy
  Rb  Rb0  1  0.653536  0.537752  0.227876  1
  Rb  Rb1  1  0.346464  0.462248  0.772124  1
  Rb  Rb2  1  0.690729  0.231185  0.567859  1
  Rb  Rb3  1  0.309271  0.768815  0.432141  1
  Th  Th4  1  0.166511  0.062373  0.253688  1
  Th  Th5  1  0.833489  0.937627  0.746312  1
  Th  Th6  1  0.849044  0.139062  0.146030  1
  Th  Th7  1  0.150956  0.860938  0.853970  1
  Th  Th8  1  0.161595  0.265801  0.047916  1
  Th  Th9  1  0.838405  0.734199  0.952084  1
  P  P10  1  0.000000  0.000000  0.000000  1
  Cl  Cl11  1  0.015006  0.424846  0.203845  1
  Cl  Cl12  1  0.984994  0.575154  0.796155  1
  Cl  Cl13  1  0.339268  0.347405  0.317798  1
  Cl  Cl14  1  0.660732  0.652595  0.682202  1
  Cl  Cl15  1  0.343338  0.539446  0.106082  1
  Cl  Cl16  1  0.656662  0.460554  0.893918  1
  Cl  Cl17  1  0.003388  0.786986  0.215918  1
  Cl  Cl18  1  0.996612  0.213014  0.784082  1
  Cl  Cl19  1  0.702436  0.288130  0.300512  1
  Cl  Cl20  1  0.297564  0.711870  0.699488  1
  Cl  Cl21  1  0.325101  0.135327  0.899807  1
  Cl  Cl22  1  0.674899  0.864673  0.100193  1
  Cl  Cl23  1  0.017870  0.209339  0.418123  1
  Cl  Cl24  1  0.982130  0.790661  0.581877  1
  Cl  Cl25  1  0.325190  0.916367  0.111840  1
  Cl  Cl26  1  0.674810  0.083633  0.888160  1
  Cl  Cl27  1  0.347940  0.123883  0.511175  1
  Cl  Cl28  1  0.652060  0.876117  0.488825  1
