# generated using pymatgen
data_Hf4CoNiP2
_symmetry_space_group_name_H-M   'P 1'
_cell_length_a   3.60982800
_cell_length_b   5.17825508
_cell_length_c   7.38390289
_cell_angle_alpha   70.39627828
_cell_angle_beta   90.00000000
_cell_angle_gamma   90.00000000
_symmetry_Int_Tables_number   1
_chemical_formula_structural   Hf4CoNiP2
_chemical_formula_sum   'Hf4 Co1 Ni1 P2'
_cell_volume   130.02392417
_cell_formula_units_Z   1
loop_
 _symmetry_equiv_pos_site_id
 _symmetry_equiv_pos_as_xyz
  1  'x, y, z'
loop_
 _atom_site_type_symbol
 _atom_site_label
 _atom_site_symmetry_multiplicity
 _atom_site_fract_x
 _atom_site_fract_y
 _atom_site_fract_z
 _atom_site_occupancy
  Hf  Hf0  1  0.750000  0.774003  0.437161  1
  Hf  Hf1  1  0.250000  0.223571  0.572940  1
  Hf  Hf2  1  0.750000  0.291644  0.919675  1
  Hf  Hf3  1  0.250000  0.712663  0.074343  1
  Co  Co4  1  0.250000  0.642227  0.706940  1
  Ni  Ni5  1  0.750000  0.354592  0.289057  1
  P  P6  1  0.750000  0.862816  0.790153  1
  P  P7  1  0.250000  0.138484  0.209732  1
