# generated using pymatgen
data_Ho2Er3TmNi2
_symmetry_space_group_name_H-M   'P 1'
_cell_length_a   6.30659756
_cell_length_b   6.77798300
_cell_length_c   9.44627406
_cell_angle_alpha   90.00000000
_cell_angle_beta   90.01768229
_cell_angle_gamma   90.00000000
_symmetry_Int_Tables_number   1
_chemical_formula_structural   Ho2Er3TmNi2
_chemical_formula_sum   'Ho4 Er6 Tm2 Ni4'
_cell_volume   403.79051620
_cell_formula_units_Z   2
loop_
 _symmetry_equiv_pos_site_id
 _symmetry_equiv_pos_as_xyz
  1  'x, y, z'
loop_
 _atom_site_type_symbol
 _atom_site_label
 _atom_site_symmetry_multiplicity
 _atom_site_fract_x
 _atom_site_fract_y
 _atom_site_fract_z
 _atom_site_occupancy
  Ho  Ho0  1  0.861943  0.530620  0.249600  1
  Ho  Ho1  1  0.638057  0.030620  0.250400  1
  Ho  Ho2  1  0.137239  0.469836  0.750317  1
  Ho  Ho3  1  0.362761  0.969836  0.749683  1
  Er  Er4  1  0.680755  0.322136  0.565101  1
  Er  Er5  1  0.819245  0.822136  0.934899  1
  Er  Er6  1  0.679171  0.322636  0.934484  1
  Er  Er7  1  0.820829  0.822636  0.565516  1
  Er  Er8  1  0.320383  0.677014  0.434419  1
  Er  Er9  1  0.179617  0.177014  0.065581  1
  Tm  Tm10  1  0.320148  0.677691  0.065886  1
  Tm  Tm11  1  0.179852  0.177691  0.434114  1
  Ni  Ni12  1  0.054922  0.891238  0.250450  1
  Ni  Ni13  1  0.445078  0.391238  0.249550  1
  Ni  Ni14  1  0.947024  0.108830  0.751072  1
  Ni  Ni15  1  0.552976  0.608830  0.748928  1
