# generated using pymatgen
data_Ho2ErCd3Ge2Au
_symmetry_space_group_name_H-M   'P 1'
_cell_length_a   7.29942000
_cell_length_b   7.29545123
_cell_length_c   4.31391500
_cell_angle_alpha   90.00000000
_cell_angle_beta   90.00000000
_cell_angle_gamma   120.01799720
_symmetry_Int_Tables_number   1
_chemical_formula_structural   Ho2ErCd3Ge2Au
_chemical_formula_sum   'Ho2 Er1 Cd3 Ge2 Au1'
_cell_volume   198.91335321
_cell_formula_units_Z   1
loop_
 _symmetry_equiv_pos_site_id
 _symmetry_equiv_pos_as_xyz
  1  'x, y, z'
loop_
 _atom_site_type_symbol
 _atom_site_label
 _atom_site_symmetry_multiplicity
 _atom_site_fract_x
 _atom_site_fract_y
 _atom_site_fract_z
 _atom_site_occupancy
  Ho  Ho0  1  0.000176  0.584762  0.000000  1
  Ho  Ho1  1  0.415413  0.415238  0.000000  1
  Er  Er2  1  0.585027  0.000000  0.000000  1
  Cd  Cd3  1  0.252259  0.000000  0.500000  1
  Cd  Cd4  1  0.999882  0.252120  0.500000  1
  Cd  Cd5  1  0.747763  0.747880  0.500000  1
  Ge  Ge6  1  0.333463  0.666933  0.500000  1
  Ge  Ge7  1  0.666531  0.333067  0.500000  1
  Au  Au8  1  0.999486  0.000000  0.000000  1
