# generated using pymatgen
data_La8Ga3Si12Pd
_symmetry_space_group_name_H-M   'P 1'
_cell_length_a   8.35354600
_cell_length_b   8.35354646
_cell_length_c   8.75801200
_cell_angle_alpha   90.00000000
_cell_angle_beta   90.00000000
_cell_angle_gamma   120.00000610
_symmetry_Int_Tables_number   1
_chemical_formula_structural   La8Ga3Si12Pd
_chemical_formula_sum   'La8 Ga3 Si12 Pd1'
_cell_volume   529.27075996
_cell_formula_units_Z   1
loop_
 _symmetry_equiv_pos_site_id
 _symmetry_equiv_pos_as_xyz
  1  'x, y, z'
loop_
 _atom_site_type_symbol
 _atom_site_label
 _atom_site_symmetry_multiplicity
 _atom_site_fract_x
 _atom_site_fract_y
 _atom_site_fract_z
 _atom_site_occupancy
  La  La0  1  0.499615  0.500391  0.750001  1
  La  La1  1  0.501157  0.498850  0.249972  1
  La  La2  1  0.000771  0.500384  0.749998  1
  La  La3  1  0.997683  0.498844  0.249975  1
  La  La4  1  0.499613  0.999225  0.749998  1
  La  La5  1  0.501162  0.002311  0.249973  1
  La  La6  1  0.000001  0.999999  0.750039  1
  La  La7  1  0.999998  0.999998  0.250446  1
  Ga  Ga8  1  0.666662  0.333331  0.995583  1
  Ga  Ga9  1  0.333336  0.666668  0.004663  1
  Ga  Ga10  1  0.333337  0.666669  0.495608  1
  Si  Si11  1  0.836098  0.163904  0.000436  1
  Si  Si12  1  0.165173  0.834824  0.999611  1
  Si  Si13  1  0.327808  0.163904  0.000436  1
  Si  Si14  1  0.162889  0.837108  0.500487  1
  Si  Si15  1  0.669649  0.834825  0.999612  1
  Si  Si16  1  0.833037  0.166961  0.499810  1
  Si  Si17  1  0.836098  0.672193  0.000436  1
  Si  Si18  1  0.674221  0.837111  0.500487  1
  Si  Si19  1  0.165173  0.330349  0.999610  1
  Si  Si20  1  0.333928  0.166965  0.499810  1
  Si  Si21  1  0.162887  0.325779  0.500487  1
  Si  Si22  1  0.833034  0.666072  0.499811  1
  Pd  Pd23  1  0.666673  0.333330  0.502706  1
