# generated using pymatgen
data_TbNdTi3P7Rh9
_symmetry_space_group_name_H-M   'P 1'
_cell_length_a   3.86400200
_cell_length_b   9.69147613
_cell_length_c   9.69194011
_cell_angle_alpha   119.99647088
_cell_angle_beta   89.99985296
_cell_angle_gamma   90.00045580
_symmetry_Int_Tables_number   1
_chemical_formula_structural   TbNdTi3P7Rh9
_chemical_formula_sum   'Tb1 Nd1 Ti3 P7 Rh9'
_cell_volume   314.32872414
_cell_formula_units_Z   1
loop_
 _symmetry_equiv_pos_site_id
 _symmetry_equiv_pos_as_xyz
  1  'x, y, z'
loop_
 _atom_site_type_symbol
 _atom_site_label
 _atom_site_symmetry_multiplicity
 _atom_site_fract_x
 _atom_site_fract_y
 _atom_site_fract_z
 _atom_site_occupancy
  Tb  Tb0  1  0.761765  0.333387  0.666678  1
  Nd  Nd1  1  0.261963  0.666616  0.333340  1
  Ti  Ti2  1  0.762003  0.101010  0.880637  1
  Ti  Ti3  1  0.762056  0.119331  0.220344  1
  Ti  Ti4  1  0.762044  0.779624  0.899025  1
  P  P5  1  0.262092  0.999969  0.999953  1
  P  P6  1  0.761901  0.881148  0.593394  1
  P  P7  1  0.761887  0.406477  0.287737  1
  P  P8  1  0.761876  0.712279  0.118873  1
  P  P9  1  0.261800  0.115951  0.416550  1
  P  P10  1  0.261843  0.583421  0.699343  1
  P  P11  1  0.261811  0.300688  0.884049  1
  Rh  Rh12  1  0.261858  0.884335  0.159545  1
  Rh  Rh13  1  0.261913  0.840596  0.724901  1
  Rh  Rh14  1  0.261863  0.274984  0.115538  1
  Rh  Rh15  1  0.761920  0.608656  0.562292  1
  Rh  Rh16  1  0.761889  0.437697  0.046362  1
  Rh  Rh17  1  0.761876  0.953632  0.391320  1
  Rh  Rh18  1  0.261931  0.364763  0.436158  1
  Rh  Rh19  1  0.261882  0.563919  0.928566  1
  Rh  Rh20  1  0.261827  0.071512  0.635397  1
