# generated using pymatgen
data_LiHo16In(HgPt2)2
_symmetry_space_group_name_H-M   'P 1'
_cell_length_a   9.63001358
_cell_length_b   9.61547443
_cell_length_c   9.59631400
_cell_angle_alpha   60.06589501
_cell_angle_beta   60.11569292
_cell_angle_gamma   60.36847262
_symmetry_Int_Tables_number   1
_chemical_formula_structural   LiHo16In(HgPt2)2
_chemical_formula_sum   'Li1 Ho16 In1 Hg2 Pt4'
_cell_volume   630.92784890
_cell_formula_units_Z   1
loop_
 _symmetry_equiv_pos_site_id
 _symmetry_equiv_pos_as_xyz
  1  'x, y, z'
loop_
 _atom_site_type_symbol
 _atom_site_label
 _atom_site_symmetry_multiplicity
 _atom_site_fract_x
 _atom_site_fract_y
 _atom_site_fract_z
 _atom_site_occupancy
  Li  Li0  1  0.542402  0.822256  0.817671  1
  Ho  Ho1  1  0.186088  0.186718  0.813597  1
  Ho  Ho2  1  0.603140  0.601203  0.196651  1
  Ho  Ho3  1  0.435629  0.064143  0.438106  1
  Ho  Ho4  1  0.441314  0.438234  0.060225  1
  Ho  Ho5  1  0.814924  0.181005  0.814845  1
  Ho  Ho6  1  0.186509  0.812356  0.186569  1
  Ho  Ho7  1  0.435629  0.064143  0.062121  1
  Ho  Ho8  1  0.186509  0.812356  0.814568  1
  Ho  Ho9  1  0.058126  0.440599  0.059454  1
  Ho  Ho10  1  0.816878  0.813767  0.184678  1
  Ho  Ho11  1  0.180108  0.609161  0.605366  1
  Ho  Ho12  1  0.058126  0.440599  0.441821  1
  Ho  Ho13  1  0.058000  0.058899  0.441551  1
  Ho  Ho14  1  0.814924  0.181005  0.189226  1
  Ho  Ho15  1  0.604745  0.189622  0.602817  1
  Ho  Ho16  1  0.603140  0.601203  0.599005  1
  In  In17  1  0.828181  0.504612  0.833603  1
  Hg  Hg18  1  0.829463  0.838239  0.839943  1
  Hg  Hg19  1  0.829463  0.838239  0.492357  1
  Pt  Pt20  1  0.388295  0.819973  0.395866  1
  Pt  Pt21  1  0.389224  0.395302  0.397781  1
  Pt  Pt22  1  0.819961  0.391063  0.394488  1
  Pt  Pt23  1  0.389224  0.395302  0.817694  1
