# generated using pymatgen
data_RbBa19(Bi2As)4
_symmetry_space_group_name_H-M   'P 1'
_cell_length_a   9.25378764
_cell_length_b   10.56010420
_cell_length_c   14.33392630
_cell_angle_alpha   90.14314407
_cell_angle_beta   90.22279691
_cell_angle_gamma   90.20599069
_symmetry_Int_Tables_number   1
_chemical_formula_structural   RbBa19(Bi2As)4
_chemical_formula_sum   'Rb1 Ba19 Bi8 As4'
_cell_volume   1400.70099986
_cell_formula_units_Z   1
loop_
 _symmetry_equiv_pos_site_id
 _symmetry_equiv_pos_as_xyz
  1  'x, y, z'
loop_
 _atom_site_type_symbol
 _atom_site_label
 _atom_site_symmetry_multiplicity
 _atom_site_fract_x
 _atom_site_fract_y
 _atom_site_fract_z
 _atom_site_occupancy
  Rb  Rb0  1  0.684292  0.535616  0.576681  1
  Ba  Ba1  1  0.052544  0.747105  0.499154  1
  Ba  Ba2  1  0.944255  0.258171  0.501604  1
  Ba  Ba3  1  0.547402  0.249175  0.001455  1
  Ba  Ba4  1  0.451008  0.750258  0.000567  1
  Ba  Ba5  1  0.856414  0.746078  0.804071  1
  Ba  Ba6  1  0.143105  0.251455  0.197704  1
  Ba  Ba7  1  0.360692  0.251439  0.697708  1
  Ba  Ba8  1  0.641232  0.749580  0.301261  1
  Ba  Ba9  1  0.326413  0.467611  0.426090  1
  Ba  Ba10  1  0.184725  0.466775  0.923781  1
  Ba  Ba11  1  0.309693  0.035891  0.420974  1
  Ba  Ba12  1  0.816807  0.531758  0.075963  1
  Ba  Ba13  1  0.680547  0.968925  0.575546  1
  Ba  Ba14  1  0.817139  0.967218  0.077620  1
  Ba  Ba15  1  0.182369  0.032189  0.922091  1
  Ba  Ba16  1  0.336588  0.747730  0.709540  1
  Ba  Ba17  1  0.667280  0.247760  0.288453  1
  Ba  Ba18  1  0.831279  0.254100  0.788594  1
  Ba  Ba19  1  0.169550  0.749252  0.212034  1
  Bi  Bi20  1  0.563224  0.507976  0.837527  1
  Bi  Bi21  1  0.438879  0.492601  0.173286  1
  Bi  Bi22  1  0.073073  0.492796  0.673426  1
  Bi  Bi23  1  0.437329  0.007341  0.170411  1
  Bi  Bi24  1  0.943884  0.506226  0.324388  1
  Bi  Bi25  1  0.563825  0.991771  0.827758  1
  Bi  Bi26  1  0.935446  0.992078  0.329660  1
  Bi  Bi27  1  0.057597  0.005441  0.671113  1
  As  As28  1  0.064769  0.749913  0.989710  1
  As  As29  1  0.935009  0.248551  0.010097  1
  As  As30  1  0.561100  0.239152  0.507728  1
  As  As31  1  0.422531  0.758066  0.484005  1
