# generated using pymatgen
data_Ti6Al11Co7Si5
_symmetry_space_group_name_H-M   'P 1'
_cell_length_a   8.22230656
_cell_length_b   8.22230642
_cell_length_c   8.22230659
_cell_angle_alpha   59.82369630
_cell_angle_beta   59.82369368
_cell_angle_gamma   59.82369735
_symmetry_Int_Tables_number   1
_chemical_formula_structural   Ti6Al11Co7Si5
_chemical_formula_sum   'Ti6 Al11 Co7 Si5'
_cell_volume   391.49354222
_cell_formula_units_Z   1
loop_
 _symmetry_equiv_pos_site_id
 _symmetry_equiv_pos_as_xyz
  1  'x, y, z'
loop_
 _atom_site_type_symbol
 _atom_site_label
 _atom_site_symmetry_multiplicity
 _atom_site_fract_x
 _atom_site_fract_y
 _atom_site_fract_z
 _atom_site_occupancy
  Ti  Ti0  1  0.688294  0.311243  0.311243  1
  Ti  Ti1  1  0.314727  0.688332  0.688332  1
  Ti  Ti2  1  0.311243  0.688294  0.311243  1
  Ti  Ti3  1  0.311243  0.311243  0.688294  1
  Ti  Ti4  1  0.688332  0.314727  0.688332  1
  Ti  Ti5  1  0.688332  0.688332  0.314727  1
  Al  Al6  1  0.662680  0.662680  0.014842  1
  Al  Al7  1  0.662680  0.014842  0.662680  1
  Al  Al8  1  0.014842  0.662680  0.662680  1
  Al  Al9  1  0.121027  0.121027  0.121027  1
  Al  Al10  1  0.121022  0.121022  0.636027  1
  Al  Al11  1  0.636027  0.121022  0.121022  1
  Al  Al12  1  0.121022  0.636027  0.121022  1
  Al  Al13  1  0.882399  0.882399  0.882399  1
  Al  Al14  1  0.881896  0.881896  0.355436  1
  Al  Al15  1  0.881896  0.355436  0.881896  1
  Al  Al16  1  0.355436  0.881896  0.881896  1
  Co  Co17  1  0.000229  0.000229  0.000229  1
  Co  Co18  1  0.492278  0.007628  0.007628  1
  Co  Co19  1  0.999733  0.495594  0.495594  1
  Co  Co20  1  0.007628  0.492278  0.007628  1
  Co  Co21  1  0.007628  0.007628  0.492278  1
  Co  Co22  1  0.495594  0.999733  0.495594  1
  Co  Co23  1  0.495594  0.495594  0.999733  1
  Si  Si24  1  0.344723  0.344723  0.344723  1
  Si  Si25  1  0.344232  0.344232  0.965042  1
  Si  Si26  1  0.965042  0.344232  0.344232  1
  Si  Si27  1  0.344232  0.965042  0.344232  1
  Si  Si28  1  0.659991  0.659991  0.659991  1
