# generated using pymatgen
data_TaNb5Cr3(Si2Ru)3
_symmetry_space_group_name_H-M   'P 1'
_cell_length_a   7.44194678
_cell_length_b   7.44194892
_cell_length_c   7.45462932
_cell_angle_alpha   127.61570229
_cell_angle_beta   124.05041337
_cell_angle_gamma   80.27559809
_symmetry_Int_Tables_number   1
_chemical_formula_structural   TaNb5Cr3(Si2Ru)3
_chemical_formula_sum   'Ta1 Nb5 Cr3 Si6 Ru3'
_cell_volume   261.39598619
_cell_formula_units_Z   1
loop_
 _symmetry_equiv_pos_site_id
 _symmetry_equiv_pos_as_xyz
  1  'x, y, z'
loop_
 _atom_site_type_symbol
 _atom_site_label
 _atom_site_symmetry_multiplicity
 _atom_site_fract_x
 _atom_site_fract_y
 _atom_site_fract_z
 _atom_site_occupancy
  Ta  Ta0  1  0.249355  0.084210  0.331112  1
  Nb  Nb1  1  0.940123  0.909576  0.460093  1
  Nb  Nb2  1  0.056684  0.516168  0.952892  1
  Nb  Nb3  1  0.542445  0.505991  0.470296  1
  Nb  Nb4  1  0.471143  0.936932  0.980421  1
  Nb  Nb5  1  0.747607  0.076150  0.832554  1
  Cr  Cr6  1  0.498910  0.752376  0.252362  1
  Cr  Cr7  1  0.000823  0.753732  0.753311  1
  Cr  Cr8  1  0.905333  0.251119  0.410463  1
  Si  Si9  1  0.725484  0.464463  0.242557  1
  Si  Si10  1  0.271581  0.517194  0.738526  1
  Si  Si11  1  0.672350  0.176322  0.514768  1
  Si  Si12  1  0.325973  0.835849  0.500182  1
  Si  Si13  1  0.164950  0.174674  0.002926  1
  Si  Si14  1  0.838014  0.840104  0.012706  1
  Ru  Ru15  1  0.091343  0.503361  0.344749  1
  Ru  Ru16  1  0.340481  0.254103  0.844027  1
  Ru  Ru17  1  0.657403  0.505475  0.913856  1
