# generated using pymatgen
data_Tm4Mo2(OsRu)3
_symmetry_space_group_name_H-M   'P 1'
_cell_length_a   5.49227780
_cell_length_b   5.17227263
_cell_length_c   9.02036200
_cell_angle_alpha   90.00000000
_cell_angle_beta   90.00000000
_cell_angle_gamma   121.93276387
_symmetry_Int_Tables_number   1
_chemical_formula_structural   Tm4Mo2(OsRu)3
_chemical_formula_sum   'Tm4 Mo2 Os3 Ru3'
_cell_volume   217.46851970
_cell_formula_units_Z   1
loop_
 _symmetry_equiv_pos_site_id
 _symmetry_equiv_pos_as_xyz
  1  'x, y, z'
loop_
 _atom_site_type_symbol
 _atom_site_label
 _atom_site_symmetry_multiplicity
 _atom_site_fract_x
 _atom_site_fract_y
 _atom_site_fract_z
 _atom_site_occupancy
  Tm  Tm0  1  0.670571  0.340514  0.566068  1
  Tm  Tm1  1  0.329908  0.659997  0.434221  1
  Tm  Tm2  1  0.329908  0.659997  0.065779  1
  Tm  Tm3  1  0.670571  0.340514  0.933932  1
  Mo  Mo4  1  0.165192  0.322826  0.750000  1
  Mo  Mo5  1  0.843839  0.676093  0.250000  1
  Os  Os6  1  0.174250  0.822889  0.750000  1
  Os  Os7  1  0.652274  0.824260  0.750000  1
  Os  Os8  1  0.831466  0.178418  0.250000  1
  Ru  Ru9  1  0.990108  0.998420  0.499460  1
  Ru  Ru10  1  0.990108  0.998420  0.000540  1
  Ru  Ru11  1  0.351805  0.177648  0.250000  1
