# generated using pymatgen
data_AcLa(FeH5)2
_symmetry_space_group_name_H-M   'P 1'
_cell_length_a   4.44217900
_cell_length_b   4.68118576
_cell_length_c   11.78106100
_cell_angle_alpha   92.10994517
_cell_angle_beta   90.00000000
_cell_angle_gamma   90.00000000
_symmetry_Int_Tables_number   1
_chemical_formula_structural   AcLa(FeH5)2
_chemical_formula_sum   'Ac2 La2 Fe4 H20'
_cell_volume   244.81712353
_cell_formula_units_Z   2
loop_
 _symmetry_equiv_pos_site_id
 _symmetry_equiv_pos_as_xyz
  1  'x, y, z'
loop_
 _atom_site_type_symbol
 _atom_site_label
 _atom_site_symmetry_multiplicity
 _atom_site_fract_x
 _atom_site_fract_y
 _atom_site_fract_z
 _atom_site_occupancy
  Ac  Ac0  1  0.208746  0.189369  0.642447  1
  Ac  Ac1  1  0.708746  0.310631  0.357553  1
  La  La2  1  0.198760  0.767786  0.136234  1
  La  La3  1  0.698760  0.732214  0.863766  1
  Fe  Fe4  1  0.272238  0.236520  0.921824  1
  Fe  Fe5  1  0.772238  0.263480  0.078176  1
  Fe  Fe6  1  0.202021  0.803421  0.403187  1
  Fe  Fe7  1  0.702021  0.696579  0.596813  1
  H  H8  1  0.689499  0.368141  0.564584  1
  H  H9  1  0.189499  0.131859  0.435416  1
  H  H10  1  0.978026  0.452586  0.995045  1
  H  H11  1  0.478026  0.047414  0.004955  1
  H  H12  1  0.172157  0.975305  0.837967  1
  H  H13  1  0.672157  0.524695  0.162033  1
  H  H14  1  0.441432  0.860841  0.311242  1
  H  H15  1  0.941432  0.639159  0.688758  1
  H  H16  1  0.166478  0.472564  0.835390  1
  H  H17  1  0.666478  0.027436  0.164610  1
  H  H18  1  0.211184  0.498978  0.343462  1
  H  H19  1  0.711184  0.001022  0.656538  1
  H  H20  1  0.546676  0.230728  0.838539  1
  H  H21  1  0.046676  0.269272  0.161461  1
  H  H22  1  0.932997  0.831228  0.318761  1
  H  H23  1  0.432997  0.668772  0.681239  1
  H  H24  1  0.973235  0.050226  0.995495  1
  H  H25  1  0.473235  0.449774  0.004505  1
  H  H26  1  0.506551  0.821921  0.487020  1
  H  H27  1  0.006551  0.678079  0.512980  1
