# generated using pymatgen
data_Sm2ErU5(ReB6)4
_symmetry_space_group_name_H-M   'P 1'
_cell_length_a   3.65290000
_cell_length_b   9.32574681
_cell_length_c   11.43293701
_cell_angle_alpha   89.97817752
_cell_angle_beta   90.00000000
_cell_angle_gamma   90.00000000
_symmetry_Int_Tables_number   1
_chemical_formula_structural   Sm2ErU5(ReB6)4
_chemical_formula_sum   'Sm2 Er1 U5 Re4 B24'
_cell_volume   389.47463849
_cell_formula_units_Z   1
loop_
 _symmetry_equiv_pos_site_id
 _symmetry_equiv_pos_as_xyz
  1  'x, y, z'
loop_
 _atom_site_type_symbol
 _atom_site_label
 _atom_site_symmetry_multiplicity
 _atom_site_fract_x
 _atom_site_fract_y
 _atom_site_fract_z
 _atom_site_occupancy
  Sm  Sm0  1  0.000000  0.663436  0.592058  1
  Sm  Sm1  1  0.000000  0.835413  0.093055  1
  Er  Er2  1  0.000000  0.336491  0.407644  1
  U  U3  1  0.000000  0.163796  0.907117  1
  U  U4  1  0.000000  0.956962  0.396928  1
  U  U5  1  0.000000  0.043680  0.603062  1
  U  U6  1  0.000000  0.456895  0.103760  1
  U  U7  1  0.000000  0.542889  0.897096  1
  Re  Re8  1  0.000000  0.644058  0.318825  1
  Re  Re9  1  0.000000  0.351737  0.683848  1
  Re  Re10  1  0.000000  0.147185  0.178555  1
  Re  Re11  1  0.000000  0.858245  0.819419  1
  B  B12  1  0.500000  0.550434  0.430602  1
  B  B13  1  0.500000  0.446008  0.569542  1
  B  B14  1  0.500000  0.054238  0.067845  1
  B  B15  1  0.500000  0.950748  0.929833  1
  B  B16  1  0.500000  0.743112  0.422555  1
  B  B17  1  0.500000  0.256921  0.576570  1
  B  B18  1  0.500000  0.243364  0.076085  1
  B  B19  1  0.500000  0.756033  0.922109  1
  B  B20  1  0.500000  0.801218  0.275640  1
  B  B21  1  0.500000  0.196864  0.726190  1
  B  B22  1  0.500000  0.302362  0.225257  1
  B  B23  1  0.500000  0.698799  0.775288  1
  B  B24  1  0.500000  0.641985  0.189086  1
  B  B25  1  0.500000  0.354611  0.812256  1
  B  B26  1  0.500000  0.145003  0.311400  1
  B  B27  1  0.500000  0.856977  0.688632  1
  B  B28  1  0.500000  0.990681  0.220279  1
  B  B29  1  0.500000  0.013795  0.780921  1
  B  B30  1  0.500000  0.487369  0.281000  1
  B  B31  1  0.500000  0.509947  0.720147  1
  B  B32  1  0.500000  0.637946  0.038155  1
  B  B33  1  0.500000  0.357256  0.960516  1
  B  B34  1  0.500000  0.141061  0.460614  1
  B  B35  1  0.500000  0.862482  0.538113  1
