# generated using pymatgen
data_Tb2Dy2OsRu7
_symmetry_space_group_name_H-M   'P 1'
_cell_length_a   5.34199600
_cell_length_b   5.22319130
_cell_length_c   8.96855501
_cell_angle_alpha   90.00311147
_cell_angle_beta   89.99648415
_cell_angle_gamma   120.30203743
_symmetry_Int_Tables_number   1
_chemical_formula_structural   Tb2Dy2OsRu7
_chemical_formula_sum   'Tb2 Dy2 Os1 Ru7'
_cell_volume   216.05421700
_cell_formula_units_Z   1
loop_
 _symmetry_equiv_pos_site_id
 _symmetry_equiv_pos_as_xyz
  1  'x, y, z'
loop_
 _atom_site_type_symbol
 _atom_site_label
 _atom_site_symmetry_multiplicity
 _atom_site_fract_x
 _atom_site_fract_y
 _atom_site_fract_z
 _atom_site_occupancy
  Tb  Tb0  1  0.669064  0.336400  0.566424  1
  Tb  Tb1  1  0.332736  0.666590  0.432833  1
  Dy  Dy2  1  0.332675  0.666484  0.067096  1
  Dy  Dy3  1  0.669111  0.336475  0.933601  1
  Os  Os4  1  0.164154  0.328563  0.750373  1
  Ru  Ru5  1  0.004666  0.008184  0.499939  1
  Ru  Ru6  1  0.004673  0.008196  0.000049  1
  Ru  Ru7  1  0.168854  0.822168  0.750335  1
  Ru  Ru8  1  0.649951  0.820435  0.750310  1
  Ru  Ru9  1  0.831754  0.662811  0.249670  1
  Ru  Ru10  1  0.827755  0.170576  0.249678  1
  Ru  Ru11  1  0.344606  0.173119  0.249692  1
