# generated using pymatgen
data_Nd6SBr10
_symmetry_space_group_name_H-M   'P 1'
_cell_length_a   7.60506711
_cell_length_b   9.34768961
_cell_length_c   9.52386900
_cell_angle_alpha   108.51737814
_cell_angle_beta   97.26355181
_cell_angle_gamma   105.57601366
_symmetry_Int_Tables_number   1
_chemical_formula_structural   Nd6SBr10
_chemical_formula_sum   'Nd6 S1 Br10'
_cell_volume   601.57877463
_cell_formula_units_Z   1
loop_
 _symmetry_equiv_pos_site_id
 _symmetry_equiv_pos_as_xyz
  1  'x, y, z'
loop_
 _atom_site_type_symbol
 _atom_site_label
 _atom_site_symmetry_multiplicity
 _atom_site_fract_x
 _atom_site_fract_y
 _atom_site_fract_z
 _atom_site_occupancy
  Nd  Nd0  1  0.465343  0.794164  0.589602  1
  Nd  Nd1  1  0.534657  0.205836  0.410398  1
  Nd  Nd2  1  0.375892  0.454714  0.742061  1
  Nd  Nd3  1  0.624108  0.545286  0.257939  1
  Nd  Nd4  1  0.857165  0.630700  0.674538  1
  Nd  Nd5  1  0.142835  0.369300  0.325462  1
  S  S6  1  0.500000  0.500000  0.500000  1
  Br  Br7  1  0.413490  0.131010  0.671332  1
  Br  Br8  1  0.586510  0.868990  0.328668  1
  Br  Br9  1  0.042127  0.680410  0.417783  1
  Br  Br10  1  0.957873  0.319590  0.582217  1
  Br  Br11  1  0.288992  0.759560  0.846521  1
  Br  Br12  1  0.711008  0.240440  0.153479  1
  Br  Br13  1  0.251809  0.414478  0.047353  1
  Br  Br14  1  0.748191  0.585522  0.952647  1
  Br  Br15  1  0.846009  0.952839  0.771596  1
  Br  Br16  1  0.153991  0.047161  0.228404  1
