# generated using pymatgen
data_Y4Al16Ga2Rh5Au
_symmetry_space_group_name_H-M   'P 1'
_cell_length_a   7.59454371
_cell_length_b   7.59454492
_cell_length_c   9.49439760
_cell_angle_alpha   89.95413431
_cell_angle_beta   89.95413427
_cell_angle_gamma   119.45883533
_symmetry_Int_Tables_number   1
_chemical_formula_structural   Y4Al16Ga2Rh5Au
_chemical_formula_sum   'Y4 Al16 Ga2 Rh5 Au1'
_cell_volume   476.80793118
_cell_formula_units_Z   1
loop_
 _symmetry_equiv_pos_site_id
 _symmetry_equiv_pos_as_xyz
  1  'x, y, z'
loop_
 _atom_site_type_symbol
 _atom_site_label
 _atom_site_symmetry_multiplicity
 _atom_site_fract_x
 _atom_site_fract_y
 _atom_site_fract_z
 _atom_site_occupancy
  Y  Y0  1  0.991277  0.669737  0.250486  1
  Y  Y1  1  0.001994  0.325109  0.749949  1
  Y  Y2  1  0.674891  0.998006  0.250051  1
  Y  Y3  1  0.330263  0.008723  0.749514  1
  Al  Al4  1  0.012531  0.335873  0.078080  1
  Al  Al5  1  0.007785  0.673695  0.922909  1
  Al  Al6  1  0.002005  0.665108  0.572871  1
  Al  Al7  1  0.334892  0.997995  0.427129  1
  Al  Al8  1  0.001221  0.335481  0.425955  1
  Al  Al9  1  0.664519  0.998779  0.574045  1
  Al  Al10  1  0.664127  0.987469  0.921920  1
  Al  Al11  1  0.326305  0.992215  0.077091  1
  Al  Al12  1  0.332044  0.332536  0.550971  1
  Al  Al13  1  0.667464  0.667956  0.449029  1
  Al  Al14  1  0.664712  0.671707  0.059245  1
  Al  Al15  1  0.328293  0.335288  0.940755  1
  Al  Al16  1  0.339458  0.553812  0.251608  1
  Al  Al17  1  0.662187  0.458175  0.741413  1
  Al  Al18  1  0.541825  0.337813  0.258587  1
  Al  Al19  1  0.446188  0.660542  0.748392  1
  Ga  Ga20  1  0.131403  0.128858  0.251186  1
  Ga  Ga21  1  0.871142  0.868597  0.748814  1
  Rh  Rh22  1  0.328975  0.671025  0.000000  1
  Rh  Rh23  1  0.328933  0.671067  0.500000  1
  Rh  Rh24  1  0.671938  0.328062  0.500000  1
  Rh  Rh25  1  0.000095  0.999905  0.000000  1
  Rh  Rh26  1  0.000177  0.999823  0.500000  1
  Au  Au27  1  0.673353  0.326647  0.000000  1
