# generated using pymatgen
data_Be7Fe5Mo5W7C2
_symmetry_space_group_name_H-M   'P 1'
_cell_length_a   7.57646041
_cell_length_b   7.57993932
_cell_length_c   7.58399519
_cell_angle_alpha   59.96820898
_cell_angle_beta   60.02229011
_cell_angle_gamma   60.04061373
_symmetry_Int_Tables_number   1
_chemical_formula_structural   Be7Fe5Mo5W7C2
_chemical_formula_sum   'Be7 Fe5 Mo5 W7 C2'
_cell_volume   308.04691449
_cell_formula_units_Z   1
loop_
 _symmetry_equiv_pos_site_id
 _symmetry_equiv_pos_as_xyz
  1  'x, y, z'
loop_
 _atom_site_type_symbol
 _atom_site_label
 _atom_site_symmetry_multiplicity
 _atom_site_fract_x
 _atom_site_fract_y
 _atom_site_fract_z
 _atom_site_occupancy
  Be  Be0  1  0.920526  0.238752  0.921911  1
  Be  Be1  1  0.327455  0.012929  0.327560  1
  Be  Be2  1  0.330700  0.331231  0.330370  1
  Be  Be3  1  0.013047  0.327787  0.327438  1
  Be  Be4  1  0.921324  0.921152  0.239211  1
  Be  Be5  1  0.238512  0.920436  0.922175  1
  Be  Be6  1  0.327906  0.328544  0.012372  1
  Fe  Fe7  1  0.126688  0.126525  0.622836  1
  Fe  Fe8  1  0.924096  0.924008  0.923678  1
  Fe  Fe9  1  0.126428  0.622621  0.126806  1
  Fe  Fe10  1  0.124892  0.125292  0.124879  1
  Fe  Fe11  1  0.622299  0.126501  0.126815  1
  Mo  Mo12  1  0.303319  0.698699  0.698480  1
  Mo  Mo13  1  0.298561  0.298775  0.702558  1
  Mo  Mo14  1  0.548106  0.950593  0.548078  1
  Mo  Mo15  1  0.950601  0.547902  0.547930  1
  Mo  Mo16  1  0.546247  0.950803  0.950981  1
  W  W17  1  0.702514  0.298404  0.298265  1
  W  W18  1  0.950920  0.546451  0.951488  1
  W  W19  1  0.298784  0.702375  0.298667  1
  W  W20  1  0.548044  0.548117  0.951229  1
  W  W21  1  0.699200  0.302861  0.698632  1
  W  W22  1  0.699878  0.699623  0.301716  1
  W  W23  1  0.950390  0.950887  0.546954  1
  C  C24  1  0.749840  0.749474  0.750206  1
  C  C25  1  0.499723  0.499260  0.498768  1
