# generated using pymatgen
data_YbHo3(ReN3)4
_symmetry_space_group_name_H-M   'P 1'
_cell_length_a   7.36271864
_cell_length_b   7.36271761
_cell_length_c   6.26964312
_cell_angle_alpha   73.10365653
_cell_angle_beta   73.10365868
_cell_angle_gamma   82.44513893
_symmetry_Int_Tables_number   1
_chemical_formula_structural   YbHo3(ReN3)4
_chemical_formula_sum   'Yb1 Ho3 Re4 N12'
_cell_volume   310.75460081
_cell_formula_units_Z   1
loop_
 _symmetry_equiv_pos_site_id
 _symmetry_equiv_pos_as_xyz
  1  'x, y, z'
loop_
 _atom_site_type_symbol
 _atom_site_label
 _atom_site_symmetry_multiplicity
 _atom_site_fract_x
 _atom_site_fract_y
 _atom_site_fract_z
 _atom_site_occupancy
  Yb  Yb0  1  0.707626  0.292374  0.250000  1
  Ho  Ho1  1  0.908750  0.091250  0.750000  1
  Ho  Ho2  1  0.289846  0.710154  0.750000  1
  Ho  Ho3  1  0.091845  0.908155  0.250000  1
  Re  Re4  1  0.622446  0.794800  0.275735  1
  Re  Re5  1  0.205200  0.377554  0.224265  1
  Re  Re6  1  0.378723  0.202609  0.724737  1
  Re  Re7  1  0.797391  0.621277  0.775263  1
  N  N8  1  0.337230  0.364658  0.923067  1
  N  N9  1  0.010718  0.216944  0.343284  1
  N  N10  1  0.783056  0.989282  0.156716  1
  N  N11  1  0.218819  0.003122  0.840511  1
  N  N12  1  0.659505  0.643116  0.070318  1
  N  N13  1  0.876725  0.377148  0.829976  1
  N  N14  1  0.127292  0.627129  0.159939  1
  N  N15  1  0.996878  0.781181  0.659489  1
  N  N16  1  0.372871  0.872708  0.340061  1
  N  N17  1  0.635342  0.662770  0.576933  1
  N  N18  1  0.622852  0.123275  0.670024  1
  N  N19  1  0.356884  0.340495  0.429682  1
