# generated using pymatgen
data_La12Hg(OsI4)3
_symmetry_space_group_name_H-M   'P 1'
_cell_length_a   11.16755865
_cell_length_b   11.16756891
_cell_length_c   11.16726034
_cell_angle_alpha   109.98682703
_cell_angle_beta   109.98849582
_cell_angle_gamma   109.98932843
_symmetry_Int_Tables_number   1
_chemical_formula_structural   La12Hg(OsI4)3
_chemical_formula_sum   'La12 Hg1 Os3 I12'
_cell_volume   1051.09347902
_cell_formula_units_Z   1
loop_
 _symmetry_equiv_pos_site_id
 _symmetry_equiv_pos_as_xyz
  1  'x, y, z'
loop_
 _atom_site_type_symbol
 _atom_site_label
 _atom_site_symmetry_multiplicity
 _atom_site_fract_x
 _atom_site_fract_y
 _atom_site_fract_z
 _atom_site_occupancy
  La  La0  1  0.460749  0.494167  0.218821  1
  La  La1  1  0.750006  0.229454  0.270555  1
  La  La2  1  0.750011  0.022058  0.477957  1
  La  La3  1  0.218816  0.460730  0.494169  1
  La  La4  1  0.270545  0.750002  0.229448  1
  La  La5  1  0.039251  0.281182  0.005819  1
  La  La6  1  0.005836  0.039271  0.281188  1
  La  La7  1  0.477942  0.749982  0.022041  1
  La  La8  1  0.494167  0.218839  0.460749  1
  La  La9  1  0.022056  0.477939  0.750004  1
  La  La10  1  0.281174  0.005834  0.039254  1
  La  La11  1  0.229448  0.270555  0.749997  1
  Hg  Hg12  1  0.250002  0.250008  0.249993  1
  Os  Os13  1  0.499549  0.000439  0.249995  1
  Os  Os14  1  0.000491  0.250032  0.499598  1
  Os  Os15  1  0.249974  0.499512  0.000412  1
  I  I16  1  0.249999  0.760083  0.739913  1
  I  I17  1  0.514869  0.506886  0.757382  1
  I  I18  1  0.985130  0.742619  0.993115  1
  I  I19  1  0.739905  0.249999  0.760093  1
  I  I20  1  0.993118  0.985135  0.742623  1
  I  I21  1  0.249999  0.993023  0.506976  1
  I  I22  1  0.757382  0.514874  0.506884  1
  I  I23  1  0.506976  0.250003  0.993022  1
  I  I24  1  0.760091  0.739907  0.250000  1
  I  I25  1  0.742616  0.993116  0.985130  1
  I  I26  1  0.993020  0.506976  0.249996  1
  I  I27  1  0.506880  0.757377  0.514866  1
