# generated using pymatgen
data_Tb2UIn3Ir2Pt
_symmetry_space_group_name_H-M   'P 1'
_cell_length_a   7.55730181
_cell_length_b   7.55730350
_cell_length_c   3.85759300
_cell_angle_alpha   90.00000000
_cell_angle_beta   90.00000000
_cell_angle_gamma   117.94134469
_symmetry_Int_Tables_number   1
_chemical_formula_structural   Tb2UIn3Ir2Pt
_chemical_formula_sum   'Tb2 U1 In3 Ir2 Pt1'
_cell_volume   194.63505776
_cell_formula_units_Z   1
loop_
 _symmetry_equiv_pos_site_id
 _symmetry_equiv_pos_as_xyz
  1  'x, y, z'
loop_
 _atom_site_type_symbol
 _atom_site_label
 _atom_site_symmetry_multiplicity
 _atom_site_fract_x
 _atom_site_fract_y
 _atom_site_fract_z
 _atom_site_occupancy
  Tb  Tb0  1  0.592449  0.999266  0.000000  1
  Tb  Tb1  1  0.999266  0.592449  0.000000  1
  U  U2  1  0.418651  0.418651  0.000000  1
  In  In3  1  0.987447  0.260451  0.500000  1
  In  In4  1  0.755628  0.755628  0.500000  1
  In  In5  1  0.260451  0.987447  0.500000  1
  Ir  Ir6  1  0.339642  0.632893  0.500000  1
  Ir  Ir7  1  0.632893  0.339642  0.500000  1
  Pt  Pt8  1  0.013575  0.013575  0.000000  1
