# generated using pymatgen
data_TbEr7Be3Si12Pd
_symmetry_space_group_name_H-M   'P 1'
_cell_length_a   7.92449600
_cell_length_b   7.92449527
_cell_length_c   7.98586700
_cell_angle_alpha   90.00000000
_cell_angle_beta   90.00000000
_cell_angle_gamma   120.00000307
_symmetry_Int_Tables_number   1
_chemical_formula_structural   TbEr7Be3Si12Pd
_chemical_formula_sum   'Tb1 Er7 Be3 Si12 Pd1'
_cell_volume   434.30612283
_cell_formula_units_Z   1
loop_
 _symmetry_equiv_pos_site_id
 _symmetry_equiv_pos_as_xyz
  1  'x, y, z'
loop_
 _atom_site_type_symbol
 _atom_site_label
 _atom_site_symmetry_multiplicity
 _atom_site_fract_x
 _atom_site_fract_y
 _atom_site_fract_z
 _atom_site_occupancy
  Tb  Tb0  1  0.000000  0.000000  0.751123  1
  Er  Er1  1  0.501389  0.002778  0.247849  1
  Er  Er2  1  0.502191  0.004383  0.752029  1
  Er  Er3  1  0.997222  0.498611  0.247849  1
  Er  Er4  1  0.995617  0.497809  0.752029  1
  Er  Er5  1  0.501389  0.498611  0.247849  1
  Er  Er6  1  0.502191  0.497809  0.752029  1
  Er  Er7  1  0.000000  0.000000  0.248843  1
  Be  Be8  1  0.333333  0.666667  0.001496  1
  Be  Be9  1  0.666667  0.333333  0.001258  1
  Be  Be10  1  0.666667  0.333333  0.497754  1
  Si  Si11  1  0.172501  0.345002  0.000087  1
  Si  Si12  1  0.826691  0.653383  0.001031  1
  Si  Si13  1  0.654998  0.827499  0.000087  1
  Si  Si14  1  0.827772  0.655544  0.499335  1
  Si  Si15  1  0.346617  0.173309  0.001031  1
  Si  Si16  1  0.166097  0.332193  0.498590  1
  Si  Si17  1  0.172501  0.827499  0.000087  1
  Si  Si18  1  0.344456  0.172228  0.499335  1
  Si  Si19  1  0.826691  0.173309  0.001031  1
  Si  Si20  1  0.667807  0.833903  0.498590  1
  Si  Si21  1  0.827772  0.172228  0.499335  1
  Si  Si22  1  0.166097  0.833903  0.498590  1
  Pd  Pd23  1  0.333333  0.666667  0.502765  1
