# generated using pymatgen
data_CeTm(AlIr)2
_symmetry_space_group_name_H-M   'P 1'
_cell_length_a   6.81551600
_cell_length_b   4.29595000
_cell_length_c   7.90645900
_cell_angle_alpha   90.00000000
_cell_angle_beta   90.00000000
_cell_angle_gamma   90.00000000
_symmetry_Int_Tables_number   1
_chemical_formula_structural   CeTm(AlIr)2
_chemical_formula_sum   'Ce2 Tm2 Al4 Ir4'
_cell_volume   231.49412990
_cell_formula_units_Z   2
loop_
 _symmetry_equiv_pos_site_id
 _symmetry_equiv_pos_as_xyz
  1  'x, y, z'
loop_
 _atom_site_type_symbol
 _atom_site_label
 _atom_site_symmetry_multiplicity
 _atom_site_fract_x
 _atom_site_fract_y
 _atom_site_fract_z
 _atom_site_occupancy
  Ce  Ce0  1  0.033036  0.750000  0.822371  1
  Ce  Ce1  1  0.533036  0.750000  0.677629  1
  Tm  Tm2  1  0.964999  0.250000  0.185317  1
  Tm  Tm3  1  0.464999  0.250000  0.314683  1
  Al  Al4  1  0.862866  0.250000  0.556335  1
  Al  Al5  1  0.362866  0.250000  0.943665  1
  Al  Al6  1  0.138606  0.750000  0.432839  1
  Al  Al7  1  0.638606  0.750000  0.067161  1
  Ir  Ir8  1  0.738683  0.250000  0.878402  1
  Ir  Ir9  1  0.238683  0.250000  0.621598  1
  Ir  Ir10  1  0.261811  0.750000  0.116720  1
  Ir  Ir11  1  0.761811  0.750000  0.383280  1
