# generated using pymatgen
data_KZrTlTe3
_symmetry_space_group_name_H-M   'P 1'
_cell_length_a   14.56836600
_cell_length_b   6.83695583
_cell_length_c   9.50815900
_cell_angle_alpha   70.68166588
_cell_angle_beta   90.00000000
_cell_angle_gamma   90.00000000
_symmetry_Int_Tables_number   1
_chemical_formula_structural   KZrTlTe3
_chemical_formula_sum   'K4 Zr4 Tl4 Te12'
_cell_volume   893.72060864
_cell_formula_units_Z   4
loop_
 _symmetry_equiv_pos_site_id
 _symmetry_equiv_pos_as_xyz
  1  'x, y, z'
loop_
 _atom_site_type_symbol
 _atom_site_label
 _atom_site_symmetry_multiplicity
 _atom_site_fract_x
 _atom_site_fract_y
 _atom_site_fract_z
 _atom_site_occupancy
  K  K0  1  0.956164  0.660628  0.662839  1
  K  K1  1  0.456164  0.839372  0.337161  1
  K  K2  1  0.043836  0.339372  0.337161  1
  K  K3  1  0.543836  0.160628  0.662839  1
  Zr  Zr4  1  0.748207  0.676659  0.290487  1
  Zr  Zr5  1  0.248207  0.823341  0.709513  1
  Zr  Zr6  1  0.251793  0.323341  0.709513  1
  Zr  Zr7  1  0.751793  0.176659  0.290487  1
  Tl  Tl8  1  0.857062  0.051235  0.914744  1
  Tl  Tl9  1  0.357062  0.448765  0.085256  1
  Tl  Tl10  1  0.142938  0.948765  0.085256  1
  Tl  Tl11  1  0.642938  0.551235  0.914744  1
  Te  Te12  1  0.913718  0.915279  0.264448  1
  Te  Te13  1  0.413718  0.584721  0.735552  1
  Te  Te14  1  0.086282  0.084721  0.735552  1
  Te  Te15  1  0.586282  0.415279  0.264448  1
  Te  Te16  1  0.820104  0.302529  0.523554  1
  Te  Te17  1  0.320104  0.197471  0.476446  1
  Te  Te18  1  0.179896  0.697471  0.476446  1
  Te  Te19  1  0.679896  0.802529  0.523554  1
  Te  Te20  1  0.846851  0.506442  0.062900  1
  Te  Te21  1  0.346851  0.993558  0.937100  1
  Te  Te22  1  0.153149  0.493558  0.937100  1
  Te  Te23  1  0.653149  0.006442  0.062900  1
