# generated using pymatgen
data_TbU4O10
_symmetry_space_group_name_H-M   'P 1'
_cell_length_a   6.61798558
_cell_length_b   6.61798595
_cell_length_c   6.61798540
_cell_angle_alpha   99.59725820
_cell_angle_beta   99.59725030
_cell_angle_gamma   131.80188297
_symmetry_Int_Tables_number   1
_chemical_formula_structural   TbU4O10
_chemical_formula_sum   'Tb1 U4 O10'
_cell_volume   197.23930390
_cell_formula_units_Z   1
loop_
 _symmetry_equiv_pos_site_id
 _symmetry_equiv_pos_as_xyz
  1  'x, y, z'
loop_
 _atom_site_type_symbol
 _atom_site_label
 _atom_site_symmetry_multiplicity
 _atom_site_fract_x
 _atom_site_fract_y
 _atom_site_fract_z
 _atom_site_occupancy
  Tb  Tb0  1  0.500000  0.500000  0.000000  1
  U  U1  1  0.898208  0.700553  0.598761  1
  U  U2  1  0.101792  0.299447  0.401239  1
  U  U3  1  0.700553  0.101792  0.802345  1
  U  U4  1  0.299447  0.898208  0.197655  1
  O  O5  1  0.043003  0.147048  0.695980  1
  O  O6  1  0.548932  0.652976  0.695980  1
  O  O7  1  0.250000  0.750000  0.500000  1
  O  O8  1  0.451068  0.347024  0.304020  1
  O  O9  1  0.750000  0.250000  0.500000  1
  O  O10  1  0.347024  0.043003  0.895956  1
  O  O11  1  0.852952  0.548932  0.895956  1
  O  O12  1  0.956997  0.852952  0.304020  1
  O  O13  1  0.147048  0.451068  0.104044  1
  O  O14  1  0.652976  0.956997  0.104044  1
