# generated using pymatgen
data_Dy3In3RuRhAu
_symmetry_space_group_name_H-M   'P 1'
_cell_length_a   7.73283000
_cell_length_b   7.73283104
_cell_length_c   3.84701000
_cell_angle_alpha   90.00000000
_cell_angle_beta   90.00000000
_cell_angle_gamma   119.99998700
_symmetry_Int_Tables_number   1
_chemical_formula_structural   Dy3In3RuRhAu
_chemical_formula_sum   'Dy3 In3 Ru1 Rh1 Au1'
_cell_volume   199.21910629
_cell_formula_units_Z   1
loop_
 _symmetry_equiv_pos_site_id
 _symmetry_equiv_pos_as_xyz
  1  'x, y, z'
loop_
 _atom_site_type_symbol
 _atom_site_label
 _atom_site_symmetry_multiplicity
 _atom_site_fract_x
 _atom_site_fract_y
 _atom_site_fract_z
 _atom_site_occupancy
  Dy  Dy0  1  0.024780  0.609995  0.500000  1
  Dy  Dy1  1  0.585215  0.975220  0.500000  1
  Dy  Dy2  1  0.390005  0.414785  0.500000  1
  In  In3  1  0.004781  0.259913  0.000000  1
  In  In4  1  0.255132  0.995219  0.000000  1
  In  In5  1  0.740087  0.744868  0.000000  1
  Ru  Ru6  1  0.333333  0.666667  0.000000  1
  Rh  Rh7  1  0.000000  0.000000  0.500000  1
  Au  Au8  1  0.666667  0.333333  0.000000  1
