# generated using pymatgen
data_YHo3(Si3Rh)2
_symmetry_space_group_name_H-M   'P 1'
_cell_length_a   8.16972200
_cell_length_b   8.16972131
_cell_length_c   7.87679300
_cell_angle_alpha   90.00000000
_cell_angle_beta   90.00000000
_cell_angle_gamma   120.00000278
_symmetry_Int_Tables_number   1
_chemical_formula_structural   YHo3(Si3Rh)2
_chemical_formula_sum   'Y2 Ho6 Si12 Rh4'
_cell_volume   455.29677344
_cell_formula_units_Z   2
loop_
 _symmetry_equiv_pos_site_id
 _symmetry_equiv_pos_as_xyz
  1  'x, y, z'
loop_
 _atom_site_type_symbol
 _atom_site_label
 _atom_site_symmetry_multiplicity
 _atom_site_fract_x
 _atom_site_fract_y
 _atom_site_fract_z
 _atom_site_occupancy
  Y  Y0  1  0.000000  0.000000  0.250000  1
  Y  Y1  1  0.000000  0.000000  0.750000  1
  Ho  Ho2  1  0.508969  0.491031  0.250000  1
  Ho  Ho3  1  0.508969  0.017937  0.250000  1
  Ho  Ho4  1  0.982063  0.491031  0.250000  1
  Ho  Ho5  1  0.491031  0.508969  0.750000  1
  Ho  Ho6  1  0.491031  0.982063  0.750000  1
  Ho  Ho7  1  0.017937  0.508969  0.750000  1
  Si  Si8  1  0.167056  0.832944  0.499469  1
  Si  Si9  1  0.167056  0.334110  0.499469  1
  Si  Si10  1  0.665890  0.832944  0.499469  1
  Si  Si11  1  0.832944  0.167056  0.500531  1
  Si  Si12  1  0.832944  0.665890  0.500531  1
  Si  Si13  1  0.334110  0.167056  0.500531  1
  Si  Si14  1  0.832944  0.167056  0.999469  1
  Si  Si15  1  0.832944  0.665890  0.999469  1
  Si  Si16  1  0.334110  0.167056  0.999469  1
  Si  Si17  1  0.167056  0.832944  0.000531  1
  Si  Si18  1  0.167056  0.334110  0.000531  1
  Si  Si19  1  0.665890  0.832944  0.000531  1
  Rh  Rh20  1  0.333333  0.666667  0.466445  1
  Rh  Rh21  1  0.666667  0.333333  0.533555  1
  Rh  Rh22  1  0.666667  0.333333  0.966445  1
  Rh  Rh23  1  0.333333  0.666667  0.033555  1
