# generated using pymatgen
data_YbY(OsO3)6
_symmetry_space_group_name_H-M   'P 1'
_cell_length_a   7.37985900
_cell_length_b   5.22708439
_cell_length_c   8.18540556
_cell_angle_alpha   85.64932390
_cell_angle_beta   90.00000000
_cell_angle_gamma   90.00000000
_symmetry_Int_Tables_number   1
_chemical_formula_structural   YbY(OsO3)6
_chemical_formula_sum   'Yb1 Y1 Os6 O18'
_cell_volume   314.84334689
_cell_formula_units_Z   1
loop_
 _symmetry_equiv_pos_site_id
 _symmetry_equiv_pos_as_xyz
  1  'x, y, z'
loop_
 _atom_site_type_symbol
 _atom_site_label
 _atom_site_symmetry_multiplicity
 _atom_site_fract_x
 _atom_site_fract_y
 _atom_site_fract_z
 _atom_site_occupancy
  Yb  Yb0  1  0.250000  0.968173  0.429817  1
  Y  Y1  1  0.750000  0.033425  0.569379  1
  Os  Os2  1  0.999941  0.003546  0.000977  1
  Os  Os3  1  0.500059  0.003546  0.000977  1
  Os  Os4  1  0.495274  0.540285  0.691502  1
  Os  Os5  1  0.004726  0.540285  0.691502  1
  Os  Os6  1  0.998422  0.462661  0.307371  1
  Os  Os7  1  0.501578  0.462661  0.307371  1
  O  O8  1  0.250000  0.908629  0.984477  1
  O  O9  1  0.935835  0.854246  0.787807  1
  O  O10  1  0.564165  0.854246  0.787807  1
  O  O11  1  0.957370  0.733946  0.472233  1
  O  O12  1  0.542630  0.733946  0.472233  1
  O  O13  1  0.250000  0.648306  0.668963  1
  O  O14  1  0.956515  0.688817  0.123464  1
  O  O15  1  0.543485  0.688817  0.123464  1
  O  O16  1  0.250000  0.569456  0.309038  1
  O  O17  1  0.750000  0.416900  0.691180  1
  O  O18  1  0.042325  0.316387  0.877894  1
  O  O19  1  0.457675  0.316387  0.877894  1
  O  O20  1  0.750000  0.334614  0.332312  1
  O  O21  1  0.036394  0.263837  0.528170  1
  O  O22  1  0.463606  0.263837  0.528170  1
  O  O23  1  0.063457  0.151980  0.210203  1
  O  O24  1  0.436543  0.151980  0.210203  1
  O  O25  1  0.750000  0.089086  0.015592  1
