# generated using pymatgen
data_Dy4Ho3Er(ReB6)4
_symmetry_space_group_name_H-M   'P 1'
_cell_length_a   3.67527000
_cell_length_b   9.15625200
_cell_length_c   11.54153700
_cell_angle_alpha   90.00185444
_cell_angle_beta   90.00000000
_cell_angle_gamma   90.00000000
_symmetry_Int_Tables_number   1
_chemical_formula_structural   Dy4Ho3Er(ReB6)4
_chemical_formula_sum   'Dy4 Ho3 Er1 Re4 B24'
_cell_volume   388.39232080
_cell_formula_units_Z   1
loop_
 _symmetry_equiv_pos_site_id
 _symmetry_equiv_pos_as_xyz
  1  'x, y, z'
loop_
 _atom_site_type_symbol
 _atom_site_label
 _atom_site_symmetry_multiplicity
 _atom_site_fract_x
 _atom_site_fract_y
 _atom_site_fract_z
 _atom_site_occupancy
  Dy  Dy0  1  0.000000  0.323644  0.413894  1
  Dy  Dy1  1  0.000000  0.676346  0.586193  1
  Dy  Dy2  1  0.000000  0.823574  0.086080  1
  Dy  Dy3  1  0.000000  0.176422  0.913845  1
  Ho  Ho4  1  0.000000  0.943346  0.370070  1
  Ho  Ho5  1  0.000000  0.056650  0.629973  1
  Ho  Ho6  1  0.000000  0.443410  0.129799  1
  Er  Er7  1  0.000000  0.556713  0.869977  1
  Re  Re8  1  0.000000  0.638957  0.320698  1
  Re  Re9  1  0.000000  0.361219  0.679451  1
  Re  Re10  1  0.000000  0.138992  0.179238  1
  Re  Re11  1  0.000000  0.860738  0.820742  1
  B  B12  1  0.500000  0.553529  0.432823  1
  B  B13  1  0.500000  0.446481  0.567241  1
  B  B14  1  0.500000  0.053508  0.067160  1
  B  B15  1  0.500000  0.946398  0.932795  1
  B  B16  1  0.500000  0.749439  0.418627  1
  B  B17  1  0.500000  0.250592  0.581404  1
  B  B18  1  0.500000  0.249460  0.081370  1
  B  B19  1  0.500000  0.750242  0.918608  1
  B  B20  1  0.500000  0.792360  0.265703  1
  B  B21  1  0.500000  0.207725  0.734330  1
  B  B22  1  0.500000  0.292367  0.234310  1
  B  B23  1  0.500000  0.707378  0.765775  1
  B  B24  1  0.500000  0.631038  0.185695  1
  B  B25  1  0.500000  0.369186  0.814427  1
  B  B26  1  0.500000  0.131066  0.314293  1
  B  B27  1  0.500000  0.868870  0.685766  1
  B  B28  1  0.500000  0.982556  0.212054  1
  B  B29  1  0.500000  0.017394  0.787962  1
  B  B30  1  0.500000  0.482566  0.287949  1
  B  B31  1  0.500000  0.517583  0.712243  1
  B  B32  1  0.500000  0.599749  0.027623  1
  B  B33  1  0.500000  0.400503  0.971866  1
  B  B34  1  0.500000  0.099843  0.472082  1
  B  B35  1  0.500000  0.900155  0.527936  1
