# generated using pymatgen
data_Ti3F10
_symmetry_space_group_name_H-M   'P 1'
_cell_length_a   3.93805881
_cell_length_b   3.93864629
_cell_length_c   12.44748124
_cell_angle_alpha   80.89696363
_cell_angle_beta   80.89831818
_cell_angle_gamma   89.99999890
_symmetry_Int_Tables_number   1
_chemical_formula_structural   Ti3F10
_chemical_formula_sum   'Ti3 F10'
_cell_volume   188.17424983
_cell_formula_units_Z   1
loop_
 _symmetry_equiv_pos_site_id
 _symmetry_equiv_pos_as_xyz
  1  'x, y, z'
loop_
 _atom_site_type_symbol
 _atom_site_label
 _atom_site_symmetry_multiplicity
 _atom_site_fract_x
 _atom_site_fract_y
 _atom_site_fract_z
 _atom_site_occupancy
  Ti  Ti0  1  0.164464  0.164464  0.671073  1
  Ti  Ti1  1  0.835536  0.835536  0.328927  1
  Ti  Ti2  1  0.000000  0.000000  0.000000  1
  F  F3  1  0.081145  0.081145  0.837712  1
  F  F4  1  0.918855  0.918855  0.162288  1
  F  F5  1  0.158066  0.658066  0.683869  1
  F  F6  1  0.841934  0.341934  0.316131  1
  F  F7  1  0.500000  0.000000  0.000000  1
  F  F8  1  0.237391  0.237391  0.525219  1
  F  F9  1  0.762609  0.762609  0.474781  1
  F  F10  1  0.658103  0.158103  0.683793  1
  F  F11  1  0.341897  0.841897  0.316207  1
  F  F12  1  0.000000  0.500000  0.000000  1
