# generated using pymatgen
data_Pr10Sn6PAu
_symmetry_space_group_name_H-M   'P 1'
_cell_length_a   9.52937200
_cell_length_b   9.52937216
_cell_length_c   7.01933500
_cell_angle_alpha   90.00000000
_cell_angle_beta   90.00000000
_cell_angle_gamma   119.99999249
_symmetry_Int_Tables_number   1
_chemical_formula_structural   Pr10Sn6PAu
_chemical_formula_sum   'Pr10 Sn6 P1 Au1'
_cell_volume   552.02049678
_cell_formula_units_Z   1
loop_
 _symmetry_equiv_pos_site_id
 _symmetry_equiv_pos_as_xyz
  1  'x, y, z'
loop_
 _atom_site_type_symbol
 _atom_site_label
 _atom_site_symmetry_multiplicity
 _atom_site_fract_x
 _atom_site_fract_y
 _atom_site_fract_z
 _atom_site_occupancy
  Pr  Pr0  1  0.252251  0.000000  0.732863  1
  Pr  Pr1  1  0.747749  0.000000  0.267137  1
  Pr  Pr2  1  0.000000  0.252251  0.732863  1
  Pr  Pr3  1  0.000000  0.747749  0.267137  1
  Pr  Pr4  1  0.747749  0.747749  0.732863  1
  Pr  Pr5  1  0.252251  0.252251  0.267137  1
  Pr  Pr6  1  0.333333  0.666667  0.500000  1
  Pr  Pr7  1  0.666667  0.333333  0.500000  1
  Pr  Pr8  1  0.666667  0.333333  0.000000  1
  Pr  Pr9  1  0.333333  0.666667  0.000000  1
  Sn  Sn10  1  0.607131  0.000000  0.749302  1
  Sn  Sn11  1  0.392869  0.000000  0.250698  1
  Sn  Sn12  1  0.000000  0.607131  0.749302  1
  Sn  Sn13  1  0.000000  0.392869  0.250698  1
  Sn  Sn14  1  0.392869  0.392869  0.749302  1
  Sn  Sn15  1  0.607131  0.607131  0.250698  1
  P  P16  1  0.000000  0.000000  0.500000  1
  Au  Au17  1  0.000000  0.000000  0.000000  1
