# generated using pymatgen
data_PrPb6BrO7
_symmetry_space_group_name_H-M   'P 1'
_cell_length_a   10.58736346
_cell_length_b   10.58736374
_cell_length_c   9.60440761
_cell_angle_alpha   62.69099436
_cell_angle_beta   117.30900595
_cell_angle_gamma   134.22318876
_symmetry_Int_Tables_number   1
_chemical_formula_structural   PrPb6BrO7
_chemical_formula_sum   'Pr2 Pb12 Br2 O14'
_cell_volume   669.03388430
_cell_formula_units_Z   2
loop_
 _symmetry_equiv_pos_site_id
 _symmetry_equiv_pos_as_xyz
  1  'x, y, z'
loop_
 _atom_site_type_symbol
 _atom_site_label
 _atom_site_symmetry_multiplicity
 _atom_site_fract_x
 _atom_site_fract_y
 _atom_site_fract_z
 _atom_site_occupancy
  Pr  Pr0  1  0.499999  0.999999  0.000000  1
  Pr  Pr1  1  0.999999  0.499999  0.000000  1
  Pb  Pb2  1  0.364705  0.106635  0.544487  1
  Pb  Pb3  1  0.106635  0.364705  0.455514  1
  Pb  Pb4  1  0.635294  0.893364  0.455514  1
  Pb  Pb5  1  0.893364  0.635294  0.544487  1
  Pb  Pb6  1  0.563698  0.436303  0.755963  1
  Pb  Pb7  1  0.436303  0.563698  0.244037  1
  Pb  Pb8  1  0.338061  0.661940  0.784591  1
  Pb  Pb9  1  0.661940  0.338061  0.215409  1
  Pb  Pb10  1  0.794796  0.205205  0.722164  1
  Pb  Pb11  1  0.205206  0.794796  0.277836  1
  Pb  Pb12  1  0.056758  0.943244  0.817824  1
  Pb  Pb13  1  0.943244  0.056757  0.182176  1
  Br  Br14  1  0.734389  0.734389  0.000000  1
  Br  Br15  1  0.265610  0.265610  0.000000  1
  O  O16  1  0.182532  0.817469  0.028564  1
  O  O17  1  0.817470  0.182532  0.971436  1
  O  O18  1  0.650378  0.349624  0.612212  1
  O  O19  1  0.349624  0.650378  0.387789  1
  O  O20  1  0.332842  0.114686  0.752035  1
  O  O21  1  0.114686  0.332842  0.247965  1
  O  O22  1  0.667158  0.885314  0.247965  1
  O  O23  1  0.885315  0.667158  0.752035  1
  O  O24  1  0.475908  0.965288  0.733917  1
  O  O25  1  0.965288  0.475908  0.266082  1
  O  O26  1  0.524091  0.034711  0.266082  1
  O  O27  1  0.034711  0.524091  0.733917  1
  O  O28  1  0.672643  0.327359  0.991336  1
  O  O29  1  0.327359  0.672643  0.008664  1
