# generated using pymatgen
data_Y4Er7LuCo5Bi
_symmetry_space_group_name_H-M   'P 1'
_cell_length_a   8.27262934
_cell_length_b   8.27534965
_cell_length_c   8.27529004
_cell_angle_alpha   110.92065262
_cell_angle_beta   110.60032526
_cell_angle_gamma   106.93494924
_symmetry_Int_Tables_number   1
_chemical_formula_structural   Y4Er7LuCo5Bi
_chemical_formula_sum   'Y4 Er7 Lu1 Co5 Bi1'
_cell_volume   435.39429347
_cell_formula_units_Z   1
loop_
 _symmetry_equiv_pos_site_id
 _symmetry_equiv_pos_as_xyz
  1  'x, y, z'
loop_
 _atom_site_type_symbol
 _atom_site_label
 _atom_site_symmetry_multiplicity
 _atom_site_fract_x
 _atom_site_fract_y
 _atom_site_fract_z
 _atom_site_occupancy
  Y  Y0  1  0.287950  0.185297  0.472447  1
  Y  Y1  1  0.712326  0.814292  0.527111  1
  Y  Y2  1  0.287936  0.815481  0.102631  1
  Y  Y3  1  0.712299  0.185204  0.897993  1
  Er  Er4  1  0.377884  0.688356  0.689524  1
  Er  Er5  1  0.000733  0.311522  0.689202  1
  Er  Er6  1  0.998498  0.688141  0.310350  1
  Er  Er7  1  0.208355  0.402240  0.194461  1
  Er  Er8  1  0.791766  0.597279  0.804945  1
  Er  Er9  1  0.208377  0.013934  0.806142  1
  Er  Er10  1  0.791782  0.986879  0.194510  1
  Lu  Lu11  1  0.623251  0.311854  0.311400  1
  Co  Co12  1  0.999291  0.375200  0.375300  1
  Co  Co13  1  0.999295  0.623951  0.624052  1
  Co  Co14  1  0.388165  0.888124  0.500043  1
  Co  Co15  1  0.612166  0.112394  0.499775  1
  Co  Co16  1  0.999874  0.999970  0.999944  1
  Bi  Bi17  1  0.500053  0.499882  0.000170  1
