# generated using pymatgen
data_LaLuV6O18
_symmetry_space_group_name_H-M   'P 1'
_cell_length_a   8.53363956
_cell_length_b   8.58059458
_cell_length_c   10.99970085
_cell_angle_alpha   57.29735354
_cell_angle_beta   122.25292245
_cell_angle_gamma   127.89344748
_symmetry_Int_Tables_number   1
_chemical_formula_structural   LaLuV6O18
_chemical_formula_sum   'La1 Lu1 V6 O18'
_cell_volume   509.56142841
_cell_formula_units_Z   1
loop_
 _symmetry_equiv_pos_site_id
 _symmetry_equiv_pos_as_xyz
  1  'x, y, z'
loop_
 _atom_site_type_symbol
 _atom_site_label
 _atom_site_symmetry_multiplicity
 _atom_site_fract_x
 _atom_site_fract_y
 _atom_site_fract_z
 _atom_site_occupancy
  La  La0  1  0.384099  0.127210  0.355072  1
  Lu  Lu1  1  0.868932  0.611570  0.853084  1
  V  V2  1  0.666536  0.132831  0.174433  1
  V  V3  1  0.890934  0.352388  0.686295  1
  V  V4  1  0.068498  0.096609  0.528158  1
  V  V5  1  0.883443  0.909872  0.016464  1
  V  V6  1  0.329613  0.569131  0.601436  1
  V  V7  1  0.418286  0.686642  0.085072  1
  O  O8  1  0.858427  0.088076  0.353565  1
  O  O9  1  0.922876  0.146550  0.859053  1
  O  O10  1  0.227139  0.047373  0.522084  1
  O  O11  1  0.927724  0.759226  0.996167  1
  O  O12  1  0.978266  0.917879  0.678994  1
  O  O13  1  0.049566  0.968826  0.179098  1
  O  O14  1  0.207461  0.357039  0.535009  1
  O  O15  1  0.616558  0.781346  0.011146  1
  O  O16  1  0.545851  0.221041  0.185771  1
  O  O17  1  0.803507  0.468303  0.703998  1
  O  O18  1  0.481776  0.886222  0.140221  1
  O  O19  1  0.144338  0.534284  0.658258  1
  O  O20  1  0.389453  0.800018  0.462046  1
  O  O21  1  0.181848  0.632892  0.952901  1
  O  O22  1  0.411186  0.470046  0.236275  1
  O  O23  1  0.547674  0.569877  0.747784  1
  O  O24  1  0.719570  0.255848  0.540041  1
  O  O25  1  0.777041  0.308307  0.033369  1
