# generated using pymatgen
data_ErTmCo3Si4Rh3
_symmetry_space_group_name_H-M   'P 1'
_cell_length_a   6.43611181
_cell_length_b   6.49708240
_cell_length_c   6.43538251
_cell_angle_alpha   131.40842446
_cell_angle_beta   114.02171855
_cell_angle_gamma   85.75200808
_symmetry_Int_Tables_number   1
_chemical_formula_structural   ErTmCo3Si4Rh3
_chemical_formula_sum   'Er1 Tm1 Co3 Si4 Rh3'
_cell_volume   176.70912298
_cell_formula_units_Z   1
loop_
 _symmetry_equiv_pos_site_id
 _symmetry_equiv_pos_as_xyz
  1  'x, y, z'
loop_
 _atom_site_type_symbol
 _atom_site_label
 _atom_site_symmetry_multiplicity
 _atom_site_fract_x
 _atom_site_fract_y
 _atom_site_fract_z
 _atom_site_occupancy
  Er  Er0  1  0.249652  0.963082  0.716714  1
  Tm  Tm1  1  0.753704  0.038088  0.287698  1
  Co  Co2  1  0.217255  0.499441  0.717122  1
  Co  Co3  1  0.780185  0.499522  0.280119  1
  Co  Co4  1  0.718421  0.999926  0.717908  1
  Si  Si5  1  0.577193  0.378903  0.810540  1
  Si  Si6  1  0.923038  0.723999  0.789287  1
  Si  Si7  1  0.431807  0.621503  0.198605  1
  Si  Si8  1  0.065076  0.276051  0.199205  1
  Rh  Rh9  1  0.501464  0.510722  0.509980  1
  Rh  Rh10  1  0.998379  0.488800  0.989488  1
  Rh  Rh11  1  0.283828  0.999964  0.283332  1
