# generated using pymatgen
data_La4Ga4Co12B3C
_symmetry_space_group_name_H-M   'P 1'
_cell_length_a   5.25641000
_cell_length_b   5.25640949
_cell_length_c   13.35447800
_cell_angle_alpha   90.00000000
_cell_angle_beta   90.00000000
_cell_angle_gamma   120.00000323
_symmetry_Int_Tables_number   1
_chemical_formula_structural   La4Ga4Co12B3C
_chemical_formula_sum   'La4 Ga4 Co12 B3 C1'
_cell_volume   319.54789265
_cell_formula_units_Z   1
loop_
 _symmetry_equiv_pos_site_id
 _symmetry_equiv_pos_as_xyz
  1  'x, y, z'
loop_
 _atom_site_type_symbol
 _atom_site_label
 _atom_site_symmetry_multiplicity
 _atom_site_fract_x
 _atom_site_fract_y
 _atom_site_fract_z
 _atom_site_occupancy
  La  La0  1  0.666667  0.333333  0.250314  1
  La  La1  1  0.666667  0.333333  0.749686  1
  La  La2  1  0.666667  0.333333  0.000000  1
  La  La3  1  0.666667  0.333333  0.500000  1
  Ga  Ga4  1  0.000000  0.000000  0.750508  1
  Ga  Ga5  1  0.000000  0.000000  0.249492  1
  Ga  Ga6  1  0.333333  0.666667  0.247476  1
  Ga  Ga7  1  0.333333  0.666667  0.752524  1
  Co  Co8  1  0.672721  0.836361  0.098447  1
  Co  Co9  1  0.666037  0.833018  0.602545  1
  Co  Co10  1  0.163639  0.836361  0.098447  1
  Co  Co11  1  0.166982  0.833018  0.602545  1
  Co  Co12  1  0.163639  0.327279  0.098447  1
  Co  Co13  1  0.166982  0.333963  0.602545  1
  Co  Co14  1  0.672721  0.836361  0.901553  1
  Co  Co15  1  0.666037  0.833018  0.397455  1
  Co  Co16  1  0.163639  0.836361  0.901553  1
  Co  Co17  1  0.166982  0.833018  0.397455  1
  Co  Co18  1  0.163639  0.327279  0.901553  1
  Co  Co19  1  0.166982  0.333963  0.397455  1
  B  B20  1  0.000000  0.000000  0.500000  1
  B  B21  1  0.333333  0.666667  0.000000  1
  B  B22  1  0.333333  0.666667  0.500000  1
  C  C23  1  0.000000  0.000000  0.000000  1
