# generated using pymatgen
data_Sr8Mn3NbO16
_symmetry_space_group_name_H-M   'P 1'
_cell_length_a   5.56736198
_cell_length_b   8.85166321
_cell_length_c   8.85160788
_cell_angle_alpha   89.23796845
_cell_angle_beta   71.90139256
_cell_angle_gamma   108.09828922
_symmetry_Int_Tables_number   1
_chemical_formula_structural   Sr8Mn3NbO16
_chemical_formula_sum   'Sr8 Mn3 Nb1 O16'
_cell_volume   391.19350673
_cell_formula_units_Z   1
loop_
 _symmetry_equiv_pos_site_id
 _symmetry_equiv_pos_as_xyz
  1  'x, y, z'
loop_
 _atom_site_type_symbol
 _atom_site_label
 _atom_site_symmetry_multiplicity
 _atom_site_fract_x
 _atom_site_fract_y
 _atom_site_fract_z
 _atom_site_occupancy
  Sr  Sr0  1  0.258489  0.403980  0.886324  1
  Sr  Sr1  1  0.000294  0.639549  0.639371  1
  Sr  Sr2  1  0.741893  0.886717  0.403907  1
  Sr  Sr3  1  0.499850  0.147979  0.148180  1
  Sr  Sr4  1  0.000319  0.360654  0.360426  1
  Sr  Sr5  1  0.741927  0.596131  0.113253  1
  Sr  Sr6  1  0.499768  0.851746  0.852095  1
  Sr  Sr7  1  0.258522  0.113705  0.595981  1
  Mn  Mn8  1  0.500154  0.500149  0.499853  1
  Mn  Mn9  1  0.249186  0.747586  0.252459  1
  Mn  Mn10  1  0.750838  0.252462  0.747493  1
  Nb  Nb11  1  0.999869  0.999942  0.000059  1
  O  O12  1  0.254788  0.595154  0.089591  1
  O  O13  1  0.999412  0.837970  0.839185  1
  O  O14  1  0.745141  0.089775  0.595171  1
  O  O15  1  0.499978  0.343245  0.343057  1
  O  O16  1  0.999591  0.161018  0.161827  1
  O  O17  1  0.745041  0.404708  0.910286  1
  O  O18  1  0.499985  0.656950  0.656748  1
  O  O19  1  0.254708  0.910345  0.404969  1
  O  O20  1  0.868730  0.125281  0.874609  1
  O  O21  1  0.623447  0.371419  0.628593  1
  O  O22  1  0.377134  0.628845  0.371135  1
  O  O23  1  0.131062  0.874602  0.125514  1
  O  O24  1  0.376841  0.125912  0.873981  1
  O  O25  1  0.111210  0.370566  0.629449  1
  O  O26  1  0.889140  0.629462  0.370527  1
  O  O27  1  0.622684  0.874148  0.125954  1
