# generated using pymatgen
data_Tm4ReB12Os
_symmetry_space_group_name_H-M   'P 1'
_cell_length_a   3.63134200
_cell_length_b   9.09379980
_cell_length_c   11.46588458
_cell_angle_alpha   90.14017339
_cell_angle_beta   90.00000000
_cell_angle_gamma   90.00000000
_symmetry_Int_Tables_number   1
_chemical_formula_structural   Tm4ReB12Os
_chemical_formula_sum   'Tm8 Re2 B24 Os2'
_cell_volume   378.63330106
_cell_formula_units_Z   2
loop_
 _symmetry_equiv_pos_site_id
 _symmetry_equiv_pos_as_xyz
  1  'x, y, z'
loop_
 _atom_site_type_symbol
 _atom_site_label
 _atom_site_symmetry_multiplicity
 _atom_site_fract_x
 _atom_site_fract_y
 _atom_site_fract_z
 _atom_site_occupancy
  Tm  Tm0  1  0.000000  0.320167  0.412227  1
  Tm  Tm1  1  0.000000  0.679833  0.587773  1
  Tm  Tm2  1  0.000000  0.824365  0.084528  1
  Tm  Tm3  1  0.000000  0.175635  0.915472  1
  Tm  Tm4  1  0.000000  0.943447  0.370906  1
  Tm  Tm5  1  0.000000  0.056553  0.629094  1
  Tm  Tm6  1  0.000000  0.442798  0.128493  1
  Tm  Tm7  1  0.000000  0.557202  0.871507  1
  Re  Re8  1  0.000000  0.138384  0.179808  1
  Re  Re9  1  0.000000  0.861616  0.820192  1
  B  B10  1  0.500000  0.553392  0.433651  1
  B  B11  1  0.500000  0.446608  0.566349  1
  B  B12  1  0.500000  0.052958  0.066584  1
  B  B13  1  0.500000  0.947042  0.933416  1
  B  B14  1  0.500000  0.749344  0.419246  1
  B  B15  1  0.500000  0.250656  0.580754  1
  B  B16  1  0.500000  0.249436  0.080465  1
  B  B17  1  0.500000  0.750564  0.919535  1
  B  B18  1  0.500000  0.791347  0.265425  1
  B  B19  1  0.500000  0.208653  0.734575  1
  B  B20  1  0.500000  0.292563  0.235052  1
  B  B21  1  0.500000  0.707437  0.764948  1
  B  B22  1  0.500000  0.630821  0.185472  1
  B  B23  1  0.500000  0.369179  0.814528  1
  B  B24  1  0.500000  0.131279  0.315569  1
  B  B25  1  0.500000  0.868721  0.684431  1
  B  B26  1  0.500000  0.981857  0.212568  1
  B  B27  1  0.500000  0.018143  0.787432  1
  B  B28  1  0.500000  0.482240  0.288019  1
  B  B29  1  0.500000  0.517760  0.711981  1
  B  B30  1  0.500000  0.602848  0.028834  1
  B  B31  1  0.500000  0.397152  0.971166  1
  B  B32  1  0.500000  0.103088  0.471696  1
  B  B33  1  0.500000  0.896912  0.528304  1
  Os  Os34  1  0.000000  0.637390  0.321897  1
  Os  Os35  1  0.000000  0.362610  0.678103  1
