# generated using pymatgen
data_PrNdAs4(RuRh)2
_symmetry_space_group_name_H-M   'P 1'
_cell_length_a   4.34236200
_cell_length_b   4.34236200
_cell_length_c   9.82504000
_cell_angle_alpha   90.00000000
_cell_angle_beta   90.00000000
_cell_angle_gamma   90.00000000
_symmetry_Int_Tables_number   1
_chemical_formula_structural   PrNdAs4(RuRh)2
_chemical_formula_sum   'Pr1 Nd1 As4 Ru2 Rh2'
_cell_volume   185.26201278
_cell_formula_units_Z   1
loop_
 _symmetry_equiv_pos_site_id
 _symmetry_equiv_pos_as_xyz
  1  'x, y, z'
loop_
 _atom_site_type_symbol
 _atom_site_label
 _atom_site_symmetry_multiplicity
 _atom_site_fract_x
 _atom_site_fract_y
 _atom_site_fract_z
 _atom_site_occupancy
  Pr  Pr0  1  0.000000  0.500000  0.258655  1
  Nd  Nd1  1  0.500000  0.000000  0.741211  1
  As  As2  1  0.000000  0.000000  0.500336  1
  As  As3  1  0.500000  0.500000  0.500336  1
  As  As4  1  0.000000  0.500000  0.873018  1
  As  As5  1  0.500000  0.000000  0.126747  1
  Ru  Ru6  1  0.000000  0.000000  0.999669  1
  Ru  Ru7  1  0.500000  0.500000  0.999669  1
  Rh  Rh8  1  0.000000  0.500000  0.620844  1
  Rh  Rh9  1  0.500000  0.000000  0.379517  1
