# generated using pymatgen
data_Tb7Y(CoB14)2
_symmetry_space_group_name_H-M   'P 1'
_cell_length_a   7.24128732
_cell_length_b   7.24213332
_cell_length_c   7.54298900
_cell_angle_alpha   90.00000000
_cell_angle_beta   90.00000000
_cell_angle_gamma   90.03432188
_symmetry_Int_Tables_number   1
_chemical_formula_structural   Tb7Y(CoB14)2
_chemical_formula_sum   'Tb7 Y1 Co2 B28'
_cell_volume   395.57213587
_cell_formula_units_Z   1
loop_
 _symmetry_equiv_pos_site_id
 _symmetry_equiv_pos_as_xyz
  1  'x, y, z'
loop_
 _atom_site_type_symbol
 _atom_site_label
 _atom_site_symmetry_multiplicity
 _atom_site_fract_x
 _atom_site_fract_y
 _atom_site_fract_z
 _atom_site_occupancy
  Tb  Tb0  1  0.193072  0.330023  0.000000  1
  Tb  Tb1  1  0.669993  0.193043  0.000000  1
  Tb  Tb2  1  0.329991  0.806922  0.000000  1
  Tb  Tb3  1  0.693162  0.169969  0.500000  1
  Tb  Tb4  1  0.306945  0.830025  0.500000  1
  Tb  Tb5  1  0.806969  0.670037  0.000000  1
  Tb  Tb6  1  0.829961  0.693112  0.500000  1
  Y  Y7  1  0.169790  0.307050  0.500000  1
  Co  Co8  1  0.000034  0.000029  0.000000  1
  Co  Co9  1  0.499975  0.500000  0.500000  1
  B  B10  1  0.173914  0.038901  0.231103  1
  B  B11  1  0.961176  0.173911  0.231182  1
  B  B12  1  0.038877  0.826193  0.231179  1
  B  B13  1  0.673821  0.461132  0.268964  1
  B  B14  1  0.326005  0.538787  0.269032  1
  B  B15  1  0.826206  0.961188  0.231171  1
  B  B16  1  0.538849  0.673822  0.268913  1
  B  B17  1  0.461054  0.326051  0.268987  1
  B  B18  1  0.826206  0.961188  0.768829  1
  B  B19  1  0.038877  0.826193  0.768821  1
  B  B20  1  0.961176  0.173911  0.768818  1
  B  B21  1  0.326005  0.538787  0.730968  1
  B  B22  1  0.673821  0.461132  0.731036  1
  B  B23  1  0.173914  0.038901  0.768897  1
  B  B24  1  0.461054  0.326051  0.731013  1
  B  B25  1  0.538849  0.673822  0.731087  1
  B  B26  1  0.088604  0.588525  0.249943  1
  B  B27  1  0.411481  0.088530  0.249914  1
  B  B28  1  0.588545  0.911450  0.250044  1
  B  B29  1  0.911571  0.411379  0.250041  1
  B  B30  1  0.911571  0.411379  0.749959  1
  B  B31  1  0.588545  0.911450  0.749956  1
  B  B32  1  0.411481  0.088530  0.750086  1
  B  B33  1  0.088604  0.588525  0.750057  1
  B  B34  1  0.000006  0.000090  0.388115  1
  B  B35  1  0.499947  0.499934  0.112099  1
  B  B36  1  0.000006  0.000090  0.611885  1
  B  B37  1  0.499947  0.499934  0.887901  1
