# generated using pymatgen
data_MgZr12GaCu2(Ir2N)4
_symmetry_space_group_name_H-M   'P 1'
_cell_length_a   8.56238481
_cell_length_b   8.51395559
_cell_length_c   8.56238400
_cell_angle_alpha   59.81165942
_cell_angle_beta   60.00000314
_cell_angle_gamma   59.81165611
_symmetry_Int_Tables_number   1
_chemical_formula_structural   MgZr12GaCu2(Ir2N)4
_chemical_formula_sum   'Mg1 Zr12 Ga1 Cu2 Ir8 N4'
_cell_volume   440.11240127
_cell_formula_units_Z   1
loop_
 _symmetry_equiv_pos_site_id
 _symmetry_equiv_pos_as_xyz
  1  'x, y, z'
loop_
 _atom_site_type_symbol
 _atom_site_label
 _atom_site_symmetry_multiplicity
 _atom_site_fract_x
 _atom_site_fract_y
 _atom_site_fract_z
 _atom_site_occupancy
  Mg  Mg0  1  0.625000  0.125000  0.625000  1
  Zr  Zr1  1  0.807394  0.807458  0.191653  1
  Zr  Zr2  1  0.191063  0.194917  0.807190  1
  Zr  Zr3  1  0.808821  0.191878  0.808821  1
  Zr  Zr4  1  0.194377  0.806145  0.194377  1
  Zr  Zr5  1  0.191653  0.807458  0.807394  1
  Zr  Zr6  1  0.807190  0.194917  0.191063  1
  Zr  Zr7  1  0.442606  0.442542  0.058347  1
  Zr  Zr8  1  0.058937  0.055083  0.442810  1
  Zr  Zr9  1  0.441179  0.058122  0.441179  1
  Zr  Zr10  1  0.055623  0.443855  0.055623  1
  Zr  Zr11  1  0.058347  0.442542  0.442606  1
  Zr  Zr12  1  0.442810  0.055083  0.058937  1
  Ga  Ga13  1  0.625000  0.625000  0.625000  1
  Cu  Cu14  1  0.125000  0.625000  0.625000  1
  Cu  Cu15  1  0.625000  0.625000  0.125000  1
  Ir  Ir16  1  0.755243  0.418898  0.412188  1
  Ir  Ir17  1  0.415073  0.753668  0.415073  1
  Ir  Ir18  1  0.412188  0.418898  0.755243  1
  Ir  Ir19  1  0.413559  0.419429  0.413559  1
  Ir  Ir20  1  0.494757  0.831102  0.837812  1
  Ir  Ir21  1  0.834927  0.496332  0.834927  1
  Ir  Ir22  1  0.837812  0.831102  0.494757  1
  Ir  Ir23  1  0.836441  0.830571  0.836441  1
  N  N24  1  0.625000  0.125000  0.125000  1
  N  N25  1  0.125000  0.625000  0.125000  1
  N  N26  1  0.125000  0.125000  0.625000  1
  N  N27  1  0.125000  0.125000  0.125000  1
