# generated using pymatgen
data_TbSm8DyB2Br15
_symmetry_space_group_name_H-M   'P 1'
_cell_length_a   9.23186167
_cell_length_b   9.99955161
_cell_length_c   10.87051707
_cell_angle_alpha   91.29789139
_cell_angle_beta   114.52444617
_cell_angle_gamma   110.73827817
_symmetry_Int_Tables_number   1
_chemical_formula_structural   TbSm8DyB2Br15
_chemical_formula_sum   'Tb1 Sm8 Dy1 B2 Br15'
_cell_volume   836.67941183
_cell_formula_units_Z   1
loop_
 _symmetry_equiv_pos_site_id
 _symmetry_equiv_pos_as_xyz
  1  'x, y, z'
loop_
 _atom_site_type_symbol
 _atom_site_label
 _atom_site_symmetry_multiplicity
 _atom_site_fract_x
 _atom_site_fract_y
 _atom_site_fract_z
 _atom_site_occupancy
  Tb  Tb0  1  0.280337  0.926379  0.952315  1
  Sm  Sm1  1  0.800051  0.408517  0.275865  1
  Sm  Sm2  1  0.200031  0.591562  0.724174  1
  Sm  Sm3  1  0.674535  0.746821  0.821507  1
  Sm  Sm4  1  0.325601  0.253160  0.178486  1
  Sm  Sm5  1  0.525791  0.704162  0.095757  1
  Sm  Sm6  1  0.474315  0.295879  0.904262  1
  Sm  Sm7  1  0.585947  0.038432  0.323960  1
  Sm  Sm8  1  0.414142  0.961591  0.676067  1
  Dy  Dy9  1  0.718951  0.073473  0.047588  1
  B  B10  1  0.467867  0.821741  0.878306  1
  B  B11  1  0.532805  0.178501  0.121849  1
  Br  Br12  1  0.999792  0.000094  0.000064  1
  Br  Br13  1  0.637833  0.882866  0.583621  1
  Br  Br14  1  0.362178  0.117146  0.416380  1
  Br  Br15  1  0.883858  0.298855  0.528997  1
  Br  Br16  1  0.116164  0.701160  0.471024  1
  Br  Br17  1  0.285532  0.762773  0.175175  1
  Br  Br18  1  0.714663  0.237043  0.825183  1
  Br  Br19  1  0.050048  0.337539  0.223013  1
  Br  Br20  1  0.161462  0.054484  0.705791  1
  Br  Br21  1  0.838544  0.945740  0.293893  1
  Br  Br22  1  0.228184  0.409057  0.942841  1
  Br  Br23  1  0.771835  0.590954  0.057169  1
  Br  Br24  1  0.407703  0.461763  0.657372  1
  Br  Br25  1  0.592295  0.538238  0.342626  1
  Br  Br26  1  0.949538  0.662069  0.776717  1
