# generated using pymatgen
data_Sc5Mn2Co17P12
_symmetry_space_group_name_H-M   'P 1'
_cell_length_a   11.85389009
_cell_length_b   11.84262096
_cell_length_c   3.57462400
_cell_angle_alpha   90.00000000
_cell_angle_beta   90.00000000
_cell_angle_gamma   119.96854628
_symmetry_Int_Tables_number   1
_chemical_formula_structural   Sc5Mn2Co17P12
_chemical_formula_sum   'Sc5 Mn2 Co17 P12'
_cell_volume   434.71766236
_cell_formula_units_Z   1
loop_
 _symmetry_equiv_pos_site_id
 _symmetry_equiv_pos_as_xyz
  1  'x, y, z'
loop_
 _atom_site_type_symbol
 _atom_site_label
 _atom_site_symmetry_multiplicity
 _atom_site_fract_x
 _atom_site_fract_y
 _atom_site_fract_z
 _atom_site_occupancy
  Sc  Sc0  1  0.666081  0.333325  0.000000  1
  Sc  Sc1  1  0.333919  0.667246  0.000000  1
  Sc  Sc2  1  0.185917  0.184877  0.500000  1
  Sc  Sc3  1  0.814083  0.998960  0.500000  1
  Sc  Sc4  1  0.000000  0.812460  0.500000  1
  Mn  Mn5  1  0.554549  0.554916  0.000000  1
  Mn  Mn6  1  0.445451  0.000367  0.000000  1
  Co  Co7  1  0.000000  0.449211  0.000000  1
  Co  Co8  1  0.822696  0.198655  0.000000  1
  Co  Co9  1  0.803138  0.623882  0.000000  1
  Co  Co10  1  0.374345  0.177835  0.000000  1
  Co  Co11  1  0.196862  0.820744  0.000000  1
  Co  Co12  1  0.625655  0.803489  0.000000  1
  Co  Co13  1  0.177304  0.375959  0.000000  1
  Co  Co14  1  0.644326  0.127427  0.500000  1
  Co  Co15  1  0.873386  0.516019  0.500000  1
  Co  Co16  1  0.483137  0.356049  0.500000  1
  Co  Co17  1  0.126614  0.642633  0.500000  1
  Co  Co18  1  0.516863  0.872911  0.500000  1
  Co  Co19  1  0.355674  0.483101  0.500000  1
  Co  Co20  1  0.718214  0.717749  0.500000  1
  Co  Co21  1  0.281786  0.999535  0.500000  1
  Co  Co22  1  0.000000  0.283967  0.500000  1
  Co  Co23  1  0.000000  0.001148  0.000000  1
  P  P24  1  0.359478  0.360223  0.000000  1
  P  P25  1  0.640522  0.000745  0.000000  1
  P  P26  1  0.000000  0.636815  0.000000  1
  P  P27  1  0.832898  0.316251  0.500000  1
  P  P28  1  0.684404  0.516259  0.500000  1
  P  P29  1  0.482846  0.167397  0.500000  1
  P  P30  1  0.315596  0.831855  0.500000  1
  P  P31  1  0.517154  0.684551  0.500000  1
  P  P32  1  0.167102  0.483352  0.500000  1
  P  P33  1  0.823390  0.822506  0.000000  1
  P  P34  1  0.176610  0.999116  0.000000  1
  P  P35  1  0.000000  0.178458  0.000000  1
