# generated using pymatgen
data_Hf2ZnCo5B2
_symmetry_space_group_name_H-M   'P 1'
_cell_length_a   8.66945800
_cell_length_b   8.66945800
_cell_length_c   3.06046700
_cell_angle_alpha   90.00000000
_cell_angle_beta   90.00000000
_cell_angle_gamma   90.00000000
_symmetry_Int_Tables_number   1
_chemical_formula_structural   Hf2ZnCo5B2
_chemical_formula_sum   'Hf4 Zn2 Co10 B4'
_cell_volume   230.02317565
_cell_formula_units_Z   2
loop_
 _symmetry_equiv_pos_site_id
 _symmetry_equiv_pos_as_xyz
  1  'x, y, z'
loop_
 _atom_site_type_symbol
 _atom_site_label
 _atom_site_symmetry_multiplicity
 _atom_site_fract_x
 _atom_site_fract_y
 _atom_site_fract_z
 _atom_site_occupancy
  Hf  Hf0  1  0.823194  0.323194  0.000000  1
  Hf  Hf1  1  0.323194  0.176806  0.000000  1
  Hf  Hf2  1  0.676806  0.823194  0.000000  1
  Hf  Hf3  1  0.176806  0.676806  0.000000  1
  Zn  Zn4  1  0.000000  0.000000  0.000000  1
  Zn  Zn5  1  0.500000  0.500000  0.000000  1
  Co  Co6  1  0.500000  0.000000  0.500000  1
  Co  Co7  1  0.000000  0.500000  0.500000  1
  Co  Co8  1  0.069042  0.223405  0.500000  1
  Co  Co9  1  0.223405  0.930958  0.500000  1
  Co  Co10  1  0.776595  0.069042  0.500000  1
  Co  Co11  1  0.930958  0.776595  0.500000  1
  Co  Co12  1  0.430958  0.723405  0.500000  1
  Co  Co13  1  0.569042  0.276595  0.500000  1
  Co  Co14  1  0.723405  0.569042  0.500000  1
  Co  Co15  1  0.276595  0.430958  0.500000  1
  B  B16  1  0.620290  0.120290  0.000000  1
  B  B17  1  0.120290  0.379710  0.000000  1
  B  B18  1  0.879710  0.620290  0.000000  1
  B  B19  1  0.379710  0.879710  0.000000  1
