# generated using pymatgen
data_HoTm15(In3Rh)2
_symmetry_space_group_name_H-M   'P 1'
_cell_length_a   10.31298700
_cell_length_b   10.31398986
_cell_length_c   6.94665700
_cell_angle_alpha   90.00344360
_cell_angle_beta   90.00000000
_cell_angle_gamma   119.99678040
_symmetry_Int_Tables_number   1
_chemical_formula_structural   HoTm15(In3Rh)2
_chemical_formula_sum   'Ho1 Tm15 In6 Rh2'
_cell_volume   639.92893222
_cell_formula_units_Z   1
loop_
 _symmetry_equiv_pos_site_id
 _symmetry_equiv_pos_as_xyz
  1  'x, y, z'
loop_
 _atom_site_type_symbol
 _atom_site_label
 _atom_site_symmetry_multiplicity
 _atom_site_fract_x
 _atom_site_fract_y
 _atom_site_fract_z
 _atom_site_occupancy
  Ho  Ho0  1  0.532252  0.064506  0.515878  1
  Tm  Tm1  1  0.935301  0.467668  0.515920  1
  Tm  Tm2  1  0.532365  0.467668  0.515920  1
  Tm  Tm3  1  0.467578  0.935154  0.015884  1
  Tm  Tm4  1  0.064748  0.532373  0.015889  1
  Tm  Tm5  1  0.467627  0.532373  0.015889  1
  Tm  Tm6  1  0.176590  0.353179  0.721242  1
  Tm  Tm7  1  0.646873  0.823305  0.721357  1
  Tm  Tm8  1  0.176433  0.823305  0.721357  1
  Tm  Tm9  1  0.823375  0.646751  0.221244  1
  Tm  Tm10  1  0.353067  0.176625  0.221107  1
  Tm  Tm11  1  0.823557  0.176625  0.221107  1
  Tm  Tm12  1  0.666745  0.333489  0.895101  1
  Tm  Tm13  1  0.333273  0.666547  0.394962  1
  Tm  Tm14  1  0.000003  0.000007  0.500482  1
  Tm  Tm15  1  0.000016  0.000031  0.000541  1
  In  In16  1  0.837219  0.674439  0.760843  1
  In  In17  1  0.325449  0.162817  0.760944  1
  In  In18  1  0.837368  0.162817  0.760944  1
  In  In19  1  0.162764  0.325527  0.260857  1
  In  In20  1  0.674453  0.837210  0.260795  1
  In  In21  1  0.162757  0.837210  0.260795  1
  Rh  Rh22  1  0.666847  0.333693  0.289373  1
  Rh  Rh23  1  0.333341  0.666683  0.789569  1
