# generated using pymatgen
data_Rb2ZrGe2O7
_symmetry_space_group_name_H-M   'P 1'
_cell_length_a   5.85101645
_cell_length_b   5.85101697
_cell_length_c   13.55468191
_cell_angle_alpha   76.80553339
_cell_angle_beta   76.80553249
_cell_angle_gamma   59.10715823
_symmetry_Int_Tables_number   1
_chemical_formula_structural   Rb2ZrGe2O7
_chemical_formula_sum   'Rb4 Zr2 Ge4 O14'
_cell_volume   384.25016445
_cell_formula_units_Z   2
loop_
 _symmetry_equiv_pos_site_id
 _symmetry_equiv_pos_as_xyz
  1  'x, y, z'
loop_
 _atom_site_type_symbol
 _atom_site_label
 _atom_site_symmetry_multiplicity
 _atom_site_fract_x
 _atom_site_fract_y
 _atom_site_fract_z
 _atom_site_occupancy
  Rb  Rb0  1  0.635681  0.066143  0.177824  1
  Rb  Rb1  1  0.933857  0.364319  0.322176  1
  Rb  Rb2  1  0.364319  0.933857  0.822176  1
  Rb  Rb3  1  0.066143  0.635681  0.677824  1
  Zr  Zr4  1  0.500000  0.000000  0.500000  1
  Zr  Zr5  1  0.000000  0.500000  0.000000  1
  Ge  Ge6  1  0.762342  0.313881  0.621738  1
  Ge  Ge7  1  0.313881  0.762342  0.121738  1
  Ge  Ge8  1  0.237658  0.686119  0.378262  1
  Ge  Ge9  1  0.686119  0.237658  0.878262  1
  O  O10  1  0.815184  0.914477  0.948040  1
  O  O11  1  0.334122  0.419856  0.879974  1
  O  O12  1  0.419856  0.334122  0.379974  1
  O  O13  1  0.665878  0.580144  0.120026  1
  O  O14  1  0.842340  0.157660  0.750000  1
  O  O15  1  0.157660  0.842340  0.250000  1
  O  O16  1  0.195072  0.559157  0.098187  1
  O  O17  1  0.440843  0.804928  0.401813  1
  O  O18  1  0.085523  0.184816  0.551960  1
  O  O19  1  0.559157  0.195072  0.598187  1
  O  O20  1  0.184816  0.085523  0.051960  1
  O  O21  1  0.914477  0.815184  0.448040  1
  O  O22  1  0.804928  0.440843  0.901813  1
  O  O23  1  0.580144  0.665878  0.620026  1
