# generated using pymatgen
data_YEr5Sc2(Co4P3)4
_symmetry_space_group_name_H-M   'P 1'
_cell_length_a   3.71159900
_cell_length_b   10.63414800
_cell_length_c   12.32090000
_cell_angle_alpha   90.00000000
_cell_angle_beta   90.00000000
_cell_angle_gamma   90.00000000
_symmetry_Int_Tables_number   1
_chemical_formula_structural   YEr5Sc2(Co4P3)4
_chemical_formula_sum   'Y1 Er5 Sc2 Co16 P12'
_cell_volume   486.30214150
_cell_formula_units_Z   1
loop_
 _symmetry_equiv_pos_site_id
 _symmetry_equiv_pos_as_xyz
  1  'x, y, z'
loop_
 _atom_site_type_symbol
 _atom_site_label
 _atom_site_symmetry_multiplicity
 _atom_site_fract_x
 _atom_site_fract_y
 _atom_site_fract_z
 _atom_site_occupancy
  Y  Y0  1  0.500000  0.000000  0.472387  1
  Er  Er1  1  0.000000  0.500000  0.527571  1
  Er  Er2  1  0.500000  0.822402  0.205629  1
  Er  Er3  1  0.500000  0.177598  0.205629  1
  Er  Er4  1  0.000000  0.677449  0.794275  1
  Er  Er5  1  0.000000  0.322551  0.794275  1
  Sc  Sc6  1  0.500000  0.500000  0.157531  1
  Sc  Sc7  1  0.000000  0.000000  0.843038  1
  Co  Co8  1  0.500000  0.500000  0.704868  1
  Co  Co9  1  0.000000  0.000000  0.293971  1
  Co  Co10  1  0.000000  0.500000  0.987273  1
  Co  Co11  1  0.500000  0.000000  0.012659  1
  Co  Co12  1  0.500000  0.331327  0.994448  1
  Co  Co13  1  0.500000  0.668673  0.994448  1
  Co  Co14  1  0.000000  0.168849  0.005501  1
  Co  Co15  1  0.000000  0.831151  0.005501  1
  Co  Co16  1  0.500000  0.296083  0.433006  1
  Co  Co17  1  0.500000  0.703917  0.433006  1
  Co  Co18  1  0.000000  0.205188  0.567183  1
  Co  Co19  1  0.000000  0.794812  0.567183  1
  Co  Co20  1  0.500000  0.877306  0.703187  1
  Co  Co21  1  0.500000  0.122694  0.703187  1
  Co  Co22  1  0.000000  0.622286  0.297080  1
  Co  Co23  1  0.000000  0.377714  0.297080  1
  P  P24  1  0.500000  0.500000  0.884886  1
  P  P25  1  0.000000  0.000000  0.114743  1
  P  P26  1  0.500000  0.500000  0.360718  1
  P  P27  1  0.000000  0.000000  0.640351  1
  P  P28  1  0.500000  0.310602  0.615910  1
  P  P29  1  0.500000  0.689398  0.615910  1
  P  P30  1  0.000000  0.190374  0.383769  1
  P  P31  1  0.000000  0.809626  0.383769  1
  P  P32  1  0.500000  0.838959  0.892263  1
  P  P33  1  0.500000  0.161041  0.892263  1
  P  P34  1  0.000000  0.660836  0.107752  1
  P  P35  1  0.000000  0.339164  0.107752  1
