# generated using pymatgen
data_Dy5MoWC7
_symmetry_space_group_name_H-M   'P 1'
_cell_length_a   8.43270756
_cell_length_b   8.43270660
_cell_length_c   3.43414000
_cell_angle_alpha   90.00000000
_cell_angle_beta   90.00000000
_cell_angle_gamma   122.75402131
_symmetry_Int_Tables_number   1
_chemical_formula_structural   Dy5MoWC7
_chemical_formula_sum   'Dy5 Mo1 W1 C7'
_cell_volume   205.37546513
_cell_formula_units_Z   1
loop_
 _symmetry_equiv_pos_site_id
 _symmetry_equiv_pos_as_xyz
  1  'x, y, z'
loop_
 _atom_site_type_symbol
 _atom_site_label
 _atom_site_symmetry_multiplicity
 _atom_site_fract_x
 _atom_site_fract_y
 _atom_site_fract_z
 _atom_site_occupancy
  Dy  Dy0  1  0.500126  0.499874  0.000000  1
  Dy  Dy1  1  0.073507  0.331179  0.500000  1
  Dy  Dy2  1  0.925757  0.667472  0.500000  1
  Dy  Dy3  1  0.668821  0.926493  0.500000  1
  Dy  Dy4  1  0.332528  0.074243  0.500000  1
  Mo  Mo5  1  0.712140  0.287860  0.000000  1
  W  W6  1  0.287533  0.712467  0.000000  1
  C  C7  1  0.625014  0.374986  0.500000  1
  C  C8  1  0.374430  0.625570  0.500000  1
  C  C9  1  0.999975  0.000025  0.000000  1
  C  C10  1  0.167786  0.167845  0.000000  1
  C  C11  1  0.832155  0.832214  0.000000  1
  C  C12  1  0.000909  0.500682  0.000000  1
  C  C13  1  0.499318  0.999091  0.000000  1
