# generated using pymatgen
data_YbY7Ho12(Cd3Ru)2
_symmetry_space_group_name_H-M   'P 1'
_cell_length_a   9.61068400
_cell_length_b   9.61068357
_cell_length_c   9.79503600
_cell_angle_alpha   90.00000000
_cell_angle_beta   90.00000000
_cell_angle_gamma   120.00000147
_symmetry_Int_Tables_number   1
_chemical_formula_structural   YbY7Ho12(Cd3Ru)2
_chemical_formula_sum   'Yb1 Y7 Ho12 Cd6 Ru2'
_cell_volume   783.51125290
_cell_formula_units_Z   1
loop_
 _symmetry_equiv_pos_site_id
 _symmetry_equiv_pos_as_xyz
  1  'x, y, z'
loop_
 _atom_site_type_symbol
 _atom_site_label
 _atom_site_symmetry_multiplicity
 _atom_site_fract_x
 _atom_site_fract_y
 _atom_site_fract_z
 _atom_site_occupancy
  Yb  Yb0  1  0.000000  0.000000  0.500000  1
  Y  Y1  1  0.000000  0.000000  0.000000  1
  Y  Y2  1  0.541523  0.458477  0.250910  1
  Y  Y3  1  0.541523  0.083046  0.250910  1
  Y  Y4  1  0.916954  0.458477  0.250910  1
  Y  Y5  1  0.458477  0.541523  0.749090  1
  Y  Y6  1  0.458477  0.916954  0.749090  1
  Y  Y7  1  0.083046  0.541523  0.749090  1
  Ho  Ho8  1  0.210851  0.789149  0.439380  1
  Ho  Ho9  1  0.210851  0.421704  0.439380  1
  Ho  Ho10  1  0.578296  0.789149  0.439380  1
  Ho  Ho11  1  0.789149  0.210851  0.560620  1
  Ho  Ho12  1  0.789149  0.578296  0.560620  1
  Ho  Ho13  1  0.421704  0.210851  0.560620  1
  Ho  Ho14  1  0.789670  0.210330  0.940113  1
  Ho  Ho15  1  0.789670  0.579339  0.940113  1
  Ho  Ho16  1  0.420661  0.210330  0.940113  1
  Ho  Ho17  1  0.210330  0.789670  0.059887  1
  Ho  Ho18  1  0.210330  0.420661  0.059887  1
  Ho  Ho19  1  0.579339  0.789670  0.059887  1
  Cd  Cd20  1  0.884959  0.115041  0.250259  1
  Cd  Cd21  1  0.884959  0.769920  0.250259  1
  Cd  Cd22  1  0.230080  0.115041  0.250259  1
  Cd  Cd23  1  0.115041  0.884959  0.749741  1
  Cd  Cd24  1  0.115041  0.230080  0.749741  1
  Cd  Cd25  1  0.769920  0.884959  0.749741  1
  Ru  Ru26  1  0.333333  0.666667  0.250481  1
  Ru  Ru27  1  0.666667  0.333333  0.749519  1
