# generated using pymatgen
data_SmGd5AuO12
_symmetry_space_group_name_H-M   'P 1'
_cell_length_a   6.60309728
_cell_length_b   6.57434969
_cell_length_c   6.59007565
_cell_angle_alpha   98.76970500
_cell_angle_beta   98.84310138
_cell_angle_gamma   98.86239819
_symmetry_Int_Tables_number   1
_chemical_formula_structural   SmGd5AuO12
_chemical_formula_sum   'Sm1 Gd5 Au1 O12'
_cell_volume   274.72317552
_cell_formula_units_Z   1
loop_
 _symmetry_equiv_pos_site_id
 _symmetry_equiv_pos_as_xyz
  1  'x, y, z'
loop_
 _atom_site_type_symbol
 _atom_site_label
 _atom_site_symmetry_multiplicity
 _atom_site_fract_x
 _atom_site_fract_y
 _atom_site_fract_z
 _atom_site_occupancy
  Sm  Sm0  1  0.860253  0.389891  0.699436  1
  Gd  Gd1  1  0.606987  0.301493  0.139835  1
  Gd  Gd2  1  0.301499  0.141871  0.609406  1
  Gd  Gd3  1  0.698238  0.859008  0.389985  1
  Gd  Gd4  1  0.392159  0.697886  0.859710  1
  Gd  Gd5  1  0.140150  0.608711  0.301339  1
  Au  Au6  1  0.000439  0.999961  0.000552  1
  O  O7  1  0.940896  0.043095  0.693618  1
  O  O8  1  0.954248  0.305530  0.061016  1
  O  O9  1  0.587549  0.175274  0.436191  1
  O  O10  1  0.822208  0.561441  0.405488  1
  O  O11  1  0.305567  0.060641  0.955419  1
  O  O12  1  0.558665  0.408378  0.825640  1
  O  O13  1  0.437046  0.592498  0.178196  1
  O  O14  1  0.694502  0.938799  0.044624  1
  O  O15  1  0.181804  0.440205  0.588515  1
  O  O16  1  0.411033  0.824950  0.562991  1
  O  O17  1  0.047243  0.694649  0.941406  1
  O  O18  1  0.059513  0.955716  0.306636  1
