# generated using pymatgen
data_Ho5V3(Co4P3)4
_symmetry_space_group_name_H-M   'P 1'
_cell_length_a   12.01219900
_cell_length_b   12.01219919
_cell_length_c   3.65557300
_cell_angle_alpha   90.00000000
_cell_angle_beta   90.00000000
_cell_angle_gamma   119.99999672
_symmetry_Int_Tables_number   1
_chemical_formula_structural   Ho5V3(Co4P3)4
_chemical_formula_sum   'Ho5 V3 Co16 P12'
_cell_volume   456.80531740
_cell_formula_units_Z   1
loop_
 _symmetry_equiv_pos_site_id
 _symmetry_equiv_pos_as_xyz
  1  'x, y, z'
loop_
 _atom_site_type_symbol
 _atom_site_label
 _atom_site_symmetry_multiplicity
 _atom_site_fract_x
 _atom_site_fract_y
 _atom_site_fract_z
 _atom_site_occupancy
  Ho  Ho0  1  0.666667  0.333333  0.000000  1
  Ho  Ho1  1  0.333333  0.666667  0.000000  1
  Ho  Ho2  1  0.186492  0.186492  0.500000  1
  Ho  Ho3  1  0.813508  0.000000  0.500000  1
  Ho  Ho4  1  0.000000  0.813508  0.500000  1
  V  V5  1  0.556786  0.556786  0.000000  1
  V  V6  1  0.443214  0.000000  0.000000  1
  V  V7  1  0.000000  0.443214  0.000000  1
  Co  Co8  1  0.823063  0.199756  0.000000  1
  Co  Co9  1  0.800244  0.623307  0.000000  1
  Co  Co10  1  0.376693  0.176937  0.000000  1
  Co  Co11  1  0.199756  0.823063  0.000000  1
  Co  Co12  1  0.623307  0.800244  0.000000  1
  Co  Co13  1  0.176937  0.376693  0.000000  1
  Co  Co14  1  0.644561  0.126083  0.500000  1
  Co  Co15  1  0.873917  0.518478  0.500000  1
  Co  Co16  1  0.481522  0.355439  0.500000  1
  Co  Co17  1  0.126083  0.644561  0.500000  1
  Co  Co18  1  0.518478  0.873917  0.500000  1
  Co  Co19  1  0.355439  0.481522  0.500000  1
  Co  Co20  1  0.718044  0.718044  0.500000  1
  Co  Co21  1  0.281956  0.000000  0.500000  1
  Co  Co22  1  0.000000  0.281956  0.500000  1
  Co  Co23  1  0.000000  0.000000  0.000000  1
  P  P24  1  0.363244  0.363244  0.000000  1
  P  P25  1  0.636756  0.000000  0.000000  1
  P  P26  1  0.000000  0.636756  0.000000  1
  P  P27  1  0.835646  0.315968  0.500000  1
  P  P28  1  0.684032  0.519677  0.500000  1
  P  P29  1  0.480323  0.164354  0.500000  1
  P  P30  1  0.315968  0.835646  0.500000  1
  P  P31  1  0.519677  0.684032  0.500000  1
  P  P32  1  0.164354  0.480323  0.500000  1
  P  P33  1  0.820572  0.820572  0.000000  1
  P  P34  1  0.179428  0.000000  0.000000  1
  P  P35  1  0.000000  0.179428  0.000000  1
