# generated using pymatgen
data_ErMgB6Os
_symmetry_space_group_name_H-M   'P 1'
_cell_length_a   3.55946100
_cell_length_b   8.88563900
_cell_length_c   11.23697200
_cell_angle_alpha   90.00000000
_cell_angle_beta   90.00000000
_cell_angle_gamma   90.00000000
_symmetry_Int_Tables_number   1
_chemical_formula_structural   ErMgB6Os
_chemical_formula_sum   'Er4 Mg4 B24 Os4'
_cell_volume   355.40391096
_cell_formula_units_Z   4
loop_
 _symmetry_equiv_pos_site_id
 _symmetry_equiv_pos_as_xyz
  1  'x, y, z'
loop_
 _atom_site_type_symbol
 _atom_site_label
 _atom_site_symmetry_multiplicity
 _atom_site_fract_x
 _atom_site_fract_y
 _atom_site_fract_z
 _atom_site_occupancy
  Er  Er0  1  0.000000  0.323557  0.413410  1
  Er  Er1  1  0.000000  0.676443  0.586590  1
  Er  Er2  1  0.000000  0.823557  0.086590  1
  Er  Er3  1  0.000000  0.176443  0.913410  1
  Mg  Mg4  1  0.000000  0.944098  0.372691  1
  Mg  Mg5  1  0.000000  0.055902  0.627310  1
  Mg  Mg6  1  0.000000  0.444098  0.127309  1
  Mg  Mg7  1  0.000000  0.555902  0.872690  1
  B  B8  1  0.500000  0.555291  0.432663  1
  B  B9  1  0.500000  0.444709  0.567337  1
  B  B10  1  0.500000  0.055291  0.067337  1
  B  B11  1  0.500000  0.944709  0.932663  1
  B  B12  1  0.500000  0.755183  0.418540  1
  B  B13  1  0.500000  0.244817  0.581460  1
  B  B14  1  0.500000  0.255183  0.081460  1
  B  B15  1  0.500000  0.744817  0.918540  1
  B  B16  1  0.500000  0.793643  0.263252  1
  B  B17  1  0.500000  0.206357  0.736748  1
  B  B18  1  0.500000  0.293642  0.236748  1
  B  B19  1  0.500000  0.706357  0.763252  1
  B  B20  1  0.500000  0.627918  0.182224  1
  B  B21  1  0.500000  0.372082  0.817776  1
  B  B22  1  0.500000  0.127918  0.317776  1
  B  B23  1  0.500000  0.872082  0.682224  1
  B  B24  1  0.500000  0.980483  0.213230  1
  B  B25  1  0.500000  0.019517  0.786770  1
  B  B26  1  0.500000  0.480483  0.286770  1
  B  B27  1  0.500000  0.519517  0.713230  1
  B  B28  1  0.500000  0.593102  0.025548  1
  B  B29  1  0.500000  0.406898  0.974452  1
  B  B30  1  0.500000  0.093102  0.474452  1
  B  B31  1  0.500000  0.906898  0.525548  1
  Os  Os32  1  0.000000  0.640222  0.318674  1
  Os  Os33  1  0.000000  0.359778  0.681326  1
  Os  Os34  1  0.000000  0.140222  0.181326  1
  Os  Os35  1  0.000000  0.859778  0.818674  1
