# generated using pymatgen
data_Sc(Ta2B3)2
_symmetry_space_group_name_H-M   'P 1'
_cell_length_a   11.61132984
_cell_length_b   11.61132997
_cell_length_c   3.33963600
_cell_angle_alpha   90.00000000
_cell_angle_beta   90.00000000
_cell_angle_gamma   164.47927227
_symmetry_Int_Tables_number   1
_chemical_formula_structural   Sc(Ta2B3)2
_chemical_formula_sum   'Sc1 Ta4 B6'
_cell_volume   120.48362404
_cell_formula_units_Z   1
loop_
 _symmetry_equiv_pos_site_id
 _symmetry_equiv_pos_as_xyz
  1  'x, y, z'
loop_
 _atom_site_type_symbol
 _atom_site_label
 _atom_site_symmetry_multiplicity
 _atom_site_fract_x
 _atom_site_fract_y
 _atom_site_fract_z
 _atom_site_occupancy
  Sc  Sc0  1  0.000000  0.000000  0.000000  1
  Ta  Ta1  1  0.194313  0.805687  0.500000  1
  Ta  Ta2  1  0.805687  0.194313  0.500000  1
  Ta  Ta3  1  0.385790  0.614210  0.000000  1
  Ta  Ta4  1  0.614210  0.385790  0.000000  1
  B  B5  1  0.459926  0.540074  0.500000  1
  B  B6  1  0.540074  0.459926  0.500000  1
  B  B7  1  0.271628  0.728372  0.000000  1
  B  B8  1  0.728372  0.271628  0.000000  1
  B  B9  1  0.081798  0.918202  0.500000  1
  B  B10  1  0.918202  0.081798  0.500000  1
