# generated using pymatgen
data_Zr8Ta12Si15Pt
_symmetry_space_group_name_H-M   'P 1'
_cell_length_a   6.91713021
_cell_length_b   6.89680437
_cell_length_c   12.74579864
_cell_angle_alpha   89.92922451
_cell_angle_beta   89.76798050
_cell_angle_gamma   89.98413446
_symmetry_Int_Tables_number   1
_chemical_formula_structural   Zr8Ta12Si15Pt
_chemical_formula_sum   'Zr8 Ta12 Si15 Pt1'
_cell_volume   608.04679417
_cell_formula_units_Z   1
loop_
 _symmetry_equiv_pos_site_id
 _symmetry_equiv_pos_as_xyz
  1  'x, y, z'
loop_
 _atom_site_type_symbol
 _atom_site_label
 _atom_site_symmetry_multiplicity
 _atom_site_fract_x
 _atom_site_fract_y
 _atom_site_fract_z
 _atom_site_occupancy
  Zr  Zr0  1  0.999878  0.661184  0.029897  1
  Zr  Zr1  1  0.995542  0.330193  0.531357  1
  Zr  Zr2  1  0.660915  0.000676  0.970381  1
  Zr  Zr3  1  0.159172  0.498747  0.782339  1
  Zr  Zr4  1  0.835440  0.497123  0.277665  1
  Zr  Zr5  1  0.499189  0.158403  0.217383  1
  Zr  Zr6  1  0.499472  0.840815  0.719100  1
  Zr  Zr7  1  0.349017  0.004391  0.469334  1
  Ta  Ta8  1  0.354999  0.501407  0.373226  1
  Ta  Ta9  1  0.840747  0.000838  0.370145  1
  Ta  Ta10  1  0.004230  0.153818  0.126245  1
  Ta  Ta11  1  0.994476  0.848558  0.631820  1
  Ta  Ta12  1  0.652340  0.494596  0.876574  1
  Ta  Ta13  1  0.503443  0.348725  0.624303  1
  Ta  Ta14  1  0.495019  0.653186  0.122732  1
  Ta  Ta15  1  0.152285  0.004488  0.873466  1
  Ta  Ta16  1  0.665467  0.671466  0.501679  1
  Ta  Ta17  1  0.829874  0.169500  0.750688  1
  Ta  Ta18  1  0.171262  0.832252  0.248619  1
  Ta  Ta19  1  0.329504  0.330431  0.000154  1
  Si  Si20  1  0.955703  0.298306  0.936644  1
  Si  Si21  1  0.705067  0.044139  0.563355  1
  Si  Si22  1  0.200105  0.456305  0.186936  1
  Si  Si23  1  0.799286  0.544000  0.685750  1
  Si  Si24  1  0.455850  0.200997  0.813892  1
  Si  Si25  1  0.544010  0.798059  0.313426  1
  Si  Si26  1  0.298713  0.956547  0.063295  1
  Si  Si27  1  0.863613  0.791603  0.824228  1
  Si  Si28  1  0.135873  0.206674  0.324372  1
  Si  Si29  1  0.792193  0.864108  0.176664  1
  Si  Si30  1  0.292499  0.637022  0.571262  1
  Si  Si31  1  0.707720  0.365726  0.072311  1
  Si  Si32  1  0.636868  0.293627  0.428230  1
  Si  Si33  1  0.364938  0.708468  0.926548  1
  Si  Si34  1  0.209561  0.135205  0.677123  1
  Pt  Pt35  1  0.045734  0.698415  0.438856  1
