# generated using pymatgen
data_PuNp2CrF24
_symmetry_space_group_name_H-M   'P 1'
_cell_length_a   5.34542678
_cell_length_b   9.14487100
_cell_length_c   10.11322500
_cell_angle_alpha   90.00000000
_cell_angle_beta   90.10958758
_cell_angle_gamma   90.00000000
_symmetry_Int_Tables_number   1
_chemical_formula_structural   PuNp2CrF24
_chemical_formula_sum   'Pu1 Np2 Cr1 F24'
_cell_volume   494.36628360
_cell_formula_units_Z   1
loop_
 _symmetry_equiv_pos_site_id
 _symmetry_equiv_pos_as_xyz
  1  'x, y, z'
loop_
 _atom_site_type_symbol
 _atom_site_label
 _atom_site_symmetry_multiplicity
 _atom_site_fract_x
 _atom_site_fract_y
 _atom_site_fract_z
 _atom_site_occupancy
  Pu  Pu0  1  0.906493  0.250000  0.372962  1
  Np  Np1  1  0.409071  0.750000  0.125998  1
  Np  Np2  1  0.092333  0.750000  0.627916  1
  Cr  Cr3  1  0.591821  0.250000  0.872784  1
  F  F4  1  0.250101  0.594761  0.514679  1
  F  F5  1  0.249331  0.904680  0.013825  1
  F  F6  1  0.935279  0.905158  0.740286  1
  F  F7  1  0.208312  0.250000  0.491141  1
  F  F8  1  0.731261  0.113544  0.972023  1
  F  F9  1  0.567318  0.905000  0.238977  1
  F  F10  1  0.327488  0.250000  0.977033  1
  F  F11  1  0.250101  0.905239  0.514679  1
  F  F12  1  0.751049  0.405381  0.484628  1
  F  F13  1  0.452938  0.386577  0.773927  1
  F  F14  1  0.731261  0.386456  0.972023  1
  F  F15  1  0.789731  0.750000  0.509385  1
  F  F16  1  0.711163  0.750000  0.008508  1
  F  F17  1  0.249331  0.595320  0.013825  1
  F  F18  1  0.452938  0.113423  0.773927  1
  F  F19  1  0.062549  0.405216  0.261399  1
  F  F20  1  0.603907  0.250000  0.255113  1
  F  F21  1  0.567318  0.595000  0.238977  1
  F  F22  1  0.856818  0.250000  0.768515  1
  F  F23  1  0.107675  0.750000  0.244967  1
  F  F24  1  0.062549  0.094784  0.261399  1
  F  F25  1  0.935279  0.594842  0.740286  1
  F  F26  1  0.395536  0.750000  0.746188  1
  F  F27  1  0.751049  0.094619  0.484628  1
