# generated using pymatgen
data_Tm4FeB12Ir
_symmetry_space_group_name_H-M   'P 1'
_cell_length_a   3.56552400
_cell_length_b   9.06725926
_cell_length_c   11.42519205
_cell_angle_alpha   90.07201342
_cell_angle_beta   90.00000000
_cell_angle_gamma   90.00000000
_symmetry_Int_Tables_number   1
_chemical_formula_structural   Tm4FeB12Ir
_chemical_formula_sum   'Tm8 Fe2 B24 Ir2'
_cell_volume   369.37080293
_cell_formula_units_Z   2
loop_
 _symmetry_equiv_pos_site_id
 _symmetry_equiv_pos_as_xyz
  1  'x, y, z'
loop_
 _atom_site_type_symbol
 _atom_site_label
 _atom_site_symmetry_multiplicity
 _atom_site_fract_x
 _atom_site_fract_y
 _atom_site_fract_z
 _atom_site_occupancy
  Tm  Tm0  1  0.000000  0.325984  0.416038  1
  Tm  Tm1  1  0.000000  0.674016  0.583962  1
  Tm  Tm2  1  0.000000  0.817729  0.089461  1
  Tm  Tm3  1  0.000000  0.182271  0.910539  1
  Tm  Tm4  1  0.000000  0.939423  0.374935  1
  Tm  Tm5  1  0.000000  0.060577  0.625065  1
  Tm  Tm6  1  0.000000  0.446970  0.128403  1
  Tm  Tm7  1  0.000000  0.553030  0.871597  1
  Fe  Fe8  1  0.000000  0.638600  0.320656  1
  Fe  Fe9  1  0.000000  0.361400  0.679344  1
  B  B10  1  0.500000  0.553868  0.432888  1
  B  B11  1  0.500000  0.446132  0.567112  1
  B  B12  1  0.500000  0.053073  0.065717  1
  B  B13  1  0.500000  0.946927  0.934283  1
  B  B14  1  0.500000  0.746261  0.419166  1
  B  B15  1  0.500000  0.253739  0.580834  1
  B  B16  1  0.500000  0.250792  0.078952  1
  B  B17  1  0.500000  0.749208  0.921048  1
  B  B18  1  0.500000  0.790302  0.266641  1
  B  B19  1  0.500000  0.209698  0.733359  1
  B  B20  1  0.500000  0.293561  0.235266  1
  B  B21  1  0.500000  0.706439  0.764734  1
  B  B22  1  0.500000  0.631938  0.186313  1
  B  B23  1  0.500000  0.368062  0.813687  1
  B  B24  1  0.500000  0.131978  0.317004  1
  B  B25  1  0.500000  0.868022  0.682996  1
  B  B26  1  0.500000  0.980343  0.213727  1
  B  B27  1  0.500000  0.019657  0.786273  1
  B  B28  1  0.500000  0.484987  0.288494  1
  B  B29  1  0.500000  0.515013  0.711506  1
  B  B30  1  0.500000  0.608162  0.029886  1
  B  B31  1  0.500000  0.391838  0.970114  1
  B  B32  1  0.500000  0.110439  0.469759  1
  B  B33  1  0.500000  0.889561  0.530241  1
  Ir  Ir34  1  0.000000  0.137757  0.178536  1
  Ir  Ir35  1  0.000000  0.862243  0.821464  1
