# generated using pymatgen
data_Nd9Sm(Ni2Sn5)4
_symmetry_space_group_name_H-M   'P 1'
_cell_length_a   13.97674385
_cell_length_b   13.97674385
_cell_length_c   4.54997000
_cell_angle_alpha   90.00000000
_cell_angle_beta   90.00000000
_cell_angle_gamma   89.96010498
_symmetry_Int_Tables_number   1
_chemical_formula_structural   Nd9Sm(Ni2Sn5)4
_chemical_formula_sum   'Nd9 Sm1 Ni8 Sn20'
_cell_volume   888.83355103
_cell_formula_units_Z   1
loop_
 _symmetry_equiv_pos_site_id
 _symmetry_equiv_pos_as_xyz
  1  'x, y, z'
loop_
 _atom_site_type_symbol
 _atom_site_label
 _atom_site_symmetry_multiplicity
 _atom_site_fract_x
 _atom_site_fract_y
 _atom_site_fract_z
 _atom_site_occupancy
  Nd  Nd0  1  0.000031  0.999956  0.000000  1
  Nd  Nd1  1  0.499956  0.500031  0.000000  1
  Nd  Nd2  1  0.818398  0.318398  0.500000  1
  Nd  Nd3  1  0.681565  0.818399  0.500000  1
  Nd  Nd4  1  0.318399  0.181565  0.500000  1
  Nd  Nd5  1  0.892577  0.607606  0.500000  1
  Nd  Nd6  1  0.107606  0.392577  0.500000  1
  Nd  Nd7  1  0.392342  0.892342  0.500000  1
  Nd  Nd8  1  0.607526  0.107526  0.500000  1
  Sm  Sm9  1  0.181311  0.681311  0.500000  1
  Ni  Ni10  1  0.256462  0.533953  0.000000  1
  Ni  Ni11  1  0.743298  0.466487  0.000000  1
  Ni  Ni12  1  0.756696  0.966486  0.000000  1
  Ni  Ni13  1  0.243294  0.033473  0.000000  1
  Ni  Ni14  1  0.466486  0.256696  0.000000  1
  Ni  Ni15  1  0.533473  0.743294  0.000000  1
  Ni  Ni16  1  0.033953  0.756462  0.000000  1
  Ni  Ni17  1  0.966487  0.243298  0.000000  1
  Sn  Sn18  1  0.350939  0.700380  0.000000  1
  Sn  Sn19  1  0.648535  0.299555  0.000000  1
  Sn  Sn20  1  0.851479  0.799514  0.000000  1
  Sn  Sn21  1  0.148518  0.200452  0.000000  1
  Sn  Sn22  1  0.299514  0.351479  0.000000  1
  Sn  Sn23  1  0.700452  0.648518  0.000000  1
  Sn  Sn24  1  0.200380  0.850939  0.000000  1
  Sn  Sn25  1  0.799555  0.148535  0.000000  1
  Sn  Sn26  1  0.333720  0.507584  0.500000  1
  Sn  Sn27  1  0.666016  0.492868  0.500000  1
  Sn  Sn28  1  0.833942  0.992834  0.500000  1
  Sn  Sn29  1  0.165971  0.007263  0.500000  1
  Sn  Sn30  1  0.492834  0.333942  0.500000  1
  Sn  Sn31  1  0.507263  0.665971  0.500000  1
  Sn  Sn32  1  0.007584  0.833720  0.500000  1
  Sn  Sn33  1  0.992868  0.166016  0.500000  1
  Sn  Sn34  1  0.072316  0.572316  0.000000  1
  Sn  Sn35  1  0.928267  0.428267  0.000000  1
  Sn  Sn36  1  0.571770  0.928216  0.000000  1
  Sn  Sn37  1  0.428216  0.071770  0.000000  1
