# generated using pymatgen
data_LaCe2Pa3(Ni3Bi4)2
_symmetry_space_group_name_H-M   'P 1'
_cell_length_a   8.44486381
_cell_length_b   8.44711590
_cell_length_c   8.44486367
_cell_angle_alpha   109.67461539
_cell_angle_beta   109.45317949
_cell_angle_gamma   109.27530440
_symmetry_Int_Tables_number   1
_chemical_formula_structural   LaCe2Pa3(Ni3Bi4)2
_chemical_formula_sum   'La1 Ce2 Pa3 Ni6 Bi8'
_cell_volume   463.79331429
_cell_formula_units_Z   1
loop_
 _symmetry_equiv_pos_site_id
 _symmetry_equiv_pos_as_xyz
  1  'x, y, z'
loop_
 _atom_site_type_symbol
 _atom_site_label
 _atom_site_symmetry_multiplicity
 _atom_site_fract_x
 _atom_site_fract_y
 _atom_site_fract_z
 _atom_site_occupancy
  La  La0  1  0.626596  0.750000  0.376596  1
  Ce  Ce1  1  0.252217  0.128553  0.877362  1
  Ce  Ce2  1  0.748809  0.371447  0.623662  1
  Pa  Pa3  1  0.123998  0.877456  0.250323  1
  Pa  Pa4  1  0.372868  0.622544  0.746544  1
  Pa  Pa5  1  0.872626  0.250000  0.122626  1
  Ni  Ni6  1  0.643242  0.360380  0.237038  1
  Ni  Ni7  1  0.876657  0.139620  0.782863  1
  Ni  Ni8  1  0.369802  0.250000  0.619802  1
  Ni  Ni9  1  0.128277  0.750000  0.878277  1
  Ni  Ni10  1  0.229614  0.608843  0.368299  1
  Ni  Ni11  1  0.759456  0.891157  0.120770  1
  Bi  Bi12  1  0.335954  0.331908  0.332257  1
  Bi  Bi13  1  0.166029  0.503562  0.000427  1
  Bi  Bi14  1  0.000350  0.168092  0.504046  1
  Bi  Bi15  1  0.835389  0.832750  0.834168  1
  Bi  Bi16  1  0.496863  0.996438  0.162467  1
  Bi  Bi17  1  0.666548  0.503843  0.997131  1
  Bi  Bi18  1  0.493288  0.996157  0.662705  1
  Bi  Bi19  1  0.001417  0.667250  0.502639  1
