# generated using pymatgen
data_Li4Ni9P7Ru
_symmetry_space_group_name_H-M   'P 1'
_cell_length_a   9.05003321
_cell_length_b   9.01789933
_cell_length_c   3.59443600
_cell_angle_alpha   90.00000000
_cell_angle_beta   90.00000000
_cell_angle_gamma   119.75636654
_symmetry_Int_Tables_number   1
_chemical_formula_structural   Li4Ni9P7Ru
_chemical_formula_sum   'Li4 Ni9 P7 Ru1'
_cell_volume   254.67007392
_cell_formula_units_Z   1
loop_
 _symmetry_equiv_pos_site_id
 _symmetry_equiv_pos_as_xyz
  1  'x, y, z'
loop_
 _atom_site_type_symbol
 _atom_site_label
 _atom_site_symmetry_multiplicity
 _atom_site_fract_x
 _atom_site_fract_y
 _atom_site_fract_z
 _atom_site_occupancy
  Li  Li0  1  0.896799  0.120191  0.500000  1
  Li  Li1  1  0.222035  0.100770  0.500000  1
  Li  Li2  1  0.331817  0.664270  0.000000  1
  Li  Li3  1  0.664761  0.331486  0.500000  1
  Ni  Ni4  1  0.713385  0.883615  0.000000  1
  Ni  Ni5  1  0.160255  0.276271  0.000000  1
  Ni  Ni6  1  0.124948  0.835819  0.000000  1
  Ni  Ni7  1  0.629077  0.567164  0.000000  1
  Ni  Ni8  1  0.941662  0.373515  0.000000  1
  Ni  Ni9  1  0.429626  0.056603  0.000000  1
  Ni  Ni10  1  0.564622  0.953649  0.500000  1
  Ni  Ni11  1  0.388273  0.437384  0.500000  1
  Ni  Ni12  1  0.052853  0.611887  0.500000  1
  P  P13  1  0.587314  0.710138  0.500000  1
  P  P14  1  0.126746  0.414667  0.500000  1
  P  P15  1  0.290885  0.871393  0.500000  1
  P  P16  1  0.995325  0.990711  0.000000  1
  P  P17  1  0.879140  0.581890  0.000000  1
  P  P18  1  0.699019  0.126637  0.000000  1
  P  P19  1  0.421897  0.300125  0.000000  1
  Ru  Ru20  1  0.879563  0.791816  0.500000  1
