# generated using pymatgen
data_Er8Tc2B24IrRh
_symmetry_space_group_name_H-M   'P 1'
_cell_length_a   3.65078100
_cell_length_b   9.10723378
_cell_length_c   11.49112261
_cell_angle_alpha   90.33019314
_cell_angle_beta   90.00000000
_cell_angle_gamma   90.00000000
_symmetry_Int_Tables_number   1
_chemical_formula_structural   Er8Tc2B24IrRh
_chemical_formula_sum   'Er8 Tc2 B24 Ir1 Rh1'
_cell_volume   382.05643007
_cell_formula_units_Z   1
loop_
 _symmetry_equiv_pos_site_id
 _symmetry_equiv_pos_as_xyz
  1  'x, y, z'
loop_
 _atom_site_type_symbol
 _atom_site_label
 _atom_site_symmetry_multiplicity
 _atom_site_fract_x
 _atom_site_fract_y
 _atom_site_fract_z
 _atom_site_occupancy
  Er  Er0  1  0.500000  0.318259  0.410372  1
  Er  Er1  1  0.500000  0.681963  0.589103  1
  Er  Er2  1  0.500000  0.173419  0.917479  1
  Er  Er3  1  0.500000  0.826578  0.082830  1
  Er  Er4  1  0.500000  0.442054  0.126671  1
  Er  Er5  1  0.500000  0.558341  0.873878  1
  Er  Er6  1  0.500000  0.052911  0.628039  1
  Er  Er7  1  0.500000  0.946304  0.371616  1
  Tc  Tc8  1  0.500000  0.139306  0.179922  1
  Tc  Tc9  1  0.500000  0.860768  0.819966  1
  B  B10  1  0.000000  0.108091  0.470871  1
  B  B11  1  0.000000  0.891787  0.529050  1
  B  B12  1  0.000000  0.392881  0.970222  1
  B  B13  1  0.000000  0.607231  0.029851  1
  B  B14  1  0.000000  0.132539  0.314967  1
  B  B15  1  0.000000  0.867473  0.684961  1
  B  B16  1  0.000000  0.367533  0.816378  1
  B  B17  1  0.000000  0.632848  0.183432  1
  B  B18  1  0.000000  0.053255  0.067174  1
  B  B19  1  0.000000  0.946711  0.932821  1
  B  B20  1  0.000000  0.445704  0.565809  1
  B  B21  1  0.000000  0.554278  0.434211  1
  B  B22  1  0.000000  0.483474  0.287629  1
  B  B23  1  0.000000  0.516943  0.712731  1
  B  B24  1  0.000000  0.016781  0.786971  1
  B  B25  1  0.000000  0.983283  0.213058  1
  B  B26  1  0.000000  0.248276  0.080698  1
  B  B27  1  0.000000  0.751743  0.919305  1
  B  B28  1  0.000000  0.250189  0.578651  1
  B  B29  1  0.000000  0.749471  0.421412  1
  B  B30  1  0.000000  0.293271  0.234607  1
  B  B31  1  0.000000  0.706758  0.765430  1
  B  B32  1  0.000000  0.207817  0.734440  1
  B  B33  1  0.000000  0.791880  0.265210  1
  Ir  Ir34  1  0.500000  0.361941  0.678380  1
  Rh  Rh35  1  0.500000  0.637939  0.321855  1
