# generated using pymatgen
data_Ca3Pr15(NdGa6)2
_symmetry_space_group_name_H-M   'P 1'
_cell_length_a   7.94463602
_cell_length_b   7.94486602
_cell_length_c   14.63961401
_cell_angle_alpha   90.00073555
_cell_angle_beta   89.99583367
_cell_angle_gamma   89.99265842
_symmetry_Int_Tables_number   1
_chemical_formula_structural   Ca3Pr15(NdGa6)2
_chemical_formula_sum   'Ca3 Pr15 Nd2 Ga12'
_cell_volume   924.03879293
_cell_formula_units_Z   1
loop_
 _symmetry_equiv_pos_site_id
 _symmetry_equiv_pos_as_xyz
  1  'x, y, z'
loop_
 _atom_site_type_symbol
 _atom_site_label
 _atom_site_symmetry_multiplicity
 _atom_site_fract_x
 _atom_site_fract_y
 _atom_site_fract_z
 _atom_site_occupancy
  Ca  Ca0  1  0.999933  0.500103  0.735188  1
  Ca  Ca1  1  0.000021  0.500004  0.238675  1
  Ca  Ca2  1  0.499994  0.000013  0.257876  1
  Pr  Pr3  1  0.177083  0.833320  0.101275  1
  Pr  Pr4  1  0.166847  0.821731  0.397039  1
  Pr  Pr5  1  0.832959  0.178096  0.397048  1
  Pr  Pr6  1  0.678345  0.667096  0.397004  1
  Pr  Pr7  1  0.666131  0.318497  0.602727  1
  Pr  Pr8  1  0.334084  0.681640  0.602733  1
  Pr  Pr9  1  0.666721  0.677145  0.101261  1
  Pr  Pr10  1  0.679067  0.339299  0.897636  1
  Pr  Pr11  1  0.839339  0.820919  0.897620  1
  Pr  Pr12  1  0.321665  0.332897  0.397002  1
  Pr  Pr13  1  0.181304  0.165860  0.602756  1
  Pr  Pr14  1  0.822916  0.166668  0.101269  1
  Pr  Pr15  1  0.320948  0.660693  0.897654  1
  Pr  Pr16  1  0.333279  0.322875  0.101267  1
  Pr  Pr17  1  0.160622  0.179058  0.897586  1
  Nd  Nd18  1  0.818593  0.834237  0.603302  1
  Nd  Nd19  1  0.500144  0.999929  0.783828  1
  Ga  Ga20  1  0.617543  0.382835  0.249403  1
  Ga  Ga21  1  0.119553  0.882617  0.748249  1
  Ga  Ga22  1  0.382822  0.380224  0.748415  1
  Ga  Ga23  1  0.382452  0.617156  0.249418  1
  Ga  Ga24  1  0.882804  0.882471  0.249383  1
  Ga  Ga25  1  0.617483  0.620126  0.748259  1
  Ga  Ga26  1  0.999746  0.500397  0.503754  1
  Ga  Ga27  1  0.879994  0.116883  0.748188  1
  Ga  Ga28  1  0.500422  0.999650  0.491988  1
  Ga  Ga29  1  0.499996  0.999985  0.998821  1
  Ga  Ga30  1  0.117176  0.117572  0.249414  1
  Ga  Ga31  1  0.000016  0.500005  0.003964  1
