# generated using pymatgen
data_Ho14(P8Ir11)3
_symmetry_space_group_name_H-M   'P 1'
_cell_length_a   12.03746618
_cell_length_b   12.03746657
_cell_length_c   26.82213800
_cell_angle_alpha   68.46793228
_cell_angle_beta   68.46793154
_cell_angle_gamma   18.88260339
_symmetry_Int_Tables_number   1
_chemical_formula_structural   Ho14(P8Ir11)3
_chemical_formula_sum   'Ho14 P24 Ir33'
_cell_volume   1167.50250949
_cell_formula_units_Z   1
loop_
 _symmetry_equiv_pos_site_id
 _symmetry_equiv_pos_as_xyz
  1  'x, y, z'
loop_
 _atom_site_type_symbol
 _atom_site_label
 _atom_site_symmetry_multiplicity
 _atom_site_fract_x
 _atom_site_fract_y
 _atom_site_fract_z
 _atom_site_occupancy
  Ho  Ho0  1  0.579902  0.579902  0.372872  1
  Ho  Ho1  1  0.582546  0.582546  0.873146  1
  Ho  Ho2  1  0.417825  0.417825  0.126434  1
  Ho  Ho3  1  0.417957  0.417957  0.626169  1
  Ho  Ho4  1  0.768583  0.768583  0.346656  1
  Ho  Ho5  1  0.765811  0.765811  0.844736  1
  Ho  Ho6  1  0.233468  0.233468  0.155933  1
  Ho  Ho7  1  0.234725  0.234725  0.655195  1
  Ho  Ho8  1  0.500820  0.500820  0.252498  1
  Ho  Ho9  1  0.499975  0.499975  0.750020  1
  Ho  Ho10  1  0.631934  0.631934  0.002054  1
  Ho  Ho11  1  0.633757  0.633757  0.500806  1
  Ho  Ho12  1  0.369600  0.369600  0.495826  1
  Ho  Ho13  1  0.368369  0.368369  0.998469  1
  P  P14  1  0.633210  0.633210  0.211459  1
  P  P15  1  0.633625  0.633625  0.710900  1
  P  P16  1  0.368530  0.368530  0.286717  1
  P  P17  1  0.366606  0.366606  0.789006  1
  P  P18  1  0.114134  0.114134  0.085017  1
  P  P19  1  0.114788  0.114788  0.583967  1
  P  P20  1  0.882138  0.882138  0.413155  1
  P  P21  1  0.885815  0.885815  0.916072  1
  P  P22  1  0.984850  0.984850  0.165919  1
  P  P23  1  0.985250  0.985250  0.665629  1
  P  P24  1  0.011062  0.011062  0.337475  1
  P  P25  1  0.015274  0.015274  0.834361  1
  P  P26  1  0.765908  0.765908  0.058432  1
  P  P27  1  0.766819  0.766819  0.557761  1
  P  P28  1  0.239048  0.239048  0.442925  1
  P  P29  1  0.233737  0.233737  0.941983  1
  P  P30  1  0.937624  0.937624  0.037362  1
  P  P31  1  0.938994  0.938994  0.535298  1
  P  P32  1  0.064709  0.064709  0.461557  1
  P  P33  1  0.062269  0.062269  0.963320  1
  P  P34  1  0.810147  0.810147  0.188991  1
  P  P35  1  0.812786  0.812786  0.688145  1
  P  P36  1  0.187583  0.187583  0.310857  1
  P  P37  1  0.188229  0.188229  0.811183  1
  Ir  Ir38  1  0.779622  0.779622  0.462812  1
  Ir  Ir39  1  0.781698  0.781698  0.963743  1
  Ir  Ir40  1  0.218111  0.218111  0.036508  1
  Ir  Ir41  1  0.219211  0.219211  0.538116  1
  Ir  Ir42  1  0.090732  0.090732  0.176225  1
  Ir  Ir43  1  0.090157  0.090157  0.675216  1
  Ir  Ir44  1  0.904823  0.904823  0.321481  1
  Ir  Ir45  1  0.908871  0.908871  0.825039  1
  Ir  Ir46  1  0.448488  0.448488  0.372781  1
  Ir  Ir47  1  0.459352  0.459352  0.868863  1
  Ir  Ir48  1  0.540088  0.540088  0.132311  1
  Ir  Ir49  1  0.540469  0.540469  0.630769  1
  Ir  Ir50  1  0.166745  0.166745  0.403107  1
  Ir  Ir51  1  0.161749  0.161749  0.903740  1
  Ir  Ir52  1  0.837939  0.837939  0.096250  1
  Ir  Ir53  1  0.839458  0.839458  0.595403  1
  Ir  Ir54  1  0.109925  0.109925  0.274662  1
  Ir  Ir55  1  0.112626  0.112626  0.771111  1
  Ir  Ir56  1  0.886766  0.886766  0.226085  1
  Ir  Ir57  1  0.887780  0.887780  0.728452  1
  Ir  Ir58  1  0.704221  0.704221  0.257718  1
  Ir  Ir59  1  0.704317  0.704317  0.758468  1
  Ir  Ir60  1  0.295198  0.295198  0.244473  1
  Ir  Ir61  1  0.296039  0.296039  0.741051  1
  Ir  Ir62  1  0.500153  0.500153  0.000231  1
  Ir  Ir63  1  0.502477  0.502477  0.497989  1
  Ir  Ir64  1  0.974315  0.974315  0.436040  1
  Ir  Ir65  1  0.972704  0.972704  0.938292  1
  Ir  Ir66  1  0.028259  0.028259  0.061750  1
  Ir  Ir67  1  0.028699  0.028699  0.560498  1
  Ir  Ir68  1  0.333915  0.333915  0.886169  1
  Ir  Ir69  1  0.665678  0.665678  0.113917  1
  Ir  Ir70  1  0.666132  0.666132  0.614802  1
