# generated using pymatgen
data_Tb6Dy2In3Os
_symmetry_space_group_name_H-M   'P 1'
_cell_length_a   10.32609600
_cell_length_b   10.31990068
_cell_length_c   7.06343400
_cell_angle_alpha   90.02954203
_cell_angle_beta   90.00000000
_cell_angle_gamma   120.01985424
_symmetry_Int_Tables_number   1
_chemical_formula_structural   Tb6Dy2In3Os
_chemical_formula_sum   'Tb12 Dy4 In6 Os2'
_cell_volume   651.73523430
_cell_formula_units_Z   2
loop_
 _symmetry_equiv_pos_site_id
 _symmetry_equiv_pos_as_xyz
  1  'x, y, z'
loop_
 _atom_site_type_symbol
 _atom_site_label
 _atom_site_symmetry_multiplicity
 _atom_site_fract_x
 _atom_site_fract_y
 _atom_site_fract_z
 _atom_site_occupancy
  Tb  Tb0  1  0.065952  0.532994  0.293915  1
  Tb  Tb1  1  0.467042  0.532994  0.293915  1
  Tb  Tb2  1  0.823437  0.646872  0.499759  1
  Tb  Tb3  1  0.353138  0.176487  0.499549  1
  Tb  Tb4  1  0.823348  0.176487  0.499549  1
  Tb  Tb5  1  0.176458  0.352915  0.999608  1
  Tb  Tb6  1  0.646872  0.823496  0.999479  1
  Tb  Tb7  1  0.176624  0.823496  0.999479  1
  Tb  Tb8  1  0.666613  0.333225  0.167587  1
  Tb  Tb9  1  0.333419  0.666840  0.667979  1
  Tb  Tb10  1  0.000017  0.000033  0.779023  1
  Tb  Tb11  1  0.999992  0.999984  0.278996  1
  Dy  Dy12  1  0.533114  0.066229  0.793791  1
  Dy  Dy13  1  0.933805  0.466905  0.793864  1
  Dy  Dy14  1  0.533101  0.466905  0.793864  1
  Dy  Dy15  1  0.466954  0.933909  0.293999  1
  In  In16  1  0.836884  0.673772  0.040459  1
  In  In17  1  0.326414  0.163191  0.040509  1
  In  In18  1  0.836775  0.163191  0.040509  1
  In  In19  1  0.163027  0.326052  0.540956  1
  In  In20  1  0.673831  0.836969  0.540776  1
  In  In21  1  0.163138  0.836969  0.540776  1
  Os  Os22  1  0.666657  0.333314  0.569067  1
  Os  Os23  1  0.333385  0.666770  0.068501  1
