# generated using pymatgen
data_Cs4Na2PrHoSb4
_symmetry_space_group_name_H-M   'P 1'
_cell_length_a   11.73705290
_cell_length_b   11.73705137
_cell_length_c   7.68084400
_cell_angle_alpha   90.00000000
_cell_angle_beta   90.00000000
_cell_angle_gamma   99.26425015
_symmetry_Int_Tables_number   1
_chemical_formula_structural   Cs4Na2PrHoSb4
_chemical_formula_sum   'Cs8 Na4 Pr2 Ho2 Sb8'
_cell_volume   1044.29923744
_cell_formula_units_Z   2
loop_
 _symmetry_equiv_pos_site_id
 _symmetry_equiv_pos_as_xyz
  1  'x, y, z'
loop_
 _atom_site_type_symbol
 _atom_site_label
 _atom_site_symmetry_multiplicity
 _atom_site_fract_x
 _atom_site_fract_y
 _atom_site_fract_z
 _atom_site_occupancy
  Cs  Cs0  1  0.067110  0.432890  0.250000  1
  Cs  Cs1  1  0.432890  0.067110  0.750000  1
  Cs  Cs2  1  0.928394  0.571606  0.750000  1
  Cs  Cs3  1  0.571606  0.928394  0.250000  1
  Cs  Cs4  1  0.679787  0.323085  0.211957  1
  Cs  Cs5  1  0.820213  0.176915  0.711957  1
  Cs  Cs6  1  0.323085  0.679787  0.788043  1
  Cs  Cs7  1  0.176915  0.820213  0.288043  1
  Na  Na8  1  0.382472  0.382472  0.000000  1
  Na  Na9  1  0.117528  0.117528  0.500000  1
  Na  Na10  1  0.618502  0.618502  0.000000  1
  Na  Na11  1  0.881498  0.881498  0.500000  1
  Pr  Pr12  1  0.130612  0.130612  0.000000  1
  Pr  Pr13  1  0.369388  0.369388  0.500000  1
  Ho  Ho14  1  0.867139  0.867139  0.000000  1
  Ho  Ho15  1  0.632861  0.632861  0.500000  1
  Sb  Sb16  1  0.839238  0.660761  0.250000  1
  Sb  Sb17  1  0.660761  0.839238  0.750000  1
  Sb  Sb18  1  0.153131  0.346868  0.750000  1
  Sb  Sb19  1  0.346868  0.153131  0.250000  1
  Sb  Sb20  1  0.899870  0.090563  0.213668  1
  Sb  Sb21  1  0.600130  0.409437  0.713668  1
  Sb  Sb22  1  0.090563  0.899870  0.786332  1
  Sb  Sb23  1  0.409437  0.600130  0.286332  1
