# generated using pymatgen
data_LaYAlCu9
_symmetry_space_group_name_H-M   'P 1'
_cell_length_a   4.10574700
_cell_length_b   5.11266900
_cell_length_c   8.93006100
_cell_angle_alpha   90.00000000
_cell_angle_beta   90.00000000
_cell_angle_gamma   90.00000000
_symmetry_Int_Tables_number   1
_chemical_formula_structural   LaYAlCu9
_chemical_formula_sum   'La1 Y1 Al1 Cu9'
_cell_volume   187.45381637
_cell_formula_units_Z   1
loop_
 _symmetry_equiv_pos_site_id
 _symmetry_equiv_pos_as_xyz
  1  'x, y, z'
loop_
 _atom_site_type_symbol
 _atom_site_label
 _atom_site_symmetry_multiplicity
 _atom_site_fract_x
 _atom_site_fract_y
 _atom_site_fract_z
 _atom_site_occupancy
  La  La0  1  0.000000  0.500000  0.000000  1
  Y  Y1  1  0.000000  0.000000  0.500000  1
  Al  Al2  1  0.500000  0.500000  0.500000  1
  Cu  Cu3  1  0.000000  0.500000  0.339237  1
  Cu  Cu4  1  0.000000  0.000000  0.827784  1
  Cu  Cu5  1  0.000000  0.000000  0.172216  1
  Cu  Cu6  1  0.000000  0.500000  0.660763  1
  Cu  Cu7  1  0.500000  0.000000  0.000000  1
  Cu  Cu8  1  0.500000  0.754948  0.254402  1
  Cu  Cu9  1  0.500000  0.245052  0.745598  1
  Cu  Cu10  1  0.500000  0.245052  0.254402  1
  Cu  Cu11  1  0.500000  0.754948  0.745598  1
