# generated using pymatgen
data_K8Ti4AsP(O4F9)2
_symmetry_space_group_name_H-M   'P 1'
_cell_length_a   11.16271500
_cell_length_b   5.93705218
_cell_length_c   20.49010500
_cell_angle_alpha   74.14203170
_cell_angle_beta   90.00000000
_cell_angle_gamma   90.00000000
_symmetry_Int_Tables_number   1
_chemical_formula_structural   K8Ti4AsP(O4F9)2
_chemical_formula_sum   'K16 Ti8 As2 P2 O16 F36'
_cell_volume   1306.27250363
_cell_formula_units_Z   2
loop_
 _symmetry_equiv_pos_site_id
 _symmetry_equiv_pos_as_xyz
  1  'x, y, z'
loop_
 _atom_site_type_symbol
 _atom_site_label
 _atom_site_symmetry_multiplicity
 _atom_site_fract_x
 _atom_site_fract_y
 _atom_site_fract_z
 _atom_site_occupancy
  K  K0  1  0.044411  0.653340  0.830909  1
  K  K1  1  0.453313  0.658384  0.331231  1
  K  K2  1  0.271583  0.459074  0.513583  1
  K  K3  1  0.729853  0.545700  0.481962  1
  K  K4  1  0.756611  0.122872  0.862490  1
  K  K5  1  0.771583  0.540926  0.986417  1
  K  K6  1  0.456892  0.637364  0.847891  1
  K  K7  1  0.044756  0.646748  0.346973  1
  K  K8  1  0.243235  0.872682  0.139736  1
  K  K9  1  0.956892  0.362636  0.652109  1
  K  K10  1  0.544756  0.353252  0.153027  1
  K  K11  1  0.544411  0.346660  0.669091  1
  K  K12  1  0.256611  0.877128  0.637510  1
  K  K13  1  0.229853  0.454300  0.018038  1
  K  K14  1  0.743235  0.127318  0.360264  1
  K  K15  1  0.953313  0.341616  0.168769  1
  Ti  Ti16  1  0.003590  0.998895  0.499151  1
  Ti  Ti17  1  0.744756  0.713126  0.758407  1
  Ti  Ti18  1  0.253975  0.280857  0.244373  1
  Ti  Ti19  1  0.244756  0.286874  0.741593  1
  Ti  Ti20  1  0.503590  0.001105  0.000849  1
  Ti  Ti21  1  0.997633  0.997662  0.002425  1
  Ti  Ti22  1  0.753975  0.719143  0.255627  1
  Ti  Ti23  1  0.497633  0.002338  0.497575  1
  As  As24  1  0.753402  0.957632  0.592585  1
  As  As25  1  0.253402  0.042368  0.907415  1
  P  P26  1  0.746599  0.953038  0.093184  1
  P  P27  1  0.246599  0.046962  0.406816  1
  O  O28  1  0.161592  0.079129  0.971960  1
  O  O29  1  0.391633  0.139783  0.926632  1
  O  O30  1  0.748629  0.198078  0.101265  1
  O  O31  1  0.621250  0.874892  0.072734  1
  O  O32  1  0.835672  0.919552  0.037340  1
  O  O33  1  0.248629  0.801922  0.398735  1
  O  O34  1  0.335672  0.080448  0.462660  1
  O  O35  1  0.208417  0.257227  0.835651  1
  O  O36  1  0.708417  0.742773  0.664349  1
  O  O37  1  0.281958  0.237377  0.339729  1
  O  O38  1  0.121250  0.125108  0.427266  1
  O  O39  1  0.249494  0.770970  0.898128  1
  O  O40  1  0.661592  0.920871  0.528040  1
  O  O41  1  0.749494  0.229030  0.601872  1
  O  O42  1  0.891633  0.860217  0.573368  1
  O  O43  1  0.781958  0.762623  0.160271  1
  F  F44  1  0.964935  0.853540  0.932453  1
  F  F45  1  0.439840  0.716689  0.556542  1
  F  F46  1  0.773413  0.667814  0.853639  1
  F  F47  1  0.131903  0.055968  0.257571  1
  F  F48  1  0.127354  0.529101  0.718387  1
  F  F49  1  0.138253  0.521025  0.239381  1
  F  F50  1  0.032947  0.144254  0.071552  1
  F  F51  1  0.365938  0.059772  0.760140  1
  F  F52  1  0.897788  0.249072  0.459383  1
  F  F53  1  0.939840  0.283311  0.943458  1
  F  F54  1  0.464935  0.146460  0.567547  1
  F  F55  1  0.865938  0.940228  0.739860  1
  F  F56  1  0.372808  0.520532  0.222594  1
  F  F57  1  0.362266  0.524949  0.736556  1
  F  F58  1  0.930085  0.826530  0.443567  1
  F  F59  1  0.868786  0.944538  0.263313  1
  F  F60  1  0.728596  0.665806  0.351628  1
  F  F61  1  0.106554  0.747701  0.540638  1
  F  F62  1  0.075211  0.177859  0.553261  1
  F  F63  1  0.397788  0.750928  0.040617  1
  F  F64  1  0.532947  0.855746  0.428448  1
  F  F65  1  0.553506  0.293071  0.440181  1
  F  F66  1  0.631903  0.944032  0.242429  1
  F  F67  1  0.273413  0.332186  0.646361  1
  F  F68  1  0.430085  0.173470  0.056433  1
  F  F69  1  0.862266  0.475051  0.763444  1
  F  F70  1  0.130565  0.059657  0.734318  1
  F  F71  1  0.053506  0.706929  0.059819  1
  F  F72  1  0.228596  0.334194  0.148372  1
  F  F73  1  0.872808  0.479468  0.277406  1
  F  F74  1  0.630565  0.940343  0.765682  1
  F  F75  1  0.638253  0.478975  0.260619  1
  F  F76  1  0.606554  0.252299  0.959362  1
  F  F77  1  0.368786  0.055462  0.236687  1
  F  F78  1  0.575211  0.822141  0.946739  1
  F  F79  1  0.627354  0.470899  0.781613  1
