# generated using pymatgen
data_Tb5Tm5(Bi2Ir)2
_symmetry_space_group_name_H-M   'P 1'
_cell_length_a   7.95007661
_cell_length_b   9.00647000
_cell_length_c   12.52691306
_cell_angle_alpha   90.00000000
_cell_angle_beta   89.87746167
_cell_angle_gamma   90.00000000
_symmetry_Int_Tables_number   1
_chemical_formula_structural   Tb5Tm5(Bi2Ir)2
_chemical_formula_sum   'Tb10 Tm10 Bi8 Ir4'
_cell_volume   896.95156215
_cell_formula_units_Z   2
loop_
 _symmetry_equiv_pos_site_id
 _symmetry_equiv_pos_as_xyz
  1  'x, y, z'
loop_
 _atom_site_type_symbol
 _atom_site_label
 _atom_site_symmetry_multiplicity
 _atom_site_fract_x
 _atom_site_fract_y
 _atom_site_fract_z
 _atom_site_occupancy
  Tb  Tb0  1  0.342218  0.250000  0.707155  1
  Tb  Tb1  1  0.657782  0.750000  0.292845  1
  Tb  Tb2  1  0.376457  0.750000  0.693199  1
  Tb  Tb3  1  0.623543  0.250000  0.306801  1
  Tb  Tb4  1  0.875384  0.250000  0.807084  1
  Tb  Tb5  1  0.124616  0.750000  0.192916  1
  Tb  Tb6  1  0.945666  0.750000  0.501829  1
  Tb  Tb7  1  0.054334  0.250000  0.498171  1
  Tb  Tb8  1  0.445245  0.250000  0.998466  1
  Tb  Tb9  1  0.554755  0.750000  0.001534  1
  Tm  Tm10  1  0.843757  0.750000  0.795003  1
  Tm  Tm11  1  0.156243  0.250000  0.204997  1
  Tm  Tm12  1  0.673667  0.041537  0.565525  1
  Tm  Tm13  1  0.326333  0.958463  0.434475  1
  Tm  Tm14  1  0.173289  0.957787  0.934220  1
  Tm  Tm15  1  0.326333  0.541537  0.434475  1
  Tm  Tm16  1  0.826711  0.042213  0.065780  1
  Tm  Tm17  1  0.673667  0.458463  0.565525  1
  Tm  Tm18  1  0.826711  0.457787  0.065780  1
  Tm  Tm19  1  0.173289  0.542213  0.934220  1
  Bi  Bi20  1  0.568666  0.492308  0.826922  1
  Bi  Bi21  1  0.431334  0.507692  0.173078  1
  Bi  Bi22  1  0.065597  0.509500  0.673513  1
  Bi  Bi23  1  0.431334  0.992308  0.173078  1
  Bi  Bi24  1  0.934403  0.490500  0.326487  1
  Bi  Bi25  1  0.568666  0.007692  0.826922  1
  Bi  Bi26  1  0.934403  0.009500  0.326487  1
  Bi  Bi27  1  0.065597  0.990500  0.673513  1
  Ir  Ir28  1  0.569223  0.750000  0.507813  1
  Ir  Ir29  1  0.430777  0.250000  0.492187  1
  Ir  Ir30  1  0.070038  0.250000  0.992421  1
  Ir  Ir31  1  0.929962  0.750000  0.007579  1
