# generated using pymatgen
data_LiAl11Os2
_symmetry_space_group_name_H-M   'P 1'
_cell_length_a   5.00029197
_cell_length_b   5.00029264
_cell_length_c   8.96197741
_cell_angle_alpha   89.23248300
_cell_angle_beta   89.23247968
_cell_angle_gamma   98.05031908
_symmetry_Int_Tables_number   1
_chemical_formula_structural   LiAl11Os2
_chemical_formula_sum   'Li1 Al11 Os2'
_cell_volume   221.82117133
_cell_formula_units_Z   1
loop_
 _symmetry_equiv_pos_site_id
 _symmetry_equiv_pos_as_xyz
  1  'x, y, z'
loop_
 _atom_site_type_symbol
 _atom_site_label
 _atom_site_symmetry_multiplicity
 _atom_site_fract_x
 _atom_site_fract_y
 _atom_site_fract_z
 _atom_site_occupancy
  Li  Li0  1  0.144044  0.144044  0.090657  1
  Al  Al1  1  0.669276  0.316348  0.001880  1
  Al  Al2  1  0.323192  0.676315  0.501151  1
  Al  Al3  1  0.316348  0.669276  0.001880  1
  Al  Al4  1  0.676315  0.323192  0.501151  1
  Al  Al5  1  0.871139  0.871139  0.603062  1
  Al  Al6  1  0.128895  0.128895  0.383958  1
  Al  Al7  1  0.861288  0.861288  0.909867  1
  Al  Al8  1  0.980499  0.615439  0.246846  1
  Al  Al9  1  0.021552  0.382995  0.754147  1
  Al  Al10  1  0.615439  0.980499  0.246846  1
  Al  Al11  1  0.382995  0.021552  0.754147  1
  Os  Os12  1  0.469257  0.469257  0.253940  1
  Os  Os13  1  0.539759  0.539759  0.750467  1
