# generated using pymatgen
data_GaPd8
_symmetry_space_group_name_H-M   'P 1'
_cell_length_a   6.22690469
_cell_length_b   6.22690510
_cell_length_c   6.22690506
_cell_angle_alpha   95.71342343
_cell_angle_beta   95.71341907
_cell_angle_gamma   143.21557996
_symmetry_Int_Tables_number   1
_chemical_formula_structural   GaPd8
_chemical_formula_sum   'Ga1 Pd8'
_cell_volume   137.19297301
_cell_formula_units_Z   1
loop_
 _symmetry_equiv_pos_site_id
 _symmetry_equiv_pos_as_xyz
  1  'x, y, z'
loop_
 _atom_site_type_symbol
 _atom_site_label
 _atom_site_symmetry_multiplicity
 _atom_site_fract_x
 _atom_site_fract_y
 _atom_site_fract_z
 _atom_site_occupancy
  Ga  Ga0  1  0.000000  0.000000  0.000000  1
  Pd  Pd1  1  0.663993  0.336006  0.000000  1
  Pd  Pd2  1  0.336006  0.663993  0.000000  1
  Pd  Pd3  1  0.663993  0.663993  0.327986  1
  Pd  Pd4  1  0.330192  0.000000  0.330192  1
  Pd  Pd5  1  0.000000  0.330192  0.330192  1
  Pd  Pd6  1  0.669807  0.000000  0.669807  1
  Pd  Pd7  1  0.000000  0.669807  0.669807  1
  Pd  Pd8  1  0.336006  0.336006  0.672014  1
