# generated using pymatgen
data_Cs2V2ZnFe(PO3)12
_symmetry_space_group_name_H-M   'P 1'
_cell_length_a   6.43974117
_cell_length_b   15.98059344
_cell_length_c   8.57664500
_cell_angle_alpha   80.03133690
_cell_angle_beta   103.81831740
_cell_angle_gamma   88.95732819
_symmetry_Int_Tables_number   1
_chemical_formula_structural   Cs2V2ZnFe(PO3)12
_chemical_formula_sum   'Cs2 V2 Zn1 Fe1 P12 O36'
_cell_volume   842.50769616
_cell_formula_units_Z   1
loop_
 _symmetry_equiv_pos_site_id
 _symmetry_equiv_pos_as_xyz
  1  'x, y, z'
loop_
 _atom_site_type_symbol
 _atom_site_label
 _atom_site_symmetry_multiplicity
 _atom_site_fract_x
 _atom_site_fract_y
 _atom_site_fract_z
 _atom_site_occupancy
  Cs  Cs0  1  0.072519  0.473946  0.488929  1
  Cs  Cs1  1  0.572682  0.974894  0.988961  1
  V  V2  1  0.390886  0.611467  0.168923  1
  V  V3  1  0.891040  0.111366  0.667893  1
  Zn  Zn4  1  0.117752  0.888531  0.337495  1
  Fe  Fe5  1  0.615277  0.388818  0.836729  1
  P  P6  1  0.897120  0.204072  0.981913  1
  P  P7  1  0.396048  0.704768  0.481108  1
  P  P8  1  0.008552  0.092072  0.316064  1
  P  P9  1  0.507829  0.593837  0.815963  1
  P  P10  1  0.600178  0.295608  0.514774  1
  P  P11  1  0.100498  0.796278  0.017245  1
  P  P12  1  0.489665  0.408236  0.182751  1
  P  P13  1  0.989604  0.907622  0.682294  1
  P  P14  1  0.143857  0.357151  0.923041  1
  P  P15  1  0.643758  0.857191  0.423169  1
  P  P16  1  0.356750  0.142122  0.570673  1
  P  P17  1  0.856627  0.642738  0.070968  1
  O  O18  1  0.924561  0.174226  0.175788  1
  O  O19  1  0.424711  0.675744  0.675590  1
  O  O20  1  0.576358  0.325095  0.322420  1
  O  O21  1  0.077510  0.825849  0.824789  1
  O  O22  1  0.692647  0.257742  0.917945  1
  O  O23  1  0.191653  0.758372  0.417639  1
  O  O24  1  0.871190  0.091220  0.436493  1
  O  O25  1  0.370835  0.592650  0.936602  1
  O  O26  1  0.799925  0.236500  0.576762  1
  O  O27  1  0.300536  0.737340  0.078905  1
  O  O28  1  0.641644  0.417041  0.075377  1
  O  O29  1  0.140121  0.915189  0.573573  1
  O  O30  1  0.295570  0.360515  0.815206  1
  O  O31  1  0.797250  0.862647  0.316270  1
  O  O32  1  0.569903  0.093056  0.641020  1
  O  O33  1  0.069677  0.593511  0.140310  1
  O  O34  1  0.205037  0.133113  0.680956  1
  O  O35  1  0.704865  0.633266  0.181210  1
  O  O36  1  0.939250  0.410505  0.856354  1
  O  O37  1  0.436651  0.909535  0.356834  1
  O  O38  1  0.920495  0.127168  0.904320  1
  O  O39  1  0.418646  0.627255  0.404897  1
  O  O40  1  0.020438  0.016380  0.238166  1
  O  O41  1  0.519817  0.517892  0.738715  1
  O  O42  1  0.580650  0.371946  0.588559  1
  O  O43  1  0.079759  0.872607  0.091462  1
  O  O44  1  0.450704  0.483608  0.260753  1
  O  O45  1  0.952359  0.983637  0.758863  1
  O  O46  1  0.105126  0.257562  0.980052  1
  O  O47  1  0.605620  0.757385  0.477542  1
  O  O48  1  0.249557  0.115954  0.398502  1
  O  O49  1  0.749037  0.617369  0.898165  1
  O  O50  1  0.389002  0.241389  0.517379  1
  O  O51  1  0.889182  0.742079  0.018617  1
  O  O52  1  0.257348  0.380046  0.099714  1
  O  O53  1  0.756327  0.879300  0.600754  1
