# generated using pymatgen
data_Nb3Re3SiGeB
_symmetry_space_group_name_H-M   'P 1'
_cell_length_a   6.80871200
_cell_length_b   6.80871188
_cell_length_c   3.24678600
_cell_angle_alpha   90.00000000
_cell_angle_beta   90.00000000
_cell_angle_gamma   119.99999086
_symmetry_Int_Tables_number   1
_chemical_formula_structural   Nb3Re3SiGeB
_chemical_formula_sum   'Nb3 Re3 Si1 Ge1 B1'
_cell_volume   130.35096713
_cell_formula_units_Z   1
loop_
 _symmetry_equiv_pos_site_id
 _symmetry_equiv_pos_as_xyz
  1  'x, y, z'
loop_
 _atom_site_type_symbol
 _atom_site_label
 _atom_site_symmetry_multiplicity
 _atom_site_fract_x
 _atom_site_fract_y
 _atom_site_fract_z
 _atom_site_occupancy
  Nb  Nb0  1  0.399887  0.008251  0.500000  1
  Nb  Nb1  1  0.991749  0.391636  0.500000  1
  Nb  Nb2  1  0.608364  0.600113  0.500000  1
  Re  Re3  1  0.761971  0.002412  0.000000  1
  Re  Re4  1  0.997588  0.759560  0.000000  1
  Re  Re5  1  0.240440  0.238029  0.000000  1
  Si  Si6  1  0.666667  0.333333  0.000000  1
  Ge  Ge7  1  0.333333  0.666667  0.000000  1
  B  B8  1  0.000000  0.000000  0.500000  1
