# generated using pymatgen
data_Sm2Gd4TeO12
_symmetry_space_group_name_H-M   'P 1'
_cell_length_a   6.61677268
_cell_length_b   6.60546939
_cell_length_c   6.61985948
_cell_angle_alpha   98.72853658
_cell_angle_beta   98.65638309
_cell_angle_gamma   98.56406367
_symmetry_Int_Tables_number   1
_chemical_formula_structural   Sm2Gd4TeO12
_chemical_formula_sum   'Sm2 Gd4 Te1 O12'
_cell_volume   278.32316140
_cell_formula_units_Z   1
loop_
 _symmetry_equiv_pos_site_id
 _symmetry_equiv_pos_as_xyz
  1  'x, y, z'
loop_
 _atom_site_type_symbol
 _atom_site_label
 _atom_site_symmetry_multiplicity
 _atom_site_fract_x
 _atom_site_fract_y
 _atom_site_fract_z
 _atom_site_occupancy
  Sm  Sm0  1  0.856673  0.390178  0.688310  1
  Sm  Sm1  1  0.609269  0.311559  0.143787  1
  Gd  Gd2  1  0.313090  0.144347  0.608201  1
  Gd  Gd3  1  0.685811  0.854530  0.391354  1
  Gd  Gd4  1  0.391303  0.687127  0.855126  1
  Gd  Gd5  1  0.145544  0.609815  0.314170  1
  Te  Te6  1  0.000268  0.999517  0.000210  1
  O  O7  1  0.929425  0.032549  0.706935  1
  O  O8  1  0.967022  0.293930  0.070137  1
  O  O9  1  0.592069  0.174915  0.436465  1
  O  O10  1  0.823921  0.566596  0.406234  1
  O  O11  1  0.292537  0.069929  0.966213  1
  O  O12  1  0.561613  0.407493  0.821180  1
  O  O13  1  0.434028  0.595821  0.177342  1
  O  O14  1  0.706781  0.929951  0.033307  1
  O  O15  1  0.180034  0.435464  0.591680  1
  O  O16  1  0.406619  0.822510  0.565791  1
  O  O17  1  0.033544  0.706414  0.930121  1
  O  O18  1  0.070453  0.967356  0.293436  1
