# generated using pymatgen
data_Pr7N6
_symmetry_space_group_name_H-M   'P 1'
_cell_length_a   6.41168446
_cell_length_b   6.41146629
_cell_length_c   6.41073247
_cell_angle_alpha   99.51119147
_cell_angle_beta   99.44299509
_cell_angle_gamma   99.47400934
_symmetry_Int_Tables_number   1
_chemical_formula_structural   Pr7N6
_chemical_formula_sum   'Pr7 N6'
_cell_volume   251.36254743
_cell_formula_units_Z   1
loop_
 _symmetry_equiv_pos_site_id
 _symmetry_equiv_pos_as_xyz
  1  'x, y, z'
loop_
 _atom_site_type_symbol
 _atom_site_label
 _atom_site_symmetry_multiplicity
 _atom_site_fract_x
 _atom_site_fract_y
 _atom_site_fract_z
 _atom_site_occupancy
  Pr  Pr0  1  0.759879  0.937412  0.962675  1
  Pr  Pr1  1  0.158238  0.628220  0.811626  1
  Pr  Pr2  1  0.309505  0.230554  0.120285  1
  Pr  Pr3  1  0.602783  0.387791  0.669336  1
  Pr  Pr4  1  0.000757  0.078995  0.518226  1
  Pr  Pr5  1  0.880210  0.508327  0.240441  1
  Pr  Pr6  1  0.451039  0.785988  0.361243  1
  N  N7  1  0.240849  0.431296  0.451158  1
  N  N8  1  0.959067  0.297445  0.881591  1
  N  N9  1  0.670869  0.149595  0.318755  1
  N  N10  1  0.520179  0.585447  0.031105  1
  N  N11  1  0.089436  0.867187  0.162522  1
  N  N12  1  0.802264  0.718359  0.599617  1
