# generated using pymatgen
data_Pr9Y9(ErPb8)2
_symmetry_space_group_name_H-M   'P 1'
_cell_length_a   8.34897325
_cell_length_b   8.42573041
_cell_length_c   15.96525500
_cell_angle_alpha   90.02964842
_cell_angle_beta   90.15676288
_cell_angle_gamma   90.19588371
_symmetry_Int_Tables_number   1
_chemical_formula_structural   Pr9Y9(ErPb8)2
_chemical_formula_sum   'Pr9 Y9 Er2 Pb16'
_cell_volume   1123.08406322
_cell_formula_units_Z   1
loop_
 _symmetry_equiv_pos_site_id
 _symmetry_equiv_pos_as_xyz
  1  'x, y, z'
loop_
 _atom_site_type_symbol
 _atom_site_label
 _atom_site_symmetry_multiplicity
 _atom_site_fract_x
 _atom_site_fract_y
 _atom_site_fract_z
 _atom_site_occupancy
  Pr  Pr0  1  0.127264  0.338919  0.618757  1
  Pr  Pr1  1  0.470365  0.678536  0.598989  1
  Pr  Pr2  1  0.971762  0.822512  0.902939  1
  Pr  Pr3  1  0.528090  0.322449  0.098474  1
  Pr  Pr4  1  0.030022  0.176589  0.398999  1
  Pr  Pr5  1  0.527922  0.322725  0.400418  1
  Pr  Pr6  1  0.028093  0.177445  0.098773  1
  Pr  Pr7  1  0.472799  0.678212  0.902272  1
  Pr  Pr8  1  0.971159  0.823021  0.599112  1
  Y  Y9  1  0.629981  0.159852  0.622429  1
  Y  Y10  1  0.130463  0.340959  0.878995  1
  Y  Y11  1  0.369430  0.841412  0.122154  1
  Y  Y12  1  0.870317  0.657869  0.378138  1
  Y  Y13  1  0.372621  0.841454  0.375758  1
  Y  Y14  1  0.869979  0.659369  0.122150  1
  Y  Y15  1  0.629745  0.159055  0.879799  1
  Y  Y16  1  0.795956  0.495075  0.750989  1
  Y  Y17  1  0.297442  0.004299  0.750779  1
  Er  Er18  1  0.203462  0.506013  0.249005  1
  Er  Er19  1  0.703982  0.995142  0.249969  1
  Pb  Pb20  1  0.710856  0.962748  0.455852  1
  Pb  Pb21  1  0.208689  0.538024  0.044134  1
  Pb  Pb22  1  0.290944  0.038197  0.957295  1
  Pb  Pb23  1  0.782158  0.465517  0.542970  1
  Pb  Pb24  1  0.294540  0.031929  0.542138  1
  Pb  Pb25  1  0.792238  0.461944  0.957130  1
  Pb  Pb26  1  0.708913  0.961549  0.044896  1
  Pb  Pb27  1  0.210948  0.540778  0.452414  1
  Pb  Pb28  1  0.435191  0.370590  0.751951  1
  Pb  Pb29  1  0.932340  0.125993  0.752072  1
  Pb  Pb30  1  0.565722  0.629140  0.249142  1
  Pb  Pb31  1  0.064556  0.870217  0.249913  1
  Pb  Pb32  1  0.661845  0.851719  0.750803  1
  Pb  Pb33  1  0.161674  0.650327  0.751830  1
  Pb  Pb34  1  0.339093  0.150150  0.249164  1
  Pb  Pb35  1  0.839441  0.350271  0.249401  1
