# generated using pymatgen
data_Er3In3CuHgRu
_symmetry_space_group_name_H-M   'P 1'
_cell_length_a   7.67950500
_cell_length_b   7.67950575
_cell_length_c   3.88938300
_cell_angle_alpha   90.00000000
_cell_angle_beta   90.00000000
_cell_angle_gamma   120.00000106
_symmetry_Int_Tables_number   1
_chemical_formula_structural   Er3In3CuHgRu
_chemical_formula_sum   'Er3 In3 Cu1 Hg1 Ru1'
_cell_volume   198.64509064
_cell_formula_units_Z   1
loop_
 _symmetry_equiv_pos_site_id
 _symmetry_equiv_pos_as_xyz
  1  'x, y, z'
loop_
 _atom_site_type_symbol
 _atom_site_label
 _atom_site_symmetry_multiplicity
 _atom_site_fract_x
 _atom_site_fract_y
 _atom_site_fract_z
 _atom_site_occupancy
  Er  Er0  1  0.030526  0.606329  0.500000  1
  Er  Er1  1  0.393671  0.424197  0.500000  1
  Er  Er2  1  0.575803  0.969474  0.500000  1
  In  In3  1  0.748223  0.755501  0.000000  1
  In  In4  1  0.007278  0.251777  0.000000  1
  In  In5  1  0.244499  0.992722  0.000000  1
  Cu  Cu6  1  0.000000  0.000000  0.500000  1
  Hg  Hg7  1  0.666667  0.333333  0.000000  1
  Ru  Ru8  1  0.333333  0.666667  0.000000  1
