# generated using pymatgen
data_Ca4TiGaIr4
_symmetry_space_group_name_H-M   'P 1'
_cell_length_a   5.73908921
_cell_length_b   5.73909015
_cell_length_c   7.62029900
_cell_angle_alpha   100.11396944
_cell_angle_beta   100.11397111
_cell_angle_gamma   60.44697072
_symmetry_Int_Tables_number   1
_chemical_formula_structural   Ca4TiGaIr4
_chemical_formula_sum   'Ca4 Ti1 Ga1 Ir4'
_cell_volume   213.78032690
_cell_formula_units_Z   1
loop_
 _symmetry_equiv_pos_site_id
 _symmetry_equiv_pos_as_xyz
  1  'x, y, z'
loop_
 _atom_site_type_symbol
 _atom_site_label
 _atom_site_symmetry_multiplicity
 _atom_site_fract_x
 _atom_site_fract_y
 _atom_site_fract_z
 _atom_site_occupancy
  Ca  Ca0  1  0.281971  0.009720  0.143239  1
  Ca  Ca1  1  0.990281  0.718029  0.356761  1
  Ca  Ca2  1  0.015073  0.278672  0.639798  1
  Ca  Ca3  1  0.721328  0.984928  0.860202  1
  Ti  Ti4  1  0.419982  0.580018  0.749999  1
  Ga  Ga5  1  0.588975  0.411025  0.249999  1
  Ir  Ir6  1  0.774388  0.496707  0.002756  1
  Ir  Ir7  1  0.503293  0.225612  0.497244  1
  Ir  Ir8  1  0.488777  0.784066  0.510726  1
  Ir  Ir9  1  0.215934  0.511223  0.989274  1
