# generated using pymatgen
data_Tm5ZnIn3
_symmetry_space_group_name_H-M   'P 1'
_cell_length_a   9.04815200
_cell_length_b   9.04815244
_cell_length_c   6.62710400
_cell_angle_alpha   90.00000000
_cell_angle_beta   90.00000000
_cell_angle_gamma   119.99999838
_symmetry_Int_Tables_number   1
_chemical_formula_structural   Tm5ZnIn3
_chemical_formula_sum   'Tm10 Zn2 In6'
_cell_volume   469.86621781
_cell_formula_units_Z   2
loop_
 _symmetry_equiv_pos_site_id
 _symmetry_equiv_pos_as_xyz
  1  'x, y, z'
loop_
 _atom_site_type_symbol
 _atom_site_label
 _atom_site_symmetry_multiplicity
 _atom_site_fract_x
 _atom_site_fract_y
 _atom_site_fract_z
 _atom_site_occupancy
  Tm  Tm0  1  0.333333  0.666667  0.500000  1
  Tm  Tm1  1  0.666667  0.333333  0.500000  1
  Tm  Tm2  1  0.666667  0.333333  0.000000  1
  Tm  Tm3  1  0.333333  0.666667  0.000000  1
  Tm  Tm4  1  0.275534  0.000000  0.750000  1
  Tm  Tm5  1  0.724466  0.000000  0.250000  1
  Tm  Tm6  1  0.000000  0.275534  0.750000  1
  Tm  Tm7  1  0.000000  0.724466  0.250000  1
  Tm  Tm8  1  0.724466  0.724466  0.750000  1
  Tm  Tm9  1  0.275534  0.275534  0.250000  1
  Zn  Zn10  1  0.000000  0.000000  0.500000  1
  Zn  Zn11  1  0.000000  0.000000  0.000000  1
  In  In12  1  0.622563  0.000000  0.750000  1
  In  In13  1  0.377437  0.000000  0.250000  1
  In  In14  1  0.000000  0.622563  0.750000  1
  In  In15  1  0.000000  0.377437  0.250000  1
  In  In16  1  0.377437  0.377437  0.750000  1
  In  In17  1  0.622563  0.622563  0.250000  1
