# generated using pymatgen
data_La3Al10(SiOs2)2
_symmetry_space_group_name_H-M   'P 1'
_cell_length_a   8.84855700
_cell_length_b   8.84855576
_cell_length_c   9.76277900
_cell_angle_alpha   90.00000000
_cell_angle_beta   90.00000000
_cell_angle_gamma   120.00000092
_symmetry_Int_Tables_number   1
_chemical_formula_structural   La3Al10(SiOs2)2
_chemical_formula_sum   'La6 Al20 Si4 Os8'
_cell_volume   661.98619160
_cell_formula_units_Z   2
loop_
 _symmetry_equiv_pos_site_id
 _symmetry_equiv_pos_as_xyz
  1  'x, y, z'
loop_
 _atom_site_type_symbol
 _atom_site_label
 _atom_site_symmetry_multiplicity
 _atom_site_fract_x
 _atom_site_fract_y
 _atom_site_fract_z
 _atom_site_occupancy
  La  La0  1  0.193441  0.386881  0.250000  1
  La  La1  1  0.806559  0.613119  0.750000  1
  La  La2  1  0.613119  0.806559  0.250000  1
  La  La3  1  0.386881  0.193441  0.750000  1
  La  La4  1  0.193441  0.806559  0.250000  1
  La  La5  1  0.806559  0.193441  0.750000  1
  Al  Al6  1  0.164409  0.328817  0.575280  1
  Al  Al7  1  0.835591  0.671183  0.424720  1
  Al  Al8  1  0.671183  0.835591  0.575280  1
  Al  Al9  1  0.835591  0.671183  0.075280  1
  Al  Al10  1  0.328817  0.164409  0.424720  1
  Al  Al11  1  0.164409  0.328817  0.924720  1
  Al  Al12  1  0.164409  0.835591  0.575280  1
  Al  Al13  1  0.328817  0.164409  0.075280  1
  Al  Al14  1  0.835591  0.164409  0.424720  1
  Al  Al15  1  0.671183  0.835591  0.924720  1
  Al  Al16  1  0.835591  0.164409  0.075280  1
  Al  Al17  1  0.164409  0.835591  0.924720  1
  Al  Al18  1  0.565697  0.131395  0.250000  1
  Al  Al19  1  0.434303  0.868605  0.750000  1
  Al  Al20  1  0.868605  0.434303  0.250000  1
  Al  Al21  1  0.131395  0.565697  0.750000  1
  Al  Al22  1  0.565697  0.434303  0.250000  1
  Al  Al23  1  0.434303  0.565697  0.750000  1
  Al  Al24  1  0.000000  0.000000  0.250000  1
  Al  Al25  1  0.000000  0.000000  0.750000  1
  Si  Si26  1  0.333333  0.666667  0.018647  1
  Si  Si27  1  0.666667  0.333333  0.981353  1
  Si  Si28  1  0.666667  0.333333  0.518647  1
  Si  Si29  1  0.333333  0.666667  0.481353  1
  Os  Os30  1  0.500000  0.000000  0.000000  1
  Os  Os31  1  0.000000  0.500000  0.000000  1
  Os  Os32  1  0.500000  0.000000  0.500000  1
  Os  Os33  1  0.500000  0.500000  0.000000  1
  Os  Os34  1  0.000000  0.500000  0.500000  1
  Os  Os35  1  0.500000  0.500000  0.500000  1
  Os  Os36  1  0.000000  0.000000  0.000000  1
  Os  Os37  1  0.000000  0.000000  0.500000  1
