# generated using pymatgen
data_Sm3Th(AlRe3)2
_symmetry_space_group_name_H-M   'P 1'
_cell_length_a   5.42620400
_cell_length_b   5.42620306
_cell_length_c   9.17940300
_cell_angle_alpha   90.00000000
_cell_angle_beta   90.00000000
_cell_angle_gamma   119.99999355
_symmetry_Int_Tables_number   1
_chemical_formula_structural   Sm3Th(AlRe3)2
_chemical_formula_sum   'Sm3 Th1 Al2 Re6'
_cell_volume   234.06541923
_cell_formula_units_Z   1
loop_
 _symmetry_equiv_pos_site_id
 _symmetry_equiv_pos_as_xyz
  1  'x, y, z'
loop_
 _atom_site_type_symbol
 _atom_site_label
 _atom_site_symmetry_multiplicity
 _atom_site_fract_x
 _atom_site_fract_y
 _atom_site_fract_z
 _atom_site_occupancy
  Sm  Sm0  1  0.666667  0.333333  0.569240  1
  Sm  Sm1  1  0.666667  0.333333  0.932869  1
  Sm  Sm2  1  0.333333  0.666667  0.065140  1
  Th  Th3  1  0.333333  0.666667  0.430429  1
  Al  Al4  1  0.000000  0.000000  0.501226  1
  Al  Al5  1  0.000000  0.000000  0.999387  1
  Re  Re6  1  0.831334  0.168666  0.250198  1
  Re  Re7  1  0.831334  0.662666  0.250198  1
  Re  Re8  1  0.337334  0.168666  0.250198  1
  Re  Re9  1  0.168874  0.831126  0.750372  1
  Re  Re10  1  0.168874  0.337749  0.750372  1
  Re  Re11  1  0.662251  0.831126  0.750372  1
