# generated using pymatgen
data_TbHoMg2(PaNi2)2
_symmetry_space_group_name_H-M   'P 1'
_cell_length_a   7.47310926
_cell_length_b   7.47310911
_cell_length_c   3.53805500
_cell_angle_alpha   90.00000000
_cell_angle_beta   90.00000000
_cell_angle_gamma   93.28902468
_symmetry_Int_Tables_number   1
_chemical_formula_structural   TbHoMg2(PaNi2)2
_chemical_formula_sum   'Tb1 Ho1 Mg2 Pa2 Ni4'
_cell_volume   197.26556726
_cell_formula_units_Z   1
loop_
 _symmetry_equiv_pos_site_id
 _symmetry_equiv_pos_as_xyz
  1  'x, y, z'
loop_
 _atom_site_type_symbol
 _atom_site_label
 _atom_site_symmetry_multiplicity
 _atom_site_fract_x
 _atom_site_fract_y
 _atom_site_fract_z
 _atom_site_occupancy
  Tb  Tb0  1  0.168693  0.331307  0.500000  1
  Ho  Ho1  1  0.831242  0.668758  0.500000  1
  Mg  Mg2  1  0.999639  0.999424  0.000000  1
  Mg  Mg3  1  0.500576  0.500361  0.000000  1
  Pa  Pa4  1  0.670271  0.170031  0.500000  1
  Pa  Pa5  1  0.329969  0.829729  0.500000  1
  Ni  Ni6  1  0.138866  0.639722  0.000000  1
  Ni  Ni7  1  0.860278  0.361134  0.000000  1
  Ni  Ni8  1  0.617991  0.882009  0.000000  1
  Ni  Ni9  1  0.382475  0.117525  0.000000  1
