# generated using pymatgen
data_Li2TcBr6
_symmetry_space_group_name_H-M   'P 1'
_cell_length_a   6.68042600
_cell_length_b   6.68042546
_cell_length_c   27.28063200
_cell_angle_alpha   90.00000000
_cell_angle_beta   90.00000000
_cell_angle_gamma   120.00000268
_symmetry_Int_Tables_number   1
_chemical_formula_structural   Li2TcBr6
_chemical_formula_sum   'Li8 Tc4 Br24'
_cell_volume   1054.37069647
_cell_formula_units_Z   4
loop_
 _symmetry_equiv_pos_site_id
 _symmetry_equiv_pos_as_xyz
  1  'x, y, z'
loop_
 _atom_site_type_symbol
 _atom_site_label
 _atom_site_symmetry_multiplicity
 _atom_site_fract_x
 _atom_site_fract_y
 _atom_site_fract_z
 _atom_site_occupancy
  Li  Li0  1  0.000000  0.000000  0.250000  1
  Li  Li1  1  0.000000  0.000000  0.750000  1
  Li  Li2  1  0.333333  0.666667  0.000040  1
  Li  Li3  1  0.333333  0.666667  0.499960  1
  Li  Li4  1  0.333333  0.666667  0.250000  1
  Li  Li5  1  0.666667  0.333333  0.750000  1
  Li  Li6  1  0.666667  0.333333  0.999960  1
  Li  Li7  1  0.666667  0.333333  0.500040  1
  Tc  Tc8  1  0.000000  0.000000  0.000000  1
  Tc  Tc9  1  0.000000  0.000000  0.500000  1
  Tc  Tc10  1  0.333333  0.666667  0.750000  1
  Tc  Tc11  1  0.666667  0.333333  0.250000  1
  Br  Br12  1  0.356715  0.022693  0.304013  1
  Br  Br13  1  0.334022  0.977307  0.804013  1
  Br  Br14  1  0.001002  0.310823  0.053931  1
  Br  Br15  1  0.998998  0.309821  0.553931  1
  Br  Br16  1  0.977307  0.334022  0.304013  1
  Br  Br17  1  0.022693  0.356715  0.804013  1
  Br  Br18  1  0.356715  0.334022  0.195987  1
  Br  Br19  1  0.334022  0.356715  0.695987  1
  Br  Br20  1  0.309821  0.310823  0.446069  1
  Br  Br21  1  0.310823  0.309821  0.946069  1
  Br  Br22  1  0.689177  0.998998  0.446069  1
  Br  Br23  1  0.309821  0.998998  0.053931  1
  Br  Br24  1  0.310823  0.001002  0.553931  1
  Br  Br25  1  0.689177  0.690179  0.053931  1
  Br  Br26  1  0.690179  0.689177  0.553931  1
  Br  Br27  1  0.665978  0.643285  0.304013  1
  Br  Br28  1  0.643285  0.665978  0.804013  1
  Br  Br29  1  0.977307  0.643285  0.195987  1
  Br  Br30  1  0.022693  0.665978  0.695987  1
  Br  Br31  1  0.001002  0.690179  0.446069  1
  Br  Br32  1  0.998998  0.689177  0.946069  1
  Br  Br33  1  0.690179  0.001002  0.946069  1
  Br  Br34  1  0.665978  0.022693  0.195987  1
  Br  Br35  1  0.643285  0.977307  0.695987  1
