# generated using pymatgen
data_Er20Sn8Bi5Pb3
_symmetry_space_group_name_H-M   'P 1'
_cell_length_a   8.14025158
_cell_length_b   8.14792756
_cell_length_c   15.43802574
_cell_angle_alpha   90.06905847
_cell_angle_beta   90.04008149
_cell_angle_gamma   89.94090575
_symmetry_Int_Tables_number   1
_chemical_formula_structural   Er20Sn8Bi5Pb3
_chemical_formula_sum   'Er20 Sn8 Bi5 Pb3'
_cell_volume   1023.94373965
_cell_formula_units_Z   1
loop_
 _symmetry_equiv_pos_site_id
 _symmetry_equiv_pos_as_xyz
  1  'x, y, z'
loop_
 _atom_site_type_symbol
 _atom_site_label
 _atom_site_symmetry_multiplicity
 _atom_site_fract_x
 _atom_site_fract_y
 _atom_site_fract_z
 _atom_site_occupancy
  Er  Er0  1  0.378452  0.839933  0.874711  1
  Er  Er1  1  0.881161  0.659017  0.625091  1
  Er  Er2  1  0.618925  0.158722  0.374878  1
  Er  Er3  1  0.118688  0.340361  0.125156  1
  Er  Er4  1  0.623269  0.162537  0.125266  1
  Er  Er5  1  0.124326  0.339102  0.376094  1
  Er  Er6  1  0.374873  0.839534  0.624425  1
  Er  Er7  1  0.876815  0.658087  0.875345  1
  Er  Er8  1  0.548339  0.331160  0.892369  1
  Er  Er9  1  0.048525  0.172517  0.607179  1
  Er  Er10  1  0.451455  0.673081  0.392819  1
  Er  Er11  1  0.954721  0.824949  0.108244  1
  Er  Er12  1  0.460263  0.669547  0.107352  1
  Er  Er13  1  0.963587  0.826836  0.394017  1
  Er  Er14  1  0.535979  0.326618  0.605697  1
  Er  Er15  1  0.040734  0.176089  0.892998  1
  Er  Er16  1  0.209638  0.501014  0.746808  1
  Er  Er17  1  0.709524  0.999217  0.749409  1
  Er  Er18  1  0.790503  0.499116  0.248426  1
  Er  Er19  1  0.290641  0.001151  0.252764  1
  Sn  Sn20  1  0.574075  0.624863  0.749431  1
  Sn  Sn21  1  0.073566  0.876068  0.751652  1
  Sn  Sn22  1  0.425335  0.375551  0.249561  1
  Sn  Sn23  1  0.926224  0.124087  0.250769  1
  Sn  Sn24  1  0.348774  0.148009  0.751497  1
  Sn  Sn25  1  0.847240  0.351058  0.749194  1
  Sn  Sn26  1  0.652473  0.851952  0.250282  1
  Sn  Sn27  1  0.152908  0.647553  0.249501  1
  Bi  Bi28  1  0.276303  0.026132  0.043524  1
  Bi  Bi29  1  0.776399  0.472440  0.456614  1
  Bi  Bi30  1  0.722904  0.972479  0.543048  1
  Bi  Bi31  1  0.222453  0.527407  0.956500  1
  Bi  Bi32  1  0.721975  0.972894  0.956811  1
  Pb  Pb33  1  0.221445  0.531139  0.541946  1
  Pb  Pb34  1  0.278561  0.029057  0.458382  1
  Pb  Pb35  1  0.778946  0.470723  0.042242  1
