# generated using pymatgen
data_PrNdSn8(IrRh)2
_symmetry_space_group_name_H-M   'P 1'
_cell_length_a   4.54091400
_cell_length_b   7.25092700
_cell_length_c   18.68761700
_cell_angle_alpha   90.00000000
_cell_angle_beta   90.00000000
_cell_angle_gamma   90.00000000
_symmetry_Int_Tables_number   1
_chemical_formula_structural   PrNdSn8(IrRh)2
_chemical_formula_sum   'Pr2 Nd2 Sn16 Ir4 Rh4'
_cell_volume   615.30541121
_cell_formula_units_Z   2
loop_
 _symmetry_equiv_pos_site_id
 _symmetry_equiv_pos_as_xyz
  1  'x, y, z'
loop_
 _atom_site_type_symbol
 _atom_site_label
 _atom_site_symmetry_multiplicity
 _atom_site_fract_x
 _atom_site_fract_y
 _atom_site_fract_z
 _atom_site_occupancy
  Pr  Pr0  1  0.750000  0.001190  0.141631  1
  Pr  Pr1  1  0.750000  0.498810  0.641631  1
  Nd  Nd2  1  0.250000  0.998835  0.858409  1
  Nd  Nd3  1  0.250000  0.501165  0.358409  1
  Sn  Sn4  1  0.250000  0.302618  0.182201  1
  Sn  Sn5  1  0.250000  0.197382  0.682201  1
  Sn  Sn6  1  0.750000  0.697860  0.817902  1
  Sn  Sn7  1  0.750000  0.802140  0.317902  1
  Sn  Sn8  1  0.250000  0.721941  0.194832  1
  Sn  Sn9  1  0.250000  0.778059  0.694832  1
  Sn  Sn10  1  0.750000  0.277447  0.805343  1
  Sn  Sn11  1  0.750000  0.222553  0.305343  1
  Sn  Sn12  1  0.250000  0.865145  0.031824  1
  Sn  Sn13  1  0.250000  0.634855  0.531824  1
  Sn  Sn14  1  0.750000  0.134715  0.967878  1
  Sn  Sn15  1  0.750000  0.365285  0.467878  1
  Sn  Sn16  1  0.250000  0.519281  0.931762  1
  Sn  Sn17  1  0.250000  0.980719  0.431762  1
  Sn  Sn18  1  0.750000  0.480769  0.068233  1
  Sn  Sn19  1  0.750000  0.019231  0.568233  1
  Ir  Ir20  1  0.250000  0.250640  0.034785  1
  Ir  Ir21  1  0.250000  0.249360  0.534785  1
  Ir  Ir22  1  0.750000  0.749511  0.965067  1
  Ir  Ir23  1  0.750000  0.750489  0.465067  1
  Rh  Rh24  1  0.250000  0.017516  0.286895  1
  Rh  Rh25  1  0.250000  0.482484  0.786895  1
  Rh  Rh26  1  0.750000  0.982553  0.713240  1
  Rh  Rh27  1  0.750000  0.517447  0.213240  1
