# generated using pymatgen
data_Tc3S4F
_symmetry_space_group_name_H-M   'P 1'
_cell_length_a   10.98735600
_cell_length_b   6.43438941
_cell_length_c   10.79343678
_cell_angle_alpha   68.34062773
_cell_angle_beta   90.00000000
_cell_angle_gamma   90.00000000
_symmetry_Int_Tables_number   1
_chemical_formula_structural   Tc3S4F
_chemical_formula_sum   'Tc12 S16 F4'
_cell_volume   709.18639763
_cell_formula_units_Z   4
loop_
 _symmetry_equiv_pos_site_id
 _symmetry_equiv_pos_as_xyz
  1  'x, y, z'
loop_
 _atom_site_type_symbol
 _atom_site_label
 _atom_site_symmetry_multiplicity
 _atom_site_fract_x
 _atom_site_fract_y
 _atom_site_fract_z
 _atom_site_occupancy
  Tc  Tc0  1  0.986503  0.305047  0.934177  1
  Tc  Tc1  1  0.013497  0.694953  0.065823  1
  Tc  Tc2  1  0.358986  0.019232  0.587872  1
  Tc  Tc3  1  0.092056  0.016124  0.853985  1
  Tc  Tc4  1  0.592056  0.983876  0.646015  1
  Tc  Tc5  1  0.141014  0.019232  0.087872  1
  Tc  Tc6  1  0.641014  0.980768  0.412128  1
  Tc  Tc7  1  0.407944  0.016124  0.353985  1
  Tc  Tc8  1  0.907944  0.983876  0.146015  1
  Tc  Tc9  1  0.858986  0.980768  0.912128  1
  Tc  Tc10  1  0.513497  0.305047  0.434177  1
  Tc  Tc11  1  0.486503  0.694953  0.565823  1
  S  S12  1  0.800393  0.686088  0.115001  1
  S  S13  1  0.442886  0.721668  0.776053  1
  S  S14  1  0.535002  0.722909  0.334652  1
  S  S15  1  0.057114  0.721668  0.276053  1
  S  S16  1  0.300393  0.313912  0.384999  1
  S  S17  1  0.942886  0.278332  0.723947  1
  S  S18  1  0.724960  0.249369  0.491102  1
  S  S19  1  0.699607  0.686088  0.615001  1
  S  S20  1  0.775040  0.249369  0.991102  1
  S  S21  1  0.275040  0.750631  0.508898  1
  S  S22  1  0.557114  0.278332  0.223947  1
  S  S23  1  0.964998  0.722909  0.834652  1
  S  S24  1  0.199607  0.313912  0.884999  1
  S  S25  1  0.035002  0.277091  0.165348  1
  S  S26  1  0.464998  0.277091  0.665348  1
  S  S27  1  0.224960  0.750631  0.008898  1
  F  F28  1  0.805424  0.960578  0.315894  1
  F  F29  1  0.194576  0.039422  0.684106  1
  F  F30  1  0.305424  0.039422  0.184106  1
  F  F31  1  0.694576  0.960578  0.815894  1
