# generated using pymatgen
data_Ta12Al7TcN4
_symmetry_space_group_name_H-M   'P 1'
_cell_length_a   7.04623172
_cell_length_b   7.04623098
_cell_length_c   7.04623125
_cell_angle_alpha   89.66520782
_cell_angle_beta   90.33479819
_cell_angle_gamma   90.33480056
_symmetry_Int_Tables_number   1
_chemical_formula_structural   Ta12Al7TcN4
_chemical_formula_sum   'Ta12 Al7 Tc1 N4'
_cell_volume   349.82313843
_cell_formula_units_Z   1
loop_
 _symmetry_equiv_pos_site_id
 _symmetry_equiv_pos_as_xyz
  1  'x, y, z'
loop_
 _atom_site_type_symbol
 _atom_site_label
 _atom_site_symmetry_multiplicity
 _atom_site_fract_x
 _atom_site_fract_y
 _atom_site_fract_z
 _atom_site_occupancy
  Ta  Ta0  1  0.795796  0.955940  0.375402  1
  Ta  Ta1  1  0.704808  0.044518  0.875090  1
  Ta  Ta2  1  0.207935  0.457110  0.122691  1
  Ta  Ta3  1  0.293335  0.545571  0.625590  1
  Ta  Ta4  1  0.955482  0.375090  0.795192  1
  Ta  Ta5  1  0.044060  0.875402  0.704204  1
  Ta  Ta6  1  0.454429  0.125590  0.206665  1
  Ta  Ta7  1  0.542890  0.622691  0.292065  1
  Ta  Ta8  1  0.377309  0.792065  0.957110  1
  Ta  Ta9  1  0.874410  0.706665  0.045571  1
  Ta  Ta10  1  0.124598  0.204204  0.455940  1
  Ta  Ta11  1  0.624910  0.295192  0.544518  1
  Al  Al12  1  0.320523  0.176807  0.819871  1
  Al  Al13  1  0.823193  0.319871  0.179477  1
  Al  Al14  1  0.680129  0.679477  0.676807  1
  Al  Al15  1  0.570427  0.429573  0.929573  1
  Al  Al16  1  0.425041  0.927304  0.565452  1
  Al  Al17  1  0.934548  0.574959  0.427304  1
  Al  Al18  1  0.072696  0.065452  0.074959  1
  Tc  Tc19  1  0.177648  0.822352  0.322352  1
  N  N20  1  0.876035  0.123965  0.623965  1
  N  N21  1  0.624974  0.877182  0.127996  1
  N  N22  1  0.122818  0.627996  0.875026  1
  N  N23  1  0.372004  0.375026  0.377182  1
