# generated using pymatgen
data_Ba20Si11Au
_symmetry_space_group_name_H-M   'P 1'
_cell_length_a   8.45271700
_cell_length_b   8.45271700
_cell_length_c   16.91921800
_cell_angle_alpha   90.00000000
_cell_angle_beta   90.00000000
_cell_angle_gamma   90.00000000
_symmetry_Int_Tables_number   1
_chemical_formula_structural   Ba20Si11Au
_chemical_formula_sum   'Ba20 Si11 Au1'
_cell_volume   1208.85147295
_cell_formula_units_Z   1
loop_
 _symmetry_equiv_pos_site_id
 _symmetry_equiv_pos_as_xyz
  1  'x, y, z'
loop_
 _atom_site_type_symbol
 _atom_site_label
 _atom_site_symmetry_multiplicity
 _atom_site_fract_x
 _atom_site_fract_y
 _atom_site_fract_z
 _atom_site_occupancy
  Ba  Ba0  1  0.311150  0.670900  0.108048  1
  Ba  Ba1  1  0.170900  0.188850  0.108048  1
  Ba  Ba2  1  0.500000  0.000000  0.723815  1
  Ba  Ba3  1  0.330440  0.693510  0.393523  1
  Ba  Ba4  1  0.665073  0.693423  0.892581  1
  Ba  Ba5  1  0.193510  0.169560  0.393523  1
  Ba  Ba6  1  0.669560  0.306490  0.393523  1
  Ba  Ba7  1  0.171327  0.806922  0.606175  1
  Ba  Ba8  1  0.334927  0.306577  0.892581  1
  Ba  Ba9  1  0.193423  0.834927  0.892581  1
  Ba  Ba10  1  0.500000  0.000000  0.226486  1
  Ba  Ba11  1  0.828673  0.193078  0.606175  1
  Ba  Ba12  1  0.306922  0.328673  0.606175  1
  Ba  Ba13  1  0.806490  0.830440  0.393523  1
  Ba  Ba14  1  0.806577  0.165073  0.892581  1
  Ba  Ba15  1  0.829100  0.811150  0.108048  1
  Ba  Ba16  1  0.000000  0.500000  0.276236  1
  Ba  Ba17  1  0.000000  0.500000  0.770900  1
  Ba  Ba18  1  0.688850  0.329100  0.108048  1
  Ba  Ba19  1  0.693078  0.671327  0.606175  1
  Si  Si20  1  0.101105  0.101897  0.749849  1
  Si  Si21  1  0.398103  0.601105  0.749849  1
  Si  Si22  1  0.600448  0.602775  0.250318  1
  Si  Si23  1  0.500000  0.000000  0.013707  1
  Si  Si24  1  0.102775  0.899552  0.250318  1
  Si  Si25  1  0.601897  0.398895  0.749849  1
  Si  Si26  1  0.898895  0.898103  0.749849  1
  Si  Si27  1  0.399552  0.397225  0.250318  1
  Si  Si28  1  0.897225  0.100448  0.250318  1
  Si  Si29  1  0.500000  0.000000  0.513689  1
  Si  Si30  1  0.000000  0.500000  0.487060  1
  Au  Au31  1  0.000000  0.500000  0.986134  1
