# generated using pymatgen
data_Li4AlZnPd6
_symmetry_space_group_name_H-M   'P 1'
_cell_length_a   4.27284800
_cell_length_b   4.27284857
_cell_length_c   10.35837000
_cell_angle_alpha   90.00000000
_cell_angle_beta   90.00000000
_cell_angle_gamma   120.00001104
_symmetry_Int_Tables_number   1
_chemical_formula_structural   Li4AlZnPd6
_chemical_formula_sum   'Li4 Al1 Zn1 Pd6'
_cell_volume   163.77852259
_cell_formula_units_Z   1
loop_
 _symmetry_equiv_pos_site_id
 _symmetry_equiv_pos_as_xyz
  1  'x, y, z'
loop_
 _atom_site_type_symbol
 _atom_site_label
 _atom_site_symmetry_multiplicity
 _atom_site_fract_x
 _atom_site_fract_y
 _atom_site_fract_z
 _atom_site_occupancy
  Li  Li0  1  0.000000  0.000000  0.497930  1
  Li  Li1  1  0.333333  0.666667  0.165442  1
  Li  Li2  1  0.666667  0.333333  0.836539  1
  Li  Li3  1  0.000000  0.000000  0.000304  1
  Al  Al4  1  0.333333  0.666667  0.669550  1
  Zn  Zn5  1  0.666667  0.333333  0.330630  1
  Pd  Pd6  1  0.333333  0.666667  0.420698  1
  Pd  Pd7  1  0.666667  0.333333  0.081115  1
  Pd  Pd8  1  0.000000  0.000000  0.747339  1
  Pd  Pd9  1  0.000000  0.000000  0.249552  1
  Pd  Pd10  1  0.333333  0.666667  0.914391  1
  Pd  Pd11  1  0.666667  0.333333  0.586510  1
