# generated using pymatgen
data_Er9Lu(Ir2Rh)2
_symmetry_space_group_name_H-M   'P 1'
_cell_length_a   10.76261200
_cell_length_b   10.76261200
_cell_length_c   6.32995200
_cell_angle_alpha   90.00000000
_cell_angle_beta   90.00000000
_cell_angle_gamma   90.00000000
_symmetry_Int_Tables_number   1
_chemical_formula_structural   Er9Lu(Ir2Rh)2
_chemical_formula_sum   'Er18 Lu2 Ir8 Rh4'
_cell_volume   733.22250198
_cell_formula_units_Z   2
loop_
 _symmetry_equiv_pos_site_id
 _symmetry_equiv_pos_as_xyz
  1  'x, y, z'
loop_
 _atom_site_type_symbol
 _atom_site_label
 _atom_site_symmetry_multiplicity
 _atom_site_fract_x
 _atom_site_fract_y
 _atom_site_fract_z
 _atom_site_occupancy
  Er  Er0  1  0.289839  0.088422  0.379079  1
  Er  Er1  1  0.289839  0.911578  0.879079  1
  Er  Er2  1  0.710161  0.088422  0.879079  1
  Er  Er3  1  0.710161  0.911578  0.379079  1
  Er  Er4  1  0.588657  0.790521  0.878985  1
  Er  Er5  1  0.588657  0.209479  0.378985  1
  Er  Er6  1  0.411343  0.790521  0.378985  1
  Er  Er7  1  0.411343  0.209479  0.878985  1
  Er  Er8  1  0.209479  0.411343  0.621015  1
  Er  Er9  1  0.209479  0.588657  0.121015  1
  Er  Er10  1  0.790521  0.411343  0.121015  1
  Er  Er11  1  0.790521  0.588657  0.621015  1
  Er  Er12  1  0.911578  0.710161  0.120921  1
  Er  Er13  1  0.911578  0.289839  0.620921  1
  Er  Er14  1  0.088422  0.710161  0.620921  1
  Er  Er15  1  0.088422  0.289839  0.120921  1
  Er  Er16  1  0.500000  0.500000  0.000000  1
  Er  Er17  1  0.500000  0.500000  0.500000  1
  Lu  Lu18  1  0.000000  0.000000  0.500000  1
  Lu  Lu19  1  0.000000  0.000000  0.000000  1
  Ir  Ir20  1  0.847409  0.152591  0.250000  1
  Ir  Ir21  1  0.847409  0.847409  0.750000  1
  Ir  Ir22  1  0.152591  0.152591  0.750000  1
  Ir  Ir23  1  0.152591  0.847409  0.250000  1
  Ir  Ir24  1  0.654041  0.345959  0.750000  1
  Ir  Ir25  1  0.654041  0.654041  0.250000  1
  Ir  Ir26  1  0.345959  0.345959  0.250000  1
  Ir  Ir27  1  0.345959  0.654041  0.750000  1
  Rh  Rh28  1  0.500000  0.000000  0.123503  1
  Rh  Rh29  1  0.500000  0.000000  0.623503  1
  Rh  Rh30  1  0.000000  0.500000  0.876497  1
  Rh  Rh31  1  0.000000  0.500000  0.376497  1
