# generated using pymatgen
data_NaSn6RuRh3
_symmetry_space_group_name_H-M   'P 1'
_cell_length_a   6.98084225
_cell_length_b   6.98084247
_cell_length_c   6.95375399
_cell_angle_alpha   120.09255835
_cell_angle_beta   120.09255508
_cell_angle_gamma   90.16878594
_symmetry_Int_Tables_number   1
_chemical_formula_structural   NaSn6RuRh3
_chemical_formula_sum   'Na1 Sn6 Ru1 Rh3'
_cell_volume   238.58801595
_cell_formula_units_Z   1
loop_
 _symmetry_equiv_pos_site_id
 _symmetry_equiv_pos_as_xyz
  1  'x, y, z'
loop_
 _atom_site_type_symbol
 _atom_site_label
 _atom_site_symmetry_multiplicity
 _atom_site_fract_x
 _atom_site_fract_y
 _atom_site_fract_z
 _atom_site_occupancy
  Na  Na0  1  0.999311  0.999311  0.996968  1
  Sn  Sn1  1  0.882279  0.542065  0.003701  1
  Sn  Sn2  1  0.542065  0.882279  0.003701  1
  Sn  Sn3  1  0.116360  0.116360  0.656790  1
  Sn  Sn4  1  0.001530  0.506380  0.503156  1
  Sn  Sn5  1  0.464274  0.464274  0.344840  1
  Sn  Sn6  1  0.506380  0.001530  0.503156  1
  Ru  Ru7  1  0.744614  0.744614  0.334088  1
  Rh  Rh8  1  0.245145  0.590670  0.997505  1
  Rh  Rh9  1  0.407370  0.407370  0.658594  1
  Rh  Rh10  1  0.590670  0.245145  0.997505  1
