# generated using pymatgen
data_TmMnFe2P3Ir2
_symmetry_space_group_name_H-M   'P 1'
_cell_length_a   3.74221600
_cell_length_b   10.49883500
_cell_length_c   12.39408300
_cell_angle_alpha   90.00000000
_cell_angle_beta   90.00000000
_cell_angle_gamma   90.00000000
_symmetry_Int_Tables_number   1
_chemical_formula_structural   TmMnFe2P3Ir2
_chemical_formula_sum   'Tm4 Mn4 Fe8 P12 Ir8'
_cell_volume   486.94999068
_cell_formula_units_Z   4
loop_
 _symmetry_equiv_pos_site_id
 _symmetry_equiv_pos_as_xyz
  1  'x, y, z'
loop_
 _atom_site_type_symbol
 _atom_site_label
 _atom_site_symmetry_multiplicity
 _atom_site_fract_x
 _atom_site_fract_y
 _atom_site_fract_z
 _atom_site_occupancy
  Tm  Tm0  1  0.250000  0.579750  0.714922  1
  Tm  Tm1  1  0.250000  0.920250  0.214922  1
  Tm  Tm2  1  0.750000  0.420250  0.285078  1
  Tm  Tm3  1  0.750000  0.079750  0.785078  1
  Mn  Mn4  1  0.250000  0.703433  0.992373  1
  Mn  Mn5  1  0.250000  0.796567  0.492373  1
  Mn  Mn6  1  0.750000  0.296567  0.007627  1
  Mn  Mn7  1  0.750000  0.203433  0.507627  1
  Fe  Fe8  1  0.250000  0.876314  0.694156  1
  Fe  Fe9  1  0.250000  0.623686  0.194156  1
  Fe  Fe10  1  0.750000  0.123686  0.305844  1
  Fe  Fe11  1  0.750000  0.376314  0.805844  1
  Fe  Fe12  1  0.250000  0.460155  0.936117  1
  Fe  Fe13  1  0.250000  0.039845  0.436117  1
  Fe  Fe14  1  0.750000  0.539845  0.063883  1
  Fe  Fe15  1  0.750000  0.960155  0.563883  1
  P  P16  1  0.250000  0.435658  0.110548  1
  P  P17  1  0.250000  0.064342  0.610548  1
  P  P18  1  0.750000  0.564342  0.889452  1
  P  P19  1  0.750000  0.935658  0.389452  1
  P  P20  1  0.250000  0.273739  0.862104  1
  P  P21  1  0.250000  0.226261  0.362104  1
  P  P22  1  0.750000  0.726261  0.137896  1
  P  P23  1  0.750000  0.773739  0.637896  1
  P  P24  1  0.250000  0.597674  0.377056  1
  P  P25  1  0.250000  0.902326  0.877056  1
  P  P26  1  0.750000  0.402326  0.622944  1
  P  P27  1  0.750000  0.097674  0.122944  1
  Ir  Ir28  1  0.250000  0.404226  0.471795  1
  Ir  Ir29  1  0.250000  0.095774  0.971795  1
  Ir  Ir30  1  0.750000  0.595774  0.528205  1
  Ir  Ir31  1  0.750000  0.904226  0.028205  1
  Ir  Ir32  1  0.250000  0.224644  0.171283  1
  Ir  Ir33  1  0.250000  0.275356  0.671283  1
  Ir  Ir34  1  0.750000  0.775356  0.828717  1
  Ir  Ir35  1  0.750000  0.724644  0.328717  1
