# generated using pymatgen
data_TbSc(Ni2As)4
_symmetry_space_group_name_H-M   'P 1'
_cell_length_a   7.15814473
_cell_length_b   7.15814473
_cell_length_c   3.76786600
_cell_angle_alpha   90.00000000
_cell_angle_beta   90.00000000
_cell_angle_gamma   89.20622542
_symmetry_Int_Tables_number   1
_chemical_formula_structural   TbSc(Ni2As)4
_chemical_formula_sum   'Tb1 Sc1 Ni8 As4'
_cell_volume   193.04329463
_cell_formula_units_Z   1
loop_
 _symmetry_equiv_pos_site_id
 _symmetry_equiv_pos_as_xyz
  1  'x, y, z'
loop_
 _atom_site_type_symbol
 _atom_site_label
 _atom_site_symmetry_multiplicity
 _atom_site_fract_x
 _atom_site_fract_y
 _atom_site_fract_z
 _atom_site_occupancy
  Tb  Tb0  1  0.500000  0.500000  0.000000  1
  Sc  Sc1  1  0.000000  0.000000  0.500000  1
  Ni  Ni2  1  0.590906  0.153095  0.500000  1
  Ni  Ni3  1  0.409094  0.846905  0.500000  1
  Ni  Ni4  1  0.088051  0.345620  0.000000  1
  Ni  Ni5  1  0.911949  0.654380  0.000000  1
  Ni  Ni6  1  0.153095  0.590906  0.500000  1
  Ni  Ni7  1  0.846905  0.409094  0.500000  1
  Ni  Ni8  1  0.345620  0.088051  0.000000  1
  Ni  Ni9  1  0.654380  0.911949  0.000000  1
  As  As10  1  0.724386  0.724386  0.500000  1
  As  As11  1  0.275614  0.275614  0.500000  1
  As  As12  1  0.210270  0.789730  0.000000  1
  As  As13  1  0.789730  0.210270  0.000000  1
