# generated using pymatgen
data_Nd8Ho12Si15Ge
_symmetry_space_group_name_H-M   'P 1'
_cell_length_a   7.50758497
_cell_length_b   7.77902204
_cell_length_c   14.76966200
_cell_angle_alpha   90.00000000
_cell_angle_beta   90.00000000
_cell_angle_gamma   89.91703271
_symmetry_Int_Tables_number   1
_chemical_formula_structural   Nd8Ho12Si15Ge
_chemical_formula_sum   'Nd8 Ho12 Si15 Ge1'
_cell_volume   862.57200589
_cell_formula_units_Z   1
loop_
 _symmetry_equiv_pos_site_id
 _symmetry_equiv_pos_as_xyz
  1  'x, y, z'
loop_
 _atom_site_type_symbol
 _atom_site_label
 _atom_site_symmetry_multiplicity
 _atom_site_fract_x
 _atom_site_fract_y
 _atom_site_fract_z
 _atom_site_occupancy
  Nd  Nd0  1  0.976554  0.821996  0.096923  1
  Nd  Nd1  1  0.474067  0.679861  0.401960  1
  Nd  Nd2  1  0.525144  0.320084  0.901633  1
  Nd  Nd3  1  0.025057  0.179919  0.598548  1
  Nd  Nd4  1  0.025057  0.179919  0.901452  1
  Nd  Nd5  1  0.525144  0.320084  0.598367  1
  Nd  Nd6  1  0.474067  0.679861  0.098040  1
  Nd  Nd7  1  0.976554  0.821996  0.403077  1
  Ho  Ho8  1  0.647998  0.992725  0.250000  1
  Ho  Ho9  1  0.151995  0.509357  0.250000  1
  Ho  Ho10  1  0.850322  0.489509  0.750000  1
  Ho  Ho11  1  0.350319  0.010543  0.750000  1
  Ho  Ho12  1  0.681164  0.821603  0.876919  1
  Ho  Ho13  1  0.181033  0.678271  0.623111  1
  Ho  Ho14  1  0.818963  0.320848  0.122738  1
  Ho  Ho15  1  0.318068  0.177938  0.377365  1
  Ho  Ho16  1  0.318068  0.177938  0.122635  1
  Ho  Ho17  1  0.818963  0.320848  0.377262  1
  Ho  Ho18  1  0.181033  0.678271  0.876889  1
  Ho  Ho19  1  0.681164  0.821603  0.623081  1
  Si  Si20  1  0.268138  0.877857  0.250000  1
  Si  Si21  1  0.731932  0.121326  0.750000  1
  Si  Si22  1  0.231963  0.378573  0.750000  1
  Si  Si23  1  0.023205  0.111615  0.250000  1
  Si  Si24  1  0.521562  0.383579  0.250000  1
  Si  Si25  1  0.475962  0.611695  0.750000  1
  Si  Si26  1  0.975934  0.888510  0.750000  1
  Si  Si27  1  0.855624  0.530623  0.959815  1
  Si  Si28  1  0.355605  0.968998  0.540411  1
  Si  Si29  1  0.644101  0.030126  0.040235  1
  Si  Si30  1  0.144060  0.469338  0.459861  1
  Si  Si31  1  0.144060  0.469338  0.040139  1
  Si  Si32  1  0.644101  0.030126  0.459765  1
  Si  Si33  1  0.355605  0.968998  0.959589  1
  Si  Si34  1  0.855624  0.530623  0.540185  1
  Ge  Ge35  1  0.771790  0.625497  0.250000  1
