# generated using pymatgen
data_Tb2PrTaO7
_symmetry_space_group_name_H-M   'P 1'
_cell_length_a   6.54748233
_cell_length_b   6.54748229
_cell_length_c   7.63571500
_cell_angle_alpha   90.00000000
_cell_angle_beta   90.00000000
_cell_angle_gamma   110.34320490
_symmetry_Int_Tables_number   1
_chemical_formula_structural   Tb2PrTaO7
_chemical_formula_sum   'Tb4 Pr2 Ta2 O14'
_cell_volume   306.92234487
_cell_formula_units_Z   2
loop_
 _symmetry_equiv_pos_site_id
 _symmetry_equiv_pos_as_xyz
  1  'x, y, z'
loop_
 _atom_site_type_symbol
 _atom_site_label
 _atom_site_symmetry_multiplicity
 _atom_site_fract_x
 _atom_site_fract_y
 _atom_site_fract_z
 _atom_site_occupancy
  Tb  Tb0  1  0.515961  0.055599  0.250000  1
  Tb  Tb1  1  0.944401  0.484039  0.750000  1
  Tb  Tb2  1  0.055599  0.515961  0.250000  1
  Tb  Tb3  1  0.484039  0.944401  0.750000  1
  Pr  Pr4  1  0.000000  0.000000  0.000000  1
  Pr  Pr5  1  0.000000  0.000000  0.500000  1
  Ta  Ta6  1  0.500000  0.500000  0.000000  1
  Ta  Ta7  1  0.500000  0.500000  0.500000  1
  O  O8  1  0.881485  0.159350  0.250000  1
  O  O9  1  0.840650  0.118515  0.750000  1
  O  O10  1  0.819146  0.560544  0.033954  1
  O  O11  1  0.819146  0.560544  0.466046  1
  O  O12  1  0.439456  0.180854  0.966046  1
  O  O13  1  0.439456  0.180854  0.533954  1
  O  O14  1  0.573947  0.573947  0.750000  1
  O  O15  1  0.426053  0.426053  0.250000  1
  O  O16  1  0.560544  0.819146  0.033954  1
  O  O17  1  0.180854  0.439456  0.533954  1
  O  O18  1  0.560544  0.819146  0.466046  1
  O  O19  1  0.180854  0.439456  0.966046  1
  O  O20  1  0.118515  0.840650  0.750000  1
  O  O21  1  0.159350  0.881485  0.250000  1
