# generated using pymatgen
data_Sm4CCl6
_symmetry_space_group_name_H-M   'P 1'
_cell_length_a   3.89356700
_cell_length_b   12.72707100
_cell_length_c   13.27098900
_cell_angle_alpha   90.00000000
_cell_angle_beta   90.00000000
_cell_angle_gamma   90.00000000
_symmetry_Int_Tables_number   1
_chemical_formula_structural   Sm4CCl6
_chemical_formula_sum   'Sm8 C2 Cl12'
_cell_volume   657.62665608
_cell_formula_units_Z   2
loop_
 _symmetry_equiv_pos_site_id
 _symmetry_equiv_pos_as_xyz
  1  'x, y, z'
loop_
 _atom_site_type_symbol
 _atom_site_label
 _atom_site_symmetry_multiplicity
 _atom_site_fract_x
 _atom_site_fract_y
 _atom_site_fract_z
 _atom_site_occupancy
  Sm  Sm0  1  0.000000  0.106145  0.081181  1
  Sm  Sm1  1  0.000000  0.893855  0.918819  1
  Sm  Sm2  1  0.000000  0.606145  0.418819  1
  Sm  Sm3  1  0.000000  0.393855  0.581181  1
  Sm  Sm4  1  0.500000  0.123674  0.851091  1
  Sm  Sm5  1  0.500000  0.876326  0.148909  1
  Sm  Sm6  1  0.500000  0.623674  0.648909  1
  Sm  Sm7  1  0.500000  0.376326  0.351091  1
  C  C8  1  0.500000  0.000000  0.000000  1
  C  C9  1  0.500000  0.500000  0.500000  1
  Cl  Cl10  1  0.500000  0.263938  0.678975  1
  Cl  Cl11  1  0.500000  0.736062  0.321025  1
  Cl  Cl12  1  0.500000  0.763938  0.821025  1
  Cl  Cl13  1  0.500000  0.236062  0.178975  1
  Cl  Cl14  1  0.000000  0.258780  0.928366  1
  Cl  Cl15  1  0.000000  0.741220  0.071634  1
  Cl  Cl16  1  0.000000  0.484516  0.242029  1
  Cl  Cl17  1  0.000000  0.515484  0.757971  1
  Cl  Cl18  1  0.000000  0.984516  0.257971  1
  Cl  Cl19  1  0.000000  0.015484  0.742029  1
  Cl  Cl20  1  0.000000  0.241220  0.428366  1
  Cl  Cl21  1  0.000000  0.758780  0.571634  1
