# generated using pymatgen
data_Ho3Tm2Zr(SnIr)6
_symmetry_space_group_name_H-M   'P 1'
_cell_length_a   7.51705500
_cell_length_b   7.45476027
_cell_length_c   7.75644800
_cell_angle_alpha   90.00000000
_cell_angle_beta   90.00000000
_cell_angle_gamma   120.32400462
_symmetry_Int_Tables_number   1
_chemical_formula_structural   Ho3Tm2Zr(SnIr)6
_chemical_formula_sum   'Ho3 Tm2 Zr1 Sn6 Ir6'
_cell_volume   375.18695199
_cell_formula_units_Z   1
loop_
 _symmetry_equiv_pos_site_id
 _symmetry_equiv_pos_as_xyz
  1  'x, y, z'
loop_
 _atom_site_type_symbol
 _atom_site_label
 _atom_site_symmetry_multiplicity
 _atom_site_fract_x
 _atom_site_fract_y
 _atom_site_fract_z
 _atom_site_occupancy
  Ho  Ho0  1  0.409176  0.002234  0.250000  1
  Ho  Ho1  1  0.594031  0.596470  0.250000  1
  Ho  Ho2  1  0.995194  0.402640  0.250000  1
  Tm  Tm3  1  0.596432  0.596734  0.750000  1
  Tm  Tm4  1  0.005682  0.405920  0.750000  1
  Zr  Zr5  1  0.398052  0.997828  0.750000  1
  Sn  Sn6  1  0.262402  0.264283  0.499084  1
  Sn  Sn7  1  0.262402  0.264283  0.000916  1
  Sn  Sn8  1  0.741935  0.000565  0.991862  1
  Sn  Sn9  1  0.997053  0.735072  0.499521  1
  Sn  Sn10  1  0.741935  0.000565  0.508138  1
  Sn  Sn11  1  0.997053  0.735072  0.000479  1
  Ir  Ir12  1  0.658241  0.322460  0.516576  1
  Ir  Ir13  1  0.658241  0.322460  0.983424  1
  Ir  Ir14  1  0.335364  0.676797  0.992152  1
  Ir  Ir15  1  0.335364  0.676797  0.507848  1
  Ir  Ir16  1  0.012594  0.999959  0.750000  1
  Ir  Ir17  1  0.998851  0.999859  0.250000  1
