# generated using pymatgen
data_Tb3Dy4IrI12
_symmetry_space_group_name_H-M   'P 1'
_cell_length_a   9.82391222
_cell_length_b   9.82391295
_cell_length_c   9.82391284
_cell_angle_alpha   106.89547663
_cell_angle_beta   106.89547912
_cell_angle_gamma   106.89548420
_symmetry_Int_Tables_number   1
_chemical_formula_structural   Tb3Dy4IrI12
_chemical_formula_sum   'Tb3 Dy4 Ir1 I12'
_cell_volume   791.82601189
_cell_formula_units_Z   1
loop_
 _symmetry_equiv_pos_site_id
 _symmetry_equiv_pos_as_xyz
  1  'x, y, z'
loop_
 _atom_site_type_symbol
 _atom_site_label
 _atom_site_symmetry_multiplicity
 _atom_site_fract_x
 _atom_site_fract_y
 _atom_site_fract_z
 _atom_site_occupancy
  Tb  Tb0  1  0.094182  0.021784  0.296186  1
  Tb  Tb1  1  0.021784  0.296186  0.094182  1
  Tb  Tb2  1  0.296186  0.094182  0.021784  1
  Dy  Dy3  1  0.499708  0.499708  0.499708  1
  Dy  Dy4  1  0.905706  0.977963  0.705312  1
  Dy  Dy5  1  0.977963  0.705312  0.905706  1
  Dy  Dy6  1  0.705312  0.905706  0.977963  1
  Ir  Ir7  1  0.000056  0.000056  0.000056  1
  I  I8  1  0.537186  0.836669  0.613778  1
  I  I9  1  0.836669  0.613778  0.537186  1
  I  I10  1  0.613778  0.537186  0.836669  1
  I  I11  1  0.463643  0.163293  0.386770  1
  I  I12  1  0.163293  0.386770  0.463643  1
  I  I13  1  0.386770  0.463643  0.163293  1
  I  I14  1  0.675447  0.223186  0.070032  1
  I  I15  1  0.223186  0.070032  0.675447  1
  I  I16  1  0.070032  0.675447  0.223186  1
  I  I17  1  0.324269  0.775220  0.929610  1
  I  I18  1  0.775220  0.929610  0.324269  1
  I  I19  1  0.929610  0.324269  0.775220  1
