# generated using pymatgen
data_Gd10Zn4(RuRh)3
_symmetry_space_group_name_H-M   'P 1'
_cell_length_a   8.40350500
_cell_length_b   8.37061091
_cell_length_c   8.40350500
_cell_angle_alpha   109.48110456
_cell_angle_beta   109.62978523
_cell_angle_gamma   109.46143674
_symmetry_Int_Tables_number   1
_chemical_formula_structural   Gd10Zn4(RuRh)3
_chemical_formula_sum   'Gd10 Zn4 Ru3 Rh3'
_cell_volume   454.15282396
_cell_formula_units_Z   1
loop_
 _symmetry_equiv_pos_site_id
 _symmetry_equiv_pos_as_xyz
  1  'x, y, z'
loop_
 _atom_site_type_symbol
 _atom_site_label
 _atom_site_symmetry_multiplicity
 _atom_site_fract_x
 _atom_site_fract_y
 _atom_site_fract_z
 _atom_site_occupancy
  Gd  Gd0  1  0.251677  0.686585  0.435623  1
  Gd  Gd1  1  0.749038  0.813415  0.065092  1
  Gd  Gd2  1  0.433418  0.250000  0.683418  1
  Gd  Gd3  1  0.684482  0.438049  0.251037  1
  Gd  Gd4  1  0.065455  0.750000  0.815455  1
  Gd  Gd5  1  0.812987  0.061951  0.746434  1
  Gd  Gd6  1  0.223611  0.222352  0.225419  1
  Gd  Gd7  1  0.499269  0.996962  0.275367  1
  Gd  Gd8  1  0.278405  0.503038  0.002307  1
  Gd  Gd9  1  0.003067  0.277648  0.501259  1
  Zn  Zn10  1  0.589735  0.592314  0.591579  1
  Zn  Zn11  1  0.498992  0.998177  0.907437  1
  Zn  Zn12  1  0.909261  0.501823  0.000815  1
  Zn  Zn13  1  0.999264  0.907686  0.497420  1
  Ru  Ru14  1  0.132166  0.882236  0.250433  1
  Ru  Ru15  1  0.621481  0.750000  0.371481  1
  Ru  Ru16  1  0.368195  0.617763  0.749928  1
  Rh  Rh17  1  0.250275  0.130005  0.880815  1
  Rh  Rh18  1  0.750810  0.369995  0.620270  1
  Rh  Rh19  1  0.878413  0.250000  0.128414  1
