# generated using pymatgen
data_Ta4V4GaSiP2
_symmetry_space_group_name_H-M   'P 1'
_cell_length_a   3.38875700
_cell_length_b   6.55048614
_cell_length_c   7.86679127
_cell_angle_alpha   89.58277158
_cell_angle_beta   90.00000000
_cell_angle_gamma   90.00000000
_symmetry_Int_Tables_number   1
_chemical_formula_structural   Ta4V4GaSiP2
_chemical_formula_sum   'Ta4 V4 Ga1 Si1 P2'
_cell_volume   174.62244803
_cell_formula_units_Z   1
loop_
 _symmetry_equiv_pos_site_id
 _symmetry_equiv_pos_as_xyz
  1  'x, y, z'
loop_
 _atom_site_type_symbol
 _atom_site_label
 _atom_site_symmetry_multiplicity
 _atom_site_fract_x
 _atom_site_fract_y
 _atom_site_fract_z
 _atom_site_occupancy
  Ta  Ta0  1  0.250000  0.546576  0.171906  1
  Ta  Ta1  1  0.750000  0.443629  0.831745  1
  Ta  Ta2  1  0.750000  0.971691  0.658579  1
  Ta  Ta3  1  0.250000  0.032988  0.333485  1
  V  V4  1  0.250000  0.628529  0.553154  1
  V  V5  1  0.750000  0.368011  0.442592  1
  V  V6  1  0.750000  0.871841  0.067907  1
  V  V7  1  0.250000  0.136140  0.939313  1
  Ga  Ga8  1  0.250000  0.754637  0.858139  1
  Si  Si9  1  0.750000  0.246083  0.141841  1
  P  P10  1  0.750000  0.740117  0.362908  1
  P  P11  1  0.250000  0.259760  0.638430  1
