# generated using pymatgen
data_K2In2Se3
_symmetry_space_group_name_H-M   'P 1'
_cell_length_a   7.51594347
_cell_length_b   7.51594294
_cell_length_c   9.76754403
_cell_angle_alpha   82.56776032
_cell_angle_beta   82.56775783
_cell_angle_gamma   120.28388156
_symmetry_Int_Tables_number   1
_chemical_formula_structural   K2In2Se3
_chemical_formula_sum   'K4 In4 Se6'
_cell_volume   460.10410704
_cell_formula_units_Z   2
loop_
 _symmetry_equiv_pos_site_id
 _symmetry_equiv_pos_as_xyz
  1  'x, y, z'
loop_
 _atom_site_type_symbol
 _atom_site_label
 _atom_site_symmetry_multiplicity
 _atom_site_fract_x
 _atom_site_fract_y
 _atom_site_fract_z
 _atom_site_occupancy
  K  K0  1  0.664488  0.335512  0.000000  1
  K  K1  1  0.335512  0.664488  0.000000  1
  K  K2  1  0.000000  0.000000  0.000000  1
  K  K3  1  0.500000  0.500000  0.500000  1
  In  In4  1  0.882620  0.215385  0.351342  1
  In  In5  1  0.784615  0.117380  0.648658  1
  In  In6  1  0.215385  0.882620  0.351342  1
  In  In7  1  0.117380  0.784615  0.648658  1
  Se  Se8  1  0.413661  0.070737  0.762272  1
  Se  Se9  1  0.070737  0.413661  0.762272  1
  Se  Se10  1  0.929263  0.586339  0.237728  1
  Se  Se11  1  0.754303  0.754303  0.761958  1
  Se  Se12  1  0.586339  0.929263  0.237728  1
  Se  Se13  1  0.245697  0.245697  0.238042  1
