# generated using pymatgen
data_Rb4In3GaH16
_symmetry_space_group_name_H-M   'P 1'
_cell_length_a   5.99112400
_cell_length_b   7.82186288
_cell_length_c   9.74855361
_cell_angle_alpha   90.09851510
_cell_angle_beta   90.00000000
_cell_angle_gamma   90.00000000
_symmetry_Int_Tables_number   1
_chemical_formula_structural   Rb4In3GaH16
_chemical_formula_sum   'Rb4 In3 Ga1 H16'
_cell_volume   456.83361126
_cell_formula_units_Z   1
loop_
 _symmetry_equiv_pos_site_id
 _symmetry_equiv_pos_as_xyz
  1  'x, y, z'
loop_
 _atom_site_type_symbol
 _atom_site_label
 _atom_site_symmetry_multiplicity
 _atom_site_fract_x
 _atom_site_fract_y
 _atom_site_fract_z
 _atom_site_occupancy
  Rb  Rb0  1  0.250000  0.335047  0.677587  1
  Rb  Rb1  1  0.250000  0.162604  0.188853  1
  Rb  Rb2  1  0.750000  0.660234  0.320134  1
  Rb  Rb3  1  0.750000  0.839022  0.815591  1
  In  In4  1  0.250000  0.691540  0.061908  1
  In  In5  1  0.250000  0.809083  0.560973  1
  In  In6  1  0.750000  0.308904  0.938234  1
  Ga  Ga7  1  0.750000  0.193943  0.437497  1
  H  H8  1  0.250000  0.604849  0.893814  1
  H  H9  1  0.250000  0.893671  0.392799  1
  H  H10  1  0.750000  0.395474  0.106165  1
  H  H11  1  0.750000  0.113580  0.588012  1
  H  H12  1  0.250000  0.534389  0.193506  1
  H  H13  1  0.250000  0.965561  0.693148  1
  H  H14  1  0.750000  0.465942  0.806955  1
  H  H15  1  0.750000  0.049497  0.321324  1
  H  H16  1  0.990972  0.176232  0.916380  1
  H  H17  1  0.531787  0.312248  0.418632  1
  H  H18  1  0.491531  0.823608  0.083684  1
  H  H19  1  0.009476  0.676242  0.583053  1
  H  H20  1  0.008469  0.823608  0.083684  1
  H  H21  1  0.490524  0.676242  0.583053  1
  H  H22  1  0.509028  0.176232  0.916380  1
  H  H23  1  0.968213  0.312248  0.418632  1
