# generated using pymatgen
data_Yb11Pr8DySn16
_symmetry_space_group_name_H-M   'P 1'
_cell_length_a   7.96757606
_cell_length_b   8.50388593
_cell_length_c   16.06170493
_cell_angle_alpha   90.03551256
_cell_angle_beta   90.04322866
_cell_angle_gamma   89.95951600
_symmetry_Int_Tables_number   1
_chemical_formula_structural   Yb11Pr8DySn16
_chemical_formula_sum   'Yb11 Pr8 Dy1 Sn16'
_cell_volume   1088.26577731
_cell_formula_units_Z   1
loop_
 _symmetry_equiv_pos_site_id
 _symmetry_equiv_pos_as_xyz
  1  'x, y, z'
loop_
 _atom_site_type_symbol
 _atom_site_label
 _atom_site_symmetry_multiplicity
 _atom_site_fract_x
 _atom_site_fract_y
 _atom_site_fract_z
 _atom_site_occupancy
  Yb  Yb0  1  0.833443  0.672640  0.623380  1
  Yb  Yb1  1  0.666247  0.172873  0.376303  1
  Yb  Yb2  1  0.165772  0.327433  0.123605  1
  Yb  Yb3  1  0.666952  0.173122  0.123750  1
  Yb  Yb4  1  0.166158  0.327092  0.376344  1
  Yb  Yb5  1  0.334158  0.827271  0.623437  1
  Yb  Yb6  1  0.833724  0.673218  0.876882  1
  Yb  Yb7  1  0.161407  0.504075  0.749533  1
  Yb  Yb8  1  0.662761  0.996290  0.749586  1
  Yb  Yb9  1  0.837923  0.495355  0.250120  1
  Yb  Yb10  1  0.338021  0.004362  0.250068  1
  Pr  Pr11  1  0.494112  0.316272  0.903970  1
  Pr  Pr12  1  0.993500  0.185028  0.595310  1
  Pr  Pr13  1  0.506010  0.685068  0.403785  1
  Pr  Pr14  1  0.005539  0.814956  0.096470  1
  Pr  Pr15  1  0.506803  0.684472  0.096557  1
  Pr  Pr16  1  0.005865  0.815051  0.403925  1
  Pr  Pr17  1  0.494098  0.315570  0.595803  1
  Pr  Pr18  1  0.993793  0.185327  0.904785  1
  Dy  Dy19  1  0.333929  0.826094  0.876011  1
  Sn  Sn20  1  0.328889  0.034218  0.037532  1
  Sn  Sn21  1  0.829682  0.464546  0.461273  1
  Sn  Sn22  1  0.669789  0.964886  0.538929  1
  Sn  Sn23  1  0.172746  0.537469  0.960447  1
  Sn  Sn24  1  0.667705  0.963670  0.960083  1
  Sn  Sn25  1  0.170295  0.535344  0.539033  1
  Sn  Sn26  1  0.330165  0.035269  0.461243  1
  Sn  Sn27  1  0.829211  0.464336  0.038682  1
  Sn  Sn28  1  0.533567  0.604774  0.750656  1
  Sn  Sn29  1  0.037053  0.895395  0.751697  1
  Sn  Sn30  1  0.465191  0.396817  0.249887  1
  Sn  Sn31  1  0.965078  0.102815  0.250023  1
  Sn  Sn32  1  0.289836  0.140379  0.751128  1
  Sn  Sn33  1  0.789359  0.358616  0.750346  1
  Sn  Sn34  1  0.710808  0.858386  0.249709  1
  Sn  Sn35  1  0.210411  0.641513  0.249708  1
