# generated using pymatgen
data_Nb3Si3TcMo2
_symmetry_space_group_name_H-M   'P 1'
_cell_length_a   6.92118432
_cell_length_b   6.92118428
_cell_length_c   3.35555000
_cell_angle_alpha   90.00000000
_cell_angle_beta   90.00000000
_cell_angle_gamma   120.13061034
_symmetry_Int_Tables_number   1
_chemical_formula_structural   Nb3Si3TcMo2
_chemical_formula_sum   'Nb3 Si3 Tc1 Mo2'
_cell_volume   139.02153715
_cell_formula_units_Z   1
loop_
 _symmetry_equiv_pos_site_id
 _symmetry_equiv_pos_as_xyz
  1  'x, y, z'
loop_
 _atom_site_type_symbol
 _atom_site_label
 _atom_site_symmetry_multiplicity
 _atom_site_fract_x
 _atom_site_fract_y
 _atom_site_fract_z
 _atom_site_occupancy
  Nb  Nb0  1  0.402070  0.989961  0.500000  1
  Nb  Nb1  1  0.989961  0.402070  0.500000  1
  Nb  Nb2  1  0.607192  0.607192  0.500000  1
  Si  Si3  1  0.330540  0.657909  0.000000  1
  Si  Si4  1  0.657909  0.330540  0.000000  1
  Si  Si5  1  0.009832  0.009832  0.500000  1
  Tc  Tc6  1  0.259378  0.259378  0.000000  1
  Mo  Mo7  1  0.743333  0.999785  0.000000  1
  Mo  Mo8  1  0.999785  0.743333  0.000000  1
