# generated using pymatgen
data_LaCe2PrHf4O14
_symmetry_space_group_name_H-M   'P 1'
_cell_length_a   7.60887335
_cell_length_b   7.60211237
_cell_length_c   7.60921669
_cell_angle_alpha   60.03087915
_cell_angle_beta   60.04728809
_cell_angle_gamma   60.02939351
_symmetry_Int_Tables_number   1
_chemical_formula_structural   LaCe2PrHf4O14
_chemical_formula_sum   'La1 Ce2 Pr1 Hf4 O14'
_cell_volume   311.48158683
_cell_formula_units_Z   1
loop_
 _symmetry_equiv_pos_site_id
 _symmetry_equiv_pos_as_xyz
  1  'x, y, z'
loop_
 _atom_site_type_symbol
 _atom_site_label
 _atom_site_symmetry_multiplicity
 _atom_site_fract_x
 _atom_site_fract_y
 _atom_site_fract_z
 _atom_site_occupancy
  La  La0  1  0.125000  0.125000  0.625000  1
  Ce  Ce1  1  0.125000  0.625000  0.125000  1
  Ce  Ce2  1  0.125000  0.125000  0.125000  1
  Pr  Pr3  1  0.625000  0.125000  0.125000  1
  Hf  Hf4  1  0.625000  0.125000  0.625000  1
  Hf  Hf5  1  0.625000  0.625000  0.125000  1
  Hf  Hf6  1  0.125000  0.625000  0.625000  1
  Hf  Hf7  1  0.625000  0.625000  0.625000  1
  O  O8  1  0.002604  0.997162  0.003072  1
  O  O9  1  0.247396  0.252838  0.246928  1
  O  O10  1  0.294221  0.294004  0.706303  1
  O  O11  1  0.543861  0.543785  0.956172  1
  O  O12  1  0.705540  0.293680  0.707099  1
  O  O13  1  0.706139  0.293818  0.293828  1
  O  O14  1  0.294221  0.705472  0.706303  1
  O  O15  1  0.294309  0.705681  0.294330  1
  O  O16  1  0.706139  0.706215  0.293828  1
  O  O17  1  0.955779  0.544528  0.543697  1
  O  O18  1  0.543861  0.956182  0.956172  1
  O  O19  1  0.955779  0.955996  0.543697  1
  O  O20  1  0.955691  0.544319  0.955670  1
  O  O21  1  0.544460  0.956320  0.542901  1
