# generated using pymatgen
data_Ho3Er(Sc3Si4)2
_symmetry_space_group_name_H-M   'P 1'
_cell_length_a   7.06957005
_cell_length_b   7.36846811
_cell_length_c   13.97456515
_cell_angle_alpha   89.98454270
_cell_angle_beta   89.99353213
_cell_angle_gamma   90.01261953
_symmetry_Int_Tables_number   1
_chemical_formula_structural   Ho3Er(Sc3Si4)2
_chemical_formula_sum   'Ho6 Er2 Sc12 Si16'
_cell_volume   727.96162258
_cell_formula_units_Z   2
loop_
 _symmetry_equiv_pos_site_id
 _symmetry_equiv_pos_as_xyz
  1  'x, y, z'
loop_
 _atom_site_type_symbol
 _atom_site_label
 _atom_site_symmetry_multiplicity
 _atom_site_fract_x
 _atom_site_fract_y
 _atom_site_fract_z
 _atom_site_occupancy
  Ho  Ho0  1  0.011842  0.176070  0.097103  1
  Ho  Ho1  1  0.988158  0.823930  0.902897  1
  Ho  Ho2  1  0.488090  0.676058  0.903089  1
  Ho  Ho3  1  0.988078  0.823771  0.596789  1
  Ho  Ho4  1  0.511910  0.323942  0.096911  1
  Ho  Ho5  1  0.011922  0.176229  0.403211  1
  Er  Er6  1  0.511632  0.323644  0.403101  1
  Er  Er7  1  0.488368  0.676356  0.596899  1
  Sc  Sc8  1  0.161448  0.503081  0.749879  1
  Sc  Sc9  1  0.838552  0.496919  0.250121  1
  Sc  Sc10  1  0.338908  0.003012  0.250237  1
  Sc  Sc11  1  0.661092  0.996988  0.749763  1
  Sc  Sc12  1  0.331600  0.176331  0.625458  1
  Sc  Sc13  1  0.668400  0.823669  0.374542  1
  Sc  Sc14  1  0.168517  0.675932  0.374654  1
  Sc  Sc15  1  0.668736  0.823819  0.125730  1
  Sc  Sc16  1  0.831483  0.324068  0.625346  1
  Sc  Sc17  1  0.331264  0.176181  0.874270  1
  Sc  Sc18  1  0.831304  0.323877  0.874499  1
  Sc  Sc19  1  0.168696  0.676123  0.125501  1
  Si  Si20  1  0.032974  0.115596  0.749856  1
  Si  Si21  1  0.967026  0.884404  0.250144  1
  Si  Si22  1  0.466844  0.615246  0.250124  1
  Si  Si23  1  0.533156  0.384754  0.749876  1
  Si  Si24  1  0.285792  0.872115  0.749739  1
  Si  Si25  1  0.714208  0.127885  0.250261  1
  Si  Si26  1  0.214588  0.372165  0.250261  1
  Si  Si27  1  0.785412  0.627835  0.749739  1
  Si  Si28  1  0.159390  0.464561  0.539272  1
  Si  Si29  1  0.840610  0.535439  0.460728  1
  Si  Si30  1  0.341787  0.964340  0.460802  1
  Si  Si31  1  0.841712  0.535653  0.039297  1
  Si  Si32  1  0.658213  0.035660  0.539198  1
  Si  Si33  1  0.158288  0.464347  0.960703  1
  Si  Si34  1  0.658474  0.035661  0.960816  1
  Si  Si35  1  0.341526  0.964339  0.039184  1
