# generated using pymatgen
data_Nd2SmHo2(In2Pd)2
_symmetry_space_group_name_H-M   'P 1'
_cell_length_a   3.71218700
_cell_length_b   8.28053198
_cell_length_c   18.43431129
_cell_angle_alpha   90.13765084
_cell_angle_beta   90.00000000
_cell_angle_gamma   90.00000000
_symmetry_Int_Tables_number   1
_chemical_formula_structural   Nd2SmHo2(In2Pd)2
_chemical_formula_sum   'Nd4 Sm2 Ho4 In8 Pd4'
_cell_volume   566.64850566
_cell_formula_units_Z   2
loop_
 _symmetry_equiv_pos_site_id
 _symmetry_equiv_pos_as_xyz
  1  'x, y, z'
loop_
 _atom_site_type_symbol
 _atom_site_label
 _atom_site_symmetry_multiplicity
 _atom_site_fract_x
 _atom_site_fract_y
 _atom_site_fract_z
 _atom_site_occupancy
  Nd  Nd0  1  0.000000  0.500000  0.500000  1
  Nd  Nd1  1  0.000000  0.000000  0.000000  1
  Nd  Nd2  1  0.000000  0.763457  0.784788  1
  Nd  Nd3  1  0.000000  0.236543  0.215212  1
  Sm  Sm4  1  0.000000  0.736641  0.284663  1
  Sm  Sm5  1  0.000000  0.263359  0.715337  1
  Ho  Ho6  1  0.000000  0.618131  0.085017  1
  Ho  Ho7  1  0.000000  0.381869  0.914983  1
  Ho  Ho8  1  0.000000  0.882029  0.584945  1
  Ho  Ho9  1  0.000000  0.117971  0.415055  1
  In  In10  1  0.500000  0.696561  0.936673  1
  In  In11  1  0.500000  0.303439  0.063327  1
  In  In12  1  0.500000  0.802546  0.436056  1
  In  In13  1  0.500000  0.197454  0.563944  1
  In  In14  1  0.500000  0.588114  0.652160  1
  In  In15  1  0.500000  0.411886  0.347840  1
  In  In16  1  0.500000  0.910146  0.152449  1
  In  In17  1  0.500000  0.089854  0.847551  1
  Pd  Pd18  1  0.500000  0.526022  0.193846  1
  Pd  Pd19  1  0.500000  0.473978  0.806154  1
  Pd  Pd20  1  0.500000  0.976960  0.693462  1
  Pd  Pd21  1  0.500000  0.023040  0.306538  1
