# generated using pymatgen
data_Nd8NiHg2Ru
_symmetry_space_group_name_H-M   'P 1'
_cell_length_a   9.85297011
_cell_length_b   9.85296889
_cell_length_c   9.94995700
_cell_angle_alpha   59.67383714
_cell_angle_beta   59.67384130
_cell_angle_gamma   59.64856413
_symmetry_Int_Tables_number   1
_chemical_formula_structural   Nd8NiHg2Ru
_chemical_formula_sum   'Nd16 Ni2 Hg4 Ru2'
_cell_volume   677.83882107
_cell_formula_units_Z   2
loop_
 _symmetry_equiv_pos_site_id
 _symmetry_equiv_pos_as_xyz
  1  'x, y, z'
loop_
 _atom_site_type_symbol
 _atom_site_label
 _atom_site_symmetry_multiplicity
 _atom_site_fract_x
 _atom_site_fract_y
 _atom_site_fract_z
 _atom_site_occupancy
  Nd  Nd0  1  0.600365  0.600365  0.597475  1
  Nd  Nd1  1  0.600365  0.600365  0.201795  1
  Nd  Nd2  1  0.600011  0.204259  0.597865  1
  Nd  Nd3  1  0.204259  0.600011  0.597865  1
  Nd  Nd4  1  0.060026  0.437603  0.442341  1
  Nd  Nd5  1  0.437603  0.060026  0.060030  1
  Nd  Nd6  1  0.437603  0.060026  0.442341  1
  Nd  Nd7  1  0.060026  0.437603  0.060030  1
  Nd  Nd8  1  0.440462  0.440462  0.059538  1
  Nd  Nd9  1  0.055572  0.055572  0.444428  1
  Nd  Nd10  1  0.188872  0.806889  0.815390  1
  Nd  Nd11  1  0.806889  0.188872  0.188847  1
  Nd  Nd12  1  0.806889  0.188872  0.815390  1
  Nd  Nd13  1  0.188872  0.806889  0.188847  1
  Nd  Nd14  1  0.814058  0.814058  0.185942  1
  Nd  Nd15  1  0.189168  0.189168  0.810832  1
  Ni  Ni16  1  0.395342  0.826022  0.389319  1
  Ni  Ni17  1  0.826022  0.395342  0.389319  1
  Hg  Hg18  1  0.833476  0.833476  0.833872  1
  Hg  Hg19  1  0.833476  0.833476  0.499178  1
  Hg  Hg20  1  0.834549  0.499272  0.833090  1
  Hg  Hg21  1  0.499272  0.834549  0.833090  1
  Ru  Ru22  1  0.393412  0.393412  0.386289  1
  Ru  Ru23  1  0.393412  0.393412  0.826889  1
