# generated using pymatgen
data_Lu22Sc2CoTc7
_symmetry_space_group_name_H-M   'P 1'
_cell_length_a   6.08645618
_cell_length_b   8.90862622
_cell_length_c   14.36203166
_cell_angle_alpha   90.02331292
_cell_angle_beta   90.35823491
_cell_angle_gamma   89.99062200
_symmetry_Int_Tables_number   1
_chemical_formula_structural   Lu22Sc2CoTc7
_chemical_formula_sum   'Lu22 Sc2 Co1 Tc7'
_cell_volume   778.72225510
_cell_formula_units_Z   1
loop_
 _symmetry_equiv_pos_site_id
 _symmetry_equiv_pos_as_xyz
  1  'x, y, z'
loop_
 _atom_site_type_symbol
 _atom_site_label
 _atom_site_symmetry_multiplicity
 _atom_site_fract_x
 _atom_site_fract_y
 _atom_site_fract_z
 _atom_site_occupancy
  Lu  Lu0  1  0.537449  0.748547  0.355540  1
  Lu  Lu1  1  0.034507  0.251555  0.144409  1
  Lu  Lu2  1  0.464333  0.252459  0.647159  1
  Lu  Lu3  1  0.968237  0.747796  0.848936  1
  Lu  Lu4  1  0.788987  0.747969  0.108100  1
  Lu  Lu5  1  0.286538  0.251798  0.392198  1
  Lu  Lu6  1  0.208940  0.251259  0.889093  1
  Lu  Lu7  1  0.717866  0.749019  0.611361  1
  Lu  Lu8  1  0.428893  0.935271  0.787281  1
  Lu  Lu9  1  0.927026  0.065591  0.710886  1
  Lu  Lu10  1  0.565614  0.437179  0.207977  1
  Lu  Lu11  1  0.066079  0.564099  0.291437  1
  Lu  Lu12  1  0.565990  0.062775  0.209300  1
  Lu  Lu13  1  0.066255  0.936019  0.290040  1
  Lu  Lu14  1  0.431697  0.563776  0.787046  1
  Lu  Lu15  1  0.930394  0.436397  0.710134  1
  Lu  Lu16  1  0.245015  0.935342  0.539105  1
  Lu  Lu17  1  0.743519  0.061050  0.964732  1
  Lu  Lu18  1  0.758135  0.440892  0.467206  1
  Lu  Lu19  1  0.257446  0.560317  0.031779  1
  Lu  Lu20  1  0.759288  0.060908  0.466445  1
  Lu  Lu21  1  0.258483  0.937492  0.032750  1
  Sc  Sc22  1  0.236363  0.563273  0.540079  1
  Sc  Sc23  1  0.734514  0.439294  0.962889  1
  Co  Co24  1  0.142772  0.746919  0.680240  1
  Tc  Tc25  1  0.937956  0.748074  0.447030  1
  Tc  Tc26  1  0.433990  0.251404  0.056884  1
  Tc  Tc27  1  0.071497  0.252061  0.561282  1
  Tc  Tc28  1  0.573964  0.747823  0.937303  1
  Tc  Tc29  1  0.354550  0.749552  0.181363  1
  Tc  Tc30  1  0.855902  0.250193  0.319372  1
  Tc  Tc31  1  0.647802  0.253899  0.820640  1
