# generated using pymatgen
data_Pa3Be2(SiPd5)4
_symmetry_space_group_name_H-M   'P 1'
_cell_length_a   8.78420281
_cell_length_b   8.68241559
_cell_length_c   8.68241600
_cell_angle_alpha   60.77712403
_cell_angle_beta   59.61143513
_cell_angle_gamma   59.61143214
_symmetry_Int_Tables_number   1
_chemical_formula_structural   Pa3Be2(SiPd5)4
_chemical_formula_sum   'Pa3 Be2 Si4 Pd20'
_cell_volume   468.10974028
_cell_formula_units_Z   1
loop_
 _symmetry_equiv_pos_site_id
 _symmetry_equiv_pos_as_xyz
  1  'x, y, z'
loop_
 _atom_site_type_symbol
 _atom_site_label
 _atom_site_symmetry_multiplicity
 _atom_site_fract_x
 _atom_site_fract_y
 _atom_site_fract_z
 _atom_site_occupancy
  Pa  Pa0  1  0.250000  0.250000  0.250000  1
  Pa  Pa1  1  0.750000  0.750000  0.750000  1
  Pa  Pa2  1  0.000000  0.000000  0.000000  1
  Be  Be3  1  0.728962  0.271038  0.271038  1
  Be  Be4  1  0.271038  0.728962  0.728962  1
  Si  Si5  1  0.270042  0.729958  0.270042  1
  Si  Si6  1  0.729958  0.270042  0.729958  1
  Si  Si7  1  0.270042  0.270042  0.729958  1
  Si  Si8  1  0.729958  0.729958  0.270042  1
  Pd  Pd9  1  0.385132  0.379183  0.379183  1
  Pd  Pd10  1  0.614868  0.620817  0.620817  1
  Pd  Pd11  1  0.379183  0.385132  0.856504  1
  Pd  Pd12  1  0.379183  0.856504  0.385132  1
  Pd  Pd13  1  0.620817  0.614868  0.143496  1
  Pd  Pd14  1  0.620817  0.143496  0.614868  1
  Pd  Pd15  1  0.856504  0.379183  0.379183  1
  Pd  Pd16  1  0.143496  0.620817  0.620817  1
  Pd  Pd17  1  0.344916  0.000000  0.000000  1
  Pd  Pd18  1  0.655084  0.000000  0.000000  1
  Pd  Pd19  1  0.000000  0.344916  0.655084  1
  Pd  Pd20  1  0.000000  0.655084  0.344916  1
  Pd  Pd21  1  0.994896  0.340968  0.005104  1
  Pd  Pd22  1  0.659032  0.005104  0.340968  1
  Pd  Pd23  1  0.005104  0.659032  0.994896  1
  Pd  Pd24  1  0.340968  0.994896  0.659032  1
  Pd  Pd25  1  0.994896  0.005104  0.340968  1
  Pd  Pd26  1  0.005104  0.994896  0.659032  1
  Pd  Pd27  1  0.659032  0.340968  0.005104  1
  Pd  Pd28  1  0.340968  0.659032  0.994896  1
