# generated using pymatgen
data_Y9Er3Ga4(SiRh2)4
_symmetry_space_group_name_H-M   'P 1'
_cell_length_a   5.51960555
_cell_length_b   7.98327075
_cell_length_c   13.20311615
_cell_angle_alpha   90.03288225
_cell_angle_beta   89.96512309
_cell_angle_gamma   89.96271677
_symmetry_Int_Tables_number   1
_chemical_formula_structural   Y9Er3Ga4(SiRh2)4
_chemical_formula_sum   'Y9 Er3 Ga4 Si4 Rh8'
_cell_volume   581.78845795
_cell_formula_units_Z   1
loop_
 _symmetry_equiv_pos_site_id
 _symmetry_equiv_pos_as_xyz
  1  'x, y, z'
loop_
 _atom_site_type_symbol
 _atom_site_label
 _atom_site_symmetry_multiplicity
 _atom_site_fract_x
 _atom_site_fract_y
 _atom_site_fract_z
 _atom_site_occupancy
  Y  Y0  1  0.852382  0.397727  0.602675  1
  Y  Y1  1  0.852360  0.398061  0.897450  1
  Y  Y2  1  0.852348  0.101918  0.102664  1
  Y  Y3  1  0.147651  0.898141  0.602653  1
  Y  Y4  1  0.147934  0.602087  0.397191  1
  Y  Y5  1  0.364432  0.243278  0.250055  1
  Y  Y6  1  0.364486  0.256500  0.750202  1
  Y  Y7  1  0.635487  0.743346  0.249937  1
  Y  Y8  1  0.635371  0.756900  0.750202  1
  Er  Er9  1  0.148514  0.602020  0.102417  1
  Er  Er10  1  0.148471  0.897961  0.897697  1
  Er  Er11  1  0.851506  0.101899  0.397604  1
  Ga  Ga12  1  0.366033  0.249953  0.000023  1
  Ga  Ga13  1  0.634323  0.750004  0.499958  1
  Ga  Ga14  1  0.633936  0.749979  0.000043  1
  Ga  Ga15  1  0.365692  0.249899  0.499935  1
  Si  Si16  1  0.863052  0.388825  0.249962  1
  Si  Si17  1  0.862837  0.110714  0.750169  1
  Si  Si18  1  0.137038  0.888892  0.250012  1
  Si  Si19  1  0.137435  0.611346  0.750234  1
  Rh  Rh20  1  0.645298  0.471116  0.095391  1
  Rh  Rh21  1  0.645604  0.028778  0.904905  1
  Rh  Rh22  1  0.354864  0.970956  0.404551  1
  Rh  Rh23  1  0.354931  0.530386  0.595292  1
  Rh  Rh24  1  0.352748  0.532374  0.906094  1
  Rh  Rh25  1  0.352548  0.967612  0.094075  1
  Rh  Rh26  1  0.646910  0.031040  0.594076  1
  Rh  Rh27  1  0.645808  0.468288  0.404533  1
