# generated using pymatgen
data_Cu3Mo12Pd5N4
_symmetry_space_group_name_H-M   'P 1'
_cell_length_a   6.82019580
_cell_length_b   6.82019580
_cell_length_c   6.82019580
_cell_angle_alpha   89.81501070
_cell_angle_beta   90.18498930
_cell_angle_gamma   89.81501070
_symmetry_Int_Tables_number   1
_chemical_formula_structural   Cu3Mo12Pd5N4
_chemical_formula_sum   'Cu3 Mo12 Pd5 N4'
_cell_volume   317.23691931
_cell_formula_units_Z   1
loop_
 _symmetry_equiv_pos_site_id
 _symmetry_equiv_pos_as_xyz
  1  'x, y, z'
loop_
 _atom_site_type_symbol
 _atom_site_label
 _atom_site_symmetry_multiplicity
 _atom_site_fract_x
 _atom_site_fract_y
 _atom_site_fract_z
 _atom_site_occupancy
  Cu  Cu0  1  0.185641  0.184057  0.182823  1
  Cu  Cu1  1  0.315943  0.817177  0.685641  1
  Cu  Cu2  1  0.682823  0.314359  0.815943  1
  Mo  Mo3  1  0.798657  0.041601  0.121972  1
  Mo  Mo4  1  0.702825  0.957808  0.625184  1
  Mo  Mo5  1  0.300219  0.461541  0.874345  1
  Mo  Mo6  1  0.200949  0.538196  0.373186  1
  Mo  Mo7  1  0.125183  0.797174  0.042192  1
  Mo  Mo8  1  0.038459  0.125655  0.800218  1
  Mo  Mo9  1  0.374344  0.199782  0.538459  1
  Mo  Mo10  1  0.961804  0.626814  0.700948  1
  Mo  Mo11  1  0.621973  0.701342  0.958399  1
  Mo  Mo12  1  0.458399  0.878028  0.298658  1
  Mo  Mo13  1  0.873187  0.299052  0.461804  1
  Mo  Mo14  1  0.542192  0.374816  0.202826  1
  Pd  Pd15  1  0.814696  0.685304  0.314696  1
  Pd  Pd16  1  0.560084  0.563644  0.572075  1
  Pd  Pd17  1  0.936357  0.427925  0.060083  1
  Pd  Pd18  1  0.431838  0.068161  0.931839  1
  Pd  Pd19  1  0.072074  0.939917  0.436356  1
  N  N20  1  0.872871  0.871138  0.873779  1
  N  N21  1  0.628863  0.126221  0.372870  1
  N  N22  1  0.373778  0.627130  0.128862  1
  N  N23  1  0.126839  0.373160  0.626840  1
