# generated using pymatgen
data_LiLu3(P3Rh4)2
_symmetry_space_group_name_H-M   'P 1'
_cell_length_a   3.89858600
_cell_length_b   11.21631700
_cell_length_c   12.68244300
_cell_angle_alpha   90.00000000
_cell_angle_beta   90.00000000
_cell_angle_gamma   90.00000000
_symmetry_Int_Tables_number   1
_chemical_formula_structural   LiLu3(P3Rh4)2
_chemical_formula_sum   'Li2 Lu6 P12 Rh16'
_cell_volume   554.57503206
_cell_formula_units_Z   2
loop_
 _symmetry_equiv_pos_site_id
 _symmetry_equiv_pos_as_xyz
  1  'x, y, z'
loop_
 _atom_site_type_symbol
 _atom_site_label
 _atom_site_symmetry_multiplicity
 _atom_site_fract_x
 _atom_site_fract_y
 _atom_site_fract_z
 _atom_site_occupancy
  Li  Li0  1  0.500000  0.500000  0.158579  1
  Li  Li1  1  0.000000  0.000000  0.841421  1
  Lu  Lu2  1  0.000000  0.500000  0.517163  1
  Lu  Lu3  1  0.500000  0.000000  0.482837  1
  Lu  Lu4  1  0.500000  0.818493  0.205026  1
  Lu  Lu5  1  0.500000  0.181507  0.205026  1
  Lu  Lu6  1  0.000000  0.681507  0.794974  1
  Lu  Lu7  1  0.000000  0.318493  0.794974  1
  P  P8  1  0.500000  0.500000  0.880363  1
  P  P9  1  0.000000  0.000000  0.119637  1
  P  P10  1  0.500000  0.500000  0.349307  1
  P  P11  1  0.000000  0.000000  0.650693  1
  P  P12  1  0.500000  0.314826  0.618961  1
  P  P13  1  0.500000  0.685174  0.618961  1
  P  P14  1  0.000000  0.185174  0.381039  1
  P  P15  1  0.000000  0.814826  0.381039  1
  P  P16  1  0.500000  0.840459  0.890648  1
  P  P17  1  0.500000  0.159541  0.890648  1
  P  P18  1  0.000000  0.659541  0.109352  1
  P  P19  1  0.000000  0.340459  0.109352  1
  Rh  Rh20  1  0.500000  0.500000  0.701005  1
  Rh  Rh21  1  0.000000  0.000000  0.298995  1
  Rh  Rh22  1  0.000000  0.500000  0.982494  1
  Rh  Rh23  1  0.500000  0.000000  0.017506  1
  Rh  Rh24  1  0.500000  0.333167  0.998337  1
  Rh  Rh25  1  0.500000  0.666833  0.998337  1
  Rh  Rh26  1  0.000000  0.166833  0.001663  1
  Rh  Rh27  1  0.000000  0.833167  0.001663  1
  Rh  Rh28  1  0.500000  0.291913  0.430815  1
  Rh  Rh29  1  0.500000  0.708087  0.430815  1
  Rh  Rh30  1  0.000000  0.208087  0.569185  1
  Rh  Rh31  1  0.000000  0.791913  0.569185  1
  Rh  Rh32  1  0.500000  0.873539  0.709961  1
  Rh  Rh33  1  0.500000  0.126461  0.709961  1
  Rh  Rh34  1  0.000000  0.626461  0.290039  1
  Rh  Rh35  1  0.000000  0.373539  0.290039  1
