# generated using pymatgen
data_SmEr3(Sc3Sn4)2
_symmetry_space_group_name_H-M   'P 1'
_cell_length_a   7.68841016
_cell_length_b   7.95953933
_cell_length_c   14.83782580
_cell_angle_alpha   90.05108973
_cell_angle_beta   89.95161292
_cell_angle_gamma   90.07119733
_symmetry_Int_Tables_number   1
_chemical_formula_structural   SmEr3(Sc3Sn4)2
_chemical_formula_sum   'Sm2 Er6 Sc12 Sn16'
_cell_volume   908.01721589
_cell_formula_units_Z   2
loop_
 _symmetry_equiv_pos_site_id
 _symmetry_equiv_pos_as_xyz
  1  'x, y, z'
loop_
 _atom_site_type_symbol
 _atom_site_label
 _atom_site_symmetry_multiplicity
 _atom_site_fract_x
 _atom_site_fract_y
 _atom_site_fract_z
 _atom_site_occupancy
  Sm  Sm0  1  0.996839  0.176685  0.094046  1
  Sm  Sm1  1  0.003161  0.823315  0.905954  1
  Er  Er2  1  0.504457  0.677015  0.905460  1
  Er  Er3  1  0.004304  0.822512  0.594523  1
  Er  Er4  1  0.495543  0.322985  0.094540  1
  Er  Er5  1  0.995696  0.177488  0.405477  1
  Er  Er6  1  0.496145  0.322613  0.406406  1
  Er  Er7  1  0.503855  0.677387  0.593594  1
  Sc  Sc8  1  0.163836  0.496618  0.749583  1
  Sc  Sc9  1  0.836164  0.503382  0.250417  1
  Sc  Sc10  1  0.336517  0.996443  0.250381  1
  Sc  Sc11  1  0.663483  0.003557  0.749619  1
  Sc  Sc12  1  0.335367  0.161779  0.627109  1
  Sc  Sc13  1  0.664633  0.838221  0.372891  1
  Sc  Sc14  1  0.164810  0.662071  0.373083  1
  Sc  Sc15  1  0.664618  0.837587  0.127765  1
  Sc  Sc16  1  0.835190  0.337929  0.626917  1
  Sc  Sc17  1  0.335382  0.162413  0.872235  1
  Sc  Sc18  1  0.834440  0.338625  0.872595  1
  Sc  Sc19  1  0.165560  0.661375  0.127405  1
  Sn  Sn20  1  0.026188  0.124936  0.749596  1
  Sn  Sn21  1  0.973812  0.875064  0.250404  1
  Sn  Sn22  1  0.473878  0.623469  0.250188  1
  Sn  Sn23  1  0.526122  0.376531  0.749812  1
  Sn  Sn24  1  0.307331  0.849441  0.749070  1
  Sn  Sn25  1  0.692669  0.150559  0.250930  1
  Sn  Sn26  1  0.195984  0.351085  0.251436  1
  Sn  Sn27  1  0.804016  0.648915  0.748564  1
  Sn  Sn28  1  0.180746  0.458177  0.542253  1
  Sn  Sn29  1  0.819254  0.541823  0.457747  1
  Sn  Sn30  1  0.318861  0.958480  0.457652  1
  Sn  Sn31  1  0.817672  0.541993  0.042322  1
  Sn  Sn32  1  0.681139  0.041520  0.542348  1
  Sn  Sn33  1  0.182328  0.458007  0.957678  1
  Sn  Sn34  1  0.675590  0.042512  0.957474  1
  Sn  Sn35  1  0.324410  0.957488  0.042526  1
