# generated using pymatgen
data_YbGd4Er2CoBr12
_symmetry_space_group_name_H-M   'P 1'
_cell_length_a   9.19648293
_cell_length_b   9.28986848
_cell_length_c   9.29777400
_cell_angle_alpha   106.87885760
_cell_angle_beta   107.10676074
_cell_angle_gamma   106.70677432
_symmetry_Int_Tables_number   1
_chemical_formula_structural   YbGd4Er2CoBr12
_chemical_formula_sum   'Yb1 Gd4 Er2 Co1 Br12'
_cell_volume   663.37524066
_cell_formula_units_Z   1
loop_
 _symmetry_equiv_pos_site_id
 _symmetry_equiv_pos_as_xyz
  1  'x, y, z'
loop_
 _atom_site_type_symbol
 _atom_site_label
 _atom_site_symmetry_multiplicity
 _atom_site_fract_x
 _atom_site_fract_y
 _atom_site_fract_z
 _atom_site_occupancy
  Yb  Yb0  1  0.499434  0.500642  0.500384  1
  Gd  Gd1  1  0.301606  0.024484  0.099925  1
  Gd  Gd2  1  0.975586  0.899151  0.688739  1
  Gd  Gd3  1  0.897828  0.688176  0.974624  1
  Gd  Gd4  1  0.699736  0.975069  0.901878  1
  Er  Er5  1  0.025653  0.101933  0.305291  1
  Er  Er6  1  0.100634  0.305434  0.025682  1
  Co  Co7  1  0.999629  0.000160  0.000076  1
  Br  Br8  1  0.154363  0.450191  0.373958  1
  Br  Br9  1  0.451035  0.380207  0.158693  1
  Br  Br10  1  0.373588  0.160652  0.456274  1
  Br  Br11  1  0.840615  0.543758  0.619817  1
  Br  Br12  1  0.541735  0.619539  0.838151  1
  Br  Br13  1  0.618016  0.838639  0.543328  1
  Br  Br14  1  0.686632  0.073143  0.224995  1
  Br  Br15  1  0.072195  0.224544  0.682778  1
  Br  Br16  1  0.222438  0.676441  0.072490  1
  Br  Br17  1  0.323714  0.929957  0.781903  1
  Br  Br18  1  0.930785  0.787323  0.320807  1
  Br  Br19  1  0.784780  0.320558  0.930209  1
