# generated using pymatgen
data_Dy9Ho(Co2Os)2
_symmetry_space_group_name_H-M   'P 1'
_cell_length_a   8.64497500
_cell_length_b   8.64497485
_cell_length_c   8.64497327
_cell_angle_alpha   131.39530646
_cell_angle_beta   131.39530603
_cell_angle_gamma   71.18576856
_symmetry_Int_Tables_number   1
_chemical_formula_structural   Dy9Ho(Co2Os)2
_chemical_formula_sum   'Dy9 Ho1 Co4 Os2'
_cell_volume   355.94498407
_cell_formula_units_Z   1
loop_
 _symmetry_equiv_pos_site_id
 _symmetry_equiv_pos_as_xyz
  1  'x, y, z'
loop_
 _atom_site_type_symbol
 _atom_site_label
 _atom_site_symmetry_multiplicity
 _atom_site_fract_x
 _atom_site_fract_y
 _atom_site_fract_z
 _atom_site_occupancy
  Dy  Dy0  1  0.678618  0.535647  0.499808  1
  Dy  Dy1  1  0.464353  0.964160  0.142971  1
  Dy  Dy2  1  0.821190  0.321382  0.857029  1
  Dy  Dy3  1  0.535647  0.035840  0.857029  1
  Dy  Dy4  1  0.000000  0.000000  0.000000  1
  Dy  Dy5  1  0.035840  0.178810  0.500192  1
  Dy  Dy6  1  0.321382  0.464353  0.500192  1
  Dy  Dy7  1  0.178810  0.678618  0.142971  1
  Dy  Dy8  1  0.964160  0.821190  0.499808  1
  Ho  Ho9  1  0.500000  0.500000  0.000000  1
  Co  Co10  1  0.111984  0.611577  0.723560  1
  Co  Co11  1  0.888016  0.388423  0.276440  1
  Co  Co12  1  0.611577  0.888016  0.499592  1
  Co  Co13  1  0.388423  0.111984  0.500408  1
  Os  Os14  1  0.250113  0.250113  0.000000  1
  Os  Os15  1  0.749887  0.749887  0.000000  1
