# generated using pymatgen
data_Y2Er6B24MoRu3
_symmetry_space_group_name_H-M   'P 1'
_cell_length_a   3.64428300
_cell_length_b   9.13722192
_cell_length_c   11.52740600
_cell_angle_alpha   89.86355289
_cell_angle_beta   90.00000000
_cell_angle_gamma   90.00000000
_symmetry_Int_Tables_number   1
_chemical_formula_structural   Y2Er6B24MoRu3
_chemical_formula_sum   'Y2 Er6 B24 Mo1 Ru3'
_cell_volume   383.84565236
_cell_formula_units_Z   1
loop_
 _symmetry_equiv_pos_site_id
 _symmetry_equiv_pos_as_xyz
  1  'x, y, z'
loop_
 _atom_site_type_symbol
 _atom_site_label
 _atom_site_symmetry_multiplicity
 _atom_site_fract_x
 _atom_site_fract_y
 _atom_site_fract_z
 _atom_site_occupancy
  Y  Y0  1  0.000000  0.322056  0.413463  1
  Y  Y1  1  0.000000  0.677662  0.584687  1
  Er  Er2  1  0.000000  0.820400  0.087205  1
  Er  Er3  1  0.000000  0.177245  0.914971  1
  Er  Er4  1  0.000000  0.945310  0.372109  1
  Er  Er5  1  0.000000  0.058167  0.629528  1
  Er  Er6  1  0.000000  0.442627  0.126653  1
  Er  Er7  1  0.000000  0.557179  0.870578  1
  B  B8  1  0.500000  0.551416  0.435127  1
  B  B9  1  0.500000  0.445848  0.568494  1
  B  B10  1  0.500000  0.053232  0.066804  1
  B  B11  1  0.500000  0.946192  0.933480  1
  B  B12  1  0.500000  0.751281  0.420899  1
  B  B13  1  0.500000  0.251786  0.581926  1
  B  B14  1  0.500000  0.247980  0.080037  1
  B  B15  1  0.500000  0.751454  0.919161  1
  B  B16  1  0.500000  0.794489  0.264017  1
  B  B17  1  0.500000  0.208735  0.735228  1
  B  B18  1  0.500000  0.290310  0.232567  1
  B  B19  1  0.500000  0.709849  0.766068  1
  B  B20  1  0.500000  0.631514  0.182661  1
  B  B21  1  0.500000  0.368240  0.815423  1
  B  B22  1  0.500000  0.130822  0.313604  1
  B  B23  1  0.500000  0.870180  0.685961  1
  B  B24  1  0.500000  0.982929  0.212266  1
  B  B25  1  0.500000  0.017631  0.788642  1
  B  B26  1  0.500000  0.478554  0.286092  1
  B  B27  1  0.500000  0.516238  0.713211  1
  B  B28  1  0.500000  0.605363  0.027542  1
  B  B29  1  0.500000  0.393700  0.969788  1
  B  B30  1  0.500000  0.105595  0.471637  1
  B  B31  1  0.500000  0.897531  0.529975  1
  Mo  Mo32  1  0.000000  0.637878  0.320517  1
  Ru  Ru33  1  0.000000  0.360615  0.681175  1
  Ru  Ru34  1  0.000000  0.137281  0.177307  1
  Ru  Ru35  1  0.000000  0.862710  0.821199  1
