# generated using pymatgen
data_LiErB4Ir5
_symmetry_space_group_name_H-M   'P 1'
_cell_length_a   7.41989902
_cell_length_b   6.27507927
_cell_length_c   5.54934809
_cell_angle_alpha   77.46375614
_cell_angle_beta   55.64397943
_cell_angle_gamma   46.89226147
_symmetry_Int_Tables_number   1
_chemical_formula_structural   LiErB4Ir5
_chemical_formula_sum   'Li1 Er1 B4 Ir5'
_cell_volume   149.51088393
_cell_formula_units_Z   1
loop_
 _symmetry_equiv_pos_site_id
 _symmetry_equiv_pos_as_xyz
  1  'x, y, z'
loop_
 _atom_site_type_symbol
 _atom_site_label
 _atom_site_symmetry_multiplicity
 _atom_site_fract_x
 _atom_site_fract_y
 _atom_site_fract_z
 _atom_site_occupancy
  Li  Li0  1  0.650180  0.650179  0.349820  1
  Er  Er1  1  0.372788  0.372787  0.627212  1
  B  B2  1  0.285704  0.976302  0.023697  1
  B  B3  1  0.016265  0.707706  0.292292  1
  B  B4  1  0.976303  0.285702  0.714296  1
  B  B5  1  0.707708  0.016264  0.983735  1
  Ir  Ir6  1  0.997490  0.997490  0.002510  1
  Ir  Ir7  1  0.499827  0.499828  0.000172  1
  Ir  Ir8  1  0.246955  0.246956  0.253045  1
  Ir  Ir9  1  0.999828  0.999828  0.500173  1
  Ir  Ir10  1  0.746956  0.746955  0.753045  1
