# generated using pymatgen
data_Be8AlV2Cu
_symmetry_space_group_name_H-M   'P 1'
_cell_length_a   4.33755400
_cell_length_b   4.33748196
_cell_length_c   7.12601100
_cell_angle_alpha   90.00000395
_cell_angle_beta   90.00008959
_cell_angle_gamma   60.00039453
_symmetry_Int_Tables_number   1
_chemical_formula_structural   Be8AlV2Cu
_chemical_formula_sum   'Be8 Al1 V2 Cu1'
_cell_volume   116.10780714
_cell_formula_units_Z   1
loop_
 _symmetry_equiv_pos_site_id
 _symmetry_equiv_pos_as_xyz
  1  'x, y, z'
loop_
 _atom_site_type_symbol
 _atom_site_label
 _atom_site_symmetry_multiplicity
 _atom_site_fract_x
 _atom_site_fract_y
 _atom_site_fract_z
 _atom_site_occupancy
  Be  Be0  1  0.000002  0.999999  0.502446  1
  Be  Be1  1  0.000012  0.999994  0.999320  1
  Be  Be2  1  0.832016  0.335992  0.753367  1
  Be  Be3  1  0.336006  0.831998  0.753359  1
  Be  Be4  1  0.832016  0.831993  0.753366  1
  Be  Be5  1  0.168059  0.663874  0.245824  1
  Be  Be6  1  0.663878  0.168061  0.245829  1
  Be  Be7  1  0.168059  0.168066  0.245825  1
  Al  Al8  1  0.666664  0.666669  0.431068  1
  V  V9  1  0.666644  0.666680  0.052453  1
  V  V10  1  0.333388  0.333305  0.947637  1
  Cu  Cu11  1  0.333258  0.333370  0.569504  1
