# generated using pymatgen
data_Zn20CoCu2Pd3
_symmetry_space_group_name_H-M   'P 1'
_cell_length_a   7.86863021
_cell_length_b   7.86862938
_cell_length_c   7.84165930
_cell_angle_alpha   70.60531895
_cell_angle_beta   70.60532045
_cell_angle_gamma   109.58989688
_symmetry_Int_Tables_number   1
_chemical_formula_structural   Zn20CoCu2Pd3
_chemical_formula_sum   'Zn20 Co1 Cu2 Pd3'
_cell_volume   373.91019500
_cell_formula_units_Z   1
loop_
 _symmetry_equiv_pos_site_id
 _symmetry_equiv_pos_as_xyz
  1  'x, y, z'
loop_
 _atom_site_type_symbol
 _atom_site_label
 _atom_site_symmetry_multiplicity
 _atom_site_fract_x
 _atom_site_fract_y
 _atom_site_fract_z
 _atom_site_occupancy
  Zn  Zn0  1  0.004908  0.004908  0.813321  1
  Zn  Zn1  1  0.767383  0.767383  0.240413  1
  Zn  Zn2  1  0.223324  0.998969  0.004243  1
  Zn  Zn3  1  0.998969  0.223324  0.004243  1
  Zn  Zn4  1  0.237014  0.237014  0.409719  1
  Zn  Zn5  1  0.008429  0.771201  0.639296  1
  Zn  Zn6  1  0.771201  0.008429  0.639296  1
  Zn  Zn7  1  0.654117  0.654117  0.632635  1
  Zn  Zn8  1  0.359107  0.634165  0.341765  1
  Zn  Zn9  1  0.634165  0.359107  0.341765  1
  Zn  Zn10  1  0.366116  0.742069  0.962413  1
  Zn  Zn11  1  0.629223  0.260823  0.707883  1
  Zn  Zn12  1  0.352181  0.006599  0.276371  1
  Zn  Zn13  1  0.742069  0.366116  0.962413  1
  Zn  Zn14  1  0.006599  0.352181  0.276371  1
  Zn  Zn15  1  0.260823  0.629223  0.707883  1
  Zn  Zn16  1  0.640299  0.640299  0.006439  1
  Zn  Zn17  1  0.998022  0.644388  0.368587  1
  Zn  Zn18  1  0.644388  0.998022  0.368587  1
  Zn  Zn19  1  0.351349  0.351349  0.011610  1
  Co  Co20  1  0.000065  0.000065  0.328803  1
  Cu  Cu21  1  0.998018  0.354644  0.643914  1
  Cu  Cu22  1  0.354644  0.998018  0.643914  1
  Pd  Pd23  1  0.357190  0.357190  0.651346  1
  Pd  Pd24  1  0.646771  0.993625  0.008384  1
  Pd  Pd25  1  0.993625  0.646771  0.008384  1
