# generated using pymatgen
data_Y9Er(In2Ir)4
_symmetry_space_group_name_H-M   'P 1'
_cell_length_a   3.66900600
_cell_length_b   8.03081547
_cell_length_c   18.30161652
_cell_angle_alpha   90.14958788
_cell_angle_beta   90.00000000
_cell_angle_gamma   90.00000000
_symmetry_Int_Tables_number   1
_chemical_formula_structural   Y9Er(In2Ir)4
_chemical_formula_sum   'Y9 Er1 In8 Ir4'
_cell_volume   539.25730836
_cell_formula_units_Z   1
loop_
 _symmetry_equiv_pos_site_id
 _symmetry_equiv_pos_as_xyz
  1  'x, y, z'
loop_
 _atom_site_type_symbol
 _atom_site_label
 _atom_site_symmetry_multiplicity
 _atom_site_fract_x
 _atom_site_fract_y
 _atom_site_fract_z
 _atom_site_occupancy
  Y  Y0  1  0.000000  0.114393  0.410618  1
  Y  Y1  1  0.000000  0.884263  0.588498  1
  Y  Y2  1  0.000000  0.384750  0.911457  1
  Y  Y3  1  0.000000  0.616091  0.089085  1
  Y  Y4  1  0.000000  0.243674  0.221496  1
  Y  Y5  1  0.000000  0.756908  0.778785  1
  Y  Y6  1  0.000000  0.256628  0.721391  1
  Y  Y7  1  0.000000  0.000364  0.000191  1
  Y  Y8  1  0.000000  0.499706  0.499692  1
  Er  Er9  1  0.000000  0.743722  0.278116  1
  In  In10  1  0.500000  0.427450  0.349995  1
  In  In11  1  0.500000  0.573788  0.649810  1
  In  In12  1  0.500000  0.073982  0.850214  1
  In  In13  1  0.500000  0.925655  0.150085  1
  In  In14  1  0.500000  0.293463  0.068382  1
  In  In15  1  0.500000  0.707439  0.932153  1
  In  In16  1  0.500000  0.206876  0.567656  1
  In  In17  1  0.500000  0.791795  0.431460  1
  Ir  Ir18  1  0.500000  0.014313  0.303895  1
  Ir  Ir19  1  0.500000  0.980274  0.695584  1
  Ir  Ir20  1  0.500000  0.480503  0.804293  1
  Ir  Ir21  1  0.500000  0.523961  0.197144  1
