# generated using pymatgen
data_Dy4Ho12MgHg3Ir4
_symmetry_space_group_name_H-M   'P 1'
_cell_length_a   9.60751124
_cell_length_b   9.58315733
_cell_length_c   9.58315912
_cell_angle_alpha   59.86424125
_cell_angle_beta   59.93551791
_cell_angle_gamma   59.93551762
_symmetry_Int_Tables_number   1
_chemical_formula_structural   Dy4Ho12MgHg3Ir4
_chemical_formula_sum   'Dy4 Ho12 Mg1 Hg3 Ir4'
_cell_volume   622.64793182
_cell_formula_units_Z   1
loop_
 _symmetry_equiv_pos_site_id
 _symmetry_equiv_pos_as_xyz
  1  'x, y, z'
loop_
 _atom_site_type_symbol
 _atom_site_label
 _atom_site_symmetry_multiplicity
 _atom_site_fract_x
 _atom_site_fract_y
 _atom_site_fract_z
 _atom_site_occupancy
  Dy  Dy0  1  0.561162  0.939435  0.562833  1
  Dy  Dy1  1  0.937422  0.560823  0.939741  1
  Dy  Dy2  1  0.561162  0.562833  0.939435  1
  Dy  Dy3  1  0.937422  0.939741  0.560823  1
  Ho  Ho4  1  0.348718  0.347430  0.347430  1
  Ho  Ho5  1  0.350987  0.348711  0.954165  1
  Ho  Ho6  1  0.350987  0.954165  0.348711  1
  Ho  Ho7  1  0.943135  0.352878  0.352878  1
  Ho  Ho8  1  0.808047  0.190865  0.190865  1
  Ho  Ho9  1  0.185347  0.812022  0.812022  1
  Ho  Ho10  1  0.187475  0.811047  0.188751  1
  Ho  Ho11  1  0.808306  0.189403  0.809181  1
  Ho  Ho12  1  0.187475  0.188751  0.811047  1
  Ho  Ho13  1  0.808306  0.809181  0.189403  1
  Ho  Ho14  1  0.938020  0.561417  0.561417  1
  Ho  Ho15  1  0.560387  0.938575  0.938575  1
  Mg  Mg16  1  0.284788  0.571288  0.571288  1
  Hg  Hg17  1  0.581889  0.586423  0.586423  1
  Hg  Hg18  1  0.581957  0.587245  0.243755  1
  Hg  Hg19  1  0.581957  0.243755  0.587245  1
  Ir  Ir20  1  0.139710  0.143317  0.143317  1
  Ir  Ir21  1  0.139856  0.144116  0.574517  1
  Ir  Ir22  1  0.139856  0.574517  0.144116  1
  Ir  Ir23  1  0.575625  0.142063  0.142063  1
