# generated using pymatgen
data_Tb4Pa(FeB3)2
_symmetry_space_group_name_H-M   'P 1'
_cell_length_a   5.43044533
_cell_length_b   5.43044526
_cell_length_c   7.95967739
_cell_angle_alpha   70.05474091
_cell_angle_beta   70.05474205
_cell_angle_gamma   59.99998195
_symmetry_Int_Tables_number   1
_chemical_formula_structural   Tb4Pa(FeB3)2
_chemical_formula_sum   'Tb4 Pa1 Fe2 B6'
_cell_volume   186.84698037
_cell_formula_units_Z   1
loop_
 _symmetry_equiv_pos_site_id
 _symmetry_equiv_pos_as_xyz
  1  'x, y, z'
loop_
 _atom_site_type_symbol
 _atom_site_label
 _atom_site_symmetry_multiplicity
 _atom_site_fract_x
 _atom_site_fract_y
 _atom_site_fract_z
 _atom_site_occupancy
  Tb  Tb0  1  0.254553  0.254553  0.236342  1
  Tb  Tb1  1  0.745447  0.745447  0.763658  1
  Tb  Tb2  1  0.412594  0.412594  0.762217  1
  Tb  Tb3  1  0.587406  0.587406  0.237783  1
  Pa  Pa4  1  0.000000  0.000000  0.000000  1
  Fe  Fe5  1  0.108312  0.108312  0.675066  1
  Fe  Fe6  1  0.891688  0.891688  0.324934  1
  B  B7  1  0.166945  0.833055  0.500000  1
  B  B8  1  0.833055  0.500000  0.500000  1
  B  B9  1  0.500000  0.166945  0.500000  1
  B  B10  1  0.166945  0.500000  0.500000  1
  B  B11  1  0.500000  0.833055  0.500000  1
  B  B12  1  0.833055  0.166945  0.500000  1
