# generated using pymatgen
data_NdHo9Cd3In5Pd4
_symmetry_space_group_name_H-M   'P 1'
_cell_length_a   3.61287900
_cell_length_b   8.11428629
_cell_length_c   18.38856283
_cell_angle_alpha   90.11082423
_cell_angle_beta   90.00000000
_cell_angle_gamma   90.00000000
_symmetry_Int_Tables_number   1
_chemical_formula_structural   NdHo9Cd3In5Pd4
_chemical_formula_sum   'Nd1 Ho9 Cd3 In5 Pd4'
_cell_volume   539.07689562
_cell_formula_units_Z   1
loop_
 _symmetry_equiv_pos_site_id
 _symmetry_equiv_pos_as_xyz
  1  'x, y, z'
loop_
 _atom_site_type_symbol
 _atom_site_label
 _atom_site_symmetry_multiplicity
 _atom_site_fract_x
 _atom_site_fract_y
 _atom_site_fract_z
 _atom_site_occupancy
  Nd  Nd0  1  0.000000  0.498799  0.499620  1
  Ho  Ho1  1  0.000000  0.999126  0.999754  1
  Ho  Ho2  1  0.000000  0.745886  0.280496  1
  Ho  Ho3  1  0.000000  0.257366  0.720453  1
  Ho  Ho4  1  0.000000  0.755507  0.783547  1
  Ho  Ho5  1  0.000000  0.244442  0.216697  1
  Ho  Ho6  1  0.000000  0.613897  0.084041  1
  Ho  Ho7  1  0.000000  0.386088  0.916914  1
  Ho  Ho8  1  0.000000  0.878848  0.585696  1
  Ho  Ho9  1  0.000000  0.117920  0.413756  1
  Cd  Cd10  1  0.500000  0.708213  0.933321  1
  Cd  Cd11  1  0.500000  0.291185  0.066670  1
  Cd  Cd12  1  0.500000  0.797122  0.430402  1
  In  In13  1  0.500000  0.200402  0.569165  1
  In  In14  1  0.500000  0.577483  0.652672  1
  In  In15  1  0.500000  0.426358  0.347888  1
  In  In16  1  0.500000  0.925258  0.146984  1
  In  In17  1  0.500000  0.075487  0.852334  1
  Pd  Pd18  1  0.500000  0.526117  0.195754  1
  Pd  Pd19  1  0.500000  0.473471  0.804525  1
  Pd  Pd20  1  0.500000  0.973130  0.697889  1
  Pd  Pd21  1  0.500000  0.027894  0.301422  1
