# generated using pymatgen
data_Th2BeCoSi4
_symmetry_space_group_name_H-M   'P 1'
_cell_length_a   8.38215526
_cell_length_b   8.38215530
_cell_length_c   4.10572100
_cell_angle_alpha   90.00000000
_cell_angle_beta   90.00000000
_cell_angle_gamma   151.38923002
_symmetry_Int_Tables_number   1
_chemical_formula_structural   Th2BeCoSi4
_chemical_formula_sum   'Th2 Be1 Co1 Si4'
_cell_volume   138.13590402
_cell_formula_units_Z   1
loop_
 _symmetry_equiv_pos_site_id
 _symmetry_equiv_pos_as_xyz
  1  'x, y, z'
loop_
 _atom_site_type_symbol
 _atom_site_label
 _atom_site_symmetry_multiplicity
 _atom_site_fract_x
 _atom_site_fract_y
 _atom_site_fract_z
 _atom_site_occupancy
  Th  Th0  1  0.604029  0.395971  0.750000  1
  Th  Th1  1  0.389908  0.610092  0.250000  1
  Be  Be2  1  0.824711  0.175289  0.750000  1
  Co  Co3  1  0.182028  0.817972  0.250000  1
  Si  Si4  1  0.961751  0.038249  0.750000  1
  Si  Si5  1  0.039908  0.960092  0.250000  1
  Si  Si6  1  0.249427  0.750573  0.750000  1
  Si  Si7  1  0.748239  0.251761  0.250000  1
