# generated using pymatgen
data_Tb4Dy(SiB4)2
_symmetry_space_group_name_H-M   'P 1'
_cell_length_a   7.25272800
_cell_length_b   7.25272800
_cell_length_c   8.13239800
_cell_angle_alpha   90.00000000
_cell_angle_beta   90.00000000
_cell_angle_gamma   90.00000000
_symmetry_Int_Tables_number   1
_chemical_formula_structural   Tb4Dy(SiB4)2
_chemical_formula_sum   'Tb8 Dy2 Si4 B16'
_cell_volume   427.78091553
_cell_formula_units_Z   2
loop_
 _symmetry_equiv_pos_site_id
 _symmetry_equiv_pos_as_xyz
  1  'x, y, z'
loop_
 _atom_site_type_symbol
 _atom_site_label
 _atom_site_symmetry_multiplicity
 _atom_site_fract_x
 _atom_site_fract_y
 _atom_site_fract_z
 _atom_site_occupancy
  Tb  Tb0  1  0.680308  0.180308  0.224492  1
  Tb  Tb1  1  0.319692  0.819692  0.775508  1
  Tb  Tb2  1  0.319692  0.819692  0.224492  1
  Tb  Tb3  1  0.819692  0.680308  0.224492  1
  Tb  Tb4  1  0.819692  0.680308  0.775508  1
  Tb  Tb5  1  0.680308  0.180308  0.775508  1
  Tb  Tb6  1  0.180308  0.319692  0.775508  1
  Tb  Tb7  1  0.180308  0.319692  0.224492  1
  Dy  Dy8  1  0.000000  0.000000  0.500000  1
  Dy  Dy9  1  0.500000  0.500000  0.500000  1
  Si  Si10  1  0.114707  0.614707  0.500000  1
  Si  Si11  1  0.885293  0.385293  0.500000  1
  Si  Si12  1  0.385293  0.114707  0.500000  1
  Si  Si13  1  0.614707  0.885293  0.500000  1
  B  B14  1  0.172550  0.039127  0.000000  1
  B  B15  1  0.827450  0.960873  0.000000  1
  B  B16  1  0.960873  0.172550  0.000000  1
  B  B17  1  0.327450  0.539127  0.000000  1
  B  B18  1  0.039127  0.827450  0.000000  1
  B  B19  1  0.672550  0.460873  0.000000  1
  B  B20  1  0.539127  0.672550  0.000000  1
  B  B21  1  0.460873  0.327450  0.000000  1
  B  B22  1  0.090024  0.590024  0.000000  1
  B  B23  1  0.909976  0.409976  0.000000  1
  B  B24  1  0.409976  0.090024  0.000000  1
  B  B25  1  0.590024  0.909976  0.000000  1
  B  B26  1  0.000000  0.000000  0.161417  1
  B  B27  1  0.000000  0.000000  0.838583  1
  B  B28  1  0.500000  0.500000  0.838583  1
  B  B29  1  0.500000  0.500000  0.161417  1
