# generated using pymatgen
data_Lu6Cr2Fe11Co4NiP12
_symmetry_space_group_name_H-M   'P 1'
_cell_length_a   3.68757000
_cell_length_b   10.45989415
_cell_length_c   12.09511300
_cell_angle_alpha   90.00980502
_cell_angle_beta   90.00000000
_cell_angle_gamma   90.00000000
_symmetry_Int_Tables_number   1
_chemical_formula_structural   Lu6Cr2Fe11Co4NiP12
_chemical_formula_sum   'Lu6 Cr2 Fe11 Co4 Ni1 P12'
_cell_volume   466.52775558
_cell_formula_units_Z   1
loop_
 _symmetry_equiv_pos_site_id
 _symmetry_equiv_pos_as_xyz
  1  'x, y, z'
loop_
 _atom_site_type_symbol
 _atom_site_label
 _atom_site_symmetry_multiplicity
 _atom_site_fract_x
 _atom_site_fract_y
 _atom_site_fract_z
 _atom_site_occupancy
  Lu  Lu0  1  0.000000  0.499789  0.525467  1
  Lu  Lu1  1  0.500000  0.000660  0.474823  1
  Lu  Lu2  1  0.500000  0.820607  0.206575  1
  Lu  Lu3  1  0.500000  0.179642  0.205743  1
  Lu  Lu4  1  0.000000  0.678136  0.793658  1
  Lu  Lu5  1  0.000000  0.321313  0.793898  1
  Cr  Cr6  1  0.500000  0.500406  0.153713  1
  Cr  Cr7  1  0.000000  0.999461  0.847079  1
  Fe  Fe8  1  0.000000  0.500721  0.988427  1
  Fe  Fe9  1  0.500000  0.998933  0.012068  1
  Fe  Fe10  1  0.500000  0.328623  0.996853  1
  Fe  Fe11  1  0.500000  0.673591  0.996427  1
  Fe  Fe12  1  0.000000  0.171704  0.004397  1
  Fe  Fe13  1  0.000000  0.826899  0.004058  1
  Fe  Fe14  1  0.500000  0.297893  0.429665  1
  Fe  Fe15  1  0.500000  0.702130  0.429497  1
  Fe  Fe16  1  0.000000  0.201462  0.570118  1
  Fe  Fe17  1  0.000000  0.798066  0.569717  1
  Fe  Fe18  1  0.500000  0.881158  0.705114  1
  Co  Co19  1  0.500000  0.499267  0.700639  1
  Co  Co20  1  0.500000  0.120637  0.708837  1
  Co  Co21  1  0.000000  0.620441  0.292351  1
  Co  Co22  1  0.000000  0.379475  0.292013  1
  Ni  Ni23  1  0.000000  0.000090  0.299191  1
  P  P24  1  0.500000  0.500045  0.884037  1
  P  P25  1  0.000000  0.999886  0.114749  1
  P  P26  1  0.500000  0.499866  0.347200  1
  P  P27  1  0.000000  0.999444  0.652690  1
  P  P28  1  0.500000  0.308787  0.614675  1
  P  P29  1  0.500000  0.689970  0.614805  1
  P  P30  1  0.000000  0.192038  0.386135  1
  P  P31  1  0.000000  0.808183  0.386009  1
  P  P32  1  0.500000  0.848084  0.886909  1
  P  P33  1  0.500000  0.152933  0.890482  1
  P  P34  1  0.000000  0.651831  0.111626  1
  P  P35  1  0.000000  0.347829  0.110355  1
