# generated using pymatgen
data_CaPr4Tl2Sn
_symmetry_space_group_name_H-M   'P 1'
_cell_length_a   8.38698800
_cell_length_b   8.38698800
_cell_length_c   14.61174000
_cell_angle_alpha   90.00000000
_cell_angle_beta   90.00000000
_cell_angle_gamma   90.00000000
_symmetry_Int_Tables_number   1
_chemical_formula_structural   CaPr4Tl2Sn
_chemical_formula_sum   'Ca4 Pr16 Tl8 Sn4'
_cell_volume   1027.81269860
_cell_formula_units_Z   4
loop_
 _symmetry_equiv_pos_site_id
 _symmetry_equiv_pos_as_xyz
  1  'x, y, z'
loop_
 _atom_site_type_symbol
 _atom_site_label
 _atom_site_symmetry_multiplicity
 _atom_site_fract_x
 _atom_site_fract_y
 _atom_site_fract_z
 _atom_site_occupancy
  Ca  Ca0  1  0.000000  0.500000  0.747701  1
  Ca  Ca1  1  0.000000  0.500000  0.247701  1
  Ca  Ca2  1  0.500000  0.000000  0.252299  1
  Ca  Ca3  1  0.500000  0.000000  0.752299  1
  Pr  Pr4  1  0.833037  0.835917  0.597863  1
  Pr  Pr5  1  0.166963  0.835917  0.097863  1
  Pr  Pr6  1  0.164083  0.833037  0.402137  1
  Pr  Pr7  1  0.835917  0.166963  0.402137  1
  Pr  Pr8  1  0.666963  0.664083  0.402137  1
  Pr  Pr9  1  0.664083  0.333037  0.597863  1
  Pr  Pr10  1  0.335917  0.666963  0.597863  1
  Pr  Pr11  1  0.664083  0.666963  0.097863  1
  Pr  Pr12  1  0.666963  0.335917  0.902137  1
  Pr  Pr13  1  0.835917  0.833037  0.902137  1
  Pr  Pr14  1  0.333037  0.335917  0.402137  1
  Pr  Pr15  1  0.166963  0.164083  0.597863  1
  Pr  Pr16  1  0.833037  0.164083  0.097863  1
  Pr  Pr17  1  0.333037  0.664083  0.902137  1
  Pr  Pr18  1  0.335917  0.333037  0.097863  1
  Pr  Pr19  1  0.164083  0.166963  0.902137  1
  Tl  Tl20  1  0.630506  0.369494  0.250000  1
  Tl  Tl21  1  0.130506  0.869494  0.750000  1
  Tl  Tl22  1  0.369494  0.369494  0.750000  1
  Tl  Tl23  1  0.369494  0.630506  0.250000  1
  Tl  Tl24  1  0.869494  0.869494  0.250000  1
  Tl  Tl25  1  0.630506  0.630506  0.750000  1
  Tl  Tl26  1  0.869494  0.130506  0.750000  1
  Tl  Tl27  1  0.130506  0.130506  0.250000  1
  Sn  Sn28  1  0.000000  0.500000  0.501461  1
  Sn  Sn29  1  0.500000  0.000000  0.498539  1
  Sn  Sn30  1  0.500000  0.000000  0.998539  1
  Sn  Sn31  1  0.000000  0.500000  0.001461  1
