# generated using pymatgen
data_Tb8Sc2IrPt5
_symmetry_space_group_name_H-M   'P 1'
_cell_length_a   10.98332100
_cell_length_b   10.98332100
_cell_length_c   6.32078300
_cell_angle_alpha   90.00000000
_cell_angle_beta   90.00000000
_cell_angle_gamma   90.00000000
_symmetry_Int_Tables_number   1
_chemical_formula_structural   Tb8Sc2IrPt5
_chemical_formula_sum   'Tb16 Sc4 Ir2 Pt10'
_cell_volume   762.49716590
_cell_formula_units_Z   2
loop_
 _symmetry_equiv_pos_site_id
 _symmetry_equiv_pos_as_xyz
  1  'x, y, z'
loop_
 _atom_site_type_symbol
 _atom_site_label
 _atom_site_symmetry_multiplicity
 _atom_site_fract_x
 _atom_site_fract_y
 _atom_site_fract_z
 _atom_site_occupancy
  Tb  Tb0  1  0.287502  0.086990  0.378624  1
  Tb  Tb1  1  0.287502  0.913010  0.878624  1
  Tb  Tb2  1  0.712498  0.086990  0.878624  1
  Tb  Tb3  1  0.712498  0.913010  0.378624  1
  Tb  Tb4  1  0.586990  0.787502  0.878624  1
  Tb  Tb5  1  0.586990  0.212498  0.378624  1
  Tb  Tb6  1  0.413010  0.787502  0.378624  1
  Tb  Tb7  1  0.413010  0.212498  0.878624  1
  Tb  Tb8  1  0.210068  0.414016  0.621883  1
  Tb  Tb9  1  0.210068  0.585984  0.121883  1
  Tb  Tb10  1  0.789932  0.414016  0.121883  1
  Tb  Tb11  1  0.789932  0.585984  0.621883  1
  Tb  Tb12  1  0.914016  0.710068  0.121883  1
  Tb  Tb13  1  0.914016  0.289932  0.621883  1
  Tb  Tb14  1  0.085984  0.710068  0.621883  1
  Tb  Tb15  1  0.085984  0.289932  0.121883  1
  Sc  Sc16  1  0.000000  0.000000  0.500009  1
  Sc  Sc17  1  0.000000  0.000000  0.000009  1
  Sc  Sc18  1  0.500000  0.500000  0.000009  1
  Sc  Sc19  1  0.500000  0.500000  0.500009  1
  Ir  Ir20  1  0.000000  0.500000  0.878448  1
  Ir  Ir21  1  0.000000  0.500000  0.378448  1
  Pt  Pt22  1  0.852688  0.146521  0.249915  1
  Pt  Pt23  1  0.852688  0.853479  0.749915  1
  Pt  Pt24  1  0.147312  0.146521  0.749915  1
  Pt  Pt25  1  0.147312  0.853479  0.249915  1
  Pt  Pt26  1  0.646521  0.352688  0.749915  1
  Pt  Pt27  1  0.646521  0.647312  0.249915  1
  Pt  Pt28  1  0.353479  0.352688  0.249915  1
  Pt  Pt29  1  0.353479  0.647312  0.749915  1
  Pt  Pt30  1  0.500000  0.000000  0.119843  1
  Pt  Pt31  1  0.500000  0.000000  0.619843  1
