# generated using pymatgen
data_Er5Bi3S
_symmetry_space_group_name_H-M   'P 1'
_cell_length_a   9.12158500
_cell_length_b   9.12158496
_cell_length_c   6.61328600
_cell_angle_alpha   90.00000000
_cell_angle_beta   90.00000000
_cell_angle_gamma   120.00000377
_symmetry_Int_Tables_number   1
_chemical_formula_structural   Er5Bi3S
_chemical_formula_sum   'Er10 Bi6 S2'
_cell_volume   476.52812393
_cell_formula_units_Z   2
loop_
 _symmetry_equiv_pos_site_id
 _symmetry_equiv_pos_as_xyz
  1  'x, y, z'
loop_
 _atom_site_type_symbol
 _atom_site_label
 _atom_site_symmetry_multiplicity
 _atom_site_fract_x
 _atom_site_fract_y
 _atom_site_fract_z
 _atom_site_occupancy
  Er  Er0  1  0.666667  0.333333  0.000485  1
  Er  Er1  1  0.333333  0.666667  0.000485  1
  Er  Er2  1  0.333333  0.666667  0.499515  1
  Er  Er3  1  0.666667  0.333333  0.499515  1
  Er  Er4  1  0.753432  0.753432  0.750000  1
  Er  Er5  1  0.246568  0.000000  0.750000  1
  Er  Er6  1  0.000000  0.246568  0.750000  1
  Er  Er7  1  0.247260  0.247260  0.250000  1
  Er  Er8  1  0.752740  0.000000  0.250000  1
  Er  Er9  1  0.000000  0.752740  0.250000  1
  Bi  Bi10  1  0.604594  0.604594  0.250000  1
  Bi  Bi11  1  0.395406  0.000000  0.250000  1
  Bi  Bi12  1  0.000000  0.395406  0.250000  1
  Bi  Bi13  1  0.396508  0.396508  0.750000  1
  Bi  Bi14  1  0.603492  0.000000  0.750000  1
  Bi  Bi15  1  0.000000  0.603492  0.750000  1
  S  S16  1  0.000000  0.000000  0.000179  1
  S  S17  1  0.000000  0.000000  0.499821  1
