# generated using pymatgen
data_YbYTc2F14
_symmetry_space_group_name_H-M   'P 1'
_cell_length_a   5.60511921
_cell_length_b   8.89751491
_cell_length_c   12.02870008
_cell_angle_alpha   63.11239420
_cell_angle_beta   89.90423691
_cell_angle_gamma   89.80441752
_symmetry_Int_Tables_number   1
_chemical_formula_structural   YbYTc2F14
_chemical_formula_sum   'Yb2 Y2 Tc4 F28'
_cell_volume   535.03679923
_cell_formula_units_Z   2
loop_
 _symmetry_equiv_pos_site_id
 _symmetry_equiv_pos_as_xyz
  1  'x, y, z'
loop_
 _atom_site_type_symbol
 _atom_site_label
 _atom_site_symmetry_multiplicity
 _atom_site_fract_x
 _atom_site_fract_y
 _atom_site_fract_z
 _atom_site_occupancy
  Yb  Yb0  1  0.260210  0.816726  0.265572  1
  Yb  Yb1  1  0.739790  0.183274  0.734428  1
  Y  Y2  1  0.762230  0.179980  0.233959  1
  Y  Y3  1  0.237770  0.820020  0.766041  1
  Tc  Tc4  1  0.757486  0.726049  0.046636  1
  Tc  Tc5  1  0.242514  0.273951  0.953364  1
  Tc  Tc6  1  0.259149  0.277156  0.455139  1
  Tc  Tc7  1  0.740851  0.722844  0.544861  1
  F  F8  1  0.942746  0.705602  0.422654  1
  F  F9  1  0.057254  0.294398  0.577346  1
  F  F10  1  0.443979  0.295483  0.077036  1
  F  F11  1  0.556021  0.704517  0.922964  1
  F  F12  1  0.478166  0.729726  0.138020  1
  F  F13  1  0.521834  0.270274  0.861980  1
  F  F14  1  0.977092  0.271051  0.361617  1
  F  F15  1  0.022908  0.728949  0.638383  1
  F  F16  1  0.957689  0.744881  0.169682  1
  F  F17  1  0.042311  0.255119  0.830318  1
  F  F18  1  0.460517  0.254755  0.329084  1
  F  F19  1  0.539483  0.745245  0.670916  1
  F  F20  1  0.770164  0.482114  0.140090  1
  F  F21  1  0.229836  0.517886  0.859910  1
  F  F22  1  0.269443  0.516719  0.360220  1
  F  F23  1  0.730557  0.483281  0.639780  1
  F  F24  1  0.951722  0.282532  0.042912  1
  F  F25  1  0.048278  0.717468  0.957088  1
  F  F26  1  0.456686  0.718535  0.456334  1
  F  F27  1  0.543314  0.281465  0.543666  1
  F  F28  1  0.741513  0.965682  0.452772  1
  F  F29  1  0.258487  0.034318  0.547228  1
  F  F30  1  0.243082  0.035469  0.047798  1
  F  F31  1  0.756918  0.964531  0.952202  1
  F  F32  1  0.582707  0.973345  0.230547  1
  F  F33  1  0.417293  0.026655  0.769453  1
  F  F34  1  0.080757  0.033616  0.268390  1
  F  F35  1  0.919243  0.966384  0.731610  1
