# generated using pymatgen
data_Ca5U5O19
_symmetry_space_group_name_H-M   'P 1'
_cell_length_a   6.77413444
_cell_length_b   7.52127129
_cell_length_c   8.48206986
_cell_angle_alpha   98.56230983
_cell_angle_beta   97.49579427
_cell_angle_gamma   107.77380649
_symmetry_Int_Tables_number   1
_chemical_formula_structural   Ca5U5O19
_chemical_formula_sum   'Ca5 U5 O19'
_cell_volume   399.78488708
_cell_formula_units_Z   1
loop_
 _symmetry_equiv_pos_site_id
 _symmetry_equiv_pos_as_xyz
  1  'x, y, z'
loop_
 _atom_site_type_symbol
 _atom_site_label
 _atom_site_symmetry_multiplicity
 _atom_site_fract_x
 _atom_site_fract_y
 _atom_site_fract_z
 _atom_site_occupancy
  Ca  Ca0  1  0.804768  0.105533  0.604607  1
  Ca  Ca1  1  0.382812  0.294744  0.798221  1
  Ca  Ca2  1  0.606726  0.702631  0.203622  1
  Ca  Ca3  1  0.998545  0.498688  0.996058  1
  Ca  Ca4  1  0.206258  0.908893  0.390417  1
  U  U5  1  0.778268  0.597997  0.600517  1
  U  U6  1  0.602490  0.203114  0.196896  1
  U  U7  1  0.999924  0.004983  0.999125  1
  U  U8  1  0.411733  0.806567  0.813954  1
  U  U9  1  0.202362  0.387781  0.390872  1
  O  O10  1  0.337199  0.048454  0.958621  1
  O  O11  1  0.430978  0.979649  0.656674  1
  O  O12  1  0.036552  0.208858  0.864824  1
  O  O13  1  0.718993  0.395027  0.732065  1
  O  O14  1  0.156824  0.187737  0.528380  1
  O  O15  1  0.364656  0.604179  0.947669  1
  O  O16  1  0.946887  0.260895  0.167756  1
  O  O17  1  0.909886  0.402831  0.464236  1
  O  O18  1  0.748932  0.849922  0.772078  1
  O  O19  1  0.545387  0.444117  0.366215  1
  O  O20  1  0.405700  0.566079  0.623077  1
  O  O21  1  0.253979  0.138555  0.229521  1
  O  O22  1  0.068794  0.718885  0.783714  1
  O  O23  1  0.638122  0.398973  0.063086  1
  O  O24  1  0.859611  0.796093  0.465959  1
  O  O25  1  0.249376  0.612974  0.282594  1
  O  O26  1  0.959406  0.790154  0.117606  1
  O  O27  1  0.578426  0.020070  0.345036  1
  O  O28  1  0.660321  0.953258  0.044841  1
