# generated using pymatgen
data_Y8In3Pt
_symmetry_space_group_name_H-M   'P 1'
_cell_length_a   10.53848400
_cell_length_b   10.53848462
_cell_length_c   7.06292500
_cell_angle_alpha   90.00000000
_cell_angle_beta   90.00000000
_cell_angle_gamma   120.00000433
_symmetry_Int_Tables_number   1
_chemical_formula_structural   Y8In3Pt
_chemical_formula_sum   'Y16 In6 Pt2'
_cell_volume   679.31548409
_cell_formula_units_Z   2
loop_
 _symmetry_equiv_pos_site_id
 _symmetry_equiv_pos_as_xyz
  1  'x, y, z'
loop_
 _atom_site_type_symbol
 _atom_site_label
 _atom_site_symmetry_multiplicity
 _atom_site_fract_x
 _atom_site_fract_y
 _atom_site_fract_z
 _atom_site_occupancy
  Y  Y0  1  0.467835  0.532165  0.478075  1
  Y  Y1  1  0.064330  0.532165  0.478075  1
  Y  Y2  1  0.467835  0.935670  0.478075  1
  Y  Y3  1  0.532165  0.467835  0.978075  1
  Y  Y4  1  0.935670  0.467835  0.978075  1
  Y  Y5  1  0.532165  0.064330  0.978075  1
  Y  Y6  1  0.825372  0.174628  0.273247  1
  Y  Y7  1  0.349255  0.174628  0.273247  1
  Y  Y8  1  0.825372  0.650745  0.273247  1
  Y  Y9  1  0.174628  0.825372  0.773247  1
  Y  Y10  1  0.650745  0.825372  0.773247  1
  Y  Y11  1  0.174628  0.349255  0.773247  1
  Y  Y12  1  0.333333  0.666667  0.103963  1
  Y  Y13  1  0.666667  0.333333  0.603963  1
  Y  Y14  1  0.000000  0.000000  0.500477  1
  Y  Y15  1  0.000000  0.000000  0.000477  1
  In  In16  1  0.163056  0.836944  0.235313  1
  In  In17  1  0.673888  0.836944  0.235313  1
  In  In18  1  0.163056  0.326112  0.235313  1
  In  In19  1  0.836944  0.163056  0.735313  1
  In  In20  1  0.326112  0.163056  0.735313  1
  In  In21  1  0.836944  0.673888  0.735313  1
  Pt  Pt22  1  0.333333  0.666667  0.707933  1
  Pt  Pt23  1  0.666667  0.333333  0.207933  1
