# generated using pymatgen
data_Y6Ho3Er(In2Pd)4
_symmetry_space_group_name_H-M   'P 1'
_cell_length_a   3.63467400
_cell_length_b   8.15924800
_cell_length_c   18.25100200
_cell_angle_alpha   90.00242976
_cell_angle_beta   90.00000000
_cell_angle_gamma   90.00000000
_symmetry_Int_Tables_number   1
_chemical_formula_structural   Y6Ho3Er(In2Pd)4
_chemical_formula_sum   'Y6 Ho3 Er1 In8 Pd4'
_cell_volume   541.25548509
_cell_formula_units_Z   1
loop_
 _symmetry_equiv_pos_site_id
 _symmetry_equiv_pos_as_xyz
  1  'x, y, z'
loop_
 _atom_site_type_symbol
 _atom_site_label
 _atom_site_symmetry_multiplicity
 _atom_site_fract_x
 _atom_site_fract_y
 _atom_site_fract_z
 _atom_site_occupancy
  Y  Y0  1  0.000000  0.499997  0.499992  1
  Y  Y1  1  0.000000  0.999966  0.000006  1
  Y  Y2  1  0.000000  0.738893  0.281205  1
  Y  Y3  1  0.000000  0.261078  0.718759  1
  Y  Y4  1  0.000000  0.761069  0.781233  1
  Y  Y5  1  0.000000  0.238981  0.218737  1
  Ho  Ho6  1  0.000000  0.382958  0.916587  1
  Ho  Ho7  1  0.000000  0.882958  0.583437  1
  Ho  Ho8  1  0.000000  0.117045  0.416558  1
  Er  Er9  1  0.000000  0.616943  0.083639  1
  In  In10  1  0.500000  0.707716  0.932815  1
  In  In11  1  0.500000  0.292486  0.067277  1
  In  In12  1  0.500000  0.792237  0.432730  1
  In  In13  1  0.500000  0.207754  0.567267  1
  In  In14  1  0.500000  0.581266  0.650326  1
  In  In15  1  0.500000  0.418737  0.349660  1
  In  In16  1  0.500000  0.918496  0.150268  1
  In  In17  1  0.500000  0.081284  0.849675  1
  Pd  Pd18  1  0.500000  0.524140  0.194715  1
  Pd  Pd19  1  0.500000  0.476016  0.805114  1
  Pd  Pd20  1  0.500000  0.976003  0.694906  1
  Pd  Pd21  1  0.500000  0.023977  0.305094  1
