# generated using pymatgen
data_La2Tb2Pr(Ni2Sn5)2
_symmetry_space_group_name_H-M   'P 1'
_cell_length_a   13.99689300
_cell_length_b   13.99689300
_cell_length_c   4.55012600
_cell_angle_alpha   90.00000000
_cell_angle_beta   90.00000000
_cell_angle_gamma   90.00000000
_symmetry_Int_Tables_number   1
_chemical_formula_structural   La2Tb2Pr(Ni2Sn5)2
_chemical_formula_sum   'La4 Tb4 Pr2 Ni8 Sn20'
_cell_volume   891.42889716
_cell_formula_units_Z   2
loop_
 _symmetry_equiv_pos_site_id
 _symmetry_equiv_pos_as_xyz
  1  'x, y, z'
loop_
 _atom_site_type_symbol
 _atom_site_label
 _atom_site_symmetry_multiplicity
 _atom_site_fract_x
 _atom_site_fract_y
 _atom_site_fract_z
 _atom_site_occupancy
  La  La0  1  0.890554  0.390554  0.500000  1
  La  La1  1  0.109446  0.609446  0.500000  1
  La  La2  1  0.390554  0.109446  0.500000  1
  La  La3  1  0.609446  0.890554  0.500000  1
  Tb  Tb4  1  0.678983  0.178983  0.500000  1
  Tb  Tb5  1  0.321017  0.821017  0.500000  1
  Tb  Tb6  1  0.178983  0.321017  0.500000  1
  Tb  Tb7  1  0.821017  0.678983  0.500000  1
  Pr  Pr8  1  0.500000  0.500000  0.000000  1
  Pr  Pr9  1  0.000000  0.000000  0.000000  1
  Ni  Ni10  1  0.744763  0.532575  0.000000  1
  Ni  Ni11  1  0.255237  0.467425  0.000000  1
  Ni  Ni12  1  0.244763  0.967425  0.000000  1
  Ni  Ni13  1  0.755237  0.032575  0.000000  1
  Ni  Ni14  1  0.467425  0.744763  0.000000  1
  Ni  Ni15  1  0.532575  0.255237  0.000000  1
  Ni  Ni16  1  0.032575  0.244763  0.000000  1
  Ni  Ni17  1  0.967425  0.755237  0.000000  1
  Sn  Sn18  1  0.572305  0.072305  0.000000  1
  Sn  Sn19  1  0.427695  0.927695  0.000000  1
  Sn  Sn20  1  0.072305  0.427695  0.000000  1
  Sn  Sn21  1  0.927695  0.572305  0.000000  1
  Sn  Sn22  1  0.651407  0.698292  0.000000  1
  Sn  Sn23  1  0.348593  0.301708  0.000000  1
  Sn  Sn24  1  0.151407  0.801708  0.000000  1
  Sn  Sn25  1  0.848593  0.198292  0.000000  1
  Sn  Sn26  1  0.301708  0.651407  0.000000  1
  Sn  Sn27  1  0.698292  0.348593  0.000000  1
  Sn  Sn28  1  0.198292  0.151407  0.000000  1
  Sn  Sn29  1  0.801708  0.848593  0.000000  1
  Sn  Sn30  1  0.666963  0.508255  0.500000  1
  Sn  Sn31  1  0.333037  0.491745  0.500000  1
  Sn  Sn32  1  0.166963  0.991745  0.500000  1
  Sn  Sn33  1  0.833037  0.008255  0.500000  1
  Sn  Sn34  1  0.491745  0.666963  0.500000  1
  Sn  Sn35  1  0.508255  0.333037  0.500000  1
  Sn  Sn36  1  0.008255  0.166963  0.500000  1
  Sn  Sn37  1  0.991745  0.833037  0.500000  1
