# generated using pymatgen
data_LaYbAlIr3
_symmetry_space_group_name_H-M   'P 1'
_cell_length_a   5.20024902
_cell_length_b   5.20024806
_cell_length_c   5.20024789
_cell_angle_alpha   65.69512034
_cell_angle_beta   65.69512718
_cell_angle_gamma   65.69511333
_symmetry_Int_Tables_number   1
_chemical_formula_structural   LaYbAlIr3
_chemical_formula_sum   'La1 Yb1 Al1 Ir3'
_cell_volume   111.72904260
_cell_formula_units_Z   1
loop_
 _symmetry_equiv_pos_site_id
 _symmetry_equiv_pos_as_xyz
  1  'x, y, z'
loop_
 _atom_site_type_symbol
 _atom_site_label
 _atom_site_symmetry_multiplicity
 _atom_site_fract_x
 _atom_site_fract_y
 _atom_site_fract_z
 _atom_site_occupancy
  La  La0  1  0.251020  0.251020  0.251020  1
  Yb  Yb1  1  0.998259  0.998259  0.998259  1
  Al  Al2  1  0.624844  0.624844  0.624844  1
  Ir  Ir3  1  0.626501  0.626501  0.122876  1
  Ir  Ir4  1  0.626501  0.122876  0.626501  1
  Ir  Ir5  1  0.122876  0.626501  0.626501  1
