# generated using pymatgen
data_Nd(AsPd2)2
_symmetry_space_group_name_H-M   'P 1'
_cell_length_a   7.82994300
_cell_length_b   7.82994300
_cell_length_c   4.09949900
_cell_angle_alpha   90.00000000
_cell_angle_beta   90.00000000
_cell_angle_gamma   90.00000000
_symmetry_Int_Tables_number   1
_chemical_formula_structural   Nd(AsPd2)2
_chemical_formula_sum   'Nd2 As4 Pd8'
_cell_volume   251.33211496
_cell_formula_units_Z   2
loop_
 _symmetry_equiv_pos_site_id
 _symmetry_equiv_pos_as_xyz
  1  'x, y, z'
loop_
 _atom_site_type_symbol
 _atom_site_label
 _atom_site_symmetry_multiplicity
 _atom_site_fract_x
 _atom_site_fract_y
 _atom_site_fract_z
 _atom_site_occupancy
  Nd  Nd0  1  0.500000  0.500000  0.000000  1
  Nd  Nd1  1  0.000000  0.000000  0.500000  1
  As  As2  1  0.781056  0.218944  0.000000  1
  As  As3  1  0.218944  0.781056  0.000000  1
  As  As4  1  0.281057  0.281057  0.500000  1
  As  As5  1  0.718943  0.718943  0.500000  1
  Pd  Pd6  1  0.341230  0.090111  0.000000  1
  Pd  Pd7  1  0.090111  0.341230  0.000000  1
  Pd  Pd8  1  0.909889  0.658771  0.000000  1
  Pd  Pd9  1  0.658771  0.909889  0.000000  1
  Pd  Pd10  1  0.590111  0.158771  0.500000  1
  Pd  Pd11  1  0.841229  0.409890  0.500000  1
  Pd  Pd12  1  0.158771  0.590111  0.500000  1
  Pd  Pd13  1  0.409890  0.841229  0.500000  1
