# generated using pymatgen
data_Nd6Mg2Zn2IrPd12
_symmetry_space_group_name_H-M   'P 1'
_cell_length_a   8.44090002
_cell_length_b   8.41555459
_cell_length_c   8.44090010
_cell_angle_alpha   109.42725913
_cell_angle_beta   109.68066530
_cell_angle_gamma   109.42727177
_symmetry_Int_Tables_number   1
_chemical_formula_structural   Nd6Mg2Zn2IrPd12
_chemical_formula_sum   'Nd6 Mg2 Zn2 Ir1 Pd12'
_cell_volume   460.87498055
_cell_formula_units_Z   1
loop_
 _symmetry_equiv_pos_site_id
 _symmetry_equiv_pos_as_xyz
  1  'x, y, z'
loop_
 _atom_site_type_symbol
 _atom_site_label
 _atom_site_symmetry_multiplicity
 _atom_site_fract_x
 _atom_site_fract_y
 _atom_site_fract_z
 _atom_site_occupancy
  Nd  Nd0  1  0.702189  0.706886  0.004697  1
  Nd  Nd1  1  0.297755  0.000000  0.297755  1
  Nd  Nd2  1  0.995303  0.293114  0.297811  1
  Nd  Nd3  1  0.297811  0.293114  0.995303  1
  Nd  Nd4  1  0.702245  0.000000  0.702245  1
  Nd  Nd5  1  0.004697  0.706886  0.702189  1
  Mg  Mg6  1  0.000000  0.500000  0.000000  1
  Mg  Mg7  1  0.500000  0.500000  0.500000  1
  Zn  Zn8  1  0.000000  0.000000  0.500000  1
  Zn  Zn9  1  0.500000  0.000000  0.000000  1
  Ir  Ir10  1  0.000000  0.000000  0.000000  1
  Pd  Pd11  1  0.333086  0.333075  0.668941  1
  Pd  Pd12  1  0.666675  0.000000  0.333325  1
  Pd  Pd13  1  0.000011  0.666925  0.335867  1
  Pd  Pd14  1  0.664133  0.333075  0.999989  1
  Pd  Pd15  1  0.335608  0.671216  0.335608  1
  Pd  Pd16  1  0.999989  0.333075  0.664133  1
  Pd  Pd17  1  0.335867  0.666925  0.000011  1
  Pd  Pd18  1  0.333325  0.000000  0.666675  1
  Pd  Pd19  1  0.668941  0.333075  0.333086  1
  Pd  Pd20  1  0.666914  0.666925  0.331059  1
  Pd  Pd21  1  0.664392  0.328784  0.664392  1
  Pd  Pd22  1  0.331059  0.666925  0.666914  1
