# generated using pymatgen
data_Th10GaSn3Bi4
_symmetry_space_group_name_H-M   'P 1'
_cell_length_a   9.72125717
_cell_length_b   9.72726396
_cell_length_c   6.58802777
_cell_angle_alpha   89.97210361
_cell_angle_beta   90.05582137
_cell_angle_gamma   119.97957465
_symmetry_Int_Tables_number   1
_chemical_formula_structural   Th10GaSn3Bi4
_chemical_formula_sum   'Th10 Ga1 Sn3 Bi4'
_cell_volume   539.62036292
_cell_formula_units_Z   1
loop_
 _symmetry_equiv_pos_site_id
 _symmetry_equiv_pos_as_xyz
  1  'x, y, z'
loop_
 _atom_site_type_symbol
 _atom_site_label
 _atom_site_symmetry_multiplicity
 _atom_site_fract_x
 _atom_site_fract_y
 _atom_site_fract_z
 _atom_site_occupancy
  Th  Th0  1  0.000086  0.728169  0.759468  1
  Th  Th1  1  0.271917  0.271831  0.759468  1
  Th  Th2  1  0.330530  0.663602  0.497130  1
  Th  Th3  1  0.666929  0.336398  0.497130  1
  Th  Th4  1  0.729186  0.724948  0.240903  1
  Th  Th5  1  0.728933  0.000000  0.760063  1
  Th  Th6  1  0.004239  0.275052  0.240903  1
  Th  Th7  1  0.270513  0.000000  0.240827  1
  Th  Th8  1  0.331118  0.664076  0.002760  1
  Th  Th9  1  0.667043  0.335924  0.002760  1
  Ga  Ga10  1  0.999637  0.000000  0.000079  1
  Sn  Sn11  1  0.382953  0.382501  0.252456  1
  Sn  Sn12  1  0.000451  0.617499  0.252456  1
  Sn  Sn13  1  0.999392  0.000000  0.500372  1
  Bi  Bi14  1  0.615731  0.616103  0.746371  1
  Bi  Bi15  1  0.999628  0.383897  0.746371  1
  Bi  Bi16  1  0.384320  0.000000  0.746476  1
  Bi  Bi17  1  0.617393  0.000000  0.254007  1
