# generated using pymatgen
data_Sc11(OsPt)2
_symmetry_space_group_name_H-M   'P 1'
_cell_length_a   9.51131710
_cell_length_b   9.54819738
_cell_length_c   9.51131678
_cell_angle_alpha   59.87165524
_cell_angle_beta   60.25669632
_cell_angle_gamma   59.87165354
_symmetry_Int_Tables_number   1
_chemical_formula_structural   Sc11(OsPt)2
_chemical_formula_sum   'Sc22 Os4 Pt4'
_cell_volume   610.76565118
_cell_formula_units_Z   2
loop_
 _symmetry_equiv_pos_site_id
 _symmetry_equiv_pos_as_xyz
  1  'x, y, z'
loop_
 _atom_site_type_symbol
 _atom_site_label
 _atom_site_symmetry_multiplicity
 _atom_site_fract_x
 _atom_site_fract_y
 _atom_site_fract_z
 _atom_site_occupancy
  Sc  Sc0  1  0.845136  0.839025  0.845136  1
  Sc  Sc1  1  0.529296  0.154864  0.160975  1
  Sc  Sc2  1  0.160975  0.154864  0.529296  1
  Sc  Sc3  1  0.154864  0.529296  0.154864  1
  Sc  Sc4  1  0.839025  0.845136  0.470704  1
  Sc  Sc5  1  0.845136  0.470704  0.845136  1
  Sc  Sc6  1  0.470704  0.845136  0.839025  1
  Sc  Sc7  1  0.154864  0.160975  0.154864  1
  Sc  Sc8  1  0.196223  0.803777  0.196223  1
  Sc  Sc9  1  0.196458  0.803542  0.803542  1
  Sc  Sc10  1  0.803542  0.196458  0.196458  1
  Sc  Sc11  1  0.803542  0.803542  0.196458  1
  Sc  Sc12  1  0.196458  0.196458  0.803542  1
  Sc  Sc13  1  0.803777  0.196223  0.803777  1
  Sc  Sc14  1  0.385471  0.379399  0.385471  1
  Sc  Sc15  1  0.150342  0.614529  0.620601  1
  Sc  Sc16  1  0.614529  0.150342  0.614529  1
  Sc  Sc17  1  0.620601  0.614529  0.150342  1
  Sc  Sc18  1  0.385471  0.849658  0.385471  1
  Sc  Sc19  1  0.379399  0.385471  0.849658  1
  Sc  Sc20  1  0.849658  0.385471  0.379399  1
  Sc  Sc21  1  0.614529  0.620601  0.614529  1
  Os  Os22  1  0.500000  0.000000  0.500000  1
  Os  Os23  1  0.000000  0.500000  0.000000  1
  Os  Os24  1  0.500000  0.500000  0.500000  1
  Os  Os25  1  0.000000  0.000000  0.000000  1
  Pt  Pt26  1  0.500000  0.500000  0.000000  1
  Pt  Pt27  1  0.000000  0.000000  0.500000  1
  Pt  Pt28  1  0.000000  0.500000  0.500000  1
  Pt  Pt29  1  0.500000  0.000000  0.000000  1
