# generated using pymatgen
data_HfBe4Os
_symmetry_space_group_name_H-M   'P 1'
_cell_length_a   4.53355766
_cell_length_b   4.53355737
_cell_length_c   4.53355900
_cell_angle_alpha   59.99999541
_cell_angle_beta   59.99999749
_cell_angle_gamma   60.00000046
_symmetry_Int_Tables_number   1
_chemical_formula_structural   HfBe4Os
_chemical_formula_sum   'Hf1 Be4 Os1'
_cell_volume   65.88742147
_cell_formula_units_Z   1
loop_
 _symmetry_equiv_pos_site_id
 _symmetry_equiv_pos_as_xyz
  1  'x, y, z'
loop_
 _atom_site_type_symbol
 _atom_site_label
 _atom_site_symmetry_multiplicity
 _atom_site_fract_x
 _atom_site_fract_y
 _atom_site_fract_z
 _atom_site_occupancy
  Hf  Hf0  1  0.500000  0.500000  0.500000  1
  Be  Be1  1  0.123675  0.123675  0.123675  1
  Be  Be2  1  0.628977  0.123675  0.123675  1
  Be  Be3  1  0.123675  0.628977  0.123675  1
  Be  Be4  1  0.123675  0.123675  0.628977  1
  Os  Os5  1  0.749999  0.749999  0.749999  1
