# generated using pymatgen
data_PmZn4Ir
_symmetry_space_group_name_H-M   'P 1'
_cell_length_a   5.32706700
_cell_length_b   5.32707256
_cell_length_c   4.32400700
_cell_angle_alpha   90.00000000
_cell_angle_beta   90.00000000
_cell_angle_gamma   59.99995335
_symmetry_Int_Tables_number   1
_chemical_formula_structural   PmZn4Ir
_chemical_formula_sum   'Pm1 Zn4 Ir1'
_cell_volume   106.26581753
_cell_formula_units_Z   1
loop_
 _symmetry_equiv_pos_site_id
 _symmetry_equiv_pos_as_xyz
  1  'x, y, z'
loop_
 _atom_site_type_symbol
 _atom_site_label
 _atom_site_symmetry_multiplicity
 _atom_site_fract_x
 _atom_site_fract_y
 _atom_site_fract_z
 _atom_site_occupancy
  Pm  Pm0  1  0.999998  0.000001  0.000000  1
  Zn  Zn1  1  0.666668  0.666670  0.000000  1
  Zn  Zn2  1  0.498032  0.004782  0.499999  1
  Zn  Zn3  1  0.004780  0.497186  0.499999  1
  Zn  Zn4  1  0.497185  0.498032  0.499999  1
  Ir  Ir5  1  0.333331  0.333333  0.000000  1
