# generated using pymatgen
data_Er6Zn22SiAg
_symmetry_space_group_name_H-M   'P 1'
_cell_length_a   9.05611059
_cell_length_b   9.05611048
_cell_length_c   9.05611000
_cell_angle_alpha   60.00000174
_cell_angle_beta   60.00000215
_cell_angle_gamma   59.99999469
_symmetry_Int_Tables_number   1
_chemical_formula_structural   Er6Zn22SiAg
_chemical_formula_sum   'Er6 Zn22 Si1 Ag1'
_cell_volume   525.18234215
_cell_formula_units_Z   1
loop_
 _symmetry_equiv_pos_site_id
 _symmetry_equiv_pos_as_xyz
  1  'x, y, z'
loop_
 _atom_site_type_symbol
 _atom_site_label
 _atom_site_symmetry_multiplicity
 _atom_site_fract_x
 _atom_site_fract_y
 _atom_site_fract_z
 _atom_site_occupancy
  Er  Er0  1  0.715894  0.284106  0.284106  1
  Er  Er1  1  0.284106  0.715894  0.715894  1
  Er  Er2  1  0.284106  0.715894  0.284106  1
  Er  Er3  1  0.715894  0.284106  0.715894  1
  Er  Er4  1  0.284106  0.284106  0.715894  1
  Er  Er5  1  0.715894  0.715894  0.284106  1
  Zn  Zn6  1  0.125433  0.125433  0.125433  1
  Zn  Zn7  1  0.874567  0.874567  0.874567  1
  Zn  Zn8  1  0.125433  0.125433  0.623700  1
  Zn  Zn9  1  0.125433  0.623700  0.125433  1
  Zn  Zn10  1  0.874567  0.874567  0.376300  1
  Zn  Zn11  1  0.874567  0.376300  0.874567  1
  Zn  Zn12  1  0.623700  0.125433  0.125433  1
  Zn  Zn13  1  0.376300  0.874567  0.874567  1
  Zn  Zn14  1  0.500000  0.000000  0.000000  1
  Zn  Zn15  1  0.000000  0.500000  0.500000  1
  Zn  Zn16  1  0.000000  0.500000  0.000000  1
  Zn  Zn17  1  0.500000  0.000000  0.500000  1
  Zn  Zn18  1  0.000000  0.000000  0.500000  1
  Zn  Zn19  1  0.500000  0.500000  0.000000  1
  Zn  Zn20  1  0.334819  0.334819  0.334819  1
  Zn  Zn21  1  0.665181  0.665181  0.665181  1
  Zn  Zn22  1  0.334819  0.334819  0.995544  1
  Zn  Zn23  1  0.334819  0.995544  0.334819  1
  Zn  Zn24  1  0.665181  0.665181  0.004456  1
  Zn  Zn25  1  0.665181  0.004456  0.665181  1
  Zn  Zn26  1  0.995544  0.334819  0.334819  1
  Zn  Zn27  1  0.004456  0.665181  0.665181  1
  Si  Si28  1  0.500000  0.500000  0.500000  1
  Ag  Ag29  1  0.000000  0.000000  0.000000  1
