# generated using pymatgen
data_Zr8Co3TcOs4
_symmetry_space_group_name_H-M   'P 1'
_cell_length_a   6.54518200
_cell_length_b   4.62675500
_cell_length_c   9.25660500
_cell_angle_alpha   90.00000000
_cell_angle_beta   89.99976241
_cell_angle_gamma   90.00000000
_symmetry_Int_Tables_number   1
_chemical_formula_structural   Zr8Co3TcOs4
_chemical_formula_sum   'Zr8 Co3 Tc1 Os4'
_cell_volume   280.31733919
_cell_formula_units_Z   1
loop_
 _symmetry_equiv_pos_site_id
 _symmetry_equiv_pos_as_xyz
  1  'x, y, z'
loop_
 _atom_site_type_symbol
 _atom_site_label
 _atom_site_symmetry_multiplicity
 _atom_site_fract_x
 _atom_site_fract_y
 _atom_site_fract_z
 _atom_site_occupancy
  Zr  Zr0  1  0.000103  0.749999  0.126048  1
  Zr  Zr1  1  0.499920  0.749999  0.126048  1
  Zr  Zr2  1  0.000444  0.249999  0.374952  1
  Zr  Zr3  1  0.499587  0.249999  0.374951  1
  Zr  Zr4  1  0.499802  0.749999  0.623972  1
  Zr  Zr5  1  0.000169  0.749999  0.623974  1
  Zr  Zr6  1  0.501217  0.249999  0.875021  1
  Zr  Zr7  1  0.998757  0.249999  0.875022  1
  Co  Co8  1  0.750016  0.249999  0.125285  1
  Co  Co9  1  0.250016  0.749999  0.374995  1
  Co  Co10  1  0.749982  0.249999  0.624705  1
  Tc  Tc11  1  0.249991  0.749999  0.875023  1
  Os  Os12  1  0.250009  0.249999  0.126892  1
  Os  Os13  1  0.750006  0.749999  0.374981  1
  Os  Os14  1  0.249990  0.249999  0.623081  1
  Os  Os15  1  0.749992  0.749999  0.875049  1
