# generated using pymatgen
data_Er2Zn13InNi3
_symmetry_space_group_name_H-M   'P 1'
_cell_length_a   8.89872800
_cell_length_b   8.89872806
_cell_length_c   8.60707200
_cell_angle_alpha   90.00000000
_cell_angle_beta   90.00000000
_cell_angle_gamma   120.00000722
_symmetry_Int_Tables_number   1
_chemical_formula_structural   Er2Zn13InNi3
_chemical_formula_sum   'Er4 Zn26 In2 Ni6'
_cell_volume   590.25802921
_cell_formula_units_Z   2
loop_
 _symmetry_equiv_pos_site_id
 _symmetry_equiv_pos_as_xyz
  1  'x, y, z'
loop_
 _atom_site_type_symbol
 _atom_site_label
 _atom_site_symmetry_multiplicity
 _atom_site_fract_x
 _atom_site_fract_y
 _atom_site_fract_z
 _atom_site_occupancy
  Er  Er0  1  0.000000  0.000000  0.248715  1
  Er  Er1  1  0.000000  0.000000  0.751285  1
  Er  Er2  1  0.333333  0.666667  0.756166  1
  Er  Er3  1  0.666667  0.333333  0.243834  1
  Zn  Zn4  1  0.666667  0.333333  0.912750  1
  Zn  Zn5  1  0.333333  0.666667  0.087250  1
  Zn  Zn6  1  0.336929  0.366933  0.248587  1
  Zn  Zn7  1  0.633067  0.969996  0.248587  1
  Zn  Zn8  1  0.030004  0.663071  0.248587  1
  Zn  Zn9  1  0.633067  0.663071  0.248587  1
  Zn  Zn10  1  0.030004  0.366933  0.248587  1
  Zn  Zn11  1  0.336929  0.969996  0.248587  1
  Zn  Zn12  1  0.663071  0.633067  0.751413  1
  Zn  Zn13  1  0.366933  0.030004  0.751413  1
  Zn  Zn14  1  0.969996  0.336929  0.751413  1
  Zn  Zn15  1  0.366933  0.336929  0.751413  1
  Zn  Zn16  1  0.969996  0.633067  0.751413  1
  Zn  Zn17  1  0.663071  0.030004  0.751413  1
  Zn  Zn18  1  0.163171  0.836829  0.522909  1
  Zn  Zn19  1  0.163171  0.326343  0.522909  1
  Zn  Zn20  1  0.673657  0.836829  0.522909  1
  Zn  Zn21  1  0.836829  0.163171  0.477091  1
  Zn  Zn22  1  0.836829  0.673657  0.477091  1
  Zn  Zn23  1  0.326343  0.163171  0.477091  1
  Zn  Zn24  1  0.832853  0.167147  0.018902  1
  Zn  Zn25  1  0.832853  0.665705  0.018902  1
  Zn  Zn26  1  0.334295  0.167147  0.018902  1
  Zn  Zn27  1  0.167147  0.832853  0.981098  1
  Zn  Zn28  1  0.167147  0.334295  0.981098  1
  Zn  Zn29  1  0.665705  0.832853  0.981098  1
  In  In30  1  0.333333  0.666667  0.404482  1
  In  In31  1  0.666667  0.333333  0.595518  1
  Ni  Ni32  1  0.500000  0.500000  0.500000  1
  Ni  Ni33  1  0.500000  0.000000  0.500000  1
  Ni  Ni34  1  0.000000  0.500000  0.500000  1
  Ni  Ni35  1  0.500000  0.500000  0.000000  1
  Ni  Ni36  1  0.500000  0.000000  0.000000  1
  Ni  Ni37  1  0.000000  0.500000  0.000000  1
