# generated using pymatgen
data_Dy5ErWO12
_symmetry_space_group_name_H-M   'P 1'
_cell_length_a   6.48594553
_cell_length_b   6.48806682
_cell_length_c   6.47916681
_cell_angle_alpha   98.62954904
_cell_angle_beta   98.76383048
_cell_angle_gamma   98.67714265
_symmetry_Int_Tables_number   1
_chemical_formula_structural   Dy5ErWO12
_chemical_formula_sum   'Dy5 Er1 W1 O12'
_cell_volume   262.17296694
_cell_formula_units_Z   1
loop_
 _symmetry_equiv_pos_site_id
 _symmetry_equiv_pos_as_xyz
  1  'x, y, z'
loop_
 _atom_site_type_symbol
 _atom_site_label
 _atom_site_symmetry_multiplicity
 _atom_site_fract_x
 _atom_site_fract_y
 _atom_site_fract_z
 _atom_site_occupancy
  Dy  Dy0  1  0.610750  0.316731  0.143960  1
  Dy  Dy1  1  0.144411  0.611439  0.316519  1
  Dy  Dy2  1  0.683088  0.855706  0.388502  1
  Dy  Dy3  1  0.316134  0.143874  0.611881  1
  Dy  Dy4  1  0.856121  0.389247  0.684283  1
  Er  Er5  1  0.389325  0.681866  0.855015  1
  W  W6  1  0.999778  0.999368  0.999648  1
  O  O7  1  0.702610  0.920860  0.032790  1
  O  O8  1  0.964610  0.296316  0.077101  1
  O  O9  1  0.431259  0.591991  0.175347  1
  O  O10  1  0.076843  0.965074  0.297234  1
  O  O11  1  0.822296  0.567777  0.408920  1
  O  O12  1  0.590279  0.177199  0.432216  1
  O  O13  1  0.409693  0.821650  0.570227  1
  O  O14  1  0.178262  0.433185  0.592714  1
  O  O15  1  0.923097  0.034989  0.702755  1
  O  O16  1  0.567721  0.411519  0.822409  1
  O  O17  1  0.036888  0.703560  0.922865  1
  O  O18  1  0.296839  0.077646  0.965614  1
