# generated using pymatgen
data_Y10In8PtRh3
_symmetry_space_group_name_H-M   'P 1'
_cell_length_a   3.63543700
_cell_length_b   8.08101485
_cell_length_c   18.31125800
_cell_angle_alpha   90.02621945
_cell_angle_beta   90.00000000
_cell_angle_gamma   90.00000000
_symmetry_Int_Tables_number   1
_chemical_formula_structural   Y10In8PtRh3
_chemical_formula_sum   'Y10 In8 Pt1 Rh3'
_cell_volume   537.94845418
_cell_formula_units_Z   1
loop_
 _symmetry_equiv_pos_site_id
 _symmetry_equiv_pos_as_xyz
  1  'x, y, z'
loop_
 _atom_site_type_symbol
 _atom_site_label
 _atom_site_symmetry_multiplicity
 _atom_site_fract_x
 _atom_site_fract_y
 _atom_site_fract_z
 _atom_site_occupancy
  Y  Y0  1  0.000000  0.115577  0.412628  1
  Y  Y1  1  0.000000  0.883504  0.588790  1
  Y  Y2  1  0.000000  0.383960  0.911075  1
  Y  Y3  1  0.000000  0.617542  0.085769  1
  Y  Y4  1  0.000000  0.239332  0.221566  1
  Y  Y5  1  0.000000  0.754545  0.778893  1
  Y  Y6  1  0.000000  0.254159  0.721334  1
  Y  Y7  1  0.000000  0.750441  0.279805  1
  Y  Y8  1  0.000000  0.000197  0.999671  1
  Y  Y9  1  0.000000  0.500374  0.500084  1
  In  In10  1  0.500000  0.425006  0.351313  1
  In  In11  1  0.500000  0.571582  0.650108  1
  In  In12  1  0.500000  0.071874  0.849834  1
  In  In13  1  0.500000  0.928465  0.149658  1
  In  In14  1  0.500000  0.291947  0.066447  1
  In  In15  1  0.500000  0.707178  0.931472  1
  In  In16  1  0.500000  0.206665  0.568250  1
  In  In17  1  0.500000  0.793171  0.432013  1
  Pt  Pt18  1  0.500000  0.523339  0.196984  1
  Rh  Rh19  1  0.500000  0.022374  0.304540  1
  Rh  Rh20  1  0.500000  0.979674  0.695438  1
  Rh  Rh21  1  0.500000  0.479091  0.804328  1
