# generated using pymatgen
data_Nd4Al13Ga2(SiIr2)3
_symmetry_space_group_name_H-M   'P 1'
_cell_length_a   7.57276883
_cell_length_b   7.54443175
_cell_length_c   9.57338576
_cell_angle_alpha   90.01839243
_cell_angle_beta   89.90325385
_cell_angle_gamma   119.73887471
_symmetry_Int_Tables_number   1
_chemical_formula_structural   Nd4Al13Ga2(SiIr2)3
_chemical_formula_sum   'Nd4 Al13 Ga2 Si3 Ir6'
_cell_volume   474.91235914
_cell_formula_units_Z   1
loop_
 _symmetry_equiv_pos_site_id
 _symmetry_equiv_pos_as_xyz
  1  'x, y, z'
loop_
 _atom_site_type_symbol
 _atom_site_label
 _atom_site_symmetry_multiplicity
 _atom_site_fract_x
 _atom_site_fract_y
 _atom_site_fract_z
 _atom_site_occupancy
  Nd  Nd0  1  0.994641  0.667131  0.247741  1
  Nd  Nd1  1  0.005665  0.337316  0.752740  1
  Nd  Nd2  1  0.675368  0.999194  0.247885  1
  Nd  Nd3  1  0.320075  0.995288  0.749986  1
  Al  Al4  1  0.339854  0.005295  0.426363  1
  Al  Al5  1  0.002965  0.329921  0.431513  1
  Al  Al6  1  0.665224  0.000000  0.572434  1
  Al  Al7  1  0.661152  0.995566  0.925281  1
  Al  Al8  1  0.339350  0.005787  0.074283  1
  Al  Al9  1  0.334985  0.333525  0.554214  1
  Al  Al10  1  0.661940  0.665955  0.446841  1
  Al  Al11  1  0.661419  0.665490  0.054642  1
  Al  Al12  1  0.337621  0.333913  0.945811  1
  Al  Al13  1  0.336747  0.546749  0.250339  1
  Al  Al14  1  0.662511  0.453814  0.750437  1
  Al  Al15  1  0.547499  0.341773  0.250366  1
  Al  Al16  1  0.455353  0.659617  0.749702  1
  Ga  Ga17  1  0.136573  0.131399  0.250925  1
  Ga  Ga18  1  0.862509  0.867671  0.749753  1
  Si  Si19  1  0.003056  0.329710  0.071329  1
  Si  Si20  1  0.996554  0.670250  0.933693  1
  Si  Si21  1  0.997854  0.664784  0.561997  1
  Ir  Ir22  1  0.686755  0.338276  0.000716  1
  Ir  Ir23  1  0.313164  0.662079  0.998481  1
  Ir  Ir24  1  0.321199  0.669446  0.501900  1
  Ir  Ir25  1  0.679167  0.337968  0.500340  1
  Ir  Ir26  1  0.000237  0.000143  0.999565  1
  Ir  Ir27  1  0.000560  0.991943  0.500717  1
