# generated using pymatgen
data_LaEu7(ScSn3)2
_symmetry_space_group_name_H-M   'P 1'
_cell_length_a   9.39788449
_cell_length_b   9.39788477
_cell_length_c   9.38102900
_cell_angle_alpha   96.65328668
_cell_angle_beta   96.81070916
_cell_angle_gamma   139.99335835
_symmetry_Int_Tables_number   1
_chemical_formula_structural   LaEu7(ScSn3)2
_chemical_formula_sum   'La1 Eu7 Sc2 Sn6'
_cell_volume   500.39251094
_cell_formula_units_Z   1
loop_
 _symmetry_equiv_pos_site_id
 _symmetry_equiv_pos_as_xyz
  1  'x, y, z'
loop_
 _atom_site_type_symbol
 _atom_site_label
 _atom_site_symmetry_multiplicity
 _atom_site_fract_x
 _atom_site_fract_y
 _atom_site_fract_z
 _atom_site_occupancy
  La  La0  1  0.411184  0.280490  0.691673  1
  Eu  Eu1  1  0.913968  0.217297  0.131265  1
  Eu  Eu2  1  0.216695  0.084750  0.301446  1
  Eu  Eu3  1  0.780425  0.915702  0.696126  1
  Eu  Eu4  1  0.089177  0.782613  0.871790  1
  Eu  Eu5  1  0.719338  0.413927  0.133266  1
  Eu  Eu6  1  0.281924  0.587516  0.869439  1
  Eu  Eu7  1  0.587667  0.718435  0.306101  1
  Sc  Sc8  1  0.748634  0.248806  0.498498  1
  Sc  Sc9  1  0.249691  0.749864  0.498498  1
  Sn  Sn10  1  0.747008  0.746137  0.998314  1
  Sn  Sn11  1  0.252177  0.251306  0.998314  1
  Sn  Sn12  1  0.854861  0.649185  0.504047  1
  Sn  Sn13  1  0.645385  0.147667  0.793054  1
  Sn  Sn14  1  0.353791  0.852595  0.206385  1
  Sn  Sn15  1  0.148074  0.353710  0.501784  1
