# generated using pymatgen
data_Sr14CaSb11
_symmetry_space_group_name_H-M   'P 1'
_cell_length_a   17.09162892
_cell_length_b   17.09162953
_cell_length_c   17.09162900
_cell_angle_alpha   117.77639793
_cell_angle_beta   117.77639900
_cell_angle_gamma   93.89656891
_symmetry_Int_Tables_number   1
_chemical_formula_structural   Sr14CaSb11
_chemical_formula_sum   'Sr56 Ca4 Sb44'
_cell_volume   3640.04606507
_cell_formula_units_Z   4
loop_
 _symmetry_equiv_pos_site_id
 _symmetry_equiv_pos_as_xyz
  1  'x, y, z'
loop_
 _atom_site_type_symbol
 _atom_site_label
 _atom_site_symmetry_multiplicity
 _atom_site_fract_x
 _atom_site_fract_y
 _atom_site_fract_z
 _atom_site_occupancy
  Sr  Sr0  1  0.744618  0.527060  0.866664  1
  Sr  Sr1  1  0.244618  0.377954  0.217557  1
  Sr  Sr2  1  0.777060  0.494618  0.366664  1
  Sr  Sr3  1  0.277060  0.910396  0.282443  1
  Sr  Sr4  1  0.005382  0.722940  0.633336  1
  Sr  Sr5  1  0.505382  0.872046  0.282443  1
  Sr  Sr6  1  0.972940  0.755382  0.133336  1
  Sr  Sr7  1  0.472940  0.339604  0.217557  1
  Sr  Sr8  1  0.160396  0.027060  0.782443  1
  Sr  Sr9  1  0.660396  0.877954  0.133336  1
  Sr  Sr10  1  0.627954  0.994618  0.717557  1
  Sr  Sr11  1  0.127954  0.410396  0.633336  1
  Sr  Sr12  1  0.589604  0.222940  0.717557  1
  Sr  Sr13  1  0.089604  0.372046  0.366664  1
  Sr  Sr14  1  0.122046  0.255382  0.782443  1
  Sr  Sr15  1  0.622046  0.839604  0.866664  1
  Sr  Sr16  1  0.895226  0.998773  0.152682  1
  Sr  Sr17  1  0.395226  0.242544  0.896452  1
  Sr  Sr18  1  0.248773  0.645226  0.652682  1
  Sr  Sr19  1  0.748773  0.096091  0.603548  1
  Sr  Sr20  1  0.854774  0.251227  0.347318  1
  Sr  Sr21  1  0.354774  0.007456  0.603548  1
  Sr  Sr22  1  0.501227  0.604774  0.847318  1
  Sr  Sr23  1  0.001227  0.153909  0.896452  1
  Sr  Sr24  1  0.346091  0.498773  0.103548  1
  Sr  Sr25  1  0.846091  0.742544  0.847318  1
  Sr  Sr26  1  0.492544  0.145226  0.396452  1
  Sr  Sr27  1  0.992544  0.596091  0.347318  1
  Sr  Sr28  1  0.403909  0.751227  0.396452  1
  Sr  Sr29  1  0.903909  0.507456  0.652682  1
  Sr  Sr30  1  0.257456  0.104774  0.103548  1
  Sr  Sr31  1  0.757456  0.653909  0.152682  1
  Sr  Sr32  1  0.979816  0.375000  0.104816  1
  Sr  Sr33  1  0.479816  0.375000  0.604816  1
  Sr  Sr34  1  0.625000  0.729816  0.604816  1
  Sr  Sr35  1  0.125000  0.520184  0.895184  1
  Sr  Sr36  1  0.770184  0.875000  0.395184  1
  Sr  Sr37  1  0.270184  0.875000  0.895184  1
  Sr  Sr38  1  0.625000  0.229816  0.104816  1
  Sr  Sr39  1  0.125000  0.020184  0.395184  1
  Sr  Sr40  1  0.122780  0.603629  0.161846  1
  Sr  Sr41  1  0.622780  0.460933  0.519151  1
  Sr  Sr42  1  0.853629  0.872780  0.661846  1
  Sr  Sr43  1  0.353629  0.691783  0.980849  1
  Sr  Sr44  1  0.627220  0.646371  0.338154  1
  Sr  Sr45  1  0.127220  0.789067  0.980849  1
  Sr  Sr46  1  0.896371  0.377220  0.838154  1
  Sr  Sr47  1  0.396371  0.558217  0.519151  1
  Sr  Sr48  1  0.941783  0.103629  0.480849  1
  Sr  Sr49  1  0.441783  0.960933  0.838154  1
  Sr  Sr50  1  0.710933  0.372780  0.019151  1
  Sr  Sr51  1  0.210933  0.191783  0.338154  1
  Sr  Sr52  1  0.808217  0.146371  0.019151  1
  Sr  Sr53  1  0.308217  0.289067  0.661846  1
  Sr  Sr54  1  0.039067  0.877220  0.480849  1
  Sr  Sr55  1  0.539067  0.058217  0.161846  1
  Ca  Ca56  1  0.500000  0.500000  0.000000  1
  Ca  Ca57  1  0.000000  0.000000  0.000000  1
  Ca  Ca58  1  0.750000  0.250000  0.500000  1
  Ca  Ca59  1  0.250000  0.750000  0.500000  1
  Sb  Sb60  1  0.884114  0.884114  0.268227  1
  Sb  Sb61  1  0.384114  0.115886  0.000000  1
  Sb  Sb62  1  0.134114  0.634114  0.768227  1
  Sb  Sb63  1  0.634114  0.865886  0.500000  1
  Sb  Sb64  1  0.865886  0.365886  0.231773  1
  Sb  Sb65  1  0.365886  0.134114  0.500000  1
  Sb  Sb66  1  0.615886  0.615886  0.731773  1
  Sb  Sb67  1  0.115886  0.384114  0.000000  1
  Sb  Sb68  1  0.172520  0.822331  0.361290  1
  Sb  Sb69  1  0.672520  0.311229  0.350188  1
  Sb  Sb70  1  0.072331  0.922520  0.861290  1
  Sb  Sb71  1  0.572331  0.711041  0.149812  1
  Sb  Sb72  1  0.577480  0.427669  0.138710  1
  Sb  Sb73  1  0.077480  0.938771  0.149812  1
  Sb  Sb74  1  0.677669  0.327480  0.638710  1
  Sb  Sb75  1  0.177669  0.538959  0.350188  1
  Sb  Sb76  1  0.961041  0.322331  0.649812  1
  Sb  Sb77  1  0.461041  0.811229  0.638710  1
  Sb  Sb78  1  0.561229  0.422520  0.850188  1
  Sb  Sb79  1  0.061229  0.211041  0.138710  1
  Sb  Sb80  1  0.788959  0.927669  0.850188  1
  Sb  Sb81  1  0.288959  0.438771  0.861290  1
  Sb  Sb82  1  0.188771  0.827480  0.649812  1
  Sb  Sb83  1  0.688771  0.038959  0.361290  1
  Sb  Sb84  1  0.959183  0.604595  0.907883  1
  Sb  Sb85  1  0.459183  0.551299  0.354587  1
  Sb  Sb86  1  0.854595  0.709183  0.407883  1
  Sb  Sb87  1  0.354595  0.946711  0.145413  1
  Sb  Sb88  1  0.790817  0.645405  0.592117  1
  Sb  Sb89  1  0.290817  0.698701  0.145413  1
  Sb  Sb90  1  0.895405  0.540817  0.092117  1
  Sb  Sb91  1  0.395405  0.303289  0.354587  1
  Sb  Sb92  1  0.196711  0.104595  0.645413  1
  Sb  Sb93  1  0.696711  0.051299  0.092117  1
  Sb  Sb94  1  0.801299  0.209183  0.854587  1
  Sb  Sb95  1  0.301299  0.446711  0.592117  1
  Sb  Sb96  1  0.553289  0.145405  0.854587  1
  Sb  Sb97  1  0.053289  0.198701  0.407883  1
  Sb  Sb98  1  0.948701  0.040817  0.645413  1
  Sb  Sb99  1  0.448701  0.803289  0.907883  1
  Sb  Sb100  1  0.750000  0.750000  0.000000  1
  Sb  Sb101  1  0.250000  0.250000  0.000000  1
  Sb  Sb102  1  0.000000  0.500000  0.500000  1
  Sb  Sb103  1  0.500000  0.000000  0.500000  1
