# generated using pymatgen
data_Tb10Si16Ir
_symmetry_space_group_name_H-M   'P 1'
_cell_length_a   11.18739425
_cell_length_b   11.20566077
_cell_length_c   11.18739498
_cell_angle_alpha   144.75552560
_cell_angle_beta   136.61149747
_cell_angle_gamma   57.05353377
_symmetry_Int_Tables_number   1
_chemical_formula_structural   Tb10Si16Ir
_chemical_formula_sum   'Tb10 Si16 Ir1'
_cell_volume   551.57907224
_cell_formula_units_Z   1
loop_
 _symmetry_equiv_pos_site_id
 _symmetry_equiv_pos_as_xyz
  1  'x, y, z'
loop_
 _atom_site_type_symbol
 _atom_site_label
 _atom_site_symmetry_multiplicity
 _atom_site_fract_x
 _atom_site_fract_y
 _atom_site_fract_z
 _atom_site_occupancy
  Tb  Tb0  1  0.050828  0.562736  0.011405  1
  Tb  Tb1  1  0.351647  0.371443  0.521808  1
  Tb  Tb2  1  0.150164  0.168624  0.520582  1
  Tb  Tb3  1  0.451661  0.962324  0.013271  1
  Tb  Tb4  1  0.648043  0.168624  0.018461  1
  Tb  Tb5  1  0.949051  0.962324  0.510661  1
  Tb  Tb6  1  0.849637  0.371443  0.019797  1
  Tb  Tb7  1  0.551331  0.562736  0.511909  1
  Tb  Tb8  1  0.246123  0.761572  0.008485  1
  Tb  Tb9  1  0.753087  0.761572  0.515449  1
  Si  Si10  1  0.115249  0.069086  0.953834  1
  Si  Si11  1  0.798281  0.196484  0.398203  1
  Si  Si12  1  0.300605  0.898866  0.598260  1
  Si  Si13  1  0.400340  0.502150  0.101810  1
  Si  Si14  1  0.889743  0.845738  0.955995  1
  Si  Si15  1  0.103364  0.706060  0.602696  1
  Si  Si16  1  0.200632  0.594758  0.394125  1
  Si  Si17  1  0.696766  0.290816  0.594051  1
  Si  Si18  1  0.998925  0.433320  0.434395  1
  Si  Si19  1  0.710001  0.657078  0.947076  1
  Si  Si20  1  0.600142  0.702963  0.102821  1
  Si  Si21  1  0.001819  0.092106  0.090287  1
  Si  Si22  1  0.500833  0.398904  0.898070  1
  Si  Si23  1  0.288849  0.238966  0.950117  1
  Si  Si24  1  0.583697  0.038539  0.454841  1
  Si  Si25  1  0.413063  0.867185  0.454122  1
  Ir  Ir26  1  0.896116  0.502502  0.606386  1
