# generated using pymatgen
data_HoEr3Tm2(Co3P2)6
_symmetry_space_group_name_H-M   'P 1'
_cell_length_a   3.67619900
_cell_length_b   10.47950500
_cell_length_c   12.11941100
_cell_angle_alpha   90.00000000
_cell_angle_beta   90.00000000
_cell_angle_gamma   90.00000000
_symmetry_Int_Tables_number   1
_chemical_formula_structural   HoEr3Tm2(Co3P2)6
_chemical_formula_sum   'Ho1 Er3 Tm2 Co18 P12'
_cell_volume   466.89722804
_cell_formula_units_Z   1
loop_
 _symmetry_equiv_pos_site_id
 _symmetry_equiv_pos_as_xyz
  1  'x, y, z'
loop_
 _atom_site_type_symbol
 _atom_site_label
 _atom_site_symmetry_multiplicity
 _atom_site_fract_x
 _atom_site_fract_y
 _atom_site_fract_z
 _atom_site_occupancy
  Ho  Ho0  1  0.750000  0.250000  0.477778  1
  Er  Er1  1  0.250000  0.750000  0.522651  1
  Er  Er2  1  0.750000  0.067511  0.205865  1
  Er  Er3  1  0.750000  0.432489  0.205865  1
  Tm  Tm4  1  0.250000  0.932049  0.794072  1
  Tm  Tm5  1  0.250000  0.567951  0.794072  1
  Co  Co6  1  0.250000  0.250000  0.840990  1
  Co  Co7  1  0.750000  0.750000  0.159095  1
  Co  Co8  1  0.250000  0.250000  0.296694  1
  Co  Co9  1  0.750000  0.750000  0.703219  1
  Co  Co10  1  0.750000  0.250000  0.013634  1
  Co  Co11  1  0.250000  0.750000  0.985394  1
  Co  Co12  1  0.250000  0.417008  0.005256  1
  Co  Co13  1  0.250000  0.082992  0.005256  1
  Co  Co14  1  0.750000  0.583457  0.994137  1
  Co  Co15  1  0.750000  0.916543  0.994137  1
  Co  Co16  1  0.250000  0.452624  0.569646  1
  Co  Co17  1  0.250000  0.047376  0.569646  1
  Co  Co18  1  0.750000  0.547645  0.430935  1
  Co  Co19  1  0.750000  0.952355  0.430935  1
  Co  Co20  1  0.250000  0.871149  0.290579  1
  Co  Co21  1  0.250000  0.628851  0.290579  1
  Co  Co22  1  0.750000  0.128518  0.709765  1
  Co  Co23  1  0.750000  0.371482  0.709765  1
  P  P24  1  0.250000  0.250000  0.117765  1
  P  P25  1  0.750000  0.750000  0.881478  1
  P  P26  1  0.250000  0.250000  0.655556  1
  P  P27  1  0.750000  0.750000  0.344832  1
  P  P28  1  0.250000  0.438738  0.383724  1
  P  P29  1  0.250000  0.061262  0.383724  1
  P  P30  1  0.750000  0.561502  0.616806  1
  P  P31  1  0.750000  0.938498  0.616806  1
  P  P32  1  0.250000  0.902593  0.107293  1
  P  P33  1  0.250000  0.597407  0.107293  1
  P  P34  1  0.750000  0.096614  0.892379  1
  P  P35  1  0.750000  0.403386  0.892379  1
