# generated using pymatgen
data_LiHo2(Co3P2)3
_symmetry_space_group_name_H-M   'P 1'
_cell_length_a   3.66260000
_cell_length_b   10.23858100
_cell_length_c   11.80339500
_cell_angle_alpha   90.00000000
_cell_angle_beta   90.00000000
_cell_angle_gamma   90.00000000
_symmetry_Int_Tables_number   1
_chemical_formula_structural   LiHo2(Co3P2)3
_chemical_formula_sum   'Li2 Ho4 Co18 P12'
_cell_volume   442.62526780
_cell_formula_units_Z   2
loop_
 _symmetry_equiv_pos_site_id
 _symmetry_equiv_pos_as_xyz
  1  'x, y, z'
loop_
 _atom_site_type_symbol
 _atom_site_label
 _atom_site_symmetry_multiplicity
 _atom_site_fract_x
 _atom_site_fract_y
 _atom_site_fract_z
 _atom_site_occupancy
  Li  Li0  1  0.250000  0.703085  0.990763  1
  Li  Li1  1  0.250000  0.796915  0.490763  1
  Ho  Ho2  1  0.250000  0.579864  0.702266  1
  Ho  Ho3  1  0.250000  0.920136  0.202266  1
  Ho  Ho4  1  0.750000  0.419558  0.297443  1
  Ho  Ho5  1  0.750000  0.080442  0.797443  1
  Co  Co6  1  0.750000  0.288705  0.008947  1
  Co  Co7  1  0.750000  0.211295  0.508947  1
  Co  Co8  1  0.250000  0.403955  0.487104  1
  Co  Co9  1  0.250000  0.096045  0.987104  1
  Co  Co10  1  0.750000  0.591073  0.514602  1
  Co  Co11  1  0.750000  0.908927  0.014602  1
  Co  Co12  1  0.250000  0.223596  0.174939  1
  Co  Co13  1  0.250000  0.276404  0.674939  1
  Co  Co14  1  0.750000  0.780385  0.825941  1
  Co  Co15  1  0.750000  0.719615  0.325941  1
  Co  Co16  1  0.250000  0.881433  0.698689  1
  Co  Co17  1  0.250000  0.618567  0.198689  1
  Co  Co18  1  0.750000  0.120416  0.299951  1
  Co  Co19  1  0.750000  0.379584  0.799951  1
  Co  Co20  1  0.250000  0.463969  0.931522  1
  Co  Co21  1  0.250000  0.036031  0.431522  1
  Co  Co22  1  0.750000  0.533037  0.066437  1
  Co  Co23  1  0.750000  0.966963  0.566437  1
  P  P24  1  0.250000  0.421831  0.112118  1
  P  P25  1  0.250000  0.078169  0.612118  1
  P  P26  1  0.750000  0.577831  0.884147  1
  P  P27  1  0.750000  0.922169  0.384147  1
  P  P28  1  0.250000  0.268144  0.867079  1
  P  P29  1  0.250000  0.231856  0.367079  1
  P  P30  1  0.750000  0.729758  0.137816  1
  P  P31  1  0.750000  0.770242  0.637816  1
  P  P32  1  0.250000  0.600812  0.392846  1
  P  P33  1  0.250000  0.899188  0.892846  1
  P  P34  1  0.750000  0.396184  0.607389  1
  P  P35  1  0.750000  0.103816  0.107389  1
