# generated using pymatgen
data_Dy3TmCo16(P3Ru)4
_symmetry_space_group_name_H-M   'P 1'
_cell_length_a   3.69082900
_cell_length_b   10.38535925
_cell_length_c   11.79435338
_cell_angle_alpha   89.97299663
_cell_angle_beta   90.00000000
_cell_angle_gamma   90.00000000
_symmetry_Int_Tables_number   1
_chemical_formula_structural   Dy3TmCo16(P3Ru)4
_chemical_formula_sum   'Dy3 Tm1 Co16 P12 Ru4'
_cell_volume   452.08441545
_cell_formula_units_Z   1
loop_
 _symmetry_equiv_pos_site_id
 _symmetry_equiv_pos_as_xyz
  1  'x, y, z'
loop_
 _atom_site_type_symbol
 _atom_site_label
 _atom_site_symmetry_multiplicity
 _atom_site_fract_x
 _atom_site_fract_y
 _atom_site_fract_z
 _atom_site_occupancy
  Dy  Dy0  1  0.250000  0.913630  0.204119  1
  Dy  Dy1  1  0.750000  0.413856  0.295796  1
  Dy  Dy2  1  0.750000  0.086335  0.795978  1
  Tm  Tm3  1  0.250000  0.586020  0.703726  1
  Co  Co4  1  0.250000  0.409338  0.489893  1
  Co  Co5  1  0.250000  0.091256  0.989568  1
  Co  Co6  1  0.750000  0.591467  0.511917  1
  Co  Co7  1  0.750000  0.908785  0.010423  1
  Co  Co8  1  0.250000  0.220921  0.176661  1
  Co  Co9  1  0.250000  0.279482  0.676874  1
  Co  Co10  1  0.750000  0.778316  0.822945  1
  Co  Co11  1  0.750000  0.720372  0.323564  1
  Co  Co12  1  0.250000  0.886838  0.702766  1
  Co  Co13  1  0.250000  0.612402  0.202374  1
  Co  Co14  1  0.750000  0.112552  0.297647  1
  Co  Co15  1  0.750000  0.388698  0.796780  1
  Co  Co16  1  0.250000  0.466047  0.929515  1
  Co  Co17  1  0.250000  0.034446  0.430885  1
  Co  Co18  1  0.750000  0.534764  0.068556  1
  Co  Co19  1  0.750000  0.964643  0.569738  1
  P  P20  1  0.250000  0.419583  0.111076  1
  P  P21  1  0.250000  0.080375  0.611888  1
  P  P22  1  0.750000  0.580689  0.887005  1
  P  P23  1  0.750000  0.919227  0.388528  1
  P  P24  1  0.250000  0.272046  0.867018  1
  P  P25  1  0.250000  0.228143  0.367201  1
  P  P26  1  0.750000  0.727958  0.132972  1
  P  P27  1  0.750000  0.770451  0.633450  1
  P  P28  1  0.250000  0.595727  0.390118  1
  P  P29  1  0.250000  0.904366  0.890265  1
  P  P30  1  0.750000  0.405260  0.610163  1
  P  P31  1  0.750000  0.095865  0.109867  1
  Ru  Ru32  1  0.250000  0.717221  0.992660  1
  Ru  Ru33  1  0.250000  0.782407  0.493084  1
  Ru  Ru34  1  0.750000  0.283075  0.007109  1
  Ru  Ru35  1  0.750000  0.217438  0.507873  1
