# generated using pymatgen
data_SrFe2(Sb6Ir)2
_symmetry_space_group_name_H-M   'P 1'
_cell_length_a   8.07858683
_cell_length_b   8.04971654
_cell_length_c   8.04971650
_cell_angle_alpha   109.38165888
_cell_angle_beta   109.45338676
_cell_angle_gamma   109.43354048
_symmetry_Int_Tables_number   1
_chemical_formula_structural   SrFe2(Sb6Ir)2
_chemical_formula_sum   'Sr1 Fe2 Sb12 Ir2'
_cell_volume   403.69157671
_cell_formula_units_Z   1
loop_
 _symmetry_equiv_pos_site_id
 _symmetry_equiv_pos_as_xyz
  1  'x, y, z'
loop_
 _atom_site_type_symbol
 _atom_site_label
 _atom_site_symmetry_multiplicity
 _atom_site_fract_x
 _atom_site_fract_y
 _atom_site_fract_z
 _atom_site_occupancy
  Sr  Sr0  1  0.000000  0.000000  0.000000  1
  Fe  Fe1  1  0.500000  0.000000  0.000000  1
  Fe  Fe2  1  0.500000  0.500000  0.500000  1
  Sb  Sb3  1  0.346367  0.179649  0.848194  1
  Sb  Sb4  1  0.653633  0.820351  0.151806  1
  Sb  Sb5  1  0.653633  0.501828  0.833281  1
  Sb  Sb6  1  0.346367  0.498172  0.166719  1
  Sb  Sb7  1  0.190320  0.845352  0.344968  1
  Sb  Sb8  1  0.809680  0.154648  0.655032  1
  Sb  Sb9  1  0.503719  0.837077  0.666641  1
  Sb  Sb10  1  0.496281  0.162923  0.333359  1
  Sb  Sb11  1  0.833632  0.331378  0.179655  1
  Sb  Sb12  1  0.166368  0.668622  0.820345  1
  Sb  Sb13  1  0.833632  0.653977  0.502255  1
  Sb  Sb14  1  0.166368  0.346023  0.497745  1
  Ir  Ir15  1  0.000000  0.000000  0.500000  1
  Ir  Ir16  1  0.000000  0.500000  0.000000  1
