# generated using pymatgen
data_Ba4Na8Si15Ge
_symmetry_space_group_name_H-M   'P 1'
_cell_length_a   11.10574845
_cell_length_b   11.10285447
_cell_length_c   11.10574919
_cell_angle_alpha   134.47068932
_cell_angle_beta   128.94158519
_cell_angle_gamma   70.79341538
_symmetry_Int_Tables_number   1
_chemical_formula_structural   Ba4Na8Si15Ge
_chemical_formula_sum   'Ba4 Na8 Si15 Ge1'
_cell_volume   744.61752678
_cell_formula_units_Z   1
loop_
 _symmetry_equiv_pos_site_id
 _symmetry_equiv_pos_as_xyz
  1  'x, y, z'
loop_
 _atom_site_type_symbol
 _atom_site_label
 _atom_site_symmetry_multiplicity
 _atom_site_fract_x
 _atom_site_fract_y
 _atom_site_fract_z
 _atom_site_occupancy
  Ba  Ba0  1  0.999675  0.000831  0.999051  1
  Ba  Ba1  1  0.082038  0.165175  0.583137  1
  Ba  Ba2  1  0.917349  0.497138  0.079788  1
  Ba  Ba3  1  0.501780  0.000831  0.501155  1
  Na  Na4  1  0.500339  0.501696  0.001904  1
  Na  Na5  1  0.999792  0.501696  0.501356  1
  Na  Na6  1  0.258453  0.227822  0.034872  1
  Na  Na7  1  0.307416  0.775927  0.535552  1
  Na  Na8  1  0.377849  0.800713  0.922864  1
  Na  Na9  1  0.622120  0.544966  0.422845  1
  Na  Na10  1  0.740375  0.775927  0.968511  1
  Na  Na11  1  0.692950  0.227822  0.469368  1
  Si  Si12  1  0.220353  0.542029  0.080080  1
  Si  Si13  1  0.038219  0.862222  0.582216  1
  Si  Si14  1  0.780005  0.862222  0.324003  1
  Si  Si15  1  0.262688  0.451963  0.433048  1
  Si  Si16  1  0.204563  0.675472  0.970909  1
  Si  Si17  1  0.277017  0.305352  0.528335  1
  Si  Si18  1  0.368794  0.192956  0.324162  1
  Si  Si19  1  0.795782  0.770100  0.474318  1
  Si  Si20  1  0.722882  0.251513  0.028632  1
  Si  Si21  1  0.631139  0.955312  0.824172  1
  Si  Si22  1  0.518915  0.451963  0.689276  1
  Si  Si23  1  0.737376  0.170251  0.189291  1
  Si  Si24  1  0.961949  0.542029  0.821677  1
  Si  Si25  1  0.480960  0.170251  0.932875  1
  Si  Si26  1  0.885079  0.073194  0.688115  1
  Ge  Ge27  1  0.114141  0.810889  0.196746  1
