# generated using pymatgen
data_SrLi2Zn9
_symmetry_space_group_name_H-M   'P 1'
_cell_length_a   8.45712025
_cell_length_b   8.45711997
_cell_length_c   8.46484367
_cell_angle_alpha   99.35530913
_cell_angle_beta   99.50151598
_cell_angle_gamma   132.22708447
_symmetry_Int_Tables_number   1
_chemical_formula_structural   SrLi2Zn9
_chemical_formula_sum   'Sr2 Li4 Zn18'
_cell_volume   409.98773274
_cell_formula_units_Z   2
loop_
 _symmetry_equiv_pos_site_id
 _symmetry_equiv_pos_as_xyz
  1  'x, y, z'
loop_
 _atom_site_type_symbol
 _atom_site_label
 _atom_site_symmetry_multiplicity
 _atom_site_fract_x
 _atom_site_fract_y
 _atom_site_fract_z
 _atom_site_occupancy
  Sr  Sr0  1  0.003352  0.003352  0.000000  1
  Sr  Sr1  1  0.254497  0.754497  0.500000  1
  Li  Li2  1  0.062815  0.646297  0.835837  1
  Li  Li3  1  0.810459  0.226978  0.164163  1
  Li  Li4  1  0.744917  0.244917  0.500000  1
  Li  Li5  1  0.503873  0.503873  0.000000  1
  Zn  Zn6  1  0.627010  0.377733  0.750565  1
  Zn  Zn7  1  0.623508  0.374861  0.250285  1
  Zn  Zn8  1  0.124576  0.373223  0.749715  1
  Zn  Zn9  1  0.627168  0.876444  0.249435  1
  Zn  Zn10  1  0.813480  0.645161  0.583346  1
  Zn  Zn11  1  0.898525  0.811426  0.328671  1
  Zn  Zn12  1  0.482755  0.569854  0.671329  1
  Zn  Zn13  1  0.061815  0.230134  0.416654  1
  Zn  Zn14  1  0.766058  0.936274  0.584893  1
  Zn  Zn15  1  0.351382  0.181165  0.415107  1
  Zn  Zn16  1  0.424218  0.513966  0.327262  1
  Zn  Zn17  1  0.186704  0.096956  0.672738  1
  Zn  Zn18  1  0.439224  0.105510  0.918209  1
  Zn  Zn19  1  0.354474  0.938276  0.167541  1
  Zn  Zn20  1  0.770734  0.186933  0.832459  1
  Zn  Zn21  1  0.187301  0.521015  0.081791  1
  Zn  Zn22  1  0.482641  0.814214  0.915699  1
  Zn  Zn23  1  0.898515  0.566941  0.084301  1
