# generated using pymatgen
data_PrNd3HgPt4Pb
_symmetry_space_group_name_H-M   'P 1'
_cell_length_a   3.80095200
_cell_length_b   8.03073484
_cell_length_c   8.02470629
_cell_angle_alpha   89.87666798
_cell_angle_beta   90.00000000
_cell_angle_gamma   90.00000000
_symmetry_Int_Tables_number   1
_chemical_formula_structural   PrNd3HgPt4Pb
_chemical_formula_sum   'Pr1 Nd3 Hg1 Pt4 Pb1'
_cell_volume   244.94907928
_cell_formula_units_Z   1
loop_
 _symmetry_equiv_pos_site_id
 _symmetry_equiv_pos_as_xyz
  1  'x, y, z'
loop_
 _atom_site_type_symbol
 _atom_site_label
 _atom_site_symmetry_multiplicity
 _atom_site_fract_x
 _atom_site_fract_y
 _atom_site_fract_z
 _atom_site_occupancy
  Pr  Pr0  1  0.500000  0.168107  0.678682  1
  Nd  Nd1  1  0.500000  0.832033  0.321096  1
  Nd  Nd2  1  0.500000  0.321635  0.167957  1
  Nd  Nd3  1  0.500000  0.678877  0.832376  1
  Hg  Hg4  1  0.000000  0.999468  0.000650  1
  Pt  Pt5  1  0.000000  0.623893  0.126072  1
  Pt  Pt6  1  0.000000  0.377767  0.875531  1
  Pt  Pt7  1  0.000000  0.872829  0.622860  1
  Pt  Pt8  1  0.000000  0.124896  0.374898  1
  Pb  Pb9  1  0.000000  0.500494  0.499877  1
