# generated using pymatgen
data_Li2TbY(WO4)4
_symmetry_space_group_name_H-M   'P 1'
_cell_length_a   10.04763377
_cell_length_b   6.03084600
_cell_length_c   5.08422992
_cell_angle_alpha   89.99999972
_cell_angle_beta   92.47508908
_cell_angle_gamma   89.99996392
_symmetry_Int_Tables_number   1
_chemical_formula_structural   Li2TbY(WO4)4
_chemical_formula_sum   'Li2 Tb1 Y1 W4 O16'
_cell_volume   307.79522023
_cell_formula_units_Z   1
loop_
 _symmetry_equiv_pos_site_id
 _symmetry_equiv_pos_as_xyz
  1  'x, y, z'
loop_
 _atom_site_type_symbol
 _atom_site_label
 _atom_site_symmetry_multiplicity
 _atom_site_fract_x
 _atom_site_fract_y
 _atom_site_fract_z
 _atom_site_occupancy
  Li  Li0  1  0.750000  0.746796  0.250002  1
  Li  Li1  1  0.250000  0.253193  0.749999  1
  Tb  Tb2  1  0.250000  0.667213  0.250000  1
  Y  Y3  1  0.750000  0.336363  0.750000  1
  W  W4  1  0.488155  0.169158  0.250089  1
  W  W5  1  0.011844  0.169158  0.249912  1
  W  W6  1  0.987747  0.830754  0.753180  1
  W  W7  1  0.512254  0.830753  0.746820  1
  O  O8  1  0.890992  0.908792  0.054338  1
  O  O9  1  0.402344  0.890377  0.058565  1
  O  O10  1  0.365447  0.358453  0.097057  1
  O  O11  1  0.888659  0.363393  0.109172  1
  O  O12  1  0.611341  0.363393  0.390828  1
  O  O13  1  0.134553  0.358454  0.402944  1
  O  O14  1  0.097656  0.890377  0.441436  1
  O  O15  1  0.609008  0.908793  0.445662  1
  O  O16  1  0.390462  0.089095  0.550048  1
  O  O17  1  0.902206  0.111187  0.562466  1
  O  O18  1  0.864939  0.642754  0.597383  1
  O  O19  1  0.389508  0.634253  0.609280  1
  O  O20  1  0.110492  0.634252  0.890720  1
  O  O21  1  0.635061  0.642754  0.902618  1
  O  O22  1  0.597794  0.111187  0.937534  1
  O  O23  1  0.109538  0.089094  0.949954  1
