# generated using pymatgen
data_Th3Ni5
_symmetry_space_group_name_H-M   'P 1'
_cell_length_a   6.72009100
_cell_length_b   6.72009080
_cell_length_c   3.81394200
_cell_angle_alpha   90.00000000
_cell_angle_beta   90.00000000
_cell_angle_gamma   120.00000592
_symmetry_Int_Tables_number   1
_chemical_formula_structural   Th3Ni5
_chemical_formula_sum   'Th3 Ni5'
_cell_volume   149.16089660
_cell_formula_units_Z   1
loop_
 _symmetry_equiv_pos_site_id
 _symmetry_equiv_pos_as_xyz
  1  'x, y, z'
loop_
 _atom_site_type_symbol
 _atom_site_label
 _atom_site_symmetry_multiplicity
 _atom_site_fract_x
 _atom_site_fract_y
 _atom_site_fract_z
 _atom_site_occupancy
  Th  Th0  1  0.649231  0.000000  0.500000  1
  Th  Th1  1  0.000000  0.649231  0.500000  1
  Th  Th2  1  0.350769  0.350769  0.500000  1
  Ni  Ni3  1  0.228823  0.000000  0.000000  1
  Ni  Ni4  1  0.000000  0.228823  0.000000  1
  Ni  Ni5  1  0.771177  0.771177  0.000000  1
  Ni  Ni6  1  0.333333  0.666667  0.000000  1
  Ni  Ni7  1  0.666667  0.333333  0.000000  1
