# generated using pymatgen
data_Y6Lu3ScIn6
_symmetry_space_group_name_H-M   'P 1'
_cell_length_a   6.44842987
_cell_length_b   8.98859997
_cell_length_c   8.99618574
_cell_angle_alpha   119.99828356
_cell_angle_beta   89.87422850
_cell_angle_gamma   90.09904627
_symmetry_Int_Tables_number   1
_chemical_formula_structural   Y6Lu3ScIn6
_chemical_formula_sum   'Y6 Lu3 Sc1 In6'
_cell_volume   451.58699715
_cell_formula_units_Z   1
loop_
 _symmetry_equiv_pos_site_id
 _symmetry_equiv_pos_as_xyz
  1  'x, y, z'
loop_
 _atom_site_type_symbol
 _atom_site_label
 _atom_site_symmetry_multiplicity
 _atom_site_fract_x
 _atom_site_fract_y
 _atom_site_fract_z
 _atom_site_occupancy
  Y  Y0  1  0.746993  0.238358  0.000284  1
  Y  Y1  1  0.747125  0.761849  0.761454  1
  Y  Y2  1  0.746872  0.999721  0.238380  1
  Y  Y3  1  0.252950  0.762032  0.000427  1
  Y  Y4  1  0.253080  0.238579  0.238452  1
  Y  Y5  1  0.252966  0.999839  0.761589  1
  Lu  Lu6  1  0.499967  0.667399  0.333909  1
  Lu  Lu7  1  0.999979  0.666146  0.332929  1
  Lu  Lu8  1  0.000226  0.333936  0.667119  1
  Sc  Sc9  1  0.500145  0.332133  0.665587  1
  In  In10  1  0.741154  0.592417  0.996332  1
  In  In11  1  0.742496  0.403866  0.407168  1
  In  In12  1  0.743518  0.003404  0.596456  1
  In  In13  1  0.258829  0.403881  0.996536  1
  In  In14  1  0.258165  0.593082  0.596255  1
  In  In15  1  0.255535  0.003361  0.407123  1
