# generated using pymatgen
data_CeY2(SnRu)3
_symmetry_space_group_name_H-M   'P 1'
_cell_length_a   7.77316600
_cell_length_b   7.20819843
_cell_length_c   4.08954000
_cell_angle_alpha   90.00000000
_cell_angle_beta   90.00000000
_cell_angle_gamma   122.62846364
_symmetry_Int_Tables_number   1
_chemical_formula_structural   CeY2(SnRu)3
_chemical_formula_sum   'Ce1 Y2 Sn3 Ru3'
_cell_volume   192.97740085
_cell_formula_units_Z   1
loop_
 _symmetry_equiv_pos_site_id
 _symmetry_equiv_pos_as_xyz
  1  'x, y, z'
loop_
 _atom_site_type_symbol
 _atom_site_label
 _atom_site_symmetry_multiplicity
 _atom_site_fract_x
 _atom_site_fract_y
 _atom_site_fract_z
 _atom_site_occupancy
  Ce  Ce0  1  0.411341  0.000000  0.000000  1
  Y  Y1  1  0.004575  0.408459  0.000000  1
  Y  Y2  1  0.596116  0.591541  0.000000  1
  Sn  Sn3  1  0.257603  0.277913  0.500000  1
  Sn  Sn4  1  0.979691  0.722087  0.500000  1
  Sn  Sn5  1  0.767552  0.000000  0.500000  1
  Ru  Ru6  1  0.622334  0.272050  0.500000  1
  Ru  Ru7  1  0.350283  0.727950  0.500000  1
  Ru  Ru8  1  0.010506  0.000000  0.000000  1
