# generated using pymatgen
data_YHo5ReSb2
_symmetry_space_group_name_H-M   'P 1'
_cell_length_a   8.14434100
_cell_length_b   8.12609975
_cell_length_c   4.30052200
_cell_angle_alpha   90.00000000
_cell_angle_beta   90.00000000
_cell_angle_gamma   120.07427211
_symmetry_Int_Tables_number   1
_chemical_formula_structural   YHo5ReSb2
_chemical_formula_sum   'Y1 Ho5 Re1 Sb2'
_cell_volume   246.29998428
_cell_formula_units_Z   1
loop_
 _symmetry_equiv_pos_site_id
 _symmetry_equiv_pos_as_xyz
  1  'x, y, z'
loop_
 _atom_site_type_symbol
 _atom_site_label
 _atom_site_symmetry_multiplicity
 _atom_site_fract_x
 _atom_site_fract_y
 _atom_site_fract_z
 _atom_site_occupancy
  Y  Y0  1  0.604755  0.000000  0.500000  1
  Ho  Ho1  1  0.234998  0.000000  0.000000  1
  Ho  Ho2  1  0.764763  0.764217  0.000000  1
  Ho  Ho3  1  0.000546  0.235783  0.000000  1
  Ho  Ho4  1  0.394199  0.394169  0.500000  1
  Ho  Ho5  1  0.000030  0.605831  0.500000  1
  Re  Re6  1  0.001152  0.000000  0.500000  1
  Sb  Sb7  1  0.332998  0.666441  0.000000  1
  Sb  Sb8  1  0.666558  0.333559  0.000000  1
