# generated using pymatgen
data_Y12Th4Mg4Ru3Pt
_symmetry_space_group_name_H-M   'P 1'
_cell_length_a   9.81554284
_cell_length_b   9.81554317
_cell_length_c   9.81554245
_cell_angle_alpha   60.07140643
_cell_angle_beta   60.07140507
_cell_angle_gamma   60.07140453
_symmetry_Int_Tables_number   1
_chemical_formula_structural   Y12Th4Mg4Ru3Pt
_chemical_formula_sum   'Y12 Th4 Mg4 Ru3 Pt1'
_cell_volume   669.77692100
_cell_formula_units_Z   1
loop_
 _symmetry_equiv_pos_site_id
 _symmetry_equiv_pos_as_xyz
  1  'x, y, z'
loop_
 _atom_site_type_symbol
 _atom_site_label
 _atom_site_symmetry_multiplicity
 _atom_site_fract_x
 _atom_site_fract_y
 _atom_site_fract_z
 _atom_site_occupancy
  Y  Y0  1  0.056769  0.438664  0.438664  1
  Y  Y1  1  0.436357  0.063271  0.063271  1
  Y  Y2  1  0.438664  0.056769  0.438664  1
  Y  Y3  1  0.063271  0.436357  0.063271  1
  Y  Y4  1  0.438664  0.438664  0.056769  1
  Y  Y5  1  0.063271  0.063271  0.436357  1
  Y  Y6  1  0.186846  0.815490  0.815490  1
  Y  Y7  1  0.815602  0.186842  0.186842  1
  Y  Y8  1  0.815490  0.186846  0.815490  1
  Y  Y9  1  0.186842  0.815602  0.186842  1
  Y  Y10  1  0.815490  0.815490  0.186846  1
  Y  Y11  1  0.186842  0.186842  0.815602  1
  Th  Th12  1  0.594375  0.594375  0.594375  1
  Th  Th13  1  0.600874  0.600874  0.207050  1
  Th  Th14  1  0.600874  0.207050  0.600874  1
  Th  Th15  1  0.207050  0.600874  0.600874  1
  Mg  Mg16  1  0.830696  0.830696  0.830696  1
  Mg  Mg17  1  0.829703  0.829703  0.509814  1
  Mg  Mg18  1  0.829703  0.509814  0.829703  1
  Mg  Mg19  1  0.509814  0.829703  0.829703  1
  Ru  Ru20  1  0.393570  0.393570  0.813934  1
  Ru  Ru21  1  0.393570  0.813934  0.393570  1
  Ru  Ru22  1  0.813934  0.393570  0.393570  1
  Pt  Pt23  1  0.391730  0.391730  0.391730  1
