# generated using pymatgen
data_TmFe3CoP3Ru
_symmetry_space_group_name_H-M   'P 1'
_cell_length_a   3.69405700
_cell_length_b   10.23276200
_cell_length_c   11.86226400
_cell_angle_alpha   90.00000000
_cell_angle_beta   90.00000000
_cell_angle_gamma   90.00000000
_symmetry_Int_Tables_number   1
_chemical_formula_structural   TmFe3CoP3Ru
_chemical_formula_sum   'Tm4 Fe12 Co4 P12 Ru4'
_cell_volume   448.39839641
_cell_formula_units_Z   4
loop_
 _symmetry_equiv_pos_site_id
 _symmetry_equiv_pos_as_xyz
  1  'x, y, z'
loop_
 _atom_site_type_symbol
 _atom_site_label
 _atom_site_symmetry_multiplicity
 _atom_site_fract_x
 _atom_site_fract_y
 _atom_site_fract_z
 _atom_site_occupancy
  Tm  Tm0  1  0.250000  0.581298  0.705027  1
  Tm  Tm1  1  0.250000  0.918702  0.205027  1
  Tm  Tm2  1  0.750000  0.418702  0.294973  1
  Tm  Tm3  1  0.750000  0.081298  0.794973  1
  Fe  Fe4  1  0.250000  0.221951  0.173237  1
  Fe  Fe5  1  0.250000  0.278049  0.673237  1
  Fe  Fe6  1  0.750000  0.778049  0.826763  1
  Fe  Fe7  1  0.750000  0.721951  0.326763  1
  Fe  Fe8  1  0.250000  0.881010  0.701589  1
  Fe  Fe9  1  0.250000  0.618990  0.201589  1
  Fe  Fe10  1  0.750000  0.118990  0.298411  1
  Fe  Fe11  1  0.750000  0.381010  0.798411  1
  Fe  Fe12  1  0.250000  0.462962  0.934307  1
  Fe  Fe13  1  0.250000  0.037038  0.434307  1
  Fe  Fe14  1  0.750000  0.537038  0.065693  1
  Fe  Fe15  1  0.750000  0.962962  0.565693  1
  Co  Co16  1  0.250000  0.407575  0.486231  1
  Co  Co17  1  0.250000  0.092425  0.986231  1
  Co  Co18  1  0.750000  0.592425  0.513769  1
  Co  Co19  1  0.750000  0.907575  0.013769  1
  P  P20  1  0.250000  0.424057  0.114990  1
  P  P21  1  0.250000  0.075943  0.614990  1
  P  P22  1  0.750000  0.575943  0.885010  1
  P  P23  1  0.750000  0.924057  0.385010  1
  P  P24  1  0.250000  0.269235  0.860931  1
  P  P25  1  0.250000  0.230765  0.360931  1
  P  P26  1  0.750000  0.730765  0.139069  1
  P  P27  1  0.750000  0.769235  0.639069  1
  P  P28  1  0.250000  0.598847  0.388772  1
  P  P29  1  0.250000  0.901153  0.888772  1
  P  P30  1  0.750000  0.401153  0.611228  1
  P  P31  1  0.750000  0.098847  0.111228  1
  Ru  Ru32  1  0.250000  0.709561  0.990454  1
  Ru  Ru33  1  0.250000  0.790439  0.490454  1
  Ru  Ru34  1  0.750000  0.290439  0.009546  1
  Ru  Ru35  1  0.750000  0.209561  0.509546  1
