# generated using pymatgen
data_La2Pr14Mg3InIr4
_symmetry_space_group_name_H-M   'P 1'
_cell_length_a   10.11490451
_cell_length_b   10.11490480
_cell_length_c   10.12487278
_cell_angle_alpha   59.74817073
_cell_angle_beta   59.74816849
_cell_angle_gamma   59.73708107
_symmetry_Int_Tables_number   1
_chemical_formula_structural   La2Pr14Mg3InIr4
_chemical_formula_sum   'La2 Pr14 Mg3 In1 Ir4'
_cell_volume   728.23365686
_cell_formula_units_Z   1
loop_
 _symmetry_equiv_pos_site_id
 _symmetry_equiv_pos_as_xyz
  1  'x, y, z'
loop_
 _atom_site_type_symbol
 _atom_site_label
 _atom_site_symmetry_multiplicity
 _atom_site_fract_x
 _atom_site_fract_y
 _atom_site_fract_z
 _atom_site_occupancy
  La  La0  1  0.344388  0.344388  0.345358  1
  La  La1  1  0.347400  0.347400  0.960457  1
  Pr  Pr2  1  0.348952  0.954908  0.349712  1
  Pr  Pr3  1  0.954908  0.348952  0.349712  1
  Pr  Pr4  1  0.812591  0.187625  0.187005  1
  Pr  Pr5  1  0.189964  0.808029  0.807084  1
  Pr  Pr6  1  0.187625  0.812591  0.187005  1
  Pr  Pr7  1  0.808029  0.189964  0.807084  1
  Pr  Pr8  1  0.187269  0.187269  0.812139  1
  Pr  Pr9  1  0.807694  0.807694  0.190197  1
  Pr  Pr10  1  0.941535  0.561471  0.560875  1
  Pr  Pr11  1  0.559231  0.938775  0.938812  1
  Pr  Pr12  1  0.561471  0.941535  0.560875  1
  Pr  Pr13  1  0.938775  0.559231  0.938812  1
  Pr  Pr14  1  0.561741  0.561741  0.940629  1
  Pr  Pr15  1  0.938758  0.938758  0.559580  1
  Mg  Mg16  1  0.577642  0.577642  0.266929  1
  Mg  Mg17  1  0.578532  0.267163  0.577082  1
  Mg  Mg18  1  0.267163  0.578532  0.577082  1
  In  In19  1  0.582444  0.582444  0.581392  1
  Ir  Ir20  1  0.142548  0.142548  0.141802  1
  Ir  Ir21  1  0.143127  0.143127  0.575135  1
  Ir  Ir22  1  0.143304  0.574908  0.142621  1
  Ir  Ir23  1  0.574908  0.143304  0.142621  1
