# generated using pymatgen
data_Eu2ErU(NiP)4
_symmetry_space_group_name_H-M   'P 1'
_cell_length_a   3.93894100
_cell_length_b   3.93894830
_cell_length_c   16.06797400
_cell_angle_alpha   89.99995941
_cell_angle_beta   90.00020551
_cell_angle_gamma   119.99976127
_symmetry_Int_Tables_number   1
_chemical_formula_structural   Eu2ErU(NiP)4
_chemical_formula_sum   'Eu2 Er1 U1 Ni4 P4'
_cell_volume   215.89995574
_cell_formula_units_Z   1
loop_
 _symmetry_equiv_pos_site_id
 _symmetry_equiv_pos_as_xyz
  1  'x, y, z'
loop_
 _atom_site_type_symbol
 _atom_site_label
 _atom_site_symmetry_multiplicity
 _atom_site_fract_x
 _atom_site_fract_y
 _atom_site_fract_z
 _atom_site_occupancy
  Eu  Eu0  1  0.999999  0.999999  0.499557  1
  Eu  Eu1  1  0.000001  0.000000  0.250208  1
  Er  Er2  1  0.000000  0.000001  0.000605  1
  U  U3  1  0.000000  0.999999  0.750311  1
  Ni  Ni4  1  0.333333  0.666668  0.374680  1
  Ni  Ni5  1  0.666668  0.333331  0.630919  1
  Ni  Ni6  1  0.666668  0.333332  0.868809  1
  Ni  Ni7  1  0.333332  0.666668  0.123956  1
  P  P8  1  0.333332  0.666668  0.876322  1
  P  P9  1  0.666666  0.333333  0.118776  1
  P  P10  1  0.666668  0.333333  0.375529  1
  P  P11  1  0.333333  0.666667  0.630328  1
