# generated using pymatgen
data_Ho3MoO7
_symmetry_space_group_name_H-M   'P 1'
_cell_length_a   6.45313702
_cell_length_b   6.45313716
_cell_length_c   7.43449700
_cell_angle_alpha   90.00000000
_cell_angle_beta   90.00000000
_cell_angle_gamma   108.58437937
_symmetry_Int_Tables_number   1
_chemical_formula_structural   Ho3MoO7
_chemical_formula_sum   'Ho6 Mo2 O14'
_cell_volume   293.45089017
_cell_formula_units_Z   2
loop_
 _symmetry_equiv_pos_site_id
 _symmetry_equiv_pos_as_xyz
  1  'x, y, z'
loop_
 _atom_site_type_symbol
 _atom_site_label
 _atom_site_symmetry_multiplicity
 _atom_site_fract_x
 _atom_site_fract_y
 _atom_site_fract_z
 _atom_site_occupancy
  Ho  Ho0  1  0.465424  0.465424  0.000000  1
  Ho  Ho1  1  0.464339  0.999224  0.256707  1
  Ho  Ho2  1  0.535661  0.000776  0.756707  1
  Ho  Ho3  1  0.000776  0.535661  0.243293  1
  Ho  Ho4  1  0.534576  0.534576  0.500000  1
  Ho  Ho5  1  0.999224  0.464339  0.743293  1
  Mo  Mo6  1  0.998597  0.998597  0.000000  1
  Mo  Mo7  1  0.001403  0.001403  0.500000  1
  O  O8  1  0.055794  0.311445  0.461582  1
  O  O9  1  0.075426  0.924574  0.250000  1
  O  O10  1  0.630474  0.369526  0.250000  1
  O  O11  1  0.311445  0.055794  0.538418  1
  O  O12  1  0.916127  0.671487  0.525210  1
  O  O13  1  0.924574  0.075426  0.750000  1
  O  O14  1  0.671487  0.916127  0.474790  1
  O  O15  1  0.362267  0.637733  0.250000  1
  O  O16  1  0.688555  0.944206  0.038418  1
  O  O17  1  0.637733  0.362267  0.750000  1
  O  O18  1  0.083873  0.328513  0.025210  1
  O  O19  1  0.944206  0.688555  0.961582  1
  O  O20  1  0.369526  0.630474  0.750000  1
  O  O21  1  0.328513  0.083873  0.974790  1
