# generated using pymatgen
data_ZrNb4Co19P12
_symmetry_space_group_name_H-M   'P 1'
_cell_length_a   11.74461100
_cell_length_b   11.74461033
_cell_length_c   3.57299000
_cell_angle_alpha   90.00000000
_cell_angle_beta   90.00000000
_cell_angle_gamma   119.99999907
_symmetry_Int_Tables_number   1
_chemical_formula_structural   ZrNb4Co19P12
_chemical_formula_sum   'Zr1 Nb4 Co19 P12'
_cell_volume   426.81501135
_cell_formula_units_Z   1
loop_
 _symmetry_equiv_pos_site_id
 _symmetry_equiv_pos_as_xyz
  1  'x, y, z'
loop_
 _atom_site_type_symbol
 _atom_site_label
 _atom_site_symmetry_multiplicity
 _atom_site_fract_x
 _atom_site_fract_y
 _atom_site_fract_z
 _atom_site_occupancy
  Zr  Zr0  1  0.333333  0.666667  0.500000  1
  Nb  Nb1  1  0.666667  0.333333  0.500000  1
  Nb  Nb2  1  0.818755  0.999640  0.000000  1
  Nb  Nb3  1  0.000360  0.819115  0.000000  1
  Nb  Nb4  1  0.180885  0.181245  0.000000  1
  Co  Co5  1  0.626730  0.804257  0.500000  1
  Co  Co6  1  0.195743  0.822473  0.500000  1
  Co  Co7  1  0.177527  0.373270  0.500000  1
  Co  Co8  1  0.377853  0.181548  0.500000  1
  Co  Co9  1  0.803695  0.622147  0.500000  1
  Co  Co10  1  0.818452  0.196305  0.500000  1
  Co  Co11  1  0.282698  0.001767  0.000000  1
  Co  Co12  1  0.998233  0.280932  0.000000  1
  Co  Co13  1  0.719068  0.717302  0.000000  1
  Co  Co14  1  0.451854  0.997078  0.500000  1
  Co  Co15  1  0.002922  0.454776  0.500000  1
  Co  Co16  1  0.545224  0.548146  0.500000  1
  Co  Co17  1  0.519124  0.872669  0.000000  1
  Co  Co18  1  0.127331  0.646454  0.000000  1
  Co  Co19  1  0.353546  0.480876  0.000000  1
  Co  Co20  1  0.483437  0.355908  0.000000  1
  Co  Co21  1  0.872471  0.516563  0.000000  1
  Co  Co22  1  0.644092  0.127529  0.000000  1
  Co  Co23  1  0.000000  0.000000  0.500000  1
  P  P24  1  0.177267  0.001869  0.500000  1
  P  P25  1  0.998131  0.175398  0.500000  1
  P  P26  1  0.824602  0.822733  0.500000  1
  P  P27  1  0.518498  0.681260  0.000000  1
  P  P28  1  0.318740  0.837237  0.000000  1
  P  P29  1  0.162763  0.481502  0.000000  1
  P  P30  1  0.484442  0.166705  0.000000  1
  P  P31  1  0.682263  0.515558  0.000000  1
  P  P32  1  0.833295  0.317737  0.000000  1
  P  P33  1  0.640781  0.999282  0.500000  1
  P  P34  1  0.000718  0.641499  0.500000  1
  P  P35  1  0.358501  0.359219  0.500000  1
