# generated using pymatgen
data_Nd20Bi7Te5
_symmetry_space_group_name_H-M   'P 1'
_cell_length_a   8.42989913
_cell_length_b   9.84596359
_cell_length_c   12.28611313
_cell_angle_alpha   89.96954596
_cell_angle_beta   89.98159825
_cell_angle_gamma   90.02800938
_symmetry_Int_Tables_number   1
_chemical_formula_structural   Nd20Bi7Te5
_chemical_formula_sum   'Nd20 Bi7 Te5'
_cell_volume   1019.75296754
_cell_formula_units_Z   1
loop_
 _symmetry_equiv_pos_site_id
 _symmetry_equiv_pos_as_xyz
  1  'x, y, z'
loop_
 _atom_site_type_symbol
 _atom_site_label
 _atom_site_symmetry_multiplicity
 _atom_site_fract_x
 _atom_site_fract_y
 _atom_site_fract_z
 _atom_site_occupancy
  Nd  Nd0  1  0.020889  0.750099  0.984719  1
  Nd  Nd1  1  0.521227  0.751240  0.516367  1
  Nd  Nd2  1  0.978738  0.250197  0.013290  1
  Nd  Nd3  1  0.477236  0.248833  0.486200  1
  Nd  Nd4  1  0.183962  0.752257  0.723446  1
  Nd  Nd5  1  0.682416  0.750176  0.776140  1
  Nd  Nd6  1  0.818946  0.250162  0.278142  1
  Nd  Nd7  1  0.319642  0.249857  0.222301  1
  Nd  Nd8  1  0.305550  0.444303  0.942426  1
  Nd  Nd9  1  0.806330  0.055377  0.557587  1
  Nd  Nd10  1  0.693678  0.944947  0.056123  1
  Nd  Nd11  1  0.195406  0.555664  0.443766  1
  Nd  Nd12  1  0.694129  0.555368  0.055604  1
  Nd  Nd13  1  0.193928  0.945266  0.444552  1
  Nd  Nd14  1  0.305853  0.055166  0.942042  1
  Nd  Nd15  1  0.805468  0.444303  0.557275  1
  Nd  Nd16  1  0.355274  0.749780  0.209826  1
  Nd  Nd17  1  0.853692  0.749555  0.290385  1
  Nd  Nd18  1  0.644134  0.248118  0.789727  1
  Nd  Nd19  1  0.146442  0.248284  0.710543  1
  Bi  Bi20  1  0.930004  0.492978  0.823707  1
  Bi  Bi21  1  0.570037  0.506779  0.324910  1
  Bi  Bi22  1  0.069592  0.993474  0.175864  1
  Bi  Bi23  1  0.569428  0.993373  0.324584  1
  Bi  Bi24  1  0.069640  0.506335  0.175904  1
  Bi  Bi25  1  0.430166  0.492499  0.675604  1
  Bi  Bi26  1  0.928943  0.006966  0.824397  1
  Te  Te27  1  0.428270  0.008505  0.674462  1
  Te  Te28  1  0.414774  0.750108  0.956433  1
  Te  Te29  1  0.914979  0.749700  0.543328  1
  Te  Te30  1  0.585642  0.250087  0.041887  1
  Te  Te31  1  0.085585  0.250243  0.458459  1
