# generated using pymatgen
data_Ca3Sm4Eu9(MgRu)4
_symmetry_space_group_name_H-M   'P 1'
_cell_length_a   10.32457913
_cell_length_b   10.28186328
_cell_length_c   10.30279518
_cell_angle_alpha   60.20729810
_cell_angle_beta   59.73138421
_cell_angle_gamma   59.99683848
_symmetry_Int_Tables_number   1
_chemical_formula_structural   Ca3Sm4Eu9(MgRu)4
_chemical_formula_sum   'Ca3 Sm4 Eu9 Mg4 Ru4'
_cell_volume   772.96083061
_cell_formula_units_Z   1
loop_
 _symmetry_equiv_pos_site_id
 _symmetry_equiv_pos_as_xyz
  1  'x, y, z'
loop_
 _atom_site_type_symbol
 _atom_site_label
 _atom_site_symmetry_multiplicity
 _atom_site_fract_x
 _atom_site_fract_y
 _atom_site_fract_z
 _atom_site_occupancy
  Ca  Ca0  1  0.950326  0.549457  0.549242  1
  Ca  Ca1  1  0.549242  0.950975  0.950326  1
  Ca  Ca2  1  0.549399  0.950601  0.549399  1
  Sm  Sm3  1  0.337714  0.337970  0.339742  1
  Sm  Sm4  1  0.337883  0.336476  0.986643  1
  Sm  Sm5  1  0.339742  0.984574  0.337714  1
  Sm  Sm6  1  0.986643  0.338998  0.337883  1
  Eu  Eu7  1  0.950370  0.549630  0.950370  1
  Eu  Eu8  1  0.549124  0.546992  0.951696  1
  Eu  Eu9  1  0.951696  0.952188  0.549124  1
  Eu  Eu10  1  0.808763  0.191178  0.191091  1
  Eu  Eu11  1  0.191091  0.808968  0.808763  1
  Eu  Eu12  1  0.192800  0.807200  0.192800  1
  Eu  Eu13  1  0.809476  0.190524  0.809476  1
  Eu  Eu14  1  0.191301  0.192033  0.808108  1
  Eu  Eu15  1  0.808108  0.808557  0.191301  1
  Mg  Mg16  1  0.576832  0.578678  0.575248  1
  Mg  Mg17  1  0.575575  0.578871  0.269428  1
  Mg  Mg18  1  0.575248  0.269243  0.576832  1
  Mg  Mg19  1  0.269428  0.576128  0.575575  1
  Ru  Ru20  1  0.138020  0.141054  0.141928  1
  Ru  Ru21  1  0.139891  0.139174  0.579399  1
  Ru  Ru22  1  0.141928  0.578996  0.138020  1
  Ru  Ru23  1  0.579399  0.141535  0.139891  1
