# generated using pymatgen
data_NdGd2Lu(MoN3)4
_symmetry_space_group_name_H-M   'P 1'
_cell_length_a   7.27049236
_cell_length_b   7.27134967
_cell_length_c   6.23227369
_cell_angle_alpha   75.10593265
_cell_angle_beta   75.12601629
_cell_angle_gamma   82.67935007
_symmetry_Int_Tables_number   1
_chemical_formula_structural   NdGd2Lu(MoN3)4
_chemical_formula_sum   'Nd1 Gd2 Lu1 Mo4 N12'
_cell_volume   307.07209757
_cell_formula_units_Z   1
loop_
 _symmetry_equiv_pos_site_id
 _symmetry_equiv_pos_as_xyz
  1  'x, y, z'
loop_
 _atom_site_type_symbol
 _atom_site_label
 _atom_site_symmetry_multiplicity
 _atom_site_fract_x
 _atom_site_fract_y
 _atom_site_fract_z
 _atom_site_occupancy
  Nd  Nd0  1  0.695033  0.305081  0.249993  1
  Gd  Gd1  1  0.087301  0.912823  0.249877  1
  Gd  Gd2  1  0.302100  0.697881  0.749956  1
  Lu  Lu3  1  0.914519  0.085361  0.750014  1
  Mo  Mo4  1  0.801991  0.618477  0.754851  1
  Mo  Mo5  1  0.197704  0.381129  0.246683  1
  Mo  Mo6  1  0.618971  0.802263  0.253502  1
  Mo  Mo7  1  0.381429  0.198063  0.745010  1
  N  N8  1  0.216602  0.000481  0.845844  1
  N  N9  1  0.351393  0.366701  0.465786  1
  N  N10  1  0.650896  0.637269  0.533031  1
  N  N11  1  0.623469  0.108504  0.667705  1
  N  N12  1  0.999546  0.783327  0.654053  1
  N  N13  1  0.784077  0.998595  0.139141  1
  N  N14  1  0.106454  0.620436  0.154475  1
  N  N15  1  0.891493  0.376470  0.832269  1
  N  N16  1  0.001417  0.215949  0.360963  1
  N  N17  1  0.362676  0.349018  0.967031  1
  N  N18  1  0.633354  0.648653  0.034227  1
  N  N19  1  0.379575  0.893519  0.345594  1
