# generated using pymatgen
data_K4AgP2Au
_symmetry_space_group_name_H-M   'P 1'
_cell_length_a   6.25044883
_cell_length_b   6.25044934
_cell_length_c   6.12371265
_cell_angle_alpha   90.34709323
_cell_angle_beta   90.34709089
_cell_angle_gamma   104.79586029
_symmetry_Int_Tables_number   1
_chemical_formula_structural   K4AgP2Au
_chemical_formula_sum   'K4 Ag1 P2 Au1'
_cell_volume   231.29768183
_cell_formula_units_Z   1
loop_
 _symmetry_equiv_pos_site_id
 _symmetry_equiv_pos_as_xyz
  1  'x, y, z'
loop_
 _atom_site_type_symbol
 _atom_site_label
 _atom_site_symmetry_multiplicity
 _atom_site_fract_x
 _atom_site_fract_y
 _atom_site_fract_z
 _atom_site_occupancy
  K  K0  1  0.968786  0.313793  0.747952  1
  K  K1  1  0.313793  0.968786  0.747952  1
  K  K2  1  0.031214  0.686207  0.252048  1
  K  K3  1  0.686207  0.031214  0.252048  1
  Ag  Ag4  1  0.500000  0.500000  0.000000  1
  P  P5  1  0.750798  0.750798  0.747930  1
  P  P6  1  0.249202  0.249202  0.252070  1
  Au  Au7  1  0.500000  0.500000  0.500000  1
