# generated using pymatgen
data_CeZnInNi3
_symmetry_space_group_name_H-M   'P 1'
_cell_length_a   5.04200809
_cell_length_b   5.04200850
_cell_length_c   5.04200888
_cell_angle_alpha   61.49012124
_cell_angle_beta   61.49012335
_cell_angle_gamma   61.49012302
_symmetry_Int_Tables_number   1
_chemical_formula_structural   CeZnInNi3
_chemical_formula_sum   'Ce1 Zn1 In1 Ni3'
_cell_volume   93.66685163
_cell_formula_units_Z   1
loop_
 _symmetry_equiv_pos_site_id
 _symmetry_equiv_pos_as_xyz
  1  'x, y, z'
loop_
 _atom_site_type_symbol
 _atom_site_label
 _atom_site_symmetry_multiplicity
 _atom_site_fract_x
 _atom_site_fract_y
 _atom_site_fract_z
 _atom_site_occupancy
  Ce  Ce0  1  0.001278  0.001278  0.001278  1
  Zn  Zn1  1  0.623736  0.623736  0.623736  1
  In  In2  1  0.252457  0.252457  0.252457  1
  Ni  Ni3  1  0.622680  0.622680  0.127168  1
  Ni  Ni4  1  0.622680  0.127168  0.622680  1
  Ni  Ni5  1  0.127168  0.622680  0.622680  1
