# generated using pymatgen
data_Cs5Li(ReH9)3
_symmetry_space_group_name_H-M   'P 1'
_cell_length_a   10.00610543
_cell_length_b   9.73454329
_cell_length_c   6.36532400
_cell_angle_alpha   90.00000000
_cell_angle_beta   90.00000000
_cell_angle_gamma   119.10622892
_symmetry_Int_Tables_number   1
_chemical_formula_structural   Cs5Li(ReH9)3
_chemical_formula_sum   'Cs5 Li1 Re3 H27'
_cell_volume   541.71781932
_cell_formula_units_Z   1
loop_
 _symmetry_equiv_pos_site_id
 _symmetry_equiv_pos_as_xyz
  1  'x, y, z'
loop_
 _atom_site_type_symbol
 _atom_site_label
 _atom_site_symmetry_multiplicity
 _atom_site_fract_x
 _atom_site_fract_y
 _atom_site_fract_z
 _atom_site_occupancy
  Cs  Cs0  1  0.747606  0.763859  0.500000  1
  Cs  Cs1  1  0.252394  0.016253  0.500000  1
  Cs  Cs2  1  0.000000  0.582326  0.000000  1
  Cs  Cs3  1  0.404123  0.407604  0.000000  1
  Cs  Cs4  1  0.595877  0.003481  0.000000  1
  Li  Li5  1  0.000000  0.365644  0.500000  1
  Re  Re6  1  0.698602  0.327723  0.500000  1
  Re  Re7  1  0.301398  0.629122  0.500000  1
  Re  Re8  1  0.000000  0.024766  0.000000  1
  H  H9  1  0.808008  0.296495  0.683980  1
  H  H10  1  0.719536  0.453865  0.699072  1
  H  H11  1  0.566950  0.225711  0.690565  1
  H  H12  1  0.191992  0.488488  0.316020  1
  H  H13  1  0.566950  0.225711  0.309435  1
  H  H14  1  0.808008  0.296495  0.316020  1
  H  H15  1  0.719536  0.453865  0.300928  1
  H  H16  1  0.280464  0.734329  0.699072  1
  H  H17  1  0.433050  0.658762  0.690565  1
  H  H18  1  0.173110  0.032384  0.000000  1
  H  H19  1  0.826890  0.859274  0.000000  1
  H  H20  1  0.000000  0.197500  0.000000  1
  H  H21  1  0.887094  0.035258  0.192819  1
  H  H22  1  0.112906  0.148164  0.807181  1
  H  H23  1  0.000000  0.895980  0.814426  1
  H  H24  1  0.000000  0.895980  0.185574  1
  H  H25  1  0.112906  0.148164  0.192819  1
  H  H26  1  0.887094  0.035258  0.807181  1
  H  H27  1  0.125647  0.613454  0.500000  1
  H  H28  1  0.442974  0.818193  0.500000  1
  H  H29  1  0.346535  0.483910  0.500000  1
  H  H30  1  0.557026  0.375219  0.500000  1
  H  H31  1  0.874353  0.487807  0.500000  1
  H  H32  1  0.653465  0.137376  0.500000  1
  H  H33  1  0.191992  0.488488  0.683980  1
  H  H34  1  0.280464  0.734329  0.300928  1
  H  H35  1  0.433050  0.658762  0.309435  1
