# generated using pymatgen
data_ErPa3Co2(NiSn)2
_symmetry_space_group_name_H-M   'P 1'
_cell_length_a   7.37045528
_cell_length_b   7.40974728
_cell_length_c   3.52634900
_cell_angle_alpha   90.00000000
_cell_angle_beta   90.00000000
_cell_angle_gamma   91.60666388
_symmetry_Int_Tables_number   1
_chemical_formula_structural   ErPa3Co2(NiSn)2
_chemical_formula_sum   'Er1 Pa3 Co2 Ni2 Sn2'
_cell_volume   192.50952900
_cell_formula_units_Z   1
loop_
 _symmetry_equiv_pos_site_id
 _symmetry_equiv_pos_as_xyz
  1  'x, y, z'
loop_
 _atom_site_type_symbol
 _atom_site_label
 _atom_site_symmetry_multiplicity
 _atom_site_fract_x
 _atom_site_fract_y
 _atom_site_fract_z
 _atom_site_occupancy
  Er  Er0  1  0.828676  0.669530  0.500000  1
  Pa  Pa1  1  0.674663  0.182910  0.500000  1
  Pa  Pa2  1  0.326292  0.835448  0.500000  1
  Pa  Pa3  1  0.169893  0.322422  0.500000  1
  Co  Co4  1  0.882294  0.349257  0.000000  1
  Co  Co5  1  0.367825  0.133806  0.000000  1
  Ni  Ni6  1  0.139098  0.620559  0.000000  1
  Ni  Ni7  1  0.613545  0.885950  0.000000  1
  Sn  Sn8  1  0.504755  0.507648  0.000000  1
  Sn  Sn9  1  0.992957  0.992472  0.000000  1
