# generated using pymatgen
data_Dy3Co8MoP6
_symmetry_space_group_name_H-M   'P 1'
_cell_length_a   3.72360500
_cell_length_b   10.57012900
_cell_length_c   12.26011800
_cell_angle_alpha   90.00000000
_cell_angle_beta   90.00000000
_cell_angle_gamma   90.00000000
_symmetry_Int_Tables_number   1
_chemical_formula_structural   Dy3Co8MoP6
_chemical_formula_sum   'Dy6 Co16 Mo2 P12'
_cell_volume   482.54580285
_cell_formula_units_Z   2
loop_
 _symmetry_equiv_pos_site_id
 _symmetry_equiv_pos_as_xyz
  1  'x, y, z'
loop_
 _atom_site_type_symbol
 _atom_site_label
 _atom_site_symmetry_multiplicity
 _atom_site_fract_x
 _atom_site_fract_y
 _atom_site_fract_z
 _atom_site_occupancy
  Dy  Dy0  1  0.000000  0.500000  0.524250  1
  Dy  Dy1  1  0.500000  0.000000  0.475750  1
  Dy  Dy2  1  0.500000  0.819013  0.204946  1
  Dy  Dy3  1  0.500000  0.180987  0.204946  1
  Dy  Dy4  1  0.000000  0.680987  0.795054  1
  Dy  Dy5  1  0.000000  0.319013  0.795054  1
  Co  Co6  1  0.500000  0.500000  0.701603  1
  Co  Co7  1  0.000000  0.000000  0.298397  1
  Co  Co8  1  0.000000  0.500000  0.986539  1
  Co  Co9  1  0.500000  0.000000  0.013461  1
  Co  Co10  1  0.500000  0.332473  0.990322  1
  Co  Co11  1  0.500000  0.667527  0.990322  1
  Co  Co12  1  0.000000  0.167527  0.009678  1
  Co  Co13  1  0.000000  0.832473  0.009678  1
  Co  Co14  1  0.500000  0.295894  0.431374  1
  Co  Co15  1  0.500000  0.704106  0.431374  1
  Co  Co16  1  0.000000  0.204106  0.568626  1
  Co  Co17  1  0.000000  0.795894  0.568626  1
  Co  Co18  1  0.500000  0.878241  0.706800  1
  Co  Co19  1  0.500000  0.121759  0.706800  1
  Co  Co20  1  0.000000  0.621759  0.293200  1
  Co  Co21  1  0.000000  0.378241  0.293200  1
  Mo  Mo22  1  0.500000  0.500000  0.156233  1
  Mo  Mo23  1  0.000000  0.000000  0.843767  1
  P  P24  1  0.500000  0.500000  0.881354  1
  P  P25  1  0.000000  0.000000  0.118646  1
  P  P26  1  0.500000  0.500000  0.349123  1
  P  P27  1  0.000000  0.000000  0.650877  1
  P  P28  1  0.500000  0.311075  0.615773  1
  P  P29  1  0.500000  0.688925  0.615773  1
  P  P30  1  0.000000  0.188925  0.384227  1
  P  P31  1  0.000000  0.811075  0.384227  1
  P  P32  1  0.500000  0.844794  0.893149  1
  P  P33  1  0.500000  0.155206  0.893149  1
  P  P34  1  0.000000  0.655206  0.106851  1
  P  P35  1  0.000000  0.344794  0.106851  1
