# generated using pymatgen
data_Ti4AlC3
_symmetry_space_group_name_H-M   'P 1'
_cell_length_a   3.08475200
_cell_length_b   3.08475285
_cell_length_c   23.59085500
_cell_angle_alpha   90.00000000
_cell_angle_beta   90.00000000
_cell_angle_gamma   120.00001234
_symmetry_Int_Tables_number   1
_chemical_formula_structural   Ti4AlC3
_chemical_formula_sum   'Ti8 Al2 C6'
_cell_volume   194.40833801
_cell_formula_units_Z   2
loop_
 _symmetry_equiv_pos_site_id
 _symmetry_equiv_pos_as_xyz
  1  'x, y, z'
loop_
 _atom_site_type_symbol
 _atom_site_label
 _atom_site_symmetry_multiplicity
 _atom_site_fract_x
 _atom_site_fract_y
 _atom_site_fract_z
 _atom_site_occupancy
  Ti  Ti0  1  0.000000  0.000000  0.346712  1
  Ti  Ti1  1  0.000000  0.000000  0.846712  1
  Ti  Ti2  1  0.000000  0.000000  0.653288  1
  Ti  Ti3  1  0.000000  0.000000  0.153288  1
  Ti  Ti4  1  0.333333  0.666667  0.448920  1
  Ti  Ti5  1  0.666667  0.333333  0.948920  1
  Ti  Ti6  1  0.666667  0.333333  0.551080  1
  Ti  Ti7  1  0.333333  0.666667  0.051080  1
  Al  Al8  1  0.666667  0.333333  0.750000  1
  Al  Al9  1  0.333333  0.666667  0.250000  1
  C  C10  1  0.666667  0.333333  0.391795  1
  C  C11  1  0.333333  0.666667  0.891795  1
  C  C12  1  0.333333  0.666667  0.608205  1
  C  C13  1  0.000000  0.000000  0.000000  1
  C  C14  1  0.666667  0.333333  0.108205  1
  C  C15  1  0.000000  0.000000  0.500000  1
