# generated using pymatgen
data_LaNd3(ScPt)4
_symmetry_space_group_name_H-M   'P 1'
_cell_length_a   4.71212800
_cell_length_b   7.18594502
_cell_length_c   8.52867779
_cell_angle_alpha   90.22881878
_cell_angle_beta   90.00000000
_cell_angle_gamma   90.00000000
_symmetry_Int_Tables_number   1
_chemical_formula_structural   LaNd3(ScPt)4
_chemical_formula_sum   'La1 Nd3 Sc4 Pt4'
_cell_volume   288.78804661
_cell_formula_units_Z   1
loop_
 _symmetry_equiv_pos_site_id
 _symmetry_equiv_pos_as_xyz
  1  'x, y, z'
loop_
 _atom_site_type_symbol
 _atom_site_label
 _atom_site_symmetry_multiplicity
 _atom_site_fract_x
 _atom_site_fract_y
 _atom_site_fract_z
 _atom_site_occupancy
  La  La0  1  0.250000  0.021468  0.678236  1
  Nd  Nd1  1  0.250000  0.520461  0.822642  1
  Nd  Nd2  1  0.750000  0.979207  0.319751  1
  Nd  Nd3  1  0.750000  0.478637  0.177983  1
  Sc  Sc4  1  0.250000  0.137880  0.074506  1
  Sc  Sc5  1  0.250000  0.637686  0.425987  1
  Sc  Sc6  1  0.750000  0.860163  0.930077  1
  Sc  Sc7  1  0.750000  0.365666  0.571520  1
  Pt  Pt8  1  0.250000  0.266148  0.405686  1
  Pt  Pt9  1  0.250000  0.765399  0.094901  1
  Pt  Pt10  1  0.750000  0.734162  0.592481  1
  Pt  Pt11  1  0.750000  0.233124  0.906229  1
