# generated using pymatgen
data_Li16Ta(NbN4)3
_symmetry_space_group_name_H-M   'P 1'
_cell_length_a   4.91772489
_cell_length_b   8.94467698
_cell_length_c   8.94470703
_cell_angle_alpha   104.89986282
_cell_angle_beta   105.91280444
_cell_angle_gamma   105.91295588
_symmetry_Int_Tables_number   1
_chemical_formula_structural   Li16Ta(NbN4)3
_chemical_formula_sum   'Li16 Ta1 Nb3 N12'
_cell_volume   339.57726430
_cell_formula_units_Z   1
loop_
 _symmetry_equiv_pos_site_id
 _symmetry_equiv_pos_as_xyz
  1  'x, y, z'
loop_
 _atom_site_type_symbol
 _atom_site_label
 _atom_site_symmetry_multiplicity
 _atom_site_fract_x
 _atom_site_fract_y
 _atom_site_fract_z
 _atom_site_occupancy
  Li  Li0  1  0.750001  0.475362  0.024639  1
  Li  Li1  1  0.438280  0.880612  0.049861  1
  Li  Li2  1  0.008848  0.950093  0.119601  1
  Li  Li3  1  0.408502  0.749765  0.249176  1
  Li  Li4  1  0.909552  0.749819  0.249264  1
  Li  Li5  1  0.938290  0.549620  0.380755  1
  Li  Li6  1  0.507586  0.618918  0.449967  1
  Li  Li7  1  0.250000  0.024788  0.475210  1
  Li  Li8  1  0.750001  0.975379  0.524622  1
  Li  Li9  1  0.491155  0.380399  0.549904  1
  Li  Li10  1  0.061718  0.450140  0.619390  1
  Li  Li11  1  0.091499  0.250825  0.750232  1
  Li  Li12  1  0.590450  0.250736  0.750181  1
  Li  Li13  1  0.992415  0.050036  0.881084  1
  Li  Li14  1  0.561713  0.119242  0.950383  1
  Li  Li15  1  0.250000  0.525082  0.974920  1
  Ta  Ta16  1  0.749997  0.669017  0.830981  1
  Nb  Nb17  1  0.250001  0.331281  0.168719  1
  Nb  Nb18  1  0.749999  0.168745  0.331255  1
  Nb  Nb19  1  0.249999  0.831223  0.668779  1
  N  N20  1  0.058250  0.711016  0.039529  1
  N  N21  1  0.381010  0.130790  0.130783  1
  N  N22  1  0.558437  0.540106  0.211121  1
  N  N23  1  0.807760  0.959942  0.289453  1
  N  N24  1  0.118988  0.369219  0.369209  1
  N  N25  1  0.306972  0.789086  0.460004  1
  N  N26  1  0.692242  0.210547  0.540059  1
  N  N27  1  0.880244  0.631512  0.632642  1
  N  N28  1  0.193023  0.039993  0.710914  1
  N  N29  1  0.441746  0.460469  0.788981  1
  N  N30  1  0.619748  0.867353  0.868483  1
  N  N31  1  0.941569  0.288880  0.959896  1
