# generated using pymatgen
data_Ac3Mg3ZnGe2
_symmetry_space_group_name_H-M   'P 1'
_cell_length_a   7.71400600
_cell_length_b   7.71400759
_cell_length_c   4.70300600
_cell_angle_alpha   90.00000000
_cell_angle_beta   90.00000000
_cell_angle_gamma   119.99999317
_symmetry_Int_Tables_number   1
_chemical_formula_structural   Ac3Mg3ZnGe2
_chemical_formula_sum   'Ac3 Mg3 Zn1 Ge2'
_cell_volume   242.36294928
_cell_formula_units_Z   1
loop_
 _symmetry_equiv_pos_site_id
 _symmetry_equiv_pos_as_xyz
  1  'x, y, z'
loop_
 _atom_site_type_symbol
 _atom_site_label
 _atom_site_symmetry_multiplicity
 _atom_site_fract_x
 _atom_site_fract_y
 _atom_site_fract_z
 _atom_site_occupancy
  Ac  Ac0  1  0.582904  0.000000  0.000000  1
  Ac  Ac1  1  0.000000  0.582904  0.000000  1
  Ac  Ac2  1  0.417096  0.417096  0.000000  1
  Mg  Mg3  1  0.241612  0.000000  0.500000  1
  Mg  Mg4  1  0.000000  0.241612  0.500000  1
  Mg  Mg5  1  0.758388  0.758388  0.500000  1
  Zn  Zn6  1  0.000000  0.000000  0.000000  1
  Ge  Ge7  1  0.333333  0.666667  0.500000  1
  Ge  Ge8  1  0.666667  0.333333  0.500000  1
