# generated using pymatgen
data_Yb6DyTmBi6
_symmetry_space_group_name_H-M   'P 1'
_cell_length_a   8.15400660
_cell_length_b   8.35493043
_cell_length_c   8.35493022
_cell_angle_alpha   109.95324920
_cell_angle_beta   108.98479176
_cell_angle_gamma   108.98478366
_symmetry_Int_Tables_number   1
_chemical_formula_structural   Yb6DyTmBi6
_chemical_formula_sum   'Yb6 Dy1 Tm1 Bi6'
_cell_volume   440.76471859
_cell_formula_units_Z   1
loop_
 _symmetry_equiv_pos_site_id
 _symmetry_equiv_pos_as_xyz
  1  'x, y, z'
loop_
 _atom_site_type_symbol
 _atom_site_label
 _atom_site_symmetry_multiplicity
 _atom_site_fract_x
 _atom_site_fract_y
 _atom_site_fract_z
 _atom_site_occupancy
  Yb  Yb0  1  0.501009  0.999312  0.646828  1
  Yb  Yb1  1  0.354301  0.352453  0.353355  1
  Yb  Yb2  1  0.501848  0.000902  0.147547  1
  Yb  Yb3  1  0.001697  0.647516  0.500688  1
  Yb  Yb4  1  0.854181  0.853172  0.852484  1
  Yb  Yb5  1  0.000945  0.146645  0.499098  1
  Dy  Dy6  1  0.142127  0.500000  0.000000  1
  Tm  Tm7  1  0.642017  0.500000  0.000000  1
  Bi  Bi8  1  0.377460  0.622259  0.757555  1
  Bi  Bi9  1  0.876324  0.257145  0.122519  1
  Bi  Bi10  1  0.619905  0.742445  0.364704  1
  Bi  Bi11  1  0.119179  0.865374  0.242855  1
  Bi  Bi12  1  0.255201  0.135296  0.877741  1
  Bi  Bi13  1  0.753805  0.377481  0.634626  1
