# generated using pymatgen
data_Zr6Ti2Al14GaRh7
_symmetry_space_group_name_H-M   'P 1'
_cell_length_a   8.84519976
_cell_length_b   8.84519929
_cell_length_c   8.84519979
_cell_angle_alpha   120.09897143
_cell_angle_beta   119.87464333
_cell_angle_gamma   90.02296568
_symmetry_Int_Tables_number   1
_chemical_formula_structural   Zr6Ti2Al14GaRh7
_chemical_formula_sum   'Zr6 Ti2 Al14 Ga1 Rh7'
_cell_volume   489.43201741
_cell_formula_units_Z   1
loop_
 _symmetry_equiv_pos_site_id
 _symmetry_equiv_pos_as_xyz
  1  'x, y, z'
loop_
 _atom_site_type_symbol
 _atom_site_label
 _atom_site_symmetry_multiplicity
 _atom_site_fract_x
 _atom_site_fract_y
 _atom_site_fract_z
 _atom_site_occupancy
  Zr  Zr0  1  0.795188  0.291837  0.078233  1
  Zr  Zr1  1  0.213604  0.291837  0.496649  1
  Zr  Zr2  1  0.205025  0.705025  0.500000  1
  Zr  Zr3  1  0.213604  0.716955  0.921767  1
  Zr  Zr4  1  0.795188  0.716955  0.503351  1
  Zr  Zr5  1  0.784228  0.284228  0.500000  1
  Ti  Ti6  1  0.379852  0.123075  0.743222  1
  Ti  Ti7  1  0.379852  0.636630  0.256778  1
  Al  Al8  1  0.162016  0.337634  0.175617  1
  Al  Al9  1  0.162016  0.986400  0.824383  1
  Al  Al10  1  0.157881  0.340556  0.817324  1
  Al  Al11  1  0.523231  0.340556  0.182676  1
  Al  Al12  1  0.838489  0.660127  0.821639  1
  Al  Al13  1  0.838489  0.016849  0.178361  1
  Al  Al14  1  0.837725  0.661256  0.176470  1
  Al  Al15  1  0.484786  0.661256  0.823530  1
  Al  Al16  1  0.380232  0.121730  0.258502  1
  Al  Al17  1  0.863230  0.121730  0.741498  1
  Al  Al18  1  0.620124  0.876292  0.256168  1
  Al  Al19  1  0.620124  0.363956  0.743832  1
  Al  Al20  1  0.618097  0.877491  0.740606  1
  Al  Al21  1  0.136884  0.877491  0.259394  1
  Ga  Ga22  1  0.993731  0.493731  0.500000  1
  Rh  Rh23  1  0.000639  0.000860  0.501888  1
  Rh  Rh24  1  0.498971  0.000860  0.000221  1
  Rh  Rh25  1  0.497894  0.497894  0.000000  1
  Rh  Rh26  1  0.498971  0.498750  0.498112  1
  Rh  Rh27  1  0.000639  0.498750  0.999779  1
  Rh  Rh28  1  0.000220  0.000220  0.000000  1
  Rh  Rh29  1  0.499062  0.999062  0.500000  1
