# generated using pymatgen
data_Ho8Er2Si5Ge
_symmetry_space_group_name_H-M   'P 1'
_cell_length_a   8.41124700
_cell_length_b   8.41284968
_cell_length_c   6.31715200
_cell_angle_alpha   90.00031375
_cell_angle_beta   90.00000000
_cell_angle_gamma   119.99368660
_symmetry_Int_Tables_number   1
_chemical_formula_structural   Ho8Er2Si5Ge
_chemical_formula_sum   'Ho8 Er2 Si5 Ge1'
_cell_volume   387.15341934
_cell_formula_units_Z   1
loop_
 _symmetry_equiv_pos_site_id
 _symmetry_equiv_pos_as_xyz
  1  'x, y, z'
loop_
 _atom_site_type_symbol
 _atom_site_label
 _atom_site_symmetry_multiplicity
 _atom_site_fract_x
 _atom_site_fract_y
 _atom_site_fract_z
 _atom_site_occupancy
  Ho  Ho0  1  0.998828  0.756290  0.749992  1
  Ho  Ho1  1  0.999925  0.242797  0.250005  1
  Ho  Ho2  1  0.757129  0.757203  0.249995  1
  Ho  Ho3  1  0.758066  0.000000  0.750000  1
  Ho  Ho4  1  0.242538  0.243710  0.750008  1
  Ho  Ho5  1  0.242473  0.000000  0.250000  1
  Ho  Ho6  1  0.333178  0.665727  0.499312  1
  Ho  Ho7  1  0.667452  0.334273  0.000688  1
  Er  Er8  1  0.667434  0.334264  0.499296  1
  Er  Er9  1  0.333170  0.665736  0.000704  1
  Si  Si10  1  0.394453  0.394384  0.249998  1
  Si  Si11  1  0.000069  0.605616  0.250002  1
  Si  Si12  1  0.999957  0.394450  0.750000  1
  Si  Si13  1  0.605507  0.605550  0.750000  1
  Si  Si14  1  0.605699  0.000000  0.250000  1
  Ge  Ge15  1  0.394122  0.000000  0.750000  1
