# generated using pymatgen
data_ZrNb4(Re7Tc)3
_symmetry_space_group_name_H-M   'P 1'
_cell_length_a   8.42229138
_cell_length_b   8.42440492
_cell_length_c   8.42147000
_cell_angle_alpha   109.50354155
_cell_angle_beta   109.44956494
_cell_angle_gamma   109.46367761
_symmetry_Int_Tables_number   1
_chemical_formula_structural   ZrNb4(Re7Tc)3
_chemical_formula_sum   'Zr1 Nb4 Re21 Tc3'
_cell_volume   459.95855106
_cell_formula_units_Z   1
loop_
 _symmetry_equiv_pos_site_id
 _symmetry_equiv_pos_as_xyz
  1  'x, y, z'
loop_
 _atom_site_type_symbol
 _atom_site_label
 _atom_site_symmetry_multiplicity
 _atom_site_fract_x
 _atom_site_fract_y
 _atom_site_fract_z
 _atom_site_occupancy
  Zr  Zr0  1  0.999852  0.000113  0.999971  1
  Nb  Nb1  1  0.369390  0.369578  0.370131  1
  Nb  Nb2  1  0.000003  0.630110  0.999264  1
  Nb  Nb3  1  0.630578  0.000171  0.000719  1
  Nb  Nb4  1  0.999998  0.000140  0.631005  1
  Re  Re5  1  0.317300  0.717219  0.317541  1
  Re  Re6  1  0.682313  0.001026  0.400060  1
  Re  Re7  1  0.000010  0.682775  0.400476  1
  Re  Re8  1  0.599614  0.599861  0.281818  1
  Re  Re9  1  0.805128  0.805297  0.182782  1
  Re  Re10  1  0.377417  0.194724  0.000150  1
  Re  Re11  1  0.194804  0.377148  0.999799  1
  Re  Re12  1  0.622600  0.817293  0.622758  1
  Re  Re13  1  0.377262  0.000034  0.194553  1
  Re  Re14  1  0.000004  0.377561  0.195513  1
  Re  Re15  1  0.817084  0.621480  0.621088  1
  Re  Re16  1  0.182941  0.804395  0.804014  1
  Re  Re17  1  0.805239  0.182371  0.805027  1
  Re  Re18  1  0.194869  0.000180  0.377686  1
  Re  Re19  1  0.000016  0.195064  0.379183  1
  Re  Re20  1  0.622766  0.622806  0.817338  1
  Re  Re21  1  0.400384  0.000253  0.682237  1
  Re  Re22  1  0.600698  0.282288  0.599799  1
  Re  Re23  1  0.682689  0.399920  0.000259  1
  Re  Re24  1  0.399281  0.681571  0.999089  1
  Re  Re25  1  0.317712  0.318735  0.717758  1
  Tc  Tc26  1  0.000030  0.400534  0.683684  1
  Tc  Tc27  1  0.282964  0.600152  0.599639  1
  Tc  Tc28  1  0.717055  0.317204  0.316662  1
