# generated using pymatgen
data_Cs6K2TiSb4
_symmetry_space_group_name_H-M   'P 1'
_cell_length_a   12.19833526
_cell_length_b   12.19833569
_cell_length_c   12.19833500
_cell_angle_alpha   59.99999915
_cell_angle_beta   59.99999798
_cell_angle_gamma   59.99999512
_symmetry_Int_Tables_number   1
_chemical_formula_structural   Cs6K2TiSb4
_chemical_formula_sum   'Cs12 K4 Ti2 Sb8'
_cell_volume   1283.47282738
_cell_formula_units_Z   2
loop_
 _symmetry_equiv_pos_site_id
 _symmetry_equiv_pos_as_xyz
  1  'x, y, z'
loop_
 _atom_site_type_symbol
 _atom_site_label
 _atom_site_symmetry_multiplicity
 _atom_site_fract_x
 _atom_site_fract_y
 _atom_site_fract_z
 _atom_site_occupancy
  Cs  Cs0  1  0.026495  0.026495  0.473505  1
  Cs  Cs1  1  0.776495  0.223505  0.223505  1
  Cs  Cs2  1  0.223505  0.776495  0.776495  1
  Cs  Cs3  1  0.776495  0.776495  0.223505  1
  Cs  Cs4  1  0.776495  0.223505  0.776495  1
  Cs  Cs5  1  0.223505  0.776495  0.223505  1
  Cs  Cs6  1  0.473505  0.026495  0.473505  1
  Cs  Cs7  1  0.473505  0.026495  0.026495  1
  Cs  Cs8  1  0.026495  0.473505  0.473505  1
  Cs  Cs9  1  0.026495  0.473505  0.026495  1
  Cs  Cs10  1  0.223505  0.223505  0.776495  1
  Cs  Cs11  1  0.473505  0.473505  0.026495  1
  K  K12  1  0.625000  0.125000  0.625000  1
  K  K13  1  0.625000  0.625000  0.125000  1
  K  K14  1  0.125000  0.625000  0.625000  1
  K  K15  1  0.625000  0.625000  0.625000  1
  Ti  Ti16  1  0.750000  0.750000  0.750000  1
  Ti  Ti17  1  0.500000  0.500000  0.500000  1
  Sb  Sb18  1  0.407096  0.778713  0.407096  1
  Sb  Sb19  1  0.842904  0.842904  0.471287  1
  Sb  Sb20  1  0.471287  0.842904  0.842904  1
  Sb  Sb21  1  0.842904  0.842904  0.842904  1
  Sb  Sb22  1  0.778713  0.407096  0.407096  1
  Sb  Sb23  1  0.407096  0.407096  0.407096  1
  Sb  Sb24  1  0.407096  0.407096  0.778713  1
  Sb  Sb25  1  0.842904  0.471287  0.842904  1
