# generated using pymatgen
data_Zr8Si14TcRh7
_symmetry_space_group_name_H-M   'P 1'
_cell_length_a   9.73942833
_cell_length_b   9.72212364
_cell_length_c   9.76690467
_cell_angle_alpha   94.35284942
_cell_angle_beta   94.44672121
_cell_angle_gamma   147.77928553
_symmetry_Int_Tables_number   1
_chemical_formula_structural   Zr8Si14TcRh7
_chemical_formula_sum   'Zr8 Si14 Tc1 Rh7'
_cell_volume   473.87247715
_cell_formula_units_Z   1
loop_
 _symmetry_equiv_pos_site_id
 _symmetry_equiv_pos_as_xyz
  1  'x, y, z'
loop_
 _atom_site_type_symbol
 _atom_site_label
 _atom_site_symmetry_multiplicity
 _atom_site_fract_x
 _atom_site_fract_y
 _atom_site_fract_z
 _atom_site_occupancy
  Zr  Zr0  1  0.135464  0.135465  0.270928  1
  Zr  Zr1  1  0.864251  0.864251  0.728501  1
  Zr  Zr2  1  0.863856  0.137082  0.000265  1
  Zr  Zr3  1  0.136408  0.863182  0.000265  1
  Zr  Zr4  1  0.500899  0.306570  0.806759  1
  Zr  Zr5  1  0.500215  0.691877  0.192441  1
  Zr  Zr6  1  0.692226  0.500564  0.192441  1
  Zr  Zr7  1  0.305859  0.500188  0.806759  1
  Si  Si8  1  0.499567  0.084910  0.589370  1
  Si  Si9  1  0.506362  0.916537  0.409202  1
  Si  Si10  1  0.902839  0.492664  0.409201  1
  Si  Si11  1  0.089803  0.504460  0.589369  1
  Si  Si12  1  0.749693  0.750343  0.999710  1
  Si  Si13  1  0.250017  0.249368  0.999710  1
  Si  Si14  1  0.294364  0.294363  0.588727  1
  Si  Si15  1  0.706250  0.706250  0.412498  1
  Si  Si16  1  0.706834  0.294498  0.000017  1
  Si  Si17  1  0.293182  0.705519  0.000017  1
  Si  Si18  1  0.999404  0.290784  0.292018  1
  Si  Si19  1  0.001781  0.709793  0.708298  1
  Si  Si20  1  0.706517  0.998505  0.708299  1
  Si  Si21  1  0.292615  0.001235  0.292018  1
  Tc  Tc22  1  0.397500  0.897500  0.795001  1
  Rh  Rh23  1  0.103244  0.603244  0.206485  1
  Rh  Rh24  1  0.099766  0.896148  0.499052  1
  Rh  Rh25  1  0.399288  0.602905  0.499054  1
  Rh  Rh26  1  0.601745  0.395873  0.501462  1
  Rh  Rh27  1  0.899716  0.105588  0.501461  1
  Rh  Rh28  1  0.898989  0.398988  0.797977  1
  Rh  Rh29  1  0.601348  0.101349  0.202697  1
