# generated using pymatgen
data_Y12InNi5
_symmetry_space_group_name_H-M   'P 1'
_cell_length_a   8.36724319
_cell_length_b   8.36761354
_cell_length_c   8.36724177
_cell_angle_alpha   107.17984071
_cell_angle_beta   109.77333642
_cell_angle_gamma   111.48752317
_symmetry_Int_Tables_number   1
_chemical_formula_structural   Y12InNi5
_chemical_formula_sum   'Y12 In1 Ni5'
_cell_volume   450.33342485
_cell_formula_units_Z   1
loop_
 _symmetry_equiv_pos_site_id
 _symmetry_equiv_pos_as_xyz
  1  'x, y, z'
loop_
 _atom_site_type_symbol
 _atom_site_label
 _atom_site_symmetry_multiplicity
 _atom_site_fract_x
 _atom_site_fract_y
 _atom_site_fract_z
 _atom_site_occupancy
  Y  Y0  1  0.478815  0.295852  0.182969  1
  Y  Y1  1  0.112882  0.295852  0.817036  1
  Y  Y2  1  0.887118  0.704148  0.182964  1
  Y  Y3  1  0.521185  0.704148  0.817031  1
  Y  Y4  1  0.304702  0.627141  0.322439  1
  Y  Y5  1  0.304731  0.982325  0.677593  1
  Y  Y6  1  0.695298  0.372859  0.677561  1
  Y  Y7  1  0.695269  0.017675  0.322407  1
  Y  Y8  1  0.190116  0.211953  0.402071  1
  Y  Y9  1  0.809884  0.788047  0.597929  1
  Y  Y10  1  0.190118  0.788047  0.978162  1
  Y  Y11  1  0.809882  0.211953  0.021838  1
  In  In12  1  0.000000  0.500000  0.500000  1
  Ni  Ni13  1  0.500004  0.623482  0.123478  1
  Ni  Ni14  1  0.499996  0.376518  0.876522  1
  Ni  Ni15  1  0.366146  0.000000  0.366146  1
  Ni  Ni16  1  0.633854  0.000000  0.633854  1
  Ni  Ni17  1  0.000000  0.000000  0.000000  1
