# generated using pymatgen
data_NaEuVF6
_symmetry_space_group_name_H-M   'P 1'
_cell_length_a   5.44020100
_cell_length_b   9.58374900
_cell_length_c   10.62525300
_cell_angle_alpha   90.00000000
_cell_angle_beta   90.00000000
_cell_angle_gamma   90.00000000
_symmetry_Int_Tables_number   1
_chemical_formula_structural   NaEuVF6
_chemical_formula_sum   'Na4 Eu4 V4 F24'
_cell_volume   553.97435029
_cell_formula_units_Z   4
loop_
 _symmetry_equiv_pos_site_id
 _symmetry_equiv_pos_as_xyz
  1  'x, y, z'
loop_
 _atom_site_type_symbol
 _atom_site_label
 _atom_site_symmetry_multiplicity
 _atom_site_fract_x
 _atom_site_fract_y
 _atom_site_fract_z
 _atom_site_occupancy
  Na  Na0  1  0.040123  0.650148  0.085163  1
  Na  Na1  1  0.459877  0.349852  0.585162  1
  Na  Na2  1  0.959877  0.150148  0.414838  1
  Na  Na3  1  0.540123  0.849852  0.914838  1
  Eu  Eu4  1  0.511153  0.318732  0.173810  1
  Eu  Eu5  1  0.988847  0.681268  0.673810  1
  Eu  Eu6  1  0.488847  0.818732  0.326190  1
  Eu  Eu7  1  0.011153  0.181268  0.826190  1
  V  V8  1  0.034332  0.002274  0.126983  1
  V  V9  1  0.465668  0.997726  0.626983  1
  V  V10  1  0.965668  0.502274  0.373017  1
  V  V11  1  0.534332  0.497726  0.873017  1
  F  F12  1  0.210781  0.146390  0.590387  1
  F  F13  1  0.289219  0.853610  0.090387  1
  F  F14  1  0.789219  0.646390  0.909613  1
  F  F15  1  0.710781  0.353610  0.409613  1
  F  F16  1  0.216710  0.630840  0.297461  1
  F  F17  1  0.283290  0.369160  0.797461  1
  F  F18  1  0.783290  0.130840  0.202539  1
  F  F19  1  0.716710  0.869160  0.702539  1
  F  F20  1  0.227740  0.165278  0.050330  1
  F  F21  1  0.272260  0.834722  0.550330  1
  F  F22  1  0.772260  0.665278  0.449670  1
  F  F23  1  0.727740  0.334722  0.949670  1
  F  F24  1  0.175455  0.339769  0.312759  1
  F  F25  1  0.324545  0.660231  0.812759  1
  F  F26  1  0.824545  0.839769  0.187241  1
  F  F27  1  0.675455  0.160231  0.687241  1
  F  F28  1  0.355906  0.499517  0.037921  1
  F  F29  1  0.144094  0.500483  0.537921  1
  F  F30  1  0.644094  0.999517  0.462079  1
  F  F31  1  0.855906  0.000483  0.962079  1
  F  F32  1  0.215939  0.013709  0.292011  1
  F  F33  1  0.284061  0.986291  0.792011  1
  F  F34  1  0.784061  0.513709  0.207989  1
  F  F35  1  0.715939  0.486291  0.707989  1
