# generated using pymatgen
data_Y4ScSi3
_symmetry_space_group_name_H-M   'P 1'
_cell_length_a   8.35945300
_cell_length_b   8.35945304
_cell_length_c   6.22925800
_cell_angle_alpha   90.00000000
_cell_angle_beta   90.00000000
_cell_angle_gamma   119.99999587
_symmetry_Int_Tables_number   1
_chemical_formula_structural   Y4ScSi3
_chemical_formula_sum   'Y8 Sc2 Si6'
_cell_volume   376.98380314
_cell_formula_units_Z   2
loop_
 _symmetry_equiv_pos_site_id
 _symmetry_equiv_pos_as_xyz
  1  'x, y, z'
loop_
 _atom_site_type_symbol
 _atom_site_label
 _atom_site_symmetry_multiplicity
 _atom_site_fract_x
 _atom_site_fract_y
 _atom_site_fract_z
 _atom_site_occupancy
  Y  Y0  1  0.666667  0.333333  0.000000  1
  Y  Y1  1  0.333333  0.666667  0.000000  1
  Y  Y2  1  0.000000  0.755055  0.254753  1
  Y  Y3  1  0.244945  0.244945  0.254753  1
  Y  Y4  1  0.755055  0.000000  0.254753  1
  Y  Y5  1  0.000000  0.244945  0.745247  1
  Y  Y6  1  0.755055  0.755055  0.745247  1
  Y  Y7  1  0.244945  0.000000  0.745247  1
  Sc  Sc8  1  0.333333  0.666667  0.500000  1
  Sc  Sc9  1  0.666667  0.333333  0.500000  1
  Si  Si10  1  0.000000  0.397509  0.269981  1
  Si  Si11  1  0.602491  0.602491  0.269981  1
  Si  Si12  1  0.397509  0.000000  0.269981  1
  Si  Si13  1  0.000000  0.602491  0.730019  1
  Si  Si14  1  0.397509  0.397509  0.730019  1
  Si  Si15  1  0.602491  0.000000  0.730019  1
