# generated using pymatgen
data_Nb10GeB4P
_symmetry_space_group_name_H-M   'P 1'
_cell_length_a   7.32088417
_cell_length_b   7.32088441
_cell_length_c   7.32088400
_cell_angle_alpha   129.27299826
_cell_angle_beta   129.27299724
_cell_angle_gamma   74.57169476
_symmetry_Int_Tables_number   1
_chemical_formula_structural   Nb10GeB4P
_chemical_formula_sum   'Nb10 Ge1 B4 P1'
_cell_volume   229.12633878
_cell_formula_units_Z   1
loop_
 _symmetry_equiv_pos_site_id
 _symmetry_equiv_pos_as_xyz
  1  'x, y, z'
loop_
 _atom_site_type_symbol
 _atom_site_label
 _atom_site_symmetry_multiplicity
 _atom_site_fract_x
 _atom_site_fract_y
 _atom_site_fract_z
 _atom_site_occupancy
  Nb  Nb0  1  0.526075  0.690526  0.492777  1
  Nb  Nb1  1  0.033298  0.526075  0.835549  1
  Nb  Nb2  1  0.690526  0.197750  0.164451  1
  Nb  Nb3  1  0.973926  0.466702  0.164452  1
  Nb  Nb4  1  0.197750  0.033298  0.507223  1
  Nb  Nb5  1  0.466702  0.302249  0.492776  1
  Nb  Nb6  1  0.809474  0.973926  0.507224  1
  Nb  Nb7  1  0.302249  0.809474  0.835548  1
  Nb  Nb8  1  0.998973  0.998973  0.000000  1
  Nb  Nb9  1  0.501027  0.501027  0.000000  1
  Ge  Ge10  1  0.750001  0.750001  0.000000  1
  B  B11  1  0.613703  0.113703  0.727407  1
  B  B12  1  0.113703  0.386295  0.500000  1
  B  B13  1  0.886296  0.613703  0.500000  1
  B  B14  1  0.386295  0.886296  0.272593  1
  P  P15  1  0.250002  0.250002  0.000000  1
