# generated using pymatgen
data_DyHo3CoSi12Ni19
_symmetry_space_group_name_H-M   'P 1'
_cell_length_a   3.79326800
_cell_length_b   6.58808418
_cell_length_c   18.74357090
_cell_angle_alpha   90.14863444
_cell_angle_beta   90.00000000
_cell_angle_gamma   90.00000000
_symmetry_Int_Tables_number   1
_chemical_formula_structural   DyHo3CoSi12Ni19
_chemical_formula_sum   'Dy1 Ho3 Co1 Si12 Ni19'
_cell_volume   468.40717549
_cell_formula_units_Z   1
loop_
 _symmetry_equiv_pos_site_id
 _symmetry_equiv_pos_as_xyz
  1  'x, y, z'
loop_
 _atom_site_type_symbol
 _atom_site_label
 _atom_site_symmetry_multiplicity
 _atom_site_fract_x
 _atom_site_fract_y
 _atom_site_fract_z
 _atom_site_occupancy
  Dy  Dy0  1  0.250000  0.624115  0.856145  1
  Ho  Ho1  1  0.250000  0.875179  0.356184  1
  Ho  Ho2  1  0.750000  0.124248  0.643973  1
  Ho  Ho3  1  0.750000  0.375881  0.144181  1
  Co  Co4  1  0.250000  0.064699  0.205415  1
  Si  Si5  1  0.250000  0.081196  0.086564  1
  Si  Si6  1  0.750000  0.921245  0.913722  1
  Si  Si7  1  0.750000  0.578595  0.413909  1
  Si  Si8  1  0.250000  0.420651  0.586446  1
  Si  Si9  1  0.250000  0.657008  0.074976  1
  Si  Si10  1  0.750000  0.345188  0.925932  1
  Si  Si11  1  0.750000  0.156003  0.425362  1
  Si  Si12  1  0.250000  0.844472  0.574200  1
  Si  Si13  1  0.250000  0.373252  0.261027  1
  Si  Si14  1  0.750000  0.620788  0.737352  1
  Si  Si15  1  0.750000  0.880553  0.237760  1
  Si  Si16  1  0.250000  0.120949  0.762474  1
  Ni  Ni17  1  0.750000  0.929473  0.793151  1
  Ni  Ni18  1  0.750000  0.569512  0.293597  1
  Ni  Ni19  1  0.250000  0.429465  0.707084  1
  Ni  Ni20  1  0.250000  0.614600  0.483941  1
  Ni  Ni21  1  0.750000  0.384960  0.515883  1
  Ni  Ni22  1  0.750000  0.115864  0.015714  1
  Ni  Ni23  1  0.250000  0.886028  0.984449  1
  Ni  Ni24  1  0.250000  0.682916  0.199929  1
  Ni  Ni25  1  0.750000  0.314618  0.800830  1
  Ni  Ni26  1  0.750000  0.184537  0.300178  1
  Ni  Ni27  1  0.250000  0.815483  0.699010  1
  Ni  Ni28  1  0.250000  0.355009  0.383371  1
  Ni  Ni29  1  0.750000  0.645833  0.615403  1
  Ni  Ni30  1  0.750000  0.859759  0.116815  1
  Ni  Ni31  1  0.250000  0.145238  0.884505  1
  Ni  Ni32  1  0.250000  0.366618  0.005626  1
  Ni  Ni33  1  0.750000  0.635642  0.995417  1
  Ni  Ni34  1  0.750000  0.866120  0.494501  1
  Ni  Ni35  1  0.250000  0.134301  0.504975  1
