# generated using pymatgen
data_Ho8Ti7Nb4Si16Ru
_symmetry_space_group_name_H-M   'P 1'
_cell_length_a   7.01875345
_cell_length_b   7.02218430
_cell_length_c   12.89776311
_cell_angle_alpha   90.10470845
_cell_angle_beta   89.90516220
_cell_angle_gamma   89.75539954
_symmetry_Int_Tables_number   1
_chemical_formula_structural   Ho8Ti7Nb4Si16Ru
_chemical_formula_sum   'Ho8 Ti7 Nb4 Si16 Ru1'
_cell_volume   635.68406284
_cell_formula_units_Z   1
loop_
 _symmetry_equiv_pos_site_id
 _symmetry_equiv_pos_as_xyz
  1  'x, y, z'
loop_
 _atom_site_type_symbol
 _atom_site_label
 _atom_site_symmetry_multiplicity
 _atom_site_fract_x
 _atom_site_fract_y
 _atom_site_fract_z
 _atom_site_occupancy
  Ho  Ho0  1  0.341289  0.001846  0.467197  1
  Ho  Ho1  1  0.497238  0.841807  0.718067  1
  Ho  Ho2  1  0.500964  0.159103  0.215982  1
  Ho  Ho3  1  0.842162  0.497849  0.281991  1
  Ho  Ho4  1  0.158798  0.501158  0.784318  1
  Ho  Ho5  1  0.656393  0.999251  0.968305  1
  Ho  Ho6  1  0.002068  0.341290  0.532200  1
  Ho  Ho7  1  0.998726  0.658621  0.031780  1
  Ti  Ti8  1  0.492521  0.657527  0.125207  1
  Ti  Ti9  1  0.508041  0.348831  0.627822  1
  Ti  Ti10  1  0.657209  0.490866  0.874750  1
  Ti  Ti11  1  0.348556  0.508727  0.372517  1
  Ti  Ti12  1  0.848102  0.992263  0.374704  1
  Ti  Ti13  1  0.004502  0.147810  0.125491  1
  Ti  Ti14  1  0.991931  0.847793  0.625744  1
  Nb  Nb15  1  0.173597  0.827992  0.247818  1
  Nb  Nb16  1  0.827302  0.173427  0.751960  1
  Nb  Nb17  1  0.673902  0.673410  0.499730  1
  Nb  Nb18  1  0.148688  0.002057  0.874177  1
  Si  Si19  1  0.205464  0.133121  0.682716  1
  Si  Si20  1  0.373158  0.698730  0.933574  1
  Si  Si21  1  0.630954  0.295894  0.434171  1
  Si  Si22  1  0.698947  0.371755  0.066526  1
  Si  Si23  1  0.296102  0.631315  0.565633  1
  Si  Si24  1  0.796107  0.867939  0.183787  1
  Si  Si25  1  0.132000  0.203962  0.315680  1
  Si  Si26  1  0.864479  0.793741  0.816868  1
  Si  Si27  1  0.290431  0.954365  0.062798  1
  Si  Si28  1  0.547949  0.793221  0.314415  1
  Si  Si29  1  0.448481  0.210578  0.817719  1
  Si  Si30  1  0.793403  0.547626  0.684980  1
  Si  Si31  1  0.209962  0.449026  0.182071  1
  Si  Si32  1  0.708066  0.048256  0.563985  1
  Si  Si33  1  0.954556  0.290360  0.938071  1
  Si  Si34  1  0.048207  0.707925  0.435733  1
  Ru  Ru35  1  0.329745  0.330557  0.001514  1
