# generated using pymatgen
data_Hf4Pt2O
_symmetry_space_group_name_H-M   'P 1'
_cell_length_a   8.79792874
_cell_length_b   8.79792898
_cell_length_c   8.79792900
_cell_angle_alpha   60.00000370
_cell_angle_beta   60.00000277
_cell_angle_gamma   59.99999843
_symmetry_Int_Tables_number   1
_chemical_formula_structural   Hf4Pt2O
_chemical_formula_sum   'Hf16 Pt8 O4'
_cell_volume   481.53334140
_cell_formula_units_Z   4
loop_
 _symmetry_equiv_pos_site_id
 _symmetry_equiv_pos_as_xyz
  1  'x, y, z'
loop_
 _atom_site_type_symbol
 _atom_site_label
 _atom_site_symmetry_multiplicity
 _atom_site_fract_x
 _atom_site_fract_y
 _atom_site_fract_z
 _atom_site_occupancy
  Hf  Hf0  1  0.125000  0.625000  0.625000  1
  Hf  Hf1  1  0.625000  0.125000  0.625000  1
  Hf  Hf2  1  0.625000  0.625000  0.125000  1
  Hf  Hf3  1  0.625000  0.625000  0.625000  1
  Hf  Hf4  1  0.812896  0.812896  0.187104  1
  Hf  Hf5  1  0.187104  0.187104  0.812896  1
  Hf  Hf6  1  0.812896  0.187104  0.812896  1
  Hf  Hf7  1  0.187104  0.812896  0.187104  1
  Hf  Hf8  1  0.187104  0.812896  0.812896  1
  Hf  Hf9  1  0.812896  0.187104  0.187104  1
  Hf  Hf10  1  0.437104  0.437104  0.062896  1
  Hf  Hf11  1  0.062896  0.062896  0.437104  1
  Hf  Hf12  1  0.437104  0.062896  0.437104  1
  Hf  Hf13  1  0.062896  0.437104  0.062896  1
  Hf  Hf14  1  0.062896  0.437104  0.437104  1
  Hf  Hf15  1  0.437104  0.062896  0.062896  1
  Pt  Pt16  1  0.788162  0.403946  0.403946  1
  Pt  Pt17  1  0.403946  0.788162  0.403946  1
  Pt  Pt18  1  0.403946  0.403946  0.788162  1
  Pt  Pt19  1  0.403946  0.403946  0.403946  1
  Pt  Pt20  1  0.461838  0.846054  0.846054  1
  Pt  Pt21  1  0.846054  0.461838  0.846054  1
  Pt  Pt22  1  0.846054  0.846054  0.461838  1
  Pt  Pt23  1  0.846054  0.846054  0.846054  1
  O  O24  1  0.625000  0.125000  0.125000  1
  O  O25  1  0.125000  0.625000  0.125000  1
  O  O26  1  0.125000  0.125000  0.625000  1
  O  O27  1  0.125000  0.125000  0.125000  1
