# generated using pymatgen
data_Tm3Mg3SiGeAu
_symmetry_space_group_name_H-M   'P 1'
_cell_length_a   7.18937200
_cell_length_b   7.18937268
_cell_length_c   4.27317000
_cell_angle_alpha   90.00000000
_cell_angle_beta   90.00000000
_cell_angle_gamma   120.00000606
_symmetry_Int_Tables_number   1
_chemical_formula_structural   Tm3Mg3SiGeAu
_chemical_formula_sum   'Tm3 Mg3 Si1 Ge1 Au1'
_cell_volume   191.27699000
_cell_formula_units_Z   1
loop_
 _symmetry_equiv_pos_site_id
 _symmetry_equiv_pos_as_xyz
  1  'x, y, z'
loop_
 _atom_site_type_symbol
 _atom_site_label
 _atom_site_symmetry_multiplicity
 _atom_site_fract_x
 _atom_site_fract_y
 _atom_site_fract_z
 _atom_site_occupancy
  Tm  Tm0  1  0.583593  0.001892  0.000000  1
  Tm  Tm1  1  0.998108  0.581701  0.000000  1
  Tm  Tm2  1  0.418299  0.416407  0.000000  1
  Mg  Mg3  1  0.247279  0.000861  0.500000  1
  Mg  Mg4  1  0.999139  0.246418  0.500000  1
  Mg  Mg5  1  0.753582  0.752721  0.500000  1
  Si  Si6  1  0.666667  0.333333  0.500000  1
  Ge  Ge7  1  0.333333  0.666667  0.500000  1
  Au  Au8  1  0.000000  0.000000  0.000000  1
