# generated using pymatgen
data_Nd2CuRh2
_symmetry_space_group_name_H-M   'P 1'
_cell_length_a   5.55847707
_cell_length_b   5.55847799
_cell_length_c   5.55847818
_cell_angle_alpha   135.24510083
_cell_angle_beta   115.90681528
_cell_angle_gamma   81.54492505
_symmetry_Int_Tables_number   1
_chemical_formula_structural   Nd2CuRh2
_chemical_formula_sum   'Nd2 Cu1 Rh2'
_cell_volume   105.09096056
_cell_formula_units_Z   1
loop_
 _symmetry_equiv_pos_site_id
 _symmetry_equiv_pos_as_xyz
  1  'x, y, z'
loop_
 _atom_site_type_symbol
 _atom_site_label
 _atom_site_symmetry_multiplicity
 _atom_site_fract_x
 _atom_site_fract_y
 _atom_site_fract_z
 _atom_site_occupancy
  Nd  Nd0  1  0.702749  0.202749  0.500000  1
  Nd  Nd1  1  0.297251  0.797252  0.500001  1
  Cu  Cu2  1  0.000000  0.000000  0.000000  1
  Rh  Rh3  1  0.739385  0.500000  0.239384  1
  Rh  Rh4  1  0.260615  0.500001  0.760616  1
