# generated using pymatgen
data_Gd2TmSe3
_symmetry_space_group_name_H-M   'P 1'
_cell_length_a   7.12043909
_cell_length_b   7.12043940
_cell_length_c   7.12043999
_cell_angle_alpha   146.20771391
_cell_angle_beta   131.59116568
_cell_angle_gamma   60.33880474
_symmetry_Int_Tables_number   1
_chemical_formula_structural   Gd2TmSe3
_chemical_formula_sum   'Gd2 Tm1 Se3'
_cell_volume   148.76337807
_cell_formula_units_Z   1
loop_
 _symmetry_equiv_pos_site_id
 _symmetry_equiv_pos_as_xyz
  1  'x, y, z'
loop_
 _atom_site_type_symbol
 _atom_site_label
 _atom_site_symmetry_multiplicity
 _atom_site_fract_x
 _atom_site_fract_y
 _atom_site_fract_z
 _atom_site_occupancy
  Gd  Gd0  1  0.666665  0.666665  0.000000  1
  Gd  Gd1  1  0.333335  0.333335  0.000000  1
  Tm  Tm2  1  0.000000  0.000000  0.000000  1
  Se  Se3  1  0.838008  0.338008  0.500000  1
  Se  Se4  1  0.500000  0.000000  0.500000  1
  Se  Se5  1  0.161992  0.661992  0.500000  1
