# generated using pymatgen
data_Er9LuIn8IrPt3
_symmetry_space_group_name_H-M   'P 1'
_cell_length_a   3.59609500
_cell_length_b   8.10326838
_cell_length_c   18.14152614
_cell_angle_alpha   89.98971755
_cell_angle_beta   90.00000000
_cell_angle_gamma   90.00000000
_symmetry_Int_Tables_number   1
_chemical_formula_structural   Er9LuIn8IrPt3
_chemical_formula_sum   'Er9 Lu1 In8 Ir1 Pt3'
_cell_volume   528.64629296
_cell_formula_units_Z   1
loop_
 _symmetry_equiv_pos_site_id
 _symmetry_equiv_pos_as_xyz
  1  'x, y, z'
loop_
 _atom_site_type_symbol
 _atom_site_label
 _atom_site_symmetry_multiplicity
 _atom_site_fract_x
 _atom_site_fract_y
 _atom_site_fract_z
 _atom_site_occupancy
  Er  Er0  1  0.000000  0.882907  0.585060  1
  Er  Er1  1  0.000000  0.383350  0.914841  1
  Er  Er2  1  0.000000  0.616918  0.085981  1
  Er  Er3  1  0.000000  0.236843  0.222292  1
  Er  Er4  1  0.000000  0.757687  0.779593  1
  Er  Er5  1  0.000000  0.257283  0.720781  1
  Er  Er6  1  0.000000  0.751014  0.279869  1
  Er  Er7  1  0.000000  0.999761  0.000185  1
  Er  Er8  1  0.000000  0.500334  0.499577  1
  Lu  Lu9  1  0.000000  0.114394  0.411540  1
  In  In10  1  0.500000  0.422080  0.351304  1
  In  In11  1  0.500000  0.576655  0.648737  1
  In  In12  1  0.500000  0.076639  0.851500  1
  In  In13  1  0.500000  0.925772  0.149444  1
  In  In14  1  0.500000  0.291954  0.066227  1
  In  In15  1  0.500000  0.707908  0.933601  1
  In  In16  1  0.500000  0.208060  0.566274  1
  In  In17  1  0.500000  0.793892  0.432211  1
  Ir  Ir18  1  0.500000  0.022696  0.304512  1
  Pt  Pt19  1  0.500000  0.975282  0.696526  1
  Pt  Pt20  1  0.500000  0.475354  0.803402  1
  Pt  Pt21  1  0.500000  0.523217  0.196544  1
