# generated using pymatgen
data_TbEr2ZnCd3Ga2
_symmetry_space_group_name_H-M   'P 1'
_cell_length_a   7.27236373
_cell_length_b   7.27236440
_cell_length_c   4.35909800
_cell_angle_alpha   90.00000000
_cell_angle_beta   90.00000000
_cell_angle_gamma   120.19686214
_symmetry_Int_Tables_number   1
_chemical_formula_structural   TbEr2ZnCd3Ga2
_chemical_formula_sum   'Tb1 Er2 Zn1 Cd3 Ga2'
_cell_volume   199.25698322
_cell_formula_units_Z   1
loop_
 _symmetry_equiv_pos_site_id
 _symmetry_equiv_pos_as_xyz
  1  'x, y, z'
loop_
 _atom_site_type_symbol
 _atom_site_label
 _atom_site_symmetry_multiplicity
 _atom_site_fract_x
 _atom_site_fract_y
 _atom_site_fract_z
 _atom_site_occupancy
  Tb  Tb0  1  0.422999  0.422999  0.500000  1
  Er  Er1  1  0.577328  0.000219  0.500000  1
  Er  Er2  1  0.000219  0.577328  0.500000  1
  Zn  Zn3  1  0.998781  0.998781  0.500000  1
  Cd  Cd4  1  0.755000  0.755000  0.000000  1
  Cd  Cd5  1  0.245453  0.999313  0.000000  1
  Cd  Cd6  1  0.999313  0.245453  0.000000  1
  Ga  Ga7  1  0.668069  0.332839  0.000000  1
  Ga  Ga8  1  0.332839  0.668069  0.000000  1
