# generated using pymatgen
data_Ba2Sn3SbPt4
_symmetry_space_group_name_H-M   'P 1'
_cell_length_a   4.85197073
_cell_length_b   4.77741400
_cell_length_c   10.76574211
_cell_angle_alpha   90.00000000
_cell_angle_beta   91.53777484
_cell_angle_gamma   90.00000000
_symmetry_Int_Tables_number   1
_chemical_formula_structural   Ba2Sn3SbPt4
_chemical_formula_sum   'Ba2 Sn3 Sb1 Pt4'
_cell_volume   249.45865868
_cell_formula_units_Z   1
loop_
 _symmetry_equiv_pos_site_id
 _symmetry_equiv_pos_as_xyz
  1  'x, y, z'
loop_
 _atom_site_type_symbol
 _atom_site_label
 _atom_site_symmetry_multiplicity
 _atom_site_fract_x
 _atom_site_fract_y
 _atom_site_fract_z
 _atom_site_occupancy
  Ba  Ba0  1  0.737603  0.750000  0.246389  1
  Ba  Ba1  1  0.265011  0.250001  0.752760  1
  Sn  Sn2  1  0.748488  0.250001  0.499696  1
  Sn  Sn3  1  0.252963  0.750000  0.500520  1
  Sn  Sn4  1  0.794333  0.750000  0.882020  1
  Sb  Sb5  1  0.200764  0.250001  0.114759  1
  Pt  Pt6  1  0.309275  0.750000  0.007288  1
  Pt  Pt7  1  0.239933  0.250001  0.371311  1
  Pt  Pt8  1  0.761273  0.750000  0.626739  1
  Pt  Pt9  1  0.690356  0.250001  0.998519  1
