# generated using pymatgen
data_Pr2BeIrCl
_symmetry_space_group_name_H-M   'P 1'
_cell_length_a   4.01818700
_cell_length_b   4.01818723
_cell_length_c   16.84020600
_cell_angle_alpha   90.00000000
_cell_angle_beta   90.00000000
_cell_angle_gamma   120.00000631
_symmetry_Int_Tables_number   1
_chemical_formula_structural   Pr2BeIrCl
_chemical_formula_sum   'Pr4 Be2 Ir2 Cl2'
_cell_volume   235.47148223
_cell_formula_units_Z   2
loop_
 _symmetry_equiv_pos_site_id
 _symmetry_equiv_pos_as_xyz
  1  'x, y, z'
loop_
 _atom_site_type_symbol
 _atom_site_label
 _atom_site_symmetry_multiplicity
 _atom_site_fract_x
 _atom_site_fract_y
 _atom_site_fract_z
 _atom_site_occupancy
  Pr  Pr0  1  0.000000  0.000000  0.615590  1
  Pr  Pr1  1  0.000000  0.000000  0.385504  1
  Pr  Pr2  1  0.000000  0.000000  0.115590  1
  Pr  Pr3  1  0.000000  0.000000  0.885504  1
  Be  Be4  1  0.666667  0.333333  0.500232  1
  Be  Be5  1  0.333333  0.666667  0.000232  1
  Ir  Ir6  1  0.666667  0.333333  0.999167  1
  Ir  Ir7  1  0.333333  0.666667  0.499167  1
  Cl  Cl8  1  0.666667  0.333333  0.249507  1
  Cl  Cl9  1  0.333333  0.666667  0.749507  1
