# generated using pymatgen
data_Bi2PdO6
_symmetry_space_group_name_H-M   'P 1'
_cell_length_a   9.21625200
_cell_length_b   9.21625169
_cell_length_c   5.18829000
_cell_angle_alpha   90.00000000
_cell_angle_beta   90.00000000
_cell_angle_gamma   120.00000112
_symmetry_Int_Tables_number   1
_chemical_formula_structural   Bi2PdO6
_chemical_formula_sum   'Bi6 Pd3 O18'
_cell_volume   381.64848037
_cell_formula_units_Z   3
loop_
 _symmetry_equiv_pos_site_id
 _symmetry_equiv_pos_as_xyz
  1  'x, y, z'
loop_
 _atom_site_type_symbol
 _atom_site_label
 _atom_site_symmetry_multiplicity
 _atom_site_fract_x
 _atom_site_fract_y
 _atom_site_fract_z
 _atom_site_occupancy
  Bi  Bi0  1  0.000000  0.373750  0.500000  1
  Bi  Bi1  1  0.294908  0.294908  0.000000  1
  Bi  Bi2  1  0.000000  0.705092  0.000000  1
  Bi  Bi3  1  0.626250  0.626250  0.500000  1
  Bi  Bi4  1  0.373750  0.000000  0.500000  1
  Bi  Bi5  1  0.705092  0.000000  0.000000  1
  Pd  Pd6  1  0.000000  0.000000  0.500000  1
  Pd  Pd7  1  0.333333  0.666667  0.001647  1
  Pd  Pd8  1  0.666667  0.333333  0.998353  1
  O  O9  1  0.087987  0.205268  0.723647  1
  O  O10  1  0.225864  0.454003  0.218320  1
  O  O11  1  0.129095  0.594912  0.783451  1
  O  O12  1  0.405088  0.534184  0.783451  1
  O  O13  1  0.228139  0.774136  0.218320  1
  O  O14  1  0.117281  0.912013  0.723647  1
  O  O15  1  0.545997  0.771861  0.218320  1
  O  O16  1  0.205268  0.087987  0.276353  1
  O  O17  1  0.465816  0.870905  0.783451  1
  O  O18  1  0.794732  0.882719  0.723647  1
  O  O19  1  0.454003  0.225864  0.781680  1
  O  O20  1  0.594912  0.129095  0.216549  1
  O  O21  1  0.534184  0.405088  0.216549  1
  O  O22  1  0.774136  0.228139  0.781680  1
  O  O23  1  0.912013  0.117281  0.276353  1
  O  O24  1  0.771861  0.545997  0.781680  1
  O  O25  1  0.870905  0.465816  0.216549  1
  O  O26  1  0.882719  0.794732  0.276353  1
