# generated using pymatgen
data_K8Sc6BBr20
_symmetry_space_group_name_H-M   'P 1'
_cell_length_a   11.69858046
_cell_length_b   11.69858030
_cell_length_c   11.69858100
_cell_angle_alpha   60.00000086
_cell_angle_beta   60.00000130
_cell_angle_gamma   60.00000206
_symmetry_Int_Tables_number   1
_chemical_formula_structural   K8Sc6BBr20
_chemical_formula_sum   'K8 Sc6 B1 Br20'
_cell_volume   1132.09931983
_cell_formula_units_Z   1
loop_
 _symmetry_equiv_pos_site_id
 _symmetry_equiv_pos_as_xyz
  1  'x, y, z'
loop_
 _atom_site_type_symbol
 _atom_site_label
 _atom_site_symmetry_multiplicity
 _atom_site_fract_x
 _atom_site_fract_y
 _atom_site_fract_z
 _atom_site_occupancy
  K  K0  1  0.079772  0.640076  0.640076  1
  K  K1  1  0.640076  0.079772  0.640076  1
  K  K2  1  0.640076  0.640076  0.079772  1
  K  K3  1  0.640076  0.640076  0.640076  1
  K  K4  1  0.359924  0.920228  0.359924  1
  K  K5  1  0.920228  0.359924  0.359924  1
  K  K6  1  0.359924  0.359924  0.920228  1
  K  K7  1  0.359924  0.359924  0.359924  1
  Sc  Sc8  1  0.851376  0.851376  0.148624  1
  Sc  Sc9  1  0.851376  0.148624  0.851376  1
  Sc  Sc10  1  0.148624  0.148624  0.851376  1
  Sc  Sc11  1  0.148624  0.851376  0.148624  1
  Sc  Sc12  1  0.148624  0.851376  0.851376  1
  Sc  Sc13  1  0.851376  0.148624  0.148624  1
  B  B14  1  0.000000  0.000000  0.000000  1
  Br  Br15  1  0.672917  0.327083  0.000000  1
  Br  Br16  1  0.000000  0.672917  0.000000  1
  Br  Br17  1  0.000000  0.000000  0.672917  1
  Br  Br18  1  0.672917  0.000000  0.327083  1
  Br  Br19  1  0.327083  0.672917  0.000000  1
  Br  Br20  1  0.327083  0.000000  0.672917  1
  Br  Br21  1  0.000000  0.000000  0.327083  1
  Br  Br22  1  0.000000  0.327083  0.000000  1
  Br  Br23  1  0.000000  0.672917  0.327083  1
  Br  Br24  1  0.672917  0.000000  0.000000  1
  Br  Br25  1  0.000000  0.327083  0.672917  1
  Br  Br26  1  0.327083  0.000000  0.000000  1
  Br  Br27  1  0.682292  0.682292  0.317708  1
  Br  Br28  1  0.682292  0.317708  0.682292  1
  Br  Br29  1  0.317708  0.317708  0.682292  1
  Br  Br30  1  0.317708  0.682292  0.317708  1
  Br  Br31  1  0.317708  0.682292  0.682292  1
  Br  Br32  1  0.682292  0.317708  0.317708  1
  Br  Br33  1  0.750000  0.750000  0.750000  1
  Br  Br34  1  0.250000  0.250000  0.250000  1
