# generated using pymatgen
data_Ba3CaSnO6
_symmetry_space_group_name_H-M   'P 1'
_cell_length_a   7.28570341
_cell_length_b   7.28570295
_cell_length_c   7.28570298
_cell_angle_alpha   92.63714116
_cell_angle_beta   92.63713616
_cell_angle_gamma   92.63713024
_symmetry_Int_Tables_number   1
_chemical_formula_structural   Ba3CaSnO6
_chemical_formula_sum   'Ba6 Ca2 Sn2 O12'
_cell_volume   385.46802552
_cell_formula_units_Z   2
loop_
 _symmetry_equiv_pos_site_id
 _symmetry_equiv_pos_as_xyz
  1  'x, y, z'
loop_
 _atom_site_type_symbol
 _atom_site_label
 _atom_site_symmetry_multiplicity
 _atom_site_fract_x
 _atom_site_fract_y
 _atom_site_fract_z
 _atom_site_occupancy
  Ba  Ba0  1  0.892819  0.250000  0.607181  1
  Ba  Ba1  1  0.392819  0.107181  0.750000  1
  Ba  Ba2  1  0.750000  0.392819  0.107181  1
  Ba  Ba3  1  0.250000  0.607181  0.892819  1
  Ba  Ba4  1  0.607181  0.892819  0.250000  1
  Ba  Ba5  1  0.107181  0.750000  0.392819  1
  Ca  Ca6  1  0.750000  0.750000  0.750000  1
  Ca  Ca7  1  0.250000  0.250000  0.250000  1
  Sn  Sn8  1  0.500000  0.500000  0.500000  1
  Sn  Sn9  1  0.000000  0.000000  0.000000  1
  O  O10  1  0.912721  0.721132  0.041588  1
  O  O11  1  0.458412  0.778868  0.587279  1
  O  O12  1  0.041588  0.912721  0.721132  1
  O  O13  1  0.278868  0.958412  0.087279  1
  O  O14  1  0.958412  0.087279  0.278868  1
  O  O15  1  0.721132  0.041588  0.912721  1
  O  O16  1  0.587279  0.458412  0.778868  1
  O  O17  1  0.778868  0.587279  0.458412  1
  O  O18  1  0.412721  0.541588  0.221132  1
  O  O19  1  0.221132  0.412721  0.541588  1
  O  O20  1  0.541588  0.221132  0.412721  1
  O  O21  1  0.087279  0.278868  0.958412  1
