# generated using pymatgen
data_Na2Ni9P6W
_symmetry_space_group_name_H-M   'P 1'
_cell_length_a   3.63870100
_cell_length_b   10.46943600
_cell_length_c   11.94513300
_cell_angle_alpha   90.00000000
_cell_angle_beta   90.00000000
_cell_angle_gamma   90.00000000
_symmetry_Int_Tables_number   1
_chemical_formula_structural   Na2Ni9P6W
_chemical_formula_sum   'Na4 Ni18 P12 W2'
_cell_volume   455.05160047
_cell_formula_units_Z   2
loop_
 _symmetry_equiv_pos_site_id
 _symmetry_equiv_pos_as_xyz
  1  'x, y, z'
loop_
 _atom_site_type_symbol
 _atom_site_label
 _atom_site_symmetry_multiplicity
 _atom_site_fract_x
 _atom_site_fract_y
 _atom_site_fract_z
 _atom_site_occupancy
  Na  Na0  1  0.250000  0.580641  0.704595  1
  Na  Na1  1  0.250000  0.919359  0.204595  1
  Na  Na2  1  0.750000  0.415059  0.294263  1
  Na  Na3  1  0.750000  0.084941  0.794263  1
  Ni  Ni4  1  0.750000  0.285119  0.009677  1
  Ni  Ni5  1  0.750000  0.214881  0.509677  1
  Ni  Ni6  1  0.250000  0.404767  0.487392  1
  Ni  Ni7  1  0.250000  0.095233  0.987392  1
  Ni  Ni8  1  0.750000  0.587885  0.513259  1
  Ni  Ni9  1  0.750000  0.912115  0.013259  1
  Ni  Ni10  1  0.250000  0.218406  0.177715  1
  Ni  Ni11  1  0.250000  0.281594  0.677715  1
  Ni  Ni12  1  0.750000  0.783934  0.822733  1
  Ni  Ni13  1  0.750000  0.716066  0.322733  1
  Ni  Ni14  1  0.250000  0.888080  0.702036  1
  Ni  Ni15  1  0.250000  0.611920  0.202036  1
  Ni  Ni16  1  0.750000  0.118433  0.300250  1
  Ni  Ni17  1  0.750000  0.381567  0.800250  1
  Ni  Ni18  1  0.250000  0.462815  0.930515  1
  Ni  Ni19  1  0.250000  0.037185  0.430515  1
  Ni  Ni20  1  0.750000  0.529090  0.069316  1
  Ni  Ni21  1  0.750000  0.970910  0.569316  1
  P  P22  1  0.250000  0.414212  0.113035  1
  P  P23  1  0.250000  0.085788  0.613035  1
  P  P24  1  0.750000  0.583377  0.883934  1
  P  P25  1  0.750000  0.916623  0.383934  1
  P  P26  1  0.250000  0.265905  0.868494  1
  P  P27  1  0.250000  0.234095  0.368494  1
  P  P28  1  0.750000  0.733378  0.134261  1
  P  P29  1  0.750000  0.766622  0.634261  1
  P  P30  1  0.250000  0.591988  0.390108  1
  P  P31  1  0.250000  0.908012  0.890108  1
  P  P32  1  0.750000  0.397205  0.609070  1
  P  P33  1  0.750000  0.102795  0.109070  1
  W  W34  1  0.250000  0.708861  0.989348  1
  W  W35  1  0.250000  0.791139  0.489348  1
