# generated using pymatgen
data_Dy2Tm2Sc3AlPt4
_symmetry_space_group_name_H-M   'P 1'
_cell_length_a   4.50234500
_cell_length_b   6.99534607
_cell_length_c   8.27830719
_cell_angle_alpha   86.83051202
_cell_angle_beta   90.00000000
_cell_angle_gamma   90.00000000
_symmetry_Int_Tables_number   1
_chemical_formula_structural   Dy2Tm2Sc3AlPt4
_chemical_formula_sum   'Dy2 Tm2 Sc3 Al1 Pt4'
_cell_volume   260.33028020
_cell_formula_units_Z   1
loop_
 _symmetry_equiv_pos_site_id
 _symmetry_equiv_pos_as_xyz
  1  'x, y, z'
loop_
 _atom_site_type_symbol
 _atom_site_label
 _atom_site_symmetry_multiplicity
 _atom_site_fract_x
 _atom_site_fract_y
 _atom_site_fract_z
 _atom_site_occupancy
  Dy  Dy0  1  0.250000  0.039679  0.672260  1
  Dy  Dy1  1  0.750000  0.988810  0.340176  1
  Tm  Tm2  1  0.250000  0.521069  0.815815  1
  Tm  Tm3  1  0.750000  0.468242  0.182728  1
  Sc  Sc4  1  0.250000  0.133803  0.070195  1
  Sc  Sc5  1  0.250000  0.639504  0.435168  1
  Sc  Sc6  1  0.750000  0.861030  0.929371  1
  Al  Al7  1  0.750000  0.361580  0.567753  1
  Pt  Pt8  1  0.250000  0.265281  0.382497  1
  Pt  Pt9  1  0.250000  0.743373  0.100172  1
  Pt  Pt10  1  0.750000  0.730358  0.616071  1
  Pt  Pt11  1  0.750000  0.247271  0.887796  1
