# generated using pymatgen
data_PrNdCu10
_symmetry_space_group_name_H-M   'P 1'
_cell_length_a   4.12927800
_cell_length_b   5.09910000
_cell_length_c   8.83967100
_cell_angle_alpha   90.00000000
_cell_angle_beta   90.00000000
_cell_angle_gamma   90.00000000
_symmetry_Int_Tables_number   1
_chemical_formula_structural   PrNdCu10
_chemical_formula_sum   'Pr1 Nd1 Cu10'
_cell_volume   186.12458952
_cell_formula_units_Z   1
loop_
 _symmetry_equiv_pos_site_id
 _symmetry_equiv_pos_as_xyz
  1  'x, y, z'
loop_
 _atom_site_type_symbol
 _atom_site_label
 _atom_site_symmetry_multiplicity
 _atom_site_fract_x
 _atom_site_fract_y
 _atom_site_fract_z
 _atom_site_occupancy
  Pr  Pr0  1  0.000000  0.499817  0.500000  1
  Nd  Nd1  1  0.000000  0.000022  0.000000  1
  Cu  Cu2  1  0.000000  0.999973  0.332168  1
  Cu  Cu3  1  0.000000  0.499805  0.833999  1
  Cu  Cu4  1  0.000000  0.499805  0.166001  1
  Cu  Cu5  1  0.000000  0.999973  0.667832  1
  Cu  Cu6  1  0.500000  0.999625  0.500000  1
  Cu  Cu7  1  0.500000  0.500988  0.000000  1
  Cu  Cu8  1  0.500000  0.249382  0.248945  1
  Cu  Cu9  1  0.500000  0.750515  0.751024  1
  Cu  Cu10  1  0.500000  0.750515  0.248976  1
  Cu  Cu11  1  0.500000  0.249382  0.751055  1
