# generated using pymatgen
data_Lu10Ga3Bi2Pt
_symmetry_space_group_name_H-M   'P 1'
_cell_length_a   8.47088284
_cell_length_b   8.47088232
_cell_length_c   8.59969461
_cell_angle_alpha   124.66830791
_cell_angle_beta   124.66830570
_cell_angle_gamma   81.08615641
_symmetry_Int_Tables_number   1
_chemical_formula_structural   Lu10Ga3Bi2Pt
_chemical_formula_sum   'Lu10 Ga3 Bi2 Pt1'
_cell_volume   404.24000644
_cell_formula_units_Z   1
loop_
 _symmetry_equiv_pos_site_id
 _symmetry_equiv_pos_as_xyz
  1  'x, y, z'
loop_
 _atom_site_type_symbol
 _atom_site_label
 _atom_site_symmetry_multiplicity
 _atom_site_fract_x
 _atom_site_fract_y
 _atom_site_fract_z
 _atom_site_occupancy
  Lu  Lu0  1  0.997140  0.998905  0.996044  1
  Lu  Lu1  1  0.501095  0.502860  0.003956  1
  Lu  Lu2  1  0.784589  0.295771  0.798244  1
  Lu  Lu3  1  0.204229  0.715411  0.201756  1
  Lu  Lu4  1  0.486345  0.997527  0.201756  1
  Lu  Lu5  1  0.299499  0.468163  0.500000  1
  Lu  Lu6  1  0.031837  0.200501  0.500000  1
  Lu  Lu7  1  0.502473  0.013655  0.798244  1
  Lu  Lu8  1  0.704717  0.513714  0.500000  1
  Lu  Lu9  1  0.986286  0.795283  0.500000  1
  Ga  Ga10  1  0.143972  0.644923  0.788895  1
  Ga  Ga11  1  0.855077  0.356028  0.211105  1
  Ga  Ga12  1  0.639156  0.860844  0.500000  1
  Bi  Bi13  1  0.246189  0.253811  0.000000  1
  Bi  Bi14  1  0.746189  0.753811  0.000000  1
  Pt  Pt15  1  0.371208  0.128792  0.500000  1
