# generated using pymatgen
data_Tm3Lu2Sn3Ge
_symmetry_space_group_name_H-M   'P 1'
_cell_length_a   9.07346600
_cell_length_b   9.07346559
_cell_length_c   6.35293600
_cell_angle_alpha   90.00000000
_cell_angle_beta   90.00000000
_cell_angle_gamma   120.00000880
_symmetry_Int_Tables_number   1
_chemical_formula_structural   Tm3Lu2Sn3Ge
_chemical_formula_sum   'Tm6 Lu4 Sn6 Ge2'
_cell_volume   452.95127441
_cell_formula_units_Z   2
loop_
 _symmetry_equiv_pos_site_id
 _symmetry_equiv_pos_as_xyz
  1  'x, y, z'
loop_
 _atom_site_type_symbol
 _atom_site_label
 _atom_site_symmetry_multiplicity
 _atom_site_fract_x
 _atom_site_fract_y
 _atom_site_fract_z
 _atom_site_occupancy
  Tm  Tm0  1  0.744891  0.744891  0.750000  1
  Tm  Tm1  1  0.255109  0.000000  0.750000  1
  Tm  Tm2  1  0.000000  0.255109  0.750000  1
  Tm  Tm3  1  0.255109  0.255109  0.250000  1
  Tm  Tm4  1  0.744891  0.000000  0.250000  1
  Tm  Tm5  1  0.000000  0.744891  0.250000  1
  Lu  Lu6  1  0.666667  0.333333  0.000000  1
  Lu  Lu7  1  0.333333  0.666667  0.000000  1
  Lu  Lu8  1  0.333333  0.666667  0.500000  1
  Lu  Lu9  1  0.666667  0.333333  0.500000  1
  Sn  Sn10  1  0.393256  0.393256  0.750000  1
  Sn  Sn11  1  0.606744  0.000000  0.750000  1
  Sn  Sn12  1  0.000000  0.606744  0.750000  1
  Sn  Sn13  1  0.606744  0.606744  0.250000  1
  Sn  Sn14  1  0.393256  0.000000  0.250000  1
  Sn  Sn15  1  0.000000  0.393256  0.250000  1
  Ge  Ge16  1  0.000000  0.000000  0.000000  1
  Ge  Ge17  1  0.000000  0.000000  0.500000  1
