# generated using pymatgen
data_Hf8Ti11Si16Rh
_symmetry_space_group_name_H-M   'P 1'
_cell_length_a   6.58119784
_cell_length_b   6.77274784
_cell_length_c   12.89030000
_cell_angle_alpha   90.00000000
_cell_angle_beta   90.00000000
_cell_angle_gamma   90.15494883
_symmetry_Int_Tables_number   1
_chemical_formula_structural   Hf8Ti11Si16Rh
_chemical_formula_sum   'Hf8 Ti11 Si16 Rh1'
_cell_volume   574.55457878
_cell_formula_units_Z   1
loop_
 _symmetry_equiv_pos_site_id
 _symmetry_equiv_pos_as_xyz
  1  'x, y, z'
loop_
 _atom_site_type_symbol
 _atom_site_label
 _atom_site_symmetry_multiplicity
 _atom_site_fract_x
 _atom_site_fract_y
 _atom_site_fract_z
 _atom_site_occupancy
  Hf  Hf0  1  0.998043  0.173696  0.095175  1
  Hf  Hf1  1  0.005950  0.826251  0.905824  1
  Hf  Hf2  1  0.499973  0.671701  0.907099  1
  Hf  Hf3  1  0.005950  0.826251  0.594176  1
  Hf  Hf4  1  0.501123  0.326925  0.094819  1
  Hf  Hf5  1  0.998043  0.173696  0.404825  1
  Hf  Hf6  1  0.501123  0.326925  0.405181  1
  Hf  Hf7  1  0.499973  0.671701  0.592901  1
  Ti  Ti8  1  0.163972  0.495792  0.750000  1
  Ti  Ti9  1  0.835094  0.503601  0.250000  1
  Ti  Ti10  1  0.334697  0.993233  0.250000  1
  Ti  Ti11  1  0.334645  0.174543  0.625675  1
  Ti  Ti12  1  0.662537  0.827792  0.375818  1
  Ti  Ti13  1  0.162882  0.674020  0.374253  1
  Ti  Ti14  1  0.662537  0.827792  0.124182  1
  Ti  Ti15  1  0.836594  0.330881  0.626412  1
  Ti  Ti16  1  0.334645  0.174543  0.874325  1
  Ti  Ti17  1  0.836594  0.330881  0.873588  1
  Ti  Ti18  1  0.162882  0.674020  0.125747  1
  Si  Si19  1  0.034137  0.114639  0.750000  1
  Si  Si20  1  0.959350  0.881500  0.250000  1
  Si  Si21  1  0.462482  0.616827  0.250000  1
  Si  Si22  1  0.537550  0.389188  0.750000  1
  Si  Si23  1  0.300607  0.864533  0.750000  1
  Si  Si24  1  0.702045  0.134195  0.250000  1
  Si  Si25  1  0.203027  0.364001  0.250000  1
  Si  Si26  1  0.796502  0.638112  0.750000  1
  Si  Si27  1  0.169307  0.462687  0.538705  1
  Si  Si28  1  0.829488  0.537947  0.460482  1
  Si  Si29  1  0.329903  0.963144  0.461528  1
  Si  Si30  1  0.829488  0.537947  0.039518  1
  Si  Si31  1  0.671394  0.039248  0.540180  1
  Si  Si32  1  0.169307  0.462687  0.961295  1
  Si  Si33  1  0.671394  0.039248  0.959820  1
  Si  Si34  1  0.329903  0.963144  0.038472  1
  Rh  Rh35  1  0.666853  0.986708  0.750000  1
