# generated using pymatgen
data_Na2La4ErAu10
_symmetry_space_group_name_H-M   'P 1'
_cell_length_a   8.81292589
_cell_length_b   8.81292735
_cell_length_c   10.73579900
_cell_angle_alpha   90.00000000
_cell_angle_beta   90.00000000
_cell_angle_gamma   105.75692603
_symmetry_Int_Tables_number   1
_chemical_formula_structural   Na2La4ErAu10
_chemical_formula_sum   'Na4 La8 Er2 Au20'
_cell_volume   802.49144215
_cell_formula_units_Z   2
loop_
 _symmetry_equiv_pos_site_id
 _symmetry_equiv_pos_as_xyz
  1  'x, y, z'
loop_
 _atom_site_type_symbol
 _atom_site_label
 _atom_site_symmetry_multiplicity
 _atom_site_fract_x
 _atom_site_fract_y
 _atom_site_fract_z
 _atom_site_occupancy
  Na  Na0  1  0.512113  0.012113  0.250000  1
  Na  Na1  1  0.987887  0.487887  0.750000  1
  Na  Na2  1  0.012113  0.512113  0.250000  1
  Na  Na3  1  0.487887  0.987887  0.750000  1
  La  La4  1  0.701583  0.298417  0.000000  1
  La  La5  1  0.201583  0.798417  0.500000  1
  La  La6  1  0.801930  0.801930  0.296260  1
  La  La7  1  0.301930  0.301930  0.203740  1
  La  La8  1  0.798417  0.201583  0.500000  1
  La  La9  1  0.298417  0.701583  0.000000  1
  La  La10  1  0.698070  0.698070  0.796260  1
  La  La11  1  0.198070  0.198070  0.703740  1
  Er  Er12  1  0.000000  0.000000  0.000000  1
  Er  Er13  1  0.500000  0.500000  0.500000  1
  Au  Au14  1  0.152891  0.429663  0.486400  1
  Au  Au15  1  0.903596  0.903596  0.594418  1
  Au  Au16  1  0.570337  0.847109  0.513600  1
  Au  Au17  1  0.881366  0.159784  0.207945  1
  Au  Au18  1  0.381366  0.659784  0.292055  1
  Au  Au19  1  0.659784  0.381366  0.292055  1
  Au  Au20  1  0.403596  0.403596  0.905582  1
  Au  Au21  1  0.929663  0.652891  0.013600  1
  Au  Au22  1  0.340216  0.618634  0.707945  1
  Au  Au23  1  0.347109  0.070337  0.986400  1
  Au  Au24  1  0.596404  0.596404  0.094418  1
  Au  Au25  1  0.652891  0.929663  0.013600  1
  Au  Au26  1  0.096404  0.096404  0.405582  1
  Au  Au27  1  0.618634  0.340216  0.707945  1
  Au  Au28  1  0.118634  0.840216  0.792055  1
  Au  Au29  1  0.070337  0.347109  0.986400  1
  Au  Au30  1  0.847109  0.570337  0.513600  1
  Au  Au31  1  0.159784  0.881366  0.207945  1
  Au  Au32  1  0.429663  0.152891  0.486400  1
  Au  Au33  1  0.840216  0.118634  0.792055  1
