# generated using pymatgen
data_La2Fe5Co3B8
_symmetry_space_group_name_H-M   'P 1'
_cell_length_a   7.10957738
_cell_length_b   7.11166286
_cell_length_c   3.79773982
_cell_angle_alpha   90.07427909
_cell_angle_beta   90.01304778
_cell_angle_gamma   90.25313093
_symmetry_Int_Tables_number   1
_chemical_formula_structural   La2Fe5Co3B8
_chemical_formula_sum   'La2 Fe5 Co3 B8'
_cell_volume   192.01516898
_cell_formula_units_Z   1
loop_
 _symmetry_equiv_pos_site_id
 _symmetry_equiv_pos_as_xyz
  1  'x, y, z'
loop_
 _atom_site_type_symbol
 _atom_site_label
 _atom_site_symmetry_multiplicity
 _atom_site_fract_x
 _atom_site_fract_y
 _atom_site_fract_z
 _atom_site_occupancy
  La  La0  1  0.000104  0.000308  0.005527  1
  La  La1  1  0.501013  0.498801  0.505276  1
  Fe  Fe2  1  0.387154  0.130631  0.895699  1
  Fe  Fe3  1  0.613451  0.868258  0.894432  1
  Fe  Fe4  1  0.368663  0.886337  0.395105  1
  Fe  Fe5  1  0.632382  0.112933  0.394811  1
  Fe  Fe6  1  0.113388  0.368158  0.606299  1
  Co  Co7  1  0.886513  0.635817  0.605130  1
  Co  Co8  1  0.135689  0.614869  0.105384  1
  Co  Co9  1  0.862776  0.388450  0.105177  1
  B  B10  1  0.794130  0.664559  0.101769  1
  B  B11  1  0.203708  0.333865  0.104445  1
  B  B12  1  0.839721  0.292739  0.602068  1
  B  B13  1  0.165868  0.701340  0.603038  1
  B  B14  1  0.697554  0.836486  0.393266  1
  B  B15  1  0.298206  0.164890  0.395835  1
  B  B16  1  0.664044  0.198794  0.893161  1
  B  B17  1  0.335637  0.802766  0.893578  1
