# generated using pymatgen
data_Sm8DyHo11Sn16
_symmetry_space_group_name_H-M   'P 1'
_cell_length_a   8.07892203
_cell_length_b   8.23175503
_cell_length_c   15.53778702
_cell_angle_alpha   89.99610028
_cell_angle_beta   89.99655073
_cell_angle_gamma   89.99110560
_symmetry_Int_Tables_number   1
_chemical_formula_structural   Sm8DyHo11Sn16
_chemical_formula_sum   'Sm8 Dy1 Ho11 Sn16'
_cell_volume   1033.32041901
_cell_formula_units_Z   1
loop_
 _symmetry_equiv_pos_site_id
 _symmetry_equiv_pos_as_xyz
  1  'x, y, z'
loop_
 _atom_site_type_symbol
 _atom_site_label
 _atom_site_symmetry_multiplicity
 _atom_site_fract_x
 _atom_site_fract_y
 _atom_site_fract_z
 _atom_site_occupancy
  Sm  Sm0  1  0.519368  0.320512  0.901964  1
  Sm  Sm1  1  0.019361  0.179524  0.598022  1
  Sm  Sm2  1  0.480624  0.679511  0.401964  1
  Sm  Sm3  1  0.980648  0.820507  0.098030  1
  Sm  Sm4  1  0.480656  0.679496  0.098088  1
  Sm  Sm5  1  0.980627  0.820483  0.401970  1
  Sm  Sm6  1  0.519367  0.320485  0.598019  1
  Sm  Sm7  1  0.019324  0.179536  0.901977  1
  Dy  Dy8  1  0.366383  0.835152  0.877966  1
  Ho  Ho9  1  0.866344  0.664812  0.622069  1
  Ho  Ho10  1  0.633686  0.164822  0.377930  1
  Ho  Ho11  1  0.133686  0.335177  0.122082  1
  Ho  Ho12  1  0.633672  0.164797  0.122046  1
  Ho  Ho13  1  0.133689  0.335187  0.377934  1
  Ho  Ho14  1  0.366330  0.835197  0.622060  1
  Ho  Ho15  1  0.866299  0.664820  0.877923  1
  Ho  Ho16  1  0.197818  0.503333  0.749959  1
  Ho  Ho17  1  0.697931  0.996602  0.749972  1
  Ho  Ho18  1  0.802113  0.496550  0.249994  1
  Ho  Ho19  1  0.302119  0.003447  0.250001  1
  Sn  Sn20  1  0.295881  0.037101  0.042016  1
  Sn  Sn21  1  0.795926  0.463040  0.458102  1
  Sn  Sn22  1  0.704056  0.963036  0.541881  1
  Sn  Sn23  1  0.203924  0.536747  0.958164  1
  Sn  Sn24  1  0.704300  0.963103  0.958151  1
  Sn  Sn25  1  0.204072  0.536951  0.541887  1
  Sn  Sn26  1  0.295936  0.036965  0.458111  1
  Sn  Sn27  1  0.795936  0.463044  0.041892  1
  Sn  Sn28  1  0.564772  0.621593  0.749944  1
  Sn  Sn29  1  0.064528  0.878315  0.749944  1
  Sn  Sn30  1  0.435349  0.378306  0.250001  1
  Sn  Sn31  1  0.935343  0.121691  0.249999  1
  Sn  Sn32  1  0.327025  0.143818  0.749947  1
  Sn  Sn33  1  0.827048  0.356326  0.749996  1
  Sn  Sn34  1  0.672921  0.856316  0.249999  1
  Sn  Sn35  1  0.172940  0.643695  0.249997  1
