# generated using pymatgen
data_ErTm3Ti4(GeO9)2
_symmetry_space_group_name_H-M   'P 1'
_cell_length_a   11.30913200
_cell_length_b   4.89234692
_cell_length_c   12.45375651
_cell_angle_alpha   84.29738954
_cell_angle_beta   90.00000000
_cell_angle_gamma   90.00000000
_symmetry_Int_Tables_number   1
_chemical_formula_structural   ErTm3Ti4(GeO9)2
_chemical_formula_sum   'Er2 Tm6 Ti8 Ge4 O36'
_cell_volume   685.63384713
_cell_formula_units_Z   2
loop_
 _symmetry_equiv_pos_site_id
 _symmetry_equiv_pos_as_xyz
  1  'x, y, z'
loop_
 _atom_site_type_symbol
 _atom_site_label
 _atom_site_symmetry_multiplicity
 _atom_site_fract_x
 _atom_site_fract_y
 _atom_site_fract_z
 _atom_site_occupancy
  Er  Er0  1  0.640772  0.809233  0.065261  1
  Er  Er1  1  0.140772  0.190767  0.934739  1
  Tm  Tm2  1  0.359247  0.688152  0.934352  1
  Tm  Tm3  1  0.859247  0.311848  0.065648  1
  Tm  Tm4  1  0.638536  0.731645  0.426914  1
  Tm  Tm5  1  0.138536  0.268355  0.573086  1
  Tm  Tm6  1  0.361477  0.768274  0.573414  1
  Tm  Tm7  1  0.861477  0.231726  0.426586  1
  Ti  Ti8  1  0.836456  0.954289  0.849857  1
  Ti  Ti9  1  0.336456  0.045711  0.150143  1
  Ti  Ti10  1  0.163430  0.545947  0.150526  1
  Ti  Ti11  1  0.663430  0.454053  0.849474  1
  Ti  Ti12  1  0.836486  0.580394  0.639050  1
  Ti  Ti13  1  0.336486  0.419606  0.360950  1
  Ti  Ti14  1  0.163822  0.919610  0.361006  1
  Ti  Ti15  1  0.663822  0.080390  0.638994  1
  Ge  Ge16  1  0.598747  0.317037  0.248423  1
  Ge  Ge17  1  0.098747  0.682963  0.751577  1
  Ge  Ge18  1  0.401477  0.183277  0.751721  1
  Ge  Ge19  1  0.901477  0.816723  0.248279  1
  O  O20  1  0.836855  0.749808  0.124479  1
  O  O21  1  0.336855  0.250192  0.875521  1
  O  O22  1  0.163907  0.746862  0.875696  1
  O  O23  1  0.663907  0.253138  0.124304  1
  O  O24  1  0.787797  0.914213  0.552964  1
  O  O25  1  0.287797  0.085787  0.447036  1
  O  O26  1  0.212414  0.585815  0.446953  1
  O  O27  1  0.712414  0.414185  0.553047  1
  O  O28  1  0.948302  0.088168  0.932444  1
  O  O29  1  0.448302  0.911832  0.067556  1
  O  O30  1  0.050365  0.413612  0.068750  1
  O  O31  1  0.550365  0.586388  0.931250  1
  O  O32  1  0.607286  0.679578  0.247644  1
  O  O33  1  0.107286  0.320422  0.752356  1
  O  O34  1  0.392298  0.820544  0.753302  1
  O  O35  1  0.892298  0.179456  0.246698  1
  O  O36  1  0.943265  0.772171  0.744364  1
  O  O37  1  0.443265  0.227829  0.255636  1
  O  O38  1  0.056960  0.727987  0.256041  1
  O  O39  1  0.556960  0.272013  0.743959  1
  O  O40  1  0.788761  0.617041  0.934194  1
  O  O41  1  0.288761  0.382959  0.065806  1
  O  O42  1  0.210911  0.882477  0.066288  1
  O  O43  1  0.710911  0.117523  0.933712  1
  O  O44  1  0.953400  0.436412  0.564960  1
  O  O45  1  0.453400  0.563588  0.435040  1
  O  O46  1  0.046629  0.063933  0.434743  1
  O  O47  1  0.546629  0.936067  0.565257  1
  O  O48  1  0.831514  0.670461  0.366942  1
  O  O49  1  0.331514  0.329539  0.633058  1
  O  O50  1  0.168629  0.829754  0.633001  1
  O  O51  1  0.668629  0.170246  0.366999  1
  O  O52  1  0.707336  0.768555  0.744323  1
  O  O53  1  0.207336  0.231445  0.255677  1
  O  O54  1  0.292920  0.731390  0.255699  1
  O  O55  1  0.792920  0.268610  0.744301  1
