# generated using pymatgen
data_SrAlGaAs2O7
_symmetry_space_group_name_H-M   'P 1'
_cell_length_a   8.68554722
_cell_length_b   8.68554632
_cell_length_c   8.68554845
_cell_angle_alpha   35.46826594
_cell_angle_beta   35.46827703
_cell_angle_gamma   35.46827650
_symmetry_Int_Tables_number   1
_chemical_formula_structural   SrAlGaAs2O7
_chemical_formula_sum   'Sr1 Al1 Ga1 As2 O7'
_cell_volume   197.13691293
_cell_formula_units_Z   1
loop_
 _symmetry_equiv_pos_site_id
 _symmetry_equiv_pos_as_xyz
  1  'x, y, z'
loop_
 _atom_site_type_symbol
 _atom_site_label
 _atom_site_symmetry_multiplicity
 _atom_site_fract_x
 _atom_site_fract_y
 _atom_site_fract_z
 _atom_site_occupancy
  Sr  Sr0  1  0.501157  0.501157  0.501157  1
  Al  Al1  1  0.927400  0.927400  0.927400  1
  Ga  Ga2  1  0.070645  0.070645  0.070645  1
  As  As3  1  0.270441  0.270441  0.270441  1
  As  As4  1  0.730121  0.730121  0.730121  1
  O  O5  1  0.997505  0.997505  0.997505  1
  O  O6  1  0.453412  0.810499  0.040110  1
  O  O7  1  0.555952  0.970348  0.172410  1
  O  O8  1  0.810500  0.040110  0.453411  1
  O  O9  1  0.970347  0.172410  0.555953  1
  O  O10  1  0.040109  0.453412  0.810500  1
  O  O11  1  0.172411  0.555953  0.970347  1
