# generated using pymatgen
data_Li4PrNd(ErSi4)2
_symmetry_space_group_name_H-M   'P 1'
_cell_length_a   3.83549300
_cell_length_b   7.66748952
_cell_length_c   10.28710400
_cell_angle_alpha   89.64630647
_cell_angle_beta   90.00000000
_cell_angle_gamma   90.00000000
_symmetry_Int_Tables_number   1
_chemical_formula_structural   Li4PrNd(ErSi4)2
_chemical_formula_sum   'Li4 Pr1 Nd1 Er2 Si8'
_cell_volume   302.52358702
_cell_formula_units_Z   1
loop_
 _symmetry_equiv_pos_site_id
 _symmetry_equiv_pos_as_xyz
  1  'x, y, z'
loop_
 _atom_site_type_symbol
 _atom_site_label
 _atom_site_symmetry_multiplicity
 _atom_site_fract_x
 _atom_site_fract_y
 _atom_site_fract_z
 _atom_site_occupancy
  Li  Li0  1  0.250000  0.995540  0.390024  1
  Li  Li1  1  0.750000  0.007227  0.610368  1
  Li  Li2  1  0.250000  0.488641  0.107065  1
  Li  Li3  1  0.750000  0.510006  0.894276  1
  Pr  Pr4  1  0.750000  0.359767  0.362805  1
  Nd  Nd5  1  0.250000  0.640390  0.636766  1
  Er  Er6  1  0.250000  0.131463  0.864600  1
  Er  Er7  1  0.750000  0.866659  0.134600  1
  Si  Si8  1  0.750000  0.261963  0.062175  1
  Si  Si9  1  0.250000  0.735555  0.936525  1
  Si  Si10  1  0.750000  0.778002  0.424836  1
  Si  Si11  1  0.250000  0.225198  0.576165  1
  Si  Si12  1  0.750000  0.843606  0.825216  1
  Si  Si13  1  0.250000  0.153832  0.173091  1
  Si  Si14  1  0.750000  0.333617  0.686162  1
  Si  Si15  1  0.250000  0.668529  0.315329  1
