# generated using pymatgen
data_Zn2P2PbO8
_symmetry_space_group_name_H-M   'P 1'
_cell_length_a   5.12226460
_cell_length_b   8.71947380
_cell_length_c   9.42939675
_cell_angle_alpha   113.73112215
_cell_angle_beta   102.18764468
_cell_angle_gamma   92.69322763
_symmetry_Int_Tables_number   1
_chemical_formula_structural   Zn2P2PbO8
_chemical_formula_sum   'Zn4 P4 Pb2 O16'
_cell_volume   372.72947495
_cell_formula_units_Z   2
loop_
 _symmetry_equiv_pos_site_id
 _symmetry_equiv_pos_as_xyz
  1  'x, y, z'
loop_
 _atom_site_type_symbol
 _atom_site_label
 _atom_site_symmetry_multiplicity
 _atom_site_fract_x
 _atom_site_fract_y
 _atom_site_fract_z
 _atom_site_occupancy
  Zn  Zn0  1  0.610902  0.389857  0.585217  1
  Zn  Zn1  1  0.389098  0.610143  0.414783  1
  Zn  Zn2  1  0.843667  0.084122  0.298273  1
  Zn  Zn3  1  0.156333  0.915878  0.701727  1
  P  P4  1  0.896057  0.721975  0.314257  1
  P  P5  1  0.103943  0.278025  0.685743  1
  P  P6  1  0.317103  0.212626  0.192839  1
  P  P7  1  0.682897  0.787374  0.807161  1
  Pb  Pb8  1  0.774427  0.268049  0.958172  1
  Pb  Pb9  1  0.225573  0.731951  0.041828  1
  O  O10  1  0.032484  0.434579  0.815642  1
  O  O11  1  0.967516  0.565421  0.184358  1
  O  O12  1  0.454252  0.061234  0.204630  1
  O  O13  1  0.545748  0.938766  0.795370  1
  O  O14  1  0.076723  0.731556  0.478043  1
  O  O15  1  0.923277  0.268444  0.521957  1
  O  O16  1  0.012258  0.118149  0.706526  1
  O  O17  1  0.987742  0.881851  0.293474  1
  O  O18  1  0.424902  0.368352  0.360893  1
  O  O19  1  0.575098  0.631648  0.639107  1
  O  O20  1  0.635386  0.740357  0.940208  1
  O  O21  1  0.364614  0.259643  0.059792  1
  O  O22  1  0.406298  0.287544  0.685484  1
  O  O23  1  0.593702  0.712456  0.314516  1
  O  O24  1  0.994632  0.832693  0.835977  1
  O  O25  1  0.005368  0.167307  0.164023  1
