# generated using pymatgen
data_TbDy7Mg2(SiB4)4
_symmetry_space_group_name_H-M   'P 1'
_cell_length_a   7.17103702
_cell_length_b   7.17103702
_cell_length_c   7.85695100
_cell_angle_alpha   89.99906991
_cell_angle_beta   90.00093009
_cell_angle_gamma   89.99111525
_symmetry_Int_Tables_number   1
_chemical_formula_structural   TbDy7Mg2(SiB4)4
_chemical_formula_sum   'Tb1 Dy7 Mg2 Si4 B16'
_cell_volume   404.03405165
_cell_formula_units_Z   1
loop_
 _symmetry_equiv_pos_site_id
 _symmetry_equiv_pos_as_xyz
  1  'x, y, z'
loop_
 _atom_site_type_symbol
 _atom_site_label
 _atom_site_symmetry_multiplicity
 _atom_site_fract_x
 _atom_site_fract_y
 _atom_site_fract_z
 _atom_site_occupancy
  Tb  Tb0  1  0.182951  0.317049  0.234020  1
  Dy  Dy1  1  0.682938  0.182914  0.233436  1
  Dy  Dy2  1  0.317074  0.817045  0.766579  1
  Dy  Dy3  1  0.317086  0.817062  0.233436  1
  Dy  Dy4  1  0.817027  0.682973  0.233325  1
  Dy  Dy5  1  0.817055  0.682945  0.766679  1
  Dy  Dy6  1  0.682955  0.182926  0.766579  1
  Dy  Dy7  1  0.182908  0.317092  0.766646  1
  Mg  Mg8  1  0.999941  0.999894  0.500091  1
  Mg  Mg9  1  0.500106  0.500059  0.500091  1
  Si  Si10  1  0.115265  0.615647  0.500241  1
  Si  Si11  1  0.884353  0.384735  0.500241  1
  Si  Si12  1  0.384886  0.115114  0.500318  1
  Si  Si13  1  0.615423  0.884577  0.500044  1
  B  B14  1  0.173577  0.039800  0.999882  1
  B  B15  1  0.826310  0.960006  0.999932  1
  B  B16  1  0.959941  0.173602  0.999852  1
  B  B17  1  0.326398  0.540059  0.999852  1
  B  B18  1  0.039867  0.826264  0.999917  1
  B  B19  1  0.673736  0.460133  0.999917  1
  B  B20  1  0.539994  0.673690  0.999932  1
  B  B21  1  0.460200  0.326423  0.999882  1
  B  B22  1  0.089501  0.589621  0.999813  1
  B  B23  1  0.910379  0.410499  0.999813  1
  B  B24  1  0.410450  0.089550  0.999959  1
  B  B25  1  0.589587  0.910413  0.999951  1
  B  B26  1  0.999878  0.999765  0.161811  1
  B  B27  1  0.999960  0.999981  0.837976  1
  B  B28  1  0.500019  0.500040  0.837976  1
  B  B29  1  0.500235  0.500122  0.161811  1
