# generated using pymatgen
data_Ce2U6AlSe17
_symmetry_space_group_name_H-M   'P 1'
_cell_length_a   8.19950059
_cell_length_b   8.19950005
_cell_length_c   10.94804853
_cell_angle_alpha   80.23766416
_cell_angle_beta   80.23765597
_cell_angle_gamma   65.15117873
_symmetry_Int_Tables_number   1
_chemical_formula_structural   Ce2U6AlSe17
_chemical_formula_sum   'Ce2 U6 Al1 Se17'
_cell_volume   654.25171219
_cell_formula_units_Z   1
loop_
 _symmetry_equiv_pos_site_id
 _symmetry_equiv_pos_as_xyz
  1  'x, y, z'
loop_
 _atom_site_type_symbol
 _atom_site_label
 _atom_site_symmetry_multiplicity
 _atom_site_fract_x
 _atom_site_fract_y
 _atom_site_fract_z
 _atom_site_occupancy
  Ce  Ce0  1  0.817142  0.309012  0.298882  1
  Ce  Ce1  1  0.309012  0.817142  0.298882  1
  U  U2  1  0.178586  0.695020  0.700483  1
  U  U3  1  0.695020  0.178586  0.700483  1
  U  U4  1  0.200757  0.200757  0.542722  1
  U  U5  1  0.795084  0.795084  0.459056  1
  U  U6  1  0.678012  0.678012  0.984733  1
  U  U7  1  0.321311  0.321311  0.014844  1
  Al  Al8  1  0.000864  0.000864  0.002169  1
  Se  Se9  1  0.819634  0.433885  0.542361  1
  Se  Se10  1  0.433885  0.819634  0.542361  1
  Se  Se11  1  0.176440  0.564219  0.467519  1
  Se  Se12  1  0.564219  0.176440  0.467519  1
  Se  Se13  1  0.949802  0.324668  0.022974  1
  Se  Se14  1  0.324668  0.949802  0.022974  1
  Se  Se15  1  0.054120  0.678534  0.969035  1
  Se  Se16  1  0.678534  0.054120  0.969035  1
  Se  Se17  1  0.218743  0.218743  0.277744  1
  Se  Se18  1  0.784109  0.784109  0.723400  1
  Se  Se19  1  0.054815  0.054815  0.773414  1
  Se  Se20  1  0.943531  0.943531  0.229315  1
  Se  Se21  1  0.299624  0.299624  0.753993  1
  Se  Se22  1  0.705055  0.705055  0.242089  1
  Se  Se23  1  0.520126  0.520126  0.827476  1
  Se  Se24  1  0.479613  0.479613  0.161354  1
  Se  Se25  1  0.997294  0.997294  0.505183  1
