# generated using pymatgen
data_Ho4Al9Si9Os5Rh
_symmetry_space_group_name_H-M   'P 1'
_cell_length_a   7.43113528
_cell_length_b   7.42028838
_cell_length_c   9.23439701
_cell_angle_alpha   90.01600887
_cell_angle_beta   90.04373984
_cell_angle_gamma   119.98794580
_symmetry_Int_Tables_number   1
_chemical_formula_structural   Ho4Al9Si9Os5Rh
_chemical_formula_sum   'Ho4 Al9 Si9 Os5 Rh1'
_cell_volume   441.02947043
_cell_formula_units_Z   1
loop_
 _symmetry_equiv_pos_site_id
 _symmetry_equiv_pos_as_xyz
  1  'x, y, z'
loop_
 _atom_site_type_symbol
 _atom_site_label
 _atom_site_symmetry_multiplicity
 _atom_site_fract_x
 _atom_site_fract_y
 _atom_site_fract_z
 _atom_site_occupancy
  Ho  Ho0  1  0.997341  0.669103  0.251763  1
  Ho  Ho1  1  0.996976  0.325926  0.750619  1
  Ho  Ho2  1  0.679367  0.004295  0.251852  1
  Ho  Ho3  1  0.327381  0.997046  0.747785  1
  Al  Al4  1  0.336981  0.006249  0.073593  1
  Al  Al5  1  0.335481  0.337128  0.563053  1
  Al  Al6  1  0.660948  0.663519  0.437322  1
  Al  Al7  1  0.661659  0.661334  0.059436  1
  Al  Al8  1  0.338205  0.333982  0.938230  1
  Al  Al9  1  0.335386  0.548361  0.249371  1
  Al  Al10  1  0.668336  0.455283  0.750463  1
  Al  Al11  1  0.548630  0.335530  0.249546  1
  Al  Al12  1  0.454506  0.663540  0.749158  1
  Si  Si13  1  0.128864  0.126825  0.248393  1
  Si  Si14  1  0.869719  0.870792  0.749670  1
  Si  Si15  1  0.009400  0.337226  0.068549  1
  Si  Si16  1  0.997750  0.667840  0.934339  1
  Si  Si17  1  0.992346  0.666113  0.572589  1
  Si  Si18  1  0.334406  0.006964  0.422949  1
  Si  Si19  1  0.010118  0.337917  0.427656  1
  Si  Si20  1  0.662510  0.990483  0.573404  1
  Si  Si21  1  0.657034  0.992482  0.934149  1
  Os  Os22  1  0.688980  0.327198  0.999803  1
  Os  Os23  1  0.319793  0.671609  0.997603  1
  Os  Os24  1  0.318332  0.680788  0.500238  1
  Os  Os25  1  0.991538  0.000127  0.998013  1
  Os  Os26  1  0.998779  0.001583  0.499718  1
  Rh  Rh27  1  0.679232  0.320755  0.500738  1
