# generated using pymatgen
data_Th7MgH30
_symmetry_space_group_name_H-M   'P 1'
_cell_length_a   7.84444043
_cell_length_b   7.84443985
_cell_length_c   7.84443905
_cell_angle_alpha   109.47746133
_cell_angle_beta   109.47745722
_cell_angle_gamma   109.47746195
_symmetry_Int_Tables_number   1
_chemical_formula_structural   Th7MgH30
_chemical_formula_sum   'Th7 Mg1 H30'
_cell_volume   371.50403974
_cell_formula_units_Z   1
loop_
 _symmetry_equiv_pos_site_id
 _symmetry_equiv_pos_as_xyz
  1  'x, y, z'
loop_
 _atom_site_type_symbol
 _atom_site_label
 _atom_site_symmetry_multiplicity
 _atom_site_fract_x
 _atom_site_fract_y
 _atom_site_fract_z
 _atom_site_occupancy
  Th  Th0  1  0.499741  0.999447  0.081213  1
  Th  Th1  1  0.999447  0.081213  0.499741  1
  Th  Th2  1  0.081213  0.499741  0.999447  1
  Th  Th3  1  0.997525  0.587121  0.507243  1
  Th  Th4  1  0.587121  0.507243  0.997525  1
  Th  Th5  1  0.507243  0.997525  0.587121  1
  Th  Th6  1  0.413679  0.413679  0.413679  1
  Mg  Mg7  1  0.910203  0.910203  0.910203  1
  H  H8  1  0.652091  0.967005  0.370860  1
  H  H9  1  0.220722  0.317300  0.847465  1
  H  H10  1  0.184077  0.405382  0.535391  1
  H  H11  1  0.099173  0.284328  0.128364  1
  H  H12  1  0.284328  0.128364  0.099173  1
  H  H13  1  0.128364  0.099173  0.284328  1
  H  H14  1  0.466561  0.155494  0.869383  1
  H  H15  1  0.718600  0.349155  0.812691  1
  H  H16  1  0.626500  0.375679  0.249720  1
  H  H17  1  0.249720  0.626500  0.375679  1
  H  H18  1  0.742790  0.874958  0.134863  1
  H  H19  1  0.134863  0.742790  0.874958  1
  H  H20  1  0.375679  0.249720  0.626500  1
  H  H21  1  0.874958  0.134863  0.742790  1
  H  H22  1  0.776129  0.586670  0.623943  1
  H  H23  1  0.317300  0.847465  0.220722  1
  H  H24  1  0.370860  0.652091  0.967005  1
  H  H25  1  0.967005  0.370860  0.652091  1
  H  H26  1  0.535391  0.184077  0.405382  1
  H  H27  1  0.405382  0.535391  0.184077  1
  H  H28  1  0.847465  0.220722  0.317300  1
  H  H29  1  0.905666  0.693790  0.029076  1
  H  H30  1  0.812691  0.718600  0.349155  1
  H  H31  1  0.155494  0.869383  0.466561  1
  H  H32  1  0.693790  0.029076  0.905666  1
  H  H33  1  0.349155  0.812691  0.718600  1
  H  H34  1  0.869383  0.466561  0.155494  1
  H  H35  1  0.623943  0.776129  0.586670  1
  H  H36  1  0.586670  0.623943  0.776129  1
  H  H37  1  0.029076  0.905666  0.693790  1
