# generated using pymatgen
data_Cs4Tl3FeBr16
_symmetry_space_group_name_H-M   'P 1'
_cell_length_a   8.39197014
_cell_length_b   11.28643100
_cell_length_c   11.49446400
_cell_angle_alpha   90.00000000
_cell_angle_beta   89.83419508
_cell_angle_gamma   90.00000000
_symmetry_Int_Tables_number   1
_chemical_formula_structural   Cs4Tl3FeBr16
_chemical_formula_sum   'Cs4 Tl3 Fe1 Br16'
_cell_volume   1088.69810413
_cell_formula_units_Z   1
loop_
 _symmetry_equiv_pos_site_id
 _symmetry_equiv_pos_as_xyz
  1  'x, y, z'
loop_
 _atom_site_type_symbol
 _atom_site_label
 _atom_site_symmetry_multiplicity
 _atom_site_fract_x
 _atom_site_fract_y
 _atom_site_fract_z
 _atom_site_occupancy
  Cs  Cs0  1  0.682493  0.747328  0.750105  1
  Cs  Cs1  1  0.321975  0.250183  0.246426  1
  Cs  Cs2  1  0.817507  0.747328  0.249895  1
  Cs  Cs3  1  0.178025  0.250183  0.753574  1
  Tl  Tl4  1  0.250000  0.680626  0.000000  1
  Tl  Tl5  1  0.750000  0.179176  0.500000  1
  Tl  Tl6  1  0.250000  0.820284  0.500000  1
  Fe  Fe7  1  0.750000  0.319044  0.000000  1
  Br  Br8  1  0.823107  0.436567  0.838799  1
  Br  Br9  1  0.165425  0.553291  0.180392  1
  Br  Br10  1  0.676893  0.436567  0.161201  1
  Br  Br11  1  0.660097  0.050536  0.322061  1
  Br  Br12  1  0.334575  0.553291  0.819608  1
  Br  Br13  1  0.339750  0.947922  0.678813  1
  Br  Br14  1  0.839903  0.050536  0.677939  1
  Br  Br15  1  0.160250  0.947922  0.321187  1
  Br  Br16  1  0.003770  0.818668  0.959158  1
  Br  Br17  1  0.970802  0.196359  0.043724  1
  Br  Br18  1  0.496230  0.818668  0.040842  1
  Br  Br19  1  0.495361  0.681696  0.458324  1
  Br  Br20  1  0.529198  0.196359  0.956276  1
  Br  Br21  1  0.504193  0.317885  0.541203  1
  Br  Br22  1  0.004639  0.681696  0.541676  1
  Br  Br23  1  0.995807  0.317885  0.458797  1
