# generated using pymatgen
data_NaLi2DyB28
_symmetry_space_group_name_H-M   'P 1'
_cell_length_a   7.27874051
_cell_length_b   7.27874060
_cell_length_c   7.27874023
_cell_angle_alpha   132.22265109
_cell_angle_beta   111.08437528
_cell_angle_gamma   88.18023045
_symmetry_Int_Tables_number   1
_chemical_formula_structural   NaLi2DyB28
_chemical_formula_sum   'Na1 Li2 Dy1 B28'
_cell_volume   253.85022228
_cell_formula_units_Z   1
loop_
 _symmetry_equiv_pos_site_id
 _symmetry_equiv_pos_as_xyz
  1  'x, y, z'
loop_
 _atom_site_type_symbol
 _atom_site_label
 _atom_site_symmetry_multiplicity
 _atom_site_fract_x
 _atom_site_fract_y
 _atom_site_fract_z
 _atom_site_occupancy
  Na  Na0  1  0.612715  0.250000  0.362715  1
  Li  Li1  1  0.992866  0.006027  0.498893  1
  Li  Li2  1  0.992866  0.493973  0.986839  1
  Dy  Dy3  1  0.384811  0.750000  0.634811  1
  B  B4  1  0.637025  0.665385  0.971641  1
  B  B5  1  0.364263  0.333728  0.030534  1
  B  B6  1  0.196806  0.166272  0.030534  1
  B  B7  1  0.806256  0.834615  0.971641  1
  B  B8  1  0.739253  0.111376  0.627877  1
  B  B9  1  0.220888  0.849307  0.371581  1
  B  B10  1  0.022274  0.650693  0.371581  1
  B  B11  1  0.016500  0.388624  0.627877  1
  B  B12  1  0.924311  0.090369  0.833942  1
  B  B13  1  0.087059  0.912777  0.174282  1
  B  B14  1  0.761505  0.587223  0.174282  1
  B  B15  1  0.243573  0.409631  0.833942  1
  B  B16  1  0.394992  0.399333  0.680630  1
  B  B17  1  0.602831  0.281500  0.002808  1
  B  B18  1  0.221308  0.899978  0.002808  1
  B  B19  1  0.781298  0.785639  0.680630  1
  B  B20  1  0.602831  0.600022  0.321331  1
  B  B21  1  0.394992  0.714361  0.995659  1
  B  B22  1  0.781298  0.100667  0.995659  1
  B  B23  1  0.221308  0.218500  0.321331  1
  B  B24  1  0.035642  0.830996  0.703716  1
  B  B25  1  0.966948  0.678828  0.801603  1
  B  B26  1  0.622775  0.334655  0.801603  1
  B  B27  1  0.372721  0.168075  0.703716  1
  B  B28  1  0.966948  0.165345  0.288121  1
  B  B29  1  0.035642  0.331925  0.204646  1
  B  B30  1  0.372721  0.669004  0.204646  1
  B  B31  1  0.622775  0.821172  0.288121  1
