# generated using pymatgen
data_DyY2Ho2Re2C7
_symmetry_space_group_name_H-M   'P 1'
_cell_length_a   8.34751948
_cell_length_b   8.31174160
_cell_length_c   3.42036500
_cell_angle_alpha   90.00000000
_cell_angle_beta   90.00000000
_cell_angle_gamma   122.59206220
_symmetry_Int_Tables_number   1
_chemical_formula_structural   DyY2Ho2Re2C7
_chemical_formula_sum   'Dy1 Y2 Ho2 Re2 C7'
_cell_volume   199.94280058
_cell_formula_units_Z   1
loop_
 _symmetry_equiv_pos_site_id
 _symmetry_equiv_pos_as_xyz
  1  'x, y, z'
loop_
 _atom_site_type_symbol
 _atom_site_label
 _atom_site_symmetry_multiplicity
 _atom_site_fract_x
 _atom_site_fract_y
 _atom_site_fract_z
 _atom_site_occupancy
  Dy  Dy0  1  0.924470  0.667221  0.500000  1
  Y  Y1  1  0.499999  0.499974  0.000000  1
  Y  Y2  1  0.075444  0.332364  0.500000  1
  Ho  Ho3  1  0.662657  0.923717  0.500000  1
  Ho  Ho4  1  0.337434  0.076270  0.500000  1
  Re  Re5  1  0.715467  0.285727  0.000000  1
  Re  Re6  1  0.284554  0.714490  0.000000  1
  C  C7  1  0.628303  0.373569  0.500000  1
  C  C8  1  0.372296  0.627315  0.500000  1
  C  C9  1  0.999807  0.999724  0.000000  1
  C  C10  1  0.171396  0.167096  0.000000  1
  C  C11  1  0.828401  0.832259  0.000000  1
  C  C12  1  0.999801  0.500334  0.000000  1
  C  C13  1  0.499973  0.999941  0.000000  1
