# generated using pymatgen
data_HoEr7B24OsRu3
_symmetry_space_group_name_H-M   'P 1'
_cell_length_a   3.63433100
_cell_length_b   9.10320219
_cell_length_c   11.47755200
_cell_angle_alpha   90.03998356
_cell_angle_beta   90.00000000
_cell_angle_gamma   90.00000000
_symmetry_Int_Tables_number   1
_chemical_formula_structural   HoEr7B24OsRu3
_chemical_formula_sum   'Ho1 Er7 B24 Os1 Ru3'
_cell_volume   379.72381070
_cell_formula_units_Z   1
loop_
 _symmetry_equiv_pos_site_id
 _symmetry_equiv_pos_as_xyz
  1  'x, y, z'
loop_
 _atom_site_type_symbol
 _atom_site_label
 _atom_site_symmetry_multiplicity
 _atom_site_fract_x
 _atom_site_fract_y
 _atom_site_fract_z
 _atom_site_occupancy
  Ho  Ho0  1  0.000000  0.322557  0.414098  1
  Er  Er1  1  0.000000  0.678168  0.586256  1
  Er  Er2  1  0.000000  0.822048  0.085752  1
  Er  Er3  1  0.000000  0.177613  0.914088  1
  Er  Er4  1  0.000000  0.943738  0.372274  1
  Er  Er5  1  0.000000  0.056429  0.626988  1
  Er  Er6  1  0.000000  0.443660  0.127640  1
  Er  Er7  1  0.000000  0.555581  0.872826  1
  B  B8  1  0.500000  0.554280  0.433443  1
  B  B9  1  0.500000  0.446302  0.566808  1
  B  B10  1  0.500000  0.053892  0.066626  1
  B  B11  1  0.500000  0.946272  0.933494  1
  B  B12  1  0.500000  0.748421  0.420161  1
  B  B13  1  0.500000  0.251900  0.580010  1
  B  B14  1  0.500000  0.248245  0.079866  1
  B  B15  1  0.500000  0.751558  0.920096  1
  B  B16  1  0.500000  0.791484  0.265937  1
  B  B17  1  0.500000  0.208495  0.733959  1
  B  B18  1  0.500000  0.291349  0.233839  1
  B  B19  1  0.500000  0.708254  0.766057  1
  B  B20  1  0.500000  0.631785  0.184866  1
  B  B21  1  0.500000  0.368048  0.815185  1
  B  B22  1  0.500000  0.131595  0.314929  1
  B  B23  1  0.500000  0.868352  0.684990  1
  B  B24  1  0.500000  0.982790  0.212829  1
  B  B25  1  0.500000  0.017381  0.787034  1
  B  B26  1  0.500000  0.483185  0.287044  1
  B  B27  1  0.500000  0.517104  0.713014  1
  B  B28  1  0.500000  0.607194  0.029799  1
  B  B29  1  0.500000  0.392312  0.970415  1
  B  B30  1  0.500000  0.107246  0.470186  1
  B  B31  1  0.500000  0.892801  0.529511  1
  Os  Os32  1  0.000000  0.862284  0.821244  1
  Ru  Ru33  1  0.000000  0.637930  0.321089  1
  Ru  Ru34  1  0.000000  0.362272  0.679090  1
  Ru  Ru35  1  0.000000  0.137476  0.178556  1
