# generated using pymatgen
data_HoEr3TcOsC4
_symmetry_space_group_name_H-M   'P 1'
_cell_length_a   5.06126000
_cell_length_b   6.49060803
_cell_length_c   9.75122918
_cell_angle_alpha   89.59815158
_cell_angle_beta   90.00000000
_cell_angle_gamma   90.00000000
_symmetry_Int_Tables_number   1
_chemical_formula_structural   HoEr3TcOsC4
_chemical_formula_sum   'Ho2 Er6 Tc2 Os2 C8'
_cell_volume   320.32638503
_cell_formula_units_Z   2
loop_
 _symmetry_equiv_pos_site_id
 _symmetry_equiv_pos_as_xyz
  1  'x, y, z'
loop_
 _atom_site_type_symbol
 _atom_site_label
 _atom_site_symmetry_multiplicity
 _atom_site_fract_x
 _atom_site_fract_y
 _atom_site_fract_z
 _atom_site_occupancy
  Ho  Ho0  1  0.750000  0.971123  0.714962  1
  Ho  Ho1  1  0.250000  0.028877  0.285038  1
  Er  Er2  1  0.250000  0.679186  0.555800  1
  Er  Er3  1  0.750000  0.320814  0.444200  1
  Er  Er4  1  0.750000  0.821768  0.056082  1
  Er  Er5  1  0.250000  0.178232  0.943918  1
  Er  Er6  1  0.250000  0.530701  0.217142  1
  Er  Er7  1  0.750000  0.469299  0.782858  1
  Tc  Tc8  1  0.250000  0.720878  0.866477  1
  Tc  Tc9  1  0.750000  0.279122  0.133523  1
  Os  Os10  1  0.750000  0.777286  0.366119  1
  Os  Os11  1  0.250000  0.222714  0.633881  1
  C  C12  1  0.250000  0.455514  0.758423  1
  C  C13  1  0.750000  0.544486  0.241577  1
  C  C14  1  0.750000  0.043538  0.259000  1
  C  C15  1  0.250000  0.956462  0.741000  1
  C  C16  1  0.250000  0.823969  0.053034  1
  C  C17  1  0.750000  0.176031  0.946966  1
  C  C18  1  0.750000  0.673866  0.553218  1
  C  C19  1  0.250000  0.326134  0.446782  1
