# generated using pymatgen
data_NaZn4Ir
_symmetry_space_group_name_H-M   'P 1'
_cell_length_a   6.66917529
_cell_length_b   6.66917566
_cell_length_c   5.13981900
_cell_angle_alpha   90.00000000
_cell_angle_beta   90.00000000
_cell_angle_gamma   98.82505838
_symmetry_Int_Tables_number   1
_chemical_formula_structural   NaZn4Ir
_chemical_formula_sum   'Na2 Zn8 Ir2'
_cell_volume   225.90195537
_cell_formula_units_Z   2
loop_
 _symmetry_equiv_pos_site_id
 _symmetry_equiv_pos_as_xyz
  1  'x, y, z'
loop_
 _atom_site_type_symbol
 _atom_site_label
 _atom_site_symmetry_multiplicity
 _atom_site_fract_x
 _atom_site_fract_y
 _atom_site_fract_z
 _atom_site_occupancy
  Na  Na0  1  0.651614  0.651614  0.250000  1
  Na  Na1  1  0.348386  0.348386  0.750000  1
  Zn  Zn2  1  0.959565  0.959565  0.750000  1
  Zn  Zn3  1  0.040435  0.040435  0.250000  1
  Zn  Zn4  1  0.533518  0.948084  0.755100  1
  Zn  Zn5  1  0.466482  0.051916  0.255100  1
  Zn  Zn6  1  0.948084  0.533518  0.744900  1
  Zn  Zn7  1  0.051916  0.466482  0.244900  1
  Zn  Zn8  1  0.761259  0.238741  0.000000  1
  Zn  Zn9  1  0.238741  0.761259  0.500000  1
  Ir  Ir10  1  0.787819  0.212181  0.500000  1
  Ir  Ir11  1  0.212181  0.787819  0.000000  1
