# generated using pymatgen
data_Li2LaYSi4
_symmetry_space_group_name_H-M   'P 1'
_cell_length_a   3.86238800
_cell_length_b   7.73044167
_cell_length_c   10.44448726
_cell_angle_alpha   89.62303874
_cell_angle_beta   90.00000000
_cell_angle_gamma   90.00000000
_symmetry_Int_Tables_number   1
_chemical_formula_structural   Li2LaYSi4
_chemical_formula_sum   'Li4 La2 Y2 Si8'
_cell_volume   311.84438732
_cell_formula_units_Z   2
loop_
 _symmetry_equiv_pos_site_id
 _symmetry_equiv_pos_as_xyz
  1  'x, y, z'
loop_
 _atom_site_type_symbol
 _atom_site_label
 _atom_site_symmetry_multiplicity
 _atom_site_fract_x
 _atom_site_fract_y
 _atom_site_fract_z
 _atom_site_occupancy
  Li  Li0  1  0.250000  0.996203  0.388385  1
  Li  Li1  1  0.750000  0.003797  0.611615  1
  Li  Li2  1  0.250000  0.491895  0.106819  1
  Li  Li3  1  0.750000  0.508105  0.893181  1
  La  La4  1  0.250000  0.640916  0.636896  1
  La  La5  1  0.750000  0.359084  0.363104  1
  Y  Y6  1  0.250000  0.132453  0.865800  1
  Y  Y7  1  0.750000  0.867547  0.134200  1
  Si  Si8  1  0.750000  0.264697  0.063799  1
  Si  Si9  1  0.250000  0.735303  0.936201  1
  Si  Si10  1  0.750000  0.779570  0.422607  1
  Si  Si11  1  0.250000  0.220430  0.577393  1
  Si  Si12  1  0.750000  0.842590  0.827318  1
  Si  Si13  1  0.250000  0.157410  0.172682  1
  Si  Si14  1  0.750000  0.330721  0.683896  1
  Si  Si15  1  0.250000  0.669279  0.316104  1
