# generated using pymatgen
data_Tm2Lu6Ga3Rh
_symmetry_space_group_name_H-M   'P 1'
_cell_length_a   9.87936002
_cell_length_b   9.87560625
_cell_length_c   6.85422607
_cell_angle_alpha   89.99411424
_cell_angle_beta   90.01176705
_cell_angle_gamma   120.01257457
_symmetry_Int_Tables_number   1
_chemical_formula_structural   Tm2Lu6Ga3Rh
_chemical_formula_sum   'Tm4 Lu12 Ga6 Rh2'
_cell_volume   579.06402098
_cell_formula_units_Z   2
loop_
 _symmetry_equiv_pos_site_id
 _symmetry_equiv_pos_as_xyz
  1  'x, y, z'
loop_
 _atom_site_type_symbol
 _atom_site_label
 _atom_site_symmetry_multiplicity
 _atom_site_fract_x
 _atom_site_fract_y
 _atom_site_fract_z
 _atom_site_occupancy
  Tm  Tm0  1  0.067149  0.533554  0.295217  1
  Tm  Tm1  1  0.533593  0.466446  0.795217  1
  Tm  Tm2  1  0.000095  0.999986  0.266446  1
  Tm  Tm3  1  0.000109  0.000014  0.766446  1
  Lu  Lu4  1  0.171982  0.828435  0.988656  1
  Lu  Lu5  1  0.343547  0.171565  0.488656  1
  Lu  Lu6  1  0.828207  0.656691  0.489042  1
  Lu  Lu7  1  0.171518  0.343309  0.989042  1
  Lu  Lu8  1  0.656700  0.828700  0.989433  1
  Lu  Lu9  1  0.828000  0.171300  0.489433  1
  Lu  Lu10  1  0.333576  0.667055  0.663673  1
  Lu  Lu11  1  0.666522  0.332945  0.163673  1
  Lu  Lu12  1  0.465993  0.534148  0.295288  1
  Lu  Lu13  1  0.931844  0.465852  0.795288  1
  Lu  Lu14  1  0.534054  0.067927  0.795280  1
  Lu  Lu15  1  0.466126  0.932073  0.295280  1
  Ga  Ga16  1  0.163365  0.836717  0.541372  1
  Ga  Ga17  1  0.326649  0.163283  0.041372  1
  Ga  Ga18  1  0.836852  0.673377  0.041073  1
  Ga  Ga19  1  0.163474  0.326623  0.541073  1
  Ga  Ga20  1  0.673078  0.836433  0.540886  1
  Ga  Ga21  1  0.836646  0.163567  0.040886  1
  Rh  Rh22  1  0.333937  0.666954  0.055638  1
  Rh  Rh23  1  0.666983  0.333046  0.555638  1
