# generated using pymatgen
data_Dy5MoAsO12
_symmetry_space_group_name_H-M   'P 1'
_cell_length_a   6.85509417
_cell_length_b   6.85509482
_cell_length_c   7.23569189
_cell_angle_alpha   74.62242141
_cell_angle_beta   74.62241725
_cell_angle_gamma   51.45417173
_symmetry_Int_Tables_number   1
_chemical_formula_structural   Dy5MoAsO12
_chemical_formula_sum   'Dy5 Mo1 As1 O12'
_cell_volume   254.15239431
_cell_formula_units_Z   1
loop_
 _symmetry_equiv_pos_site_id
 _symmetry_equiv_pos_as_xyz
  1  'x, y, z'
loop_
 _atom_site_type_symbol
 _atom_site_label
 _atom_site_symmetry_multiplicity
 _atom_site_fract_x
 _atom_site_fract_y
 _atom_site_fract_z
 _atom_site_occupancy
  Dy  Dy0  1  0.304279  0.296891  0.361057  1
  Dy  Dy1  1  0.703109  0.695721  0.638943  1
  Dy  Dy2  1  0.310039  0.300233  0.832081  1
  Dy  Dy3  1  0.699767  0.689961  0.167919  1
  Dy  Dy4  1  0.990114  0.009886  0.500000  1
  Mo  Mo5  1  0.237960  0.762040  0.000000  1
  As  As6  1  0.748712  0.251288  0.000000  1
  O  O7  1  0.895835  0.416832  0.919313  1
  O  O8  1  0.440344  0.897622  0.917441  1
  O  O9  1  0.102378  0.559656  0.082559  1
  O  O10  1  0.583168  0.104165  0.080687  1
  O  O11  1  0.098464  0.597475  0.577194  1
  O  O12  1  0.598554  0.095093  0.572224  1
  O  O13  1  0.904907  0.401446  0.427776  1
  O  O14  1  0.402525  0.901536  0.422806  1
  O  O15  1  0.972305  0.027156  0.820684  1
  O  O16  1  0.972844  0.027695  0.179316  1
  O  O17  1  0.516672  0.481974  0.818629  1
  O  O18  1  0.518026  0.483328  0.181371  1
