# generated using pymatgen
data_Lu(Mn2Si)2
_symmetry_space_group_name_H-M   'P 1'
_cell_length_a   6.54339100
_cell_length_b   7.37735100
_cell_length_c   3.90696500
_cell_angle_alpha   90.00000000
_cell_angle_beta   90.00000000
_cell_angle_gamma   90.00000000
_symmetry_Int_Tables_number   1
_chemical_formula_structural   Lu(Mn2Si)2
_chemical_formula_sum   'Lu2 Mn8 Si4'
_cell_volume   188.60050003
_cell_formula_units_Z   2
loop_
 _symmetry_equiv_pos_site_id
 _symmetry_equiv_pos_as_xyz
  1  'x, y, z'
loop_
 _atom_site_type_symbol
 _atom_site_label
 _atom_site_symmetry_multiplicity
 _atom_site_fract_x
 _atom_site_fract_y
 _atom_site_fract_z
 _atom_site_occupancy
  Lu  Lu0  1  0.500000  0.500000  0.000000  1
  Lu  Lu1  1  0.000000  0.000000  0.500000  1
  Mn  Mn2  1  0.855290  0.385554  0.500000  1
  Mn  Mn3  1  0.144710  0.614446  0.500000  1
  Mn  Mn4  1  0.644710  0.885554  0.000000  1
  Mn  Mn5  1  0.355290  0.114446  0.000000  1
  Mn  Mn6  1  0.565763  0.152114  0.500000  1
  Mn  Mn7  1  0.434237  0.847886  0.500000  1
  Mn  Mn8  1  0.934237  0.652114  0.000000  1
  Mn  Mn9  1  0.065763  0.347886  0.000000  1
  Si  Si10  1  0.259925  0.311914  0.500000  1
  Si  Si11  1  0.740075  0.688086  0.500000  1
  Si  Si12  1  0.240075  0.811914  0.000000  1
  Si  Si13  1  0.759925  0.188086  0.000000  1
