# generated using pymatgen
data_YbHoAl7Si2Ir3
_symmetry_space_group_name_H-M   'P 1'
_cell_length_a   7.49699587
_cell_length_b   7.47190604
_cell_length_c   9.41922936
_cell_angle_alpha   89.97094181
_cell_angle_beta   90.01722581
_cell_angle_gamma   119.85433205
_symmetry_Int_Tables_number   1
_chemical_formula_structural   YbHoAl7Si2Ir3
_chemical_formula_sum   'Yb2 Ho2 Al14 Si4 Ir6'
_cell_volume   457.61497613
_cell_formula_units_Z   2
loop_
 _symmetry_equiv_pos_site_id
 _symmetry_equiv_pos_as_xyz
  1  'x, y, z'
loop_
 _atom_site_type_symbol
 _atom_site_label
 _atom_site_symmetry_multiplicity
 _atom_site_fract_x
 _atom_site_fract_y
 _atom_site_fract_z
 _atom_site_occupancy
  Yb  Yb0  1  0.669872  0.001015  0.249974  1
  Yb  Yb1  1  0.319625  0.990920  0.745308  1
  Ho  Ho2  1  0.000858  0.669160  0.249919  1
  Ho  Ho3  1  0.005399  0.341530  0.754582  1
  Al  Al4  1  0.130723  0.126630  0.250117  1
  Al  Al5  1  0.871969  0.872087  0.750048  1
  Al  Al6  1  0.000277  0.328022  0.427768  1
  Al  Al7  1  0.668785  0.000194  0.576325  1
  Al  Al8  1  0.662361  0.997716  0.923506  1
  Al  Al9  1  0.340492  0.004630  0.070853  1
  Al  Al10  1  0.332825  0.333593  0.558337  1
  Al  Al11  1  0.663563  0.668362  0.441203  1
  Al  Al12  1  0.662984  0.668226  0.058644  1
  Al  Al13  1  0.336596  0.332156  0.941843  1
  Al  Al14  1  0.337498  0.546862  0.250352  1
  Al  Al15  1  0.660036  0.450642  0.751217  1
  Al  Al16  1  0.549339  0.345110  0.249705  1
  Al  Al17  1  0.454846  0.659068  0.748941  1
  Si  Si18  1  0.000912  0.327019  0.076783  1
  Si  Si19  1  0.997757  0.672277  0.930988  1
  Si  Si20  1  0.991983  0.660001  0.568937  1
  Si  Si21  1  0.340891  0.007059  0.424372  1
  Ir  Ir22  1  0.690315  0.338978  0.002079  1
  Ir  Ir23  1  0.309715  0.661113  0.998506  1
  Ir  Ir24  1  0.317671  0.677119  0.499713  1
  Ir  Ir25  1  0.673877  0.330282  0.499965  1
  Ir  Ir26  1  0.001142  0.999444  0.000577  1
  Ir  Ir27  1  0.007690  0.990784  0.499437  1
