# generated using pymatgen
data_YbSm4Tm2CoI12
_symmetry_space_group_name_H-M   'P 1'
_cell_length_a   9.76992704
_cell_length_b   9.83179009
_cell_length_c   9.83769960
_cell_angle_alpha   106.82414074
_cell_angle_beta   107.07089214
_cell_angle_gamma   106.75464720
_symmetry_Int_Tables_number   1
_chemical_formula_structural   YbSm4Tm2CoI12
_chemical_formula_sum   'Yb1 Sm4 Tm2 Co1 I12'
_cell_volume   789.46738306
_cell_formula_units_Z   1
loop_
 _symmetry_equiv_pos_site_id
 _symmetry_equiv_pos_as_xyz
  1  'x, y, z'
loop_
 _atom_site_type_symbol
 _atom_site_label
 _atom_site_symmetry_multiplicity
 _atom_site_fract_x
 _atom_site_fract_y
 _atom_site_fract_z
 _atom_site_occupancy
  Yb  Yb0  1  0.499491  0.500616  0.500158  1
  Sm  Sm1  1  0.286313  0.024308  0.095135  1
  Sm  Sm2  1  0.976248  0.904379  0.698184  1
  Sm  Sm3  1  0.902291  0.698220  0.975701  1
  Sm  Sm4  1  0.714982  0.977426  0.909048  1
  Tm  Tm5  1  0.024934  0.097282  0.290245  1
  Tm  Tm6  1  0.095127  0.290094  0.025037  1
  Co  Co7  1  0.000569  0.999133  0.999796  1
  I  I8  1  0.148099  0.451826  0.373978  1
  I  I9  1  0.453134  0.382341  0.152264  1
  I  I10  1  0.374634  0.154910  0.460186  1
  I  I11  1  0.846058  0.538864  0.617557  1
  I  I12  1  0.537215  0.618148  0.843995  1
  I  I13  1  0.615602  0.845438  0.540466  1
  I  I14  1  0.688297  0.075404  0.231433  1
  I  I15  1  0.074342  0.231391  0.683691  1
  I  I16  1  0.228034  0.675773  0.073983  1
  I  I17  1  0.323024  0.928280  0.776739  1
  I  I18  1  0.930350  0.784979  0.323358  1
  I  I19  1  0.781255  0.321188  0.929045  1
