# generated using pymatgen
data_Nb2Cd3F12
_symmetry_space_group_name_H-M   'P 1'
_cell_length_a   9.07926800
_cell_length_b   6.07817878
_cell_length_c   12.33511700
_cell_angle_alpha   86.12775971
_cell_angle_beta   90.00000000
_cell_angle_gamma   90.00000000
_symmetry_Int_Tables_number   1
_chemical_formula_structural   Nb2Cd3F12
_chemical_formula_sum   'Nb4 Cd6 F24'
_cell_volume   679.16453777
_cell_formula_units_Z   2
loop_
 _symmetry_equiv_pos_site_id
 _symmetry_equiv_pos_as_xyz
  1  'x, y, z'
loop_
 _atom_site_type_symbol
 _atom_site_label
 _atom_site_symmetry_multiplicity
 _atom_site_fract_x
 _atom_site_fract_y
 _atom_site_fract_z
 _atom_site_occupancy
  Nb  Nb0  1  0.144541  0.706878  0.673349  1
  Nb  Nb1  1  0.644541  0.293122  0.826651  1
  Nb  Nb2  1  0.855459  0.293122  0.326651  1
  Nb  Nb3  1  0.355459  0.706878  0.173349  1
  Cd  Cd4  1  0.725846  0.730495  0.561283  1
  Cd  Cd5  1  0.225846  0.269505  0.938717  1
  Cd  Cd6  1  0.274154  0.269505  0.438717  1
  Cd  Cd7  1  0.774154  0.730495  0.061283  1
  Cd  Cd8  1  0.500000  0.000000  0.500000  1
  Cd  Cd9  1  0.000000  0.000000  0.000000  1
  F  F10  1  0.954223  0.593351  0.620160  1
  F  F11  1  0.454223  0.406649  0.879840  1
  F  F12  1  0.045777  0.406649  0.379840  1
  F  F13  1  0.545777  0.593351  0.120160  1
  F  F14  1  0.196807  0.410649  0.730972  1
  F  F15  1  0.696807  0.589351  0.769028  1
  F  F16  1  0.803193  0.589351  0.269028  1
  F  F17  1  0.303193  0.410649  0.230972  1
  F  F18  1  0.061251  0.746817  0.814520  1
  F  F19  1  0.561251  0.253183  0.685480  1
  F  F20  1  0.172493  0.836913  0.211771  1
  F  F21  1  0.672493  0.163087  0.288229  1
  F  F22  1  0.827507  0.163087  0.788229  1
  F  F23  1  0.327507  0.836913  0.711771  1
  F  F24  1  0.264064  0.629927  0.036240  1
  F  F25  1  0.764064  0.370073  0.463760  1
  F  F26  1  0.735936  0.370073  0.963760  1
  F  F27  1  0.235936  0.629927  0.536240  1
  F  F28  1  0.421925  0.987989  0.111509  1
  F  F29  1  0.921925  0.012011  0.388491  1
  F  F30  1  0.578075  0.012011  0.888491  1
  F  F31  1  0.078075  0.987989  0.611509  1
  F  F32  1  0.438749  0.746817  0.314520  1
  F  F33  1  0.938749  0.253183  0.185480  1
