# generated using pymatgen
data_Ac3Nd(IrBr)2
_symmetry_space_group_name_H-M   'P 1'
_cell_length_a   4.31122900
_cell_length_b   4.31122853
_cell_length_c   16.41233800
_cell_angle_alpha   90.00000000
_cell_angle_beta   90.00000000
_cell_angle_gamma   120.00001131
_symmetry_Int_Tables_number   1
_chemical_formula_structural   Ac3Nd(IrBr)2
_chemical_formula_sum   'Ac3 Nd1 Ir2 Br2'
_cell_volume   264.18196778
_cell_formula_units_Z   1
loop_
 _symmetry_equiv_pos_site_id
 _symmetry_equiv_pos_as_xyz
  1  'x, y, z'
loop_
 _atom_site_type_symbol
 _atom_site_label
 _atom_site_symmetry_multiplicity
 _atom_site_fract_x
 _atom_site_fract_y
 _atom_site_fract_z
 _atom_site_occupancy
  Ac  Ac0  1  0.333333  0.666667  0.100784  1
  Ac  Ac1  1  0.666667  0.333333  0.591369  1
  Ac  Ac2  1  0.666667  0.333333  0.902676  1
  Nd  Nd3  1  0.333333  0.666667  0.403552  1
  Ir  Ir4  1  0.000000  0.000000  0.001660  1
  Ir  Ir5  1  0.000000  0.000000  0.493247  1
  Br  Br6  1  0.666667  0.333333  0.257839  1
  Br  Br7  1  0.333333  0.666667  0.748874  1
