# generated using pymatgen
data_CaLa2YbSi8
_symmetry_space_group_name_H-M   'P 1'
_cell_length_a   4.34849600
_cell_length_b   4.34849600
_cell_length_c   13.48145600
_cell_angle_alpha   90.00000000
_cell_angle_beta   90.00000000
_cell_angle_gamma   90.00000000
_symmetry_Int_Tables_number   1
_chemical_formula_structural   CaLa2YbSi8
_chemical_formula_sum   'Ca1 La2 Yb1 Si8'
_cell_volume   254.92647950
_cell_formula_units_Z   1
loop_
 _symmetry_equiv_pos_site_id
 _symmetry_equiv_pos_as_xyz
  1  'x, y, z'
loop_
 _atom_site_type_symbol
 _atom_site_label
 _atom_site_symmetry_multiplicity
 _atom_site_fract_x
 _atom_site_fract_y
 _atom_site_fract_z
 _atom_site_occupancy
  Ca  Ca0  1  0.500000  0.500000  0.000000  1
  La  La1  1  0.500000  0.000000  0.750068  1
  La  La2  1  0.000000  0.500000  0.249932  1
  Yb  Yb3  1  0.000000  0.000000  0.500000  1
  Si  Si4  1  0.000000  0.000000  0.914287  1
  Si  Si5  1  0.500000  0.500000  0.414573  1
  Si  Si6  1  0.000000  0.500000  0.835158  1
  Si  Si7  1  0.500000  0.000000  0.335464  1
  Si  Si8  1  0.000000  0.000000  0.085713  1
  Si  Si9  1  0.500000  0.500000  0.585427  1
  Si  Si10  1  0.500000  0.000000  0.164842  1
  Si  Si11  1  0.000000  0.500000  0.664536  1
