# generated using pymatgen
data_Dy8Ho11ErPb16
_symmetry_space_group_name_H-M   'P 1'
_cell_length_a   8.19673700
_cell_length_b   8.27296800
_cell_length_c   15.62503400
_cell_angle_alpha   90.00000000
_cell_angle_beta   90.00000000
_cell_angle_gamma   90.00325622
_symmetry_Int_Tables_number   1
_chemical_formula_structural   Dy8Ho11ErPb16
_chemical_formula_sum   'Dy8 Ho11 Er1 Pb16'
_cell_volume   1059.55453763
_cell_formula_units_Z   1
loop_
 _symmetry_equiv_pos_site_id
 _symmetry_equiv_pos_as_xyz
  1  'x, y, z'
loop_
 _atom_site_type_symbol
 _atom_site_label
 _atom_site_symmetry_multiplicity
 _atom_site_fract_x
 _atom_site_fract_y
 _atom_site_fract_z
 _atom_site_occupancy
  Dy  Dy0  1  0.536394  0.323220  0.899926  1
  Dy  Dy1  1  0.036388  0.176784  0.600070  1
  Dy  Dy2  1  0.463602  0.676803  0.399930  1
  Dy  Dy3  1  0.963636  0.823241  0.100075  1
  Dy  Dy4  1  0.463602  0.676803  0.100070  1
  Dy  Dy5  1  0.963636  0.823241  0.399925  1
  Dy  Dy6  1  0.536394  0.323220  0.600074  1
  Dy  Dy7  1  0.036388  0.176784  0.899930  1
  Ho  Ho8  1  0.376457  0.841216  0.879188  1
  Ho  Ho9  1  0.876461  0.658780  0.620818  1
  Ho  Ho10  1  0.623502  0.158759  0.379184  1
  Ho  Ho11  1  0.123568  0.341199  0.120812  1
  Ho  Ho12  1  0.623502  0.158759  0.120816  1
  Ho  Ho13  1  0.123568  0.341199  0.379188  1
  Ho  Ho14  1  0.376457  0.841216  0.620812  1
  Ho  Ho15  1  0.876461  0.658780  0.879182  1
  Ho  Ho16  1  0.208259  0.504382  0.750000  1
  Ho  Ho17  1  0.708262  0.995634  0.750000  1
  Ho  Ho18  1  0.791748  0.495643  0.250000  1
  Er  Er19  1  0.291636  0.004335  0.250000  1
  Pb  Pb20  1  0.281489  0.033136  0.042883  1
  Pb  Pb21  1  0.781487  0.466870  0.457158  1
  Pb  Pb22  1  0.718516  0.966862  0.542834  1
  Pb  Pb23  1  0.218518  0.533136  0.957169  1
  Pb  Pb24  1  0.718516  0.966862  0.957166  1
  Pb  Pb25  1  0.218518  0.533136  0.542831  1
  Pb  Pb26  1  0.281489  0.033136  0.457117  1
  Pb  Pb27  1  0.781487  0.466870  0.042842  1
  Pb  Pb28  1  0.571252  0.626942  0.750000  1
  Pb  Pb29  1  0.071250  0.873056  0.750000  1
  Pb  Pb30  1  0.428731  0.372994  0.250000  1
  Pb  Pb31  1  0.928857  0.126894  0.250000  1
  Pb  Pb32  1  0.347304  0.153375  0.750000  1
  Pb  Pb33  1  0.847303  0.346607  0.750000  1
  Pb  Pb34  1  0.652656  0.846633  0.250000  1
  Pb  Pb35  1  0.152702  0.653494  0.250000  1
