# generated using pymatgen
data_La2Ta3Ni9P7
_symmetry_space_group_name_H-M   'P 1'
_cell_length_a   3.78710600
_cell_length_b   9.40061627
_cell_length_c   9.40061500
_cell_angle_alpha   120.00000609
_cell_angle_beta   90.00000000
_cell_angle_gamma   90.00000000
_symmetry_Int_Tables_number   1
_chemical_formula_structural   La2Ta3Ni9P7
_chemical_formula_sum   'La2 Ta3 Ni9 P7'
_cell_volume   289.83488585
_cell_formula_units_Z   1
loop_
 _symmetry_equiv_pos_site_id
 _symmetry_equiv_pos_as_xyz
  1  'x, y, z'
loop_
 _atom_site_type_symbol
 _atom_site_label
 _atom_site_symmetry_multiplicity
 _atom_site_fract_x
 _atom_site_fract_y
 _atom_site_fract_z
 _atom_site_occupancy
  La  La0  1  0.000000  0.666667  0.333333  1
  La  La1  1  0.500000  0.333333  0.666667  1
  Ta  Ta2  1  0.500000  0.778853  0.893239  1
  Ta  Ta3  1  0.500000  0.114387  0.221147  1
  Ta  Ta4  1  0.500000  0.106761  0.885613  1
  Ni  Ni5  1  0.000000  0.571908  0.935514  1
  Ni  Ni6  1  0.000000  0.363606  0.428092  1
  Ni  Ni7  1  0.000000  0.064486  0.636394  1
  Ni  Ni8  1  0.000000  0.870278  0.149343  1
  Ni  Ni9  1  0.000000  0.279066  0.129722  1
  Ni  Ni10  1  0.000000  0.850657  0.720934  1
  Ni  Ni11  1  0.500000  0.942070  0.379297  1
  Ni  Ni12  1  0.500000  0.437226  0.057930  1
  Ni  Ni13  1  0.500000  0.620703  0.562774  1
  P  P14  1  0.500000  0.704351  0.108995  1
  P  P15  1  0.500000  0.404644  0.295649  1
  P  P16  1  0.500000  0.891005  0.595356  1
  P  P17  1  0.000000  0.000000  0.000000  1
  P  P18  1  0.000000  0.590993  0.692196  1
  P  P19  1  0.000000  0.101204  0.409007  1
  P  P20  1  0.000000  0.307804  0.898796  1
