# generated using pymatgen
data_Ho12CdTc2Ni2Sn
_symmetry_space_group_name_H-M   'P 1'
_cell_length_a   8.42459403
_cell_length_b   8.42459520
_cell_length_c   8.42459553
_cell_angle_alpha   113.48116525
_cell_angle_beta   110.52204503
_cell_angle_gamma   104.53579723
_symmetry_Int_Tables_number   1
_chemical_formula_structural   Ho12CdTc2Ni2Sn
_chemical_formula_sum   'Ho12 Cd1 Tc2 Ni2 Sn1'
_cell_volume   457.41568336
_cell_formula_units_Z   1
loop_
 _symmetry_equiv_pos_site_id
 _symmetry_equiv_pos_as_xyz
  1  'x, y, z'
loop_
 _atom_site_type_symbol
 _atom_site_label
 _atom_site_symmetry_multiplicity
 _atom_site_fract_x
 _atom_site_fract_y
 _atom_site_fract_z
 _atom_site_occupancy
  Ho  Ho0  1  0.437975  0.239196  0.198778  1
  Ho  Ho1  1  0.562025  0.760804  0.801222  1
  Ho  Ho2  1  0.040417  0.239196  0.801222  1
  Ho  Ho3  1  0.959583  0.760804  0.198778  1
  Ho  Ho4  1  0.183095  0.285177  0.468273  1
  Ho  Ho5  1  0.816905  0.714823  0.531727  1
  Ho  Ho6  1  0.183095  0.714823  0.897919  1
  Ho  Ho7  1  0.816905  0.285177  0.102081  1
  Ho  Ho8  1  0.332086  0.648123  0.316037  1
  Ho  Ho9  1  0.667914  0.351877  0.683963  1
  Ho  Ho10  1  0.332086  0.016048  0.683963  1
  Ho  Ho11  1  0.667914  0.983952  0.316037  1
  Cd  Cd12  1  0.000000  0.000000  0.000000  1
  Tc  Tc13  1  0.324336  0.000000  0.324336  1
  Tc  Tc14  1  0.675664  0.000000  0.675664  1
  Ni  Ni15  1  0.116064  0.616064  0.500000  1
  Ni  Ni16  1  0.883936  0.383936  0.500000  1
  Sn  Sn17  1  0.500000  0.500000  0.000000  1
