# generated using pymatgen
data_Cs7Rb13V12O40
_symmetry_space_group_name_H-M   'P 1'
_cell_length_a   8.58799100
_cell_length_b   8.58799100
_cell_length_c   19.88582700
_cell_angle_alpha   90.00000000
_cell_angle_beta   90.00000000
_cell_angle_gamma   90.00000000
_symmetry_Int_Tables_number   1
_chemical_formula_structural   Cs7Rb13V12O40
_chemical_formula_sum   'Cs7 Rb13 V12 O40'
_cell_volume   1466.65111976
_cell_formula_units_Z   1
loop_
 _symmetry_equiv_pos_site_id
 _symmetry_equiv_pos_as_xyz
  1  'x, y, z'
loop_
 _atom_site_type_symbol
 _atom_site_label
 _atom_site_symmetry_multiplicity
 _atom_site_fract_x
 _atom_site_fract_y
 _atom_site_fract_z
 _atom_site_occupancy
  Cs  Cs0  1  0.477304  0.012212  0.133337  1
  Cs  Cs1  1  0.521692  0.987797  0.630625  1
  Cs  Cs2  1  0.488120  0.979434  0.381780  1
  Cs  Cs3  1  0.022240  0.512162  0.118327  1
  Cs  Cs4  1  0.512190  0.021801  0.882045  1
  Cs  Cs5  1  0.978663  0.488089  0.617499  1
  Cs  Cs6  1  0.012235  0.478190  0.867910  1
  Rb  Rb7  1  0.991828  0.524391  0.366497  1
  Rb  Rb8  1  0.001736  0.026708  0.109438  1
  Rb  Rb9  1  0.999637  0.971768  0.608946  1
  Rb  Rb10  1  0.472604  0.501742  0.359912  1
  Rb  Rb11  1  0.496831  0.527288  0.141565  1
  Rb  Rb12  1  0.527440  0.498034  0.859327  1
  Rb  Rb13  1  0.502472  0.473045  0.640527  1
  Rb  Rb14  1  0.027336  0.001923  0.890646  1
  Rb  Rb15  1  0.972254  0.996502  0.391186  1
  Rb  Rb16  1  0.761888  0.761748  0.000353  1
  Rb  Rb17  1  0.237721  0.241470  0.499760  1
  Rb  Rb18  1  0.738288  0.262886  0.250698  1
  Rb  Rb19  1  0.262058  0.737812  0.749268  1
  V  V20  1  0.225195  0.230579  0.271684  1
  V  V21  1  0.771016  0.772087  0.769899  1
  V  V22  1  0.271931  0.728189  0.517494  1
  V  V23  1  0.271191  0.728042  0.980028  1
  V  V24  1  0.727954  0.270889  0.020174  1
  V  V25  1  0.731668  0.272884  0.479797  1
  V  V26  1  0.228332  0.228944  0.729844  1
  V  V27  1  0.771977  0.769180  0.231049  1
  V  V28  1  0.311289  0.311165  0.000086  1
  V  V29  1  0.689723  0.686045  0.498798  1
  V  V30  1  0.186729  0.811138  0.251790  1
  V  V31  1  0.811248  0.188711  0.749845  1
  O  O32  1  0.061613  0.319300  0.241643  1
  O  O33  1  0.935680  0.685813  0.739537  1
  O  O34  1  0.180960  0.568296  0.484927  1
  O  O35  1  0.435555  0.814516  0.010484  1
  O  O36  1  0.814291  0.435501  0.989906  1
  O  O37  1  0.565869  0.182935  0.506941  1
  O  O38  1  0.314477  0.064130  0.759988  1
  O  O39  1  0.686405  0.934622  0.261040  1
  O  O40  1  0.235720  0.231726  0.070250  1
  O  O41  1  0.764120  0.771590  0.567826  1
  O  O42  1  0.267096  0.734922  0.321535  1
  O  O43  1  0.263568  0.734625  0.181213  1
  O  O44  1  0.731998  0.264185  0.820058  1
  O  O45  1  0.735505  0.268021  0.679738  1
  O  O46  1  0.231867  0.235579  0.929948  1
  O  O47  1  0.771876  0.753398  0.427633  1
  O  O48  1  0.226884  0.248506  0.357797  1
  O  O49  1  0.770107  0.756733  0.856203  1
  O  O50  1  0.257007  0.724225  0.603899  1
  O  O51  1  0.270386  0.743407  0.893702  1
  O  O52  1  0.743082  0.269836  0.106480  1
  O  O53  1  0.738484  0.265139  0.393365  1
  O  O54  1  0.243727  0.230167  0.643529  1
  O  O55  1  0.758199  0.769129  0.144662  1
  O  O56  1  0.216364  0.019242  0.248893  1
  O  O57  1  0.777061  0.981801  0.745711  1
  O  O58  1  0.482336  0.719819  0.493503  1
  O  O59  1  0.277214  0.518105  0.004107  1
  O  O60  1  0.518130  0.276990  0.995946  1
  O  O61  1  0.721656  0.479752  0.507607  1
  O  O62  1  0.018256  0.222836  0.753937  1
  O  O63  1  0.980888  0.772089  0.256368  1
  O  O64  1  0.393767  0.307698  0.239846  1
  O  O65  1  0.603356  0.691680  0.738744  1
  O  O66  1  0.195468  0.899947  0.488734  1
  O  O67  1  0.103546  0.808537  0.011097  1
  O  O68  1  0.808690  0.103348  0.989030  1
  O  O69  1  0.897670  0.190586  0.511542  1
  O  O70  1  0.308616  0.396512  0.761058  1
  O  O71  1  0.689721  0.601902  0.261440  1
