# generated using pymatgen
data_Pu4ReB16Ru2W
_symmetry_space_group_name_H-M   'P 1'
_cell_length_a   6.01424589
_cell_length_b   11.64086800
_cell_length_c   3.55585200
_cell_angle_alpha   90.00000000
_cell_angle_beta   90.00000000
_cell_angle_gamma   90.09399476
_symmetry_Int_Tables_number   1
_chemical_formula_structural   Pu4ReB16Ru2W
_chemical_formula_sum   'Pu4 Re1 B16 Ru2 W1'
_cell_volume   248.94857052
_cell_formula_units_Z   1
loop_
 _symmetry_equiv_pos_site_id
 _symmetry_equiv_pos_as_xyz
  1  'x, y, z'
loop_
 _atom_site_type_symbol
 _atom_site_label
 _atom_site_symmetry_multiplicity
 _atom_site_fract_x
 _atom_site_fract_y
 _atom_site_fract_z
 _atom_site_occupancy
  Pu  Pu0  1  0.627226  0.351660  0.000000  1
  Pu  Pu1  1  0.373251  0.647429  0.000000  1
  Pu  Pu2  1  0.125622  0.152692  0.000000  1
  Pu  Pu3  1  0.873810  0.847832  0.000000  1
  Re  Re4  1  0.631591  0.088328  0.000000  1
  B  B5  1  0.786504  0.187334  0.500000  1
  B  B6  1  0.210443  0.810783  0.500000  1
  B  B7  1  0.286676  0.314780  0.500000  1
  B  B8  1  0.714198  0.684878  0.500000  1
  B  B9  1  0.865726  0.033158  0.500000  1
  B  B10  1  0.132195  0.969231  0.500000  1
  B  B11  1  0.364508  0.468359  0.500000  1
  B  B12  1  0.635519  0.531662  0.500000  1
  B  B13  1  0.886224  0.453246  0.500000  1
  B  B14  1  0.113600  0.546424  0.500000  1
  B  B15  1  0.385533  0.048589  0.500000  1
  B  B16  1  0.617590  0.953917  0.500000  1
  B  B17  1  0.973307  0.308788  0.500000  1
  B  B18  1  0.025271  0.690726  0.500000  1
  B  B19  1  0.474387  0.193275  0.500000  1
  B  B20  1  0.528652  0.806247  0.500000  1
  Ru  Ru21  1  0.137220  0.408581  0.000000  1
  Ru  Ru22  1  0.863373  0.590281  0.000000  1
  W  W23  1  0.367575  0.911805  0.000000  1
