# generated using pymatgen
data_TbNd3Y(In2Pt)2
_symmetry_space_group_name_H-M   'P 1'
_cell_length_a   3.75721800
_cell_length_b   8.30057490
_cell_length_c   18.47443301
_cell_angle_alpha   90.16282730
_cell_angle_beta   90.00000000
_cell_angle_gamma   90.00000000
_symmetry_Int_Tables_number   1
_chemical_formula_structural   TbNd3Y(In2Pt)2
_chemical_formula_sum   'Tb2 Nd6 Y2 In8 Pt4'
_cell_volume   576.16109821
_cell_formula_units_Z   2
loop_
 _symmetry_equiv_pos_site_id
 _symmetry_equiv_pos_as_xyz
  1  'x, y, z'
loop_
 _atom_site_type_symbol
 _atom_site_label
 _atom_site_symmetry_multiplicity
 _atom_site_fract_x
 _atom_site_fract_y
 _atom_site_fract_z
 _atom_site_occupancy
  Tb  Tb0  1  0.000000  0.116832  0.413351  1
  Tb  Tb1  1  0.000000  0.883138  0.586627  1
  Nd  Nd2  1  0.000000  0.239789  0.215778  1
  Nd  Nd3  1  0.000000  0.760275  0.784242  1
  Nd  Nd4  1  0.000000  0.260665  0.715959  1
  Nd  Nd5  1  0.000000  0.739391  0.284024  1
  Nd  Nd6  1  0.000000  0.999987  0.999990  1
  Nd  Nd7  1  0.000000  0.499964  0.500010  1
  Y  Y8  1  0.000000  0.382935  0.913632  1
  Y  Y9  1  0.000000  0.617037  0.086403  1
  In  In10  1  0.500000  0.415946  0.349371  1
  In  In11  1  0.500000  0.584094  0.650657  1
  In  In12  1  0.500000  0.084702  0.849536  1
  In  In13  1  0.500000  0.915379  0.150453  1
  In  In14  1  0.500000  0.302426  0.062784  1
  In  In15  1  0.500000  0.697529  0.937230  1
  In  In16  1  0.500000  0.198323  0.562957  1
  In  In17  1  0.500000  0.801568  0.436982  1
  Pt  Pt18  1  0.500000  0.025960  0.305212  1
  Pt  Pt19  1  0.500000  0.974047  0.694777  1
  Pt  Pt20  1  0.500000  0.474230  0.804888  1
  Pt  Pt21  1  0.500000  0.525784  0.195133  1
