# generated using pymatgen
data_Cs2CdInBi2
_symmetry_space_group_name_H-M   'P 1'
_cell_length_a   11.65071157
_cell_length_b   11.65071206
_cell_length_c   7.66461400
_cell_angle_alpha   90.00000000
_cell_angle_beta   90.00000000
_cell_angle_gamma   98.13158158
_symmetry_Int_Tables_number   1
_chemical_formula_structural   Cs2CdInBi2
_chemical_formula_sum   'Cs8 Cd4 In4 Bi8'
_cell_volume   1029.92747466
_cell_formula_units_Z   4
loop_
 _symmetry_equiv_pos_site_id
 _symmetry_equiv_pos_as_xyz
  1  'x, y, z'
loop_
 _atom_site_type_symbol
 _atom_site_label
 _atom_site_symmetry_multiplicity
 _atom_site_fract_x
 _atom_site_fract_y
 _atom_site_fract_z
 _atom_site_occupancy
  Cs  Cs0  1  0.086624  0.413376  0.250000  1
  Cs  Cs1  1  0.413376  0.086624  0.750000  1
  Cs  Cs2  1  0.913376  0.586624  0.750000  1
  Cs  Cs3  1  0.586624  0.913376  0.250000  1
  Cs  Cs4  1  0.664206  0.335794  0.241923  1
  Cs  Cs5  1  0.835794  0.164206  0.741923  1
  Cs  Cs6  1  0.335794  0.664206  0.758077  1
  Cs  Cs7  1  0.164206  0.835794  0.258077  1
  Cd  Cd8  1  0.374585  0.374585  0.000000  1
  Cd  Cd9  1  0.125415  0.125415  0.500000  1
  Cd  Cd10  1  0.625415  0.625415  0.000000  1
  Cd  Cd11  1  0.874585  0.874585  0.500000  1
  In  In12  1  0.123084  0.123084  0.000000  1
  In  In13  1  0.376916  0.376916  0.500000  1
  In  In14  1  0.876916  0.876916  0.000000  1
  In  In15  1  0.623084  0.623084  0.500000  1
  Bi  Bi16  1  0.842005  0.657994  0.250000  1
  Bi  Bi17  1  0.657994  0.842005  0.750000  1
  Bi  Bi18  1  0.157994  0.342005  0.750000  1
  Bi  Bi19  1  0.342005  0.157994  0.250000  1
  Bi  Bi20  1  0.906745  0.093255  0.252811  1
  Bi  Bi21  1  0.593255  0.406745  0.752811  1
  Bi  Bi22  1  0.093255  0.906745  0.747189  1
  Bi  Bi23  1  0.406745  0.593255  0.247189  1
