# generated using pymatgen
data_Sc2OsC2
_symmetry_space_group_name_H-M   'P 1'
_cell_length_a   4.77851500
_cell_length_b   6.22509500
_cell_length_c   9.29579200
_cell_angle_alpha   90.00000000
_cell_angle_beta   90.00000000
_cell_angle_gamma   90.00000000
_symmetry_Int_Tables_number   1
_chemical_formula_structural   Sc2OsC2
_chemical_formula_sum   'Sc8 Os4 C8'
_cell_volume   276.51922730
_cell_formula_units_Z   4
loop_
 _symmetry_equiv_pos_site_id
 _symmetry_equiv_pos_as_xyz
  1  'x, y, z'
loop_
 _atom_site_type_symbol
 _atom_site_label
 _atom_site_symmetry_multiplicity
 _atom_site_fract_x
 _atom_site_fract_y
 _atom_site_fract_z
 _atom_site_occupancy
  Sc  Sc0  1  0.250000  0.668401  0.558773  1
  Sc  Sc1  1  0.750000  0.331599  0.441227  1
  Sc  Sc2  1  0.750000  0.831599  0.058773  1
  Sc  Sc3  1  0.250000  0.168401  0.941227  1
  Sc  Sc4  1  0.250000  0.539195  0.219549  1
  Sc  Sc5  1  0.750000  0.460805  0.780451  1
  Sc  Sc6  1  0.750000  0.960805  0.719549  1
  Sc  Sc7  1  0.250000  0.039195  0.280451  1
  Os  Os8  1  0.250000  0.708473  0.874905  1
  Os  Os9  1  0.750000  0.291527  0.125095  1
  Os  Os10  1  0.750000  0.791527  0.374905  1
  Os  Os11  1  0.250000  0.208473  0.625095  1
  C  C12  1  0.250000  0.442732  0.758763  1
  C  C13  1  0.750000  0.557268  0.241237  1
  C  C14  1  0.750000  0.057268  0.258763  1
  C  C15  1  0.250000  0.942732  0.741237  1
  C  C16  1  0.250000  0.837895  0.066445  1
  C  C17  1  0.750000  0.162105  0.933555  1
  C  C18  1  0.750000  0.662105  0.566445  1
  C  C19  1  0.250000  0.337895  0.433555  1
