# generated using pymatgen
data_K5Rb2TaAs4
_symmetry_space_group_name_H-M   'P 1'
_cell_length_a   8.43214100
_cell_length_b   9.39884700
_cell_length_c   10.55520800
_cell_angle_alpha   90.00000000
_cell_angle_beta   90.00000000
_cell_angle_gamma   90.00000000
_symmetry_Int_Tables_number   1
_chemical_formula_structural   K5Rb2TaAs4
_chemical_formula_sum   'K10 Rb4 Ta2 As8'
_cell_volume   836.52559966
_cell_formula_units_Z   2
loop_
 _symmetry_equiv_pos_site_id
 _symmetry_equiv_pos_as_xyz
  1  'x, y, z'
loop_
 _atom_site_type_symbol
 _atom_site_label
 _atom_site_symmetry_multiplicity
 _atom_site_fract_x
 _atom_site_fract_y
 _atom_site_fract_z
 _atom_site_occupancy
  K  K0  1  0.713948  0.829678  0.719244  1
  K  K1  1  0.213948  0.170322  0.780756  1
  K  K2  1  0.213948  0.170322  0.219244  1
  K  K3  1  0.713948  0.829678  0.280756  1
  K  K4  1  0.869450  0.462577  0.720493  1
  K  K5  1  0.369450  0.537423  0.779507  1
  K  K6  1  0.369450  0.537423  0.220493  1
  K  K7  1  0.869450  0.462577  0.279507  1
  K  K8  1  0.389378  0.881713  0.000000  1
  K  K9  1  0.889378  0.118287  0.500000  1
  Rb  Rb10  1  0.134905  0.657974  0.500000  1
  Rb  Rb11  1  0.634905  0.342026  0.000000  1
  Rb  Rb12  1  0.875480  0.044883  0.000000  1
  Rb  Rb13  1  0.375480  0.955117  0.500000  1
  Ta  Ta14  1  0.003602  0.675557  0.000000  1
  Ta  Ta15  1  0.503602  0.324443  0.500000  1
  As  As16  1  0.706123  0.685575  0.000000  1
  As  As17  1  0.206123  0.314425  0.500000  1
  As  As18  1  0.097187  0.806434  0.802001  1
  As  As19  1  0.597187  0.193566  0.697999  1
  As  As20  1  0.597187  0.193566  0.302001  1
  As  As21  1  0.097187  0.806434  0.197999  1
  As  As22  1  0.587693  0.583602  0.500000  1
  As  As23  1  0.087693  0.416398  0.000000  1
