# generated using pymatgen
data_Er5Tm3Sc12Si13Pt3
_symmetry_space_group_name_H-M   'P 1'
_cell_length_a   7.06668541
_cell_length_b   7.40393567
_cell_length_c   13.96040597
_cell_angle_alpha   89.74558084
_cell_angle_beta   89.63646364
_cell_angle_gamma   90.64888703
_symmetry_Int_Tables_number   1
_chemical_formula_structural   Er5Tm3Sc12Si13Pt3
_chemical_formula_sum   'Er5 Tm3 Sc12 Si13 Pt3'
_cell_volume   730.35738721
_cell_formula_units_Z   1
loop_
 _symmetry_equiv_pos_site_id
 _symmetry_equiv_pos_as_xyz
  1  'x, y, z'
loop_
 _atom_site_type_symbol
 _atom_site_label
 _atom_site_symmetry_multiplicity
 _atom_site_fract_x
 _atom_site_fract_y
 _atom_site_fract_z
 _atom_site_occupancy
  Er  Er0  1  0.009115  0.177561  0.094389  1
  Er  Er1  1  0.990258  0.822890  0.905999  1
  Er  Er2  1  0.487424  0.680406  0.906249  1
  Er  Er3  1  0.990623  0.819526  0.594193  1
  Er  Er4  1  0.511949  0.321620  0.094507  1
  Tm  Tm5  1  0.011049  0.179159  0.405658  1
  Tm  Tm6  1  0.507875  0.321658  0.404808  1
  Tm  Tm7  1  0.486898  0.671790  0.595558  1
  Sc  Sc8  1  0.159198  0.503573  0.748468  1
  Sc  Sc9  1  0.841578  0.497468  0.251470  1
  Sc  Sc10  1  0.332341  0.002044  0.250488  1
  Sc  Sc11  1  0.666873  0.995720  0.749012  1
  Sc  Sc12  1  0.331662  0.181340  0.622643  1
  Sc  Sc13  1  0.673750  0.825687  0.373954  1
  Sc  Sc14  1  0.171390  0.667881  0.378064  1
  Sc  Sc15  1  0.675074  0.827034  0.124992  1
  Sc  Sc16  1  0.829455  0.327964  0.624762  1
  Sc  Sc17  1  0.325626  0.172940  0.874781  1
  Sc  Sc18  1  0.831477  0.321843  0.875219  1
  Sc  Sc19  1  0.170742  0.676974  0.124651  1
  Si  Si20  1  0.468790  0.608824  0.248321  1
  Si  Si21  1  0.533577  0.392376  0.753889  1
  Si  Si22  1  0.288707  0.867468  0.750743  1
  Si  Si23  1  0.711642  0.135386  0.249469  1
  Si  Si24  1  0.221318  0.370804  0.247655  1
  Si  Si25  1  0.780168  0.629328  0.753304  1
  Si  Si26  1  0.830511  0.533163  0.460119  1
  Si  Si27  1  0.344117  0.964545  0.459483  1
  Si  Si28  1  0.842431  0.532638  0.038950  1
  Si  Si29  1  0.657986  0.031080  0.539097  1
  Si  Si30  1  0.156163  0.468236  0.960871  1
  Si  Si31  1  0.656570  0.032457  0.960554  1
  Si  Si32  1  0.343092  0.968649  0.040290  1
  Pt  Pt33  1  0.034975  0.112583  0.747542  1
  Pt  Pt34  1  0.968172  0.893895  0.250436  1
  Pt  Pt35  1  0.157423  0.463487  0.539413  1
