# generated using pymatgen
data_NaTiP7Ru12
_symmetry_space_group_name_H-M   'P 1'
_cell_length_a   9.38020000
_cell_length_b   9.38019857
_cell_length_c   3.90800300
_cell_angle_alpha   90.00000000
_cell_angle_beta   90.00000000
_cell_angle_gamma   120.00000314
_symmetry_Int_Tables_number   1
_chemical_formula_structural   NaTiP7Ru12
_chemical_formula_sum   'Na1 Ti1 P7 Ru12'
_cell_volume   297.78967579
_cell_formula_units_Z   1
loop_
 _symmetry_equiv_pos_site_id
 _symmetry_equiv_pos_as_xyz
  1  'x, y, z'
loop_
 _atom_site_type_symbol
 _atom_site_label
 _atom_site_symmetry_multiplicity
 _atom_site_fract_x
 _atom_site_fract_y
 _atom_site_fract_z
 _atom_site_occupancy
  Na  Na0  1  0.333333  0.666667  0.000000  1
  Ti  Ti1  1  0.666667  0.333333  0.500000  1
  P  P2  1  0.602211  0.721112  0.500000  1
  P  P3  1  0.000000  0.000000  0.000000  1
  P  P4  1  0.278888  0.881100  0.500000  1
  P  P5  1  0.118900  0.397789  0.500000  1
  P  P6  1  0.887254  0.568752  0.000000  1
  P  P7  1  0.431248  0.318502  0.000000  1
  P  P8  1  0.681498  0.112746  0.000000  1
  Ru  Ru9  1  0.558123  0.960598  0.500000  1
  Ru  Ru10  1  0.402475  0.441877  0.500000  1
  Ru  Ru11  1  0.915798  0.120214  0.500000  1
  Ru  Ru12  1  0.204416  0.084202  0.500000  1
  Ru  Ru13  1  0.879786  0.795584  0.500000  1
  Ru  Ru14  1  0.725903  0.889471  0.000000  1
  Ru  Ru15  1  0.110529  0.836431  0.000000  1
  Ru  Ru16  1  0.163569  0.274097  0.000000  1
  Ru  Ru17  1  0.424970  0.077674  0.000000  1
  Ru  Ru18  1  0.922326  0.347297  0.000000  1
  Ru  Ru19  1  0.652703  0.575030  0.000000  1
  Ru  Ru20  1  0.039402  0.597525  0.500000  1
