# generated using pymatgen
data_TbHo2In3Ag2Ir
_symmetry_space_group_name_H-M   'P 1'
_cell_length_a   7.97320584
_cell_length_b   7.96550545
_cell_length_c   3.74048100
_cell_angle_alpha   90.00000000
_cell_angle_beta   90.00000000
_cell_angle_gamma   119.97925987
_symmetry_Int_Tables_number   1
_chemical_formula_structural   TbHo2In3Ag2Ir
_chemical_formula_sum   'Tb1 Ho2 In3 Ag2 Ir1'
_cell_volume   205.77619191
_cell_formula_units_Z   1
loop_
 _symmetry_equiv_pos_site_id
 _symmetry_equiv_pos_as_xyz
  1  'x, y, z'
loop_
 _atom_site_type_symbol
 _atom_site_label
 _atom_site_symmetry_multiplicity
 _atom_site_fract_x
 _atom_site_fract_y
 _atom_site_fract_z
 _atom_site_occupancy
  Tb  Tb0  1  0.578301  0.609760  0.000000  1
  Ho  Ho1  1  0.389609  0.966853  0.000000  1
  Ho  Ho2  1  0.033265  0.423684  0.000000  1
  In  In3  1  0.992464  0.726983  0.500000  1
  In  In4  1  0.272810  0.265220  0.500000  1
  In  In5  1  0.733975  0.007314  0.500000  1
  Ag  Ag6  1  0.000275  0.000573  0.000000  1
  Ag  Ag7  1  0.666939  0.332299  0.500000  1
  Ir  Ir8  1  0.332362  0.667314  0.500000  1
