# generated using pymatgen
data_Ta2Ti4P4Ir
_symmetry_space_group_name_H-M   'P 1'
_cell_length_a   7.31951773
_cell_length_b   7.31951870
_cell_length_c   13.83111811
_cell_angle_alpha   76.12732874
_cell_angle_beta   76.12732572
_cell_angle_gamma   27.38325911
_symmetry_Int_Tables_number   1
_chemical_formula_structural   Ta2Ti4P4Ir
_chemical_formula_sum   'Ta4 Ti8 P8 Ir2'
_cell_volume   330.27820784
_cell_formula_units_Z   2
loop_
 _symmetry_equiv_pos_site_id
 _symmetry_equiv_pos_as_xyz
  1  'x, y, z'
loop_
 _atom_site_type_symbol
 _atom_site_label
 _atom_site_symmetry_multiplicity
 _atom_site_fract_x
 _atom_site_fract_y
 _atom_site_fract_z
 _atom_site_occupancy
  Ta  Ta0  1  0.000000  0.000000  0.000000  1
  Ta  Ta1  1  0.500000  0.500000  0.500000  1
  Ta  Ta2  1  0.424971  0.424971  0.173632  1
  Ta  Ta3  1  0.575029  0.575029  0.826368  1
  Ti  Ti4  1  0.212964  0.212964  0.209112  1
  Ti  Ti5  1  0.787036  0.787036  0.790888  1
  Ti  Ti6  1  0.340058  0.340058  0.965853  1
  Ti  Ti7  1  0.659942  0.659942  0.034147  1
  Ti  Ti8  1  0.003978  0.003978  0.335503  1
  Ti  Ti9  1  0.996022  0.996022  0.664497  1
  Ti  Ti10  1  0.175200  0.175200  0.465496  1
  Ti  Ti11  1  0.824800  0.824800  0.534504  1
  P  P12  1  0.182879  0.182879  0.898295  1
  P  P13  1  0.817121  0.817121  0.101705  1
  P  P14  1  0.372503  0.372503  0.396646  1
  P  P15  1  0.627497  0.627497  0.603354  1
  P  P16  1  0.364307  0.364307  0.659600  1
  P  P17  1  0.635693  0.635693  0.340400  1
  P  P18  1  0.063579  0.063579  0.154897  1
  P  P19  1  0.936421  0.936421  0.845103  1
  Ir  Ir20  1  0.193396  0.193396  0.675375  1
  Ir  Ir21  1  0.806604  0.806604  0.324625  1
