# generated using pymatgen
data_Yb2Ga9IrPd2
_symmetry_space_group_name_H-M   'P 1'
_cell_length_a   7.65248649
_cell_length_b   7.65248735
_cell_length_c   9.57881100
_cell_angle_alpha   90.00000000
_cell_angle_beta   90.00000000
_cell_angle_gamma   119.83150013
_symmetry_Int_Tables_number   1
_chemical_formula_structural   Yb2Ga9IrPd2
_chemical_formula_sum   'Yb4 Ga18 Ir2 Pd4'
_cell_volume   486.61144804
_cell_formula_units_Z   2
loop_
 _symmetry_equiv_pos_site_id
 _symmetry_equiv_pos_as_xyz
  1  'x, y, z'
loop_
 _atom_site_type_symbol
 _atom_site_label
 _atom_site_symmetry_multiplicity
 _atom_site_fract_x
 _atom_site_fract_y
 _atom_site_fract_z
 _atom_site_occupancy
  Yb  Yb0  1  0.997991  0.669538  0.250000  1
  Yb  Yb1  1  0.002009  0.330462  0.750000  1
  Yb  Yb2  1  0.669538  0.997991  0.250000  1
  Yb  Yb3  1  0.330462  0.002009  0.750000  1
  Ga  Ga4  1  0.125436  0.125436  0.250000  1
  Ga  Ga5  1  0.874564  0.874564  0.750000  1
  Ga  Ga6  1  0.998851  0.331916  0.079952  1
  Ga  Ga7  1  0.001149  0.668084  0.920048  1
  Ga  Ga8  1  0.001149  0.668084  0.579952  1
  Ga  Ga9  1  0.331916  0.998851  0.420048  1
  Ga  Ga10  1  0.998851  0.331916  0.420048  1
  Ga  Ga11  1  0.668084  0.001149  0.579952  1
  Ga  Ga12  1  0.668084  0.001149  0.920048  1
  Ga  Ga13  1  0.331916  0.998851  0.079952  1
  Ga  Ga14  1  0.329147  0.329147  0.565098  1
  Ga  Ga15  1  0.670853  0.670853  0.434902  1
  Ga  Ga16  1  0.670853  0.670853  0.065098  1
  Ga  Ga17  1  0.329147  0.329147  0.934902  1
  Ga  Ga18  1  0.338813  0.544714  0.250000  1
  Ga  Ga19  1  0.661187  0.455286  0.750000  1
  Ga  Ga20  1  0.544714  0.338813  0.250000  1
  Ga  Ga21  1  0.455286  0.661187  0.750000  1
  Ir  Ir22  1  0.000000  0.000000  0.000000  1
  Ir  Ir23  1  0.000000  0.000000  0.500000  1
  Pd  Pd24  1  0.670675  0.329325  0.000000  1
  Pd  Pd25  1  0.329325  0.670675  0.000000  1
  Pd  Pd26  1  0.329325  0.670675  0.500000  1
  Pd  Pd27  1  0.670675  0.329325  0.500000  1
