# generated using pymatgen
data_Ho2Ga3Ag
_symmetry_space_group_name_H-M   'P 1'
_cell_length_a   4.51432600
_cell_length_b   4.51432600
_cell_length_c   7.18871300
_cell_angle_alpha   90.00000000
_cell_angle_beta   90.00000000
_cell_angle_gamma   119.99999998
_symmetry_Int_Tables_number   1
_chemical_formula_structural   Ho2Ga3Ag
_chemical_formula_sum   'Ho2 Ga3 Ag1'
_cell_volume   126.87253395
_cell_formula_units_Z   1
loop_
 _symmetry_equiv_pos_site_id
 _symmetry_equiv_pos_as_xyz
  1  'x, y, z'
loop_
 _atom_site_type_symbol
 _atom_site_label
 _atom_site_symmetry_multiplicity
 _atom_site_fract_x
 _atom_site_fract_y
 _atom_site_fract_z
 _atom_site_occupancy
  Ho  Ho0  1  0.333333  0.666667  0.740313  1
  Ho  Ho1  1  0.333333  0.666667  0.256495  1
  Ga  Ga2  1  0.666667  0.333333  0.470451  1
  Ga  Ga3  1  0.666667  0.333333  0.047946  1
  Ga  Ga4  1  0.000000  0.000000  0.953163  1
  Ag  Ag5  1  0.000000  0.000000  0.531631  1
