# generated using pymatgen
data_MgTaOsF12
_symmetry_space_group_name_H-M   'P 1'
_cell_length_a   5.51892800
_cell_length_b   11.28653287
_cell_length_c   5.57898380
_cell_angle_alpha   57.86621706
_cell_angle_beta   57.98650258
_cell_angle_gamma   59.01497009
_symmetry_Int_Tables_number   1
_chemical_formula_structural   MgTaOsF12
_chemical_formula_sum   'Mg1 Ta1 Os1 F12'
_cell_volume   236.03958078
_cell_formula_units_Z   1
loop_
 _symmetry_equiv_pos_site_id
 _symmetry_equiv_pos_as_xyz
  1  'x, y, z'
loop_
 _atom_site_type_symbol
 _atom_site_label
 _atom_site_symmetry_multiplicity
 _atom_site_fract_x
 _atom_site_fract_y
 _atom_site_fract_z
 _atom_site_occupancy
  Mg  Mg0  1  0.505186  0.750056  0.495013  1
  Ta  Ta1  1  0.987410  0.494099  0.020027  1
  Os  Os2  1  0.017966  0.998462  0.984726  1
  F  F3  1  0.354526  0.062412  0.760289  1
  F  F4  1  0.304846  0.591762  0.760274  1
  F  F5  1  0.116207  0.389199  0.348960  1
  F  F6  1  0.165786  0.873131  0.326599  1
  F  F7  1  0.227929  0.343525  0.861729  1
  F  F8  1  0.254698  0.832289  0.835548  1
  F  F9  1  0.881658  0.110053  0.659055  1
  F  F10  1  0.828063  0.628721  0.678538  1
  F  F11  1  0.636319  0.442380  0.232429  1
  F  F12  1  0.681088  0.917067  0.231972  1
  F  F13  1  0.786400  0.152077  0.136331  1
  F  F14  1  0.751918  0.664768  0.168512  1
