# generated using pymatgen
data_Gd4Ho4Tc3B24Os
_symmetry_space_group_name_H-M   'P 1'
_cell_length_a   3.68428800
_cell_length_b   9.16933997
_cell_length_c   11.56969404
_cell_angle_alpha   89.95876933
_cell_angle_beta   90.00000000
_cell_angle_gamma   90.00000000
_symmetry_Int_Tables_number   1
_chemical_formula_structural   Gd4Ho4Tc3B24Os
_chemical_formula_sum   'Gd4 Ho4 Tc3 B24 Os1'
_cell_volume   390.85296301
_cell_formula_units_Z   1
loop_
 _symmetry_equiv_pos_site_id
 _symmetry_equiv_pos_as_xyz
  1  'x, y, z'
loop_
 _atom_site_type_symbol
 _atom_site_label
 _atom_site_symmetry_multiplicity
 _atom_site_fract_x
 _atom_site_fract_y
 _atom_site_fract_z
 _atom_site_occupancy
  Gd  Gd0  1  0.000000  0.323536  0.413710  1
  Gd  Gd1  1  0.000000  0.675588  0.584497  1
  Gd  Gd2  1  0.000000  0.822972  0.087427  1
  Gd  Gd3  1  0.000000  0.177837  0.914632  1
  Ho  Ho4  1  0.000000  0.942602  0.369779  1
  Ho  Ho5  1  0.000000  0.058202  0.630147  1
  Ho  Ho6  1  0.000000  0.442945  0.130412  1
  Ho  Ho7  1  0.000000  0.556883  0.869383  1
  Tc  Tc8  1  0.000000  0.638941  0.320137  1
  Tc  Tc9  1  0.000000  0.360866  0.680586  1
  Tc  Tc10  1  0.000000  0.138050  0.178690  1
  B  B11  1  0.500000  0.553621  0.432147  1
  B  B12  1  0.500000  0.446302  0.567714  1
  B  B13  1  0.500000  0.053554  0.067413  1
  B  B14  1  0.500000  0.945817  0.932277  1
  B  B15  1  0.500000  0.748738  0.418045  1
  B  B16  1  0.500000  0.251155  0.582023  1
  B  B17  1  0.500000  0.249225  0.081768  1
  B  B18  1  0.500000  0.751342  0.917837  1
  B  B19  1  0.500000  0.791583  0.265674  1
  B  B20  1  0.500000  0.208564  0.734820  1
  B  B21  1  0.500000  0.291197  0.234138  1
  B  B22  1  0.500000  0.709350  0.765764  1
  B  B23  1  0.500000  0.630823  0.185731  1
  B  B24  1  0.500000  0.369373  0.814714  1
  B  B25  1  0.500000  0.130274  0.313707  1
  B  B26  1  0.500000  0.869350  0.686089  1
  B  B27  1  0.500000  0.982488  0.212004  1
  B  B28  1  0.500000  0.016418  0.788036  1
  B  B29  1  0.500000  0.483011  0.287552  1
  B  B30  1  0.500000  0.516885  0.712218  1
  B  B31  1  0.500000  0.600858  0.027743  1
  B  B32  1  0.500000  0.400079  0.972028  1
  B  B33  1  0.500000  0.100240  0.472186  1
  B  B34  1  0.500000  0.899733  0.528311  1
  Os  Os35  1  0.000000  0.861598  0.820658  1
