# generated using pymatgen
data_Li2Ho6Er2Sc10Si15Hg
_symmetry_space_group_name_H-M   'P 1'
_cell_length_a   7.02115080
_cell_length_b   7.37708241
_cell_length_c   14.08797527
_cell_angle_alpha   89.95703577
_cell_angle_beta   89.59130699
_cell_angle_gamma   90.10952015
_symmetry_Int_Tables_number   1
_chemical_formula_structural   Li2Ho6Er2Sc10Si15Hg
_chemical_formula_sum   'Li2 Ho6 Er2 Sc10 Si15 Hg1'
_cell_volume   729.67513654
_cell_formula_units_Z   1
loop_
 _symmetry_equiv_pos_site_id
 _symmetry_equiv_pos_as_xyz
  1  'x, y, z'
loop_
 _atom_site_type_symbol
 _atom_site_label
 _atom_site_symmetry_multiplicity
 _atom_site_fract_x
 _atom_site_fract_y
 _atom_site_fract_z
 _atom_site_occupancy
  Li  Li0  1  0.161790  0.506457  0.752291  1
  Li  Li1  1  0.835674  0.493960  0.248405  1
  Ho  Ho2  1  0.010927  0.185084  0.097976  1
  Ho  Ho3  1  0.989839  0.815463  0.902825  1
  Ho  Ho4  1  0.485743  0.674340  0.903735  1
  Ho  Ho5  1  0.990133  0.823876  0.598701  1
  Ho  Ho6  1  0.512655  0.325704  0.096565  1
  Ho  Ho7  1  0.005575  0.181076  0.398250  1
  Er  Er8  1  0.516162  0.324718  0.398592  1
  Er  Er9  1  0.495974  0.680482  0.601151  1
  Sc  Sc10  1  0.339983  0.001562  0.249245  1
  Sc  Sc11  1  0.663500  0.995761  0.752521  1
  Sc  Sc12  1  0.338900  0.171410  0.629275  1
  Sc  Sc13  1  0.668744  0.818481  0.371837  1
  Sc  Sc14  1  0.158851  0.674249  0.369537  1
  Sc  Sc15  1  0.673308  0.819083  0.125385  1
  Sc  Sc16  1  0.829316  0.325734  0.627133  1
  Sc  Sc17  1  0.326036  0.180917  0.875356  1
  Sc  Sc18  1  0.834168  0.324688  0.874384  1
  Sc  Sc19  1  0.164895  0.673494  0.125914  1
  Si  Si20  1  0.031818  0.103933  0.750827  1
  Si  Si21  1  0.968482  0.898794  0.248063  1
  Si  Si22  1  0.462787  0.613638  0.248003  1
  Si  Si23  1  0.535572  0.388699  0.751999  1
  Si  Si24  1  0.287272  0.876595  0.751914  1
  Si  Si25  1  0.711411  0.122337  0.247901  1
  Si  Si26  1  0.220323  0.371456  0.249115  1
  Si  Si27  1  0.782852  0.628086  0.752292  1
  Si  Si28  1  0.827972  0.542071  0.466056  1
  Si  Si29  1  0.340115  0.964619  0.461053  1
  Si  Si30  1  0.839605  0.538323  0.033313  1
  Si  Si31  1  0.657496  0.034560  0.535766  1
  Si  Si32  1  0.158465  0.461587  0.966047  1
  Si  Si33  1  0.656390  0.032850  0.961384  1
  Si  Si34  1  0.343623  0.966671  0.039125  1
  Hg  Hg35  1  0.173647  0.459248  0.538065  1
