# generated using pymatgen
data_TbEr15Cd4RuPt3
_symmetry_space_group_name_H-M   'P 1'
_cell_length_a   9.61813999
_cell_length_b   9.61814037
_cell_length_c   9.61782501
_cell_angle_alpha   59.64841244
_cell_angle_beta   59.64841726
_cell_angle_gamma   59.61012559
_symmetry_Int_Tables_number   1
_chemical_formula_structural   TbEr15Cd4RuPt3
_chemical_formula_sum   'Tb1 Er15 Cd4 Ru1 Pt3'
_cell_volume   623.92628121
_cell_formula_units_Z   1
loop_
 _symmetry_equiv_pos_site_id
 _symmetry_equiv_pos_as_xyz
  1  'x, y, z'
loop_
 _atom_site_type_symbol
 _atom_site_label
 _atom_site_symmetry_multiplicity
 _atom_site_fract_x
 _atom_site_fract_y
 _atom_site_fract_z
 _atom_site_occupancy
  Tb  Tb0  1  0.936248  0.936248  0.561111  1
  Er  Er1  1  0.351671  0.351671  0.351705  1
  Er  Er2  1  0.349798  0.349798  0.947950  1
  Er  Er3  1  0.350064  0.947936  0.349616  1
  Er  Er4  1  0.947936  0.350064  0.349616  1
  Er  Er5  1  0.814686  0.189144  0.188622  1
  Er  Er6  1  0.189089  0.809759  0.809998  1
  Er  Er7  1  0.189144  0.814686  0.188622  1
  Er  Er8  1  0.809759  0.189089  0.809998  1
  Er  Er9  1  0.188937  0.188937  0.814760  1
  Er  Er10  1  0.809869  0.809869  0.188858  1
  Er  Er11  1  0.935526  0.565133  0.565543  1
  Er  Er12  1  0.560633  0.936340  0.936680  1
  Er  Er13  1  0.565133  0.935526  0.565543  1
  Er  Er14  1  0.936340  0.560633  0.936680  1
  Er  Er15  1  0.565570  0.565570  0.935505  1
  Cd  Cd16  1  0.580651  0.580651  0.580595  1
  Cd  Cd17  1  0.581186  0.581186  0.254387  1
  Cd  Cd18  1  0.580816  0.254716  0.581177  1
  Cd  Cd19  1  0.254716  0.580816  0.581177  1
  Ru  Ru20  1  0.143118  0.143118  0.142908  1
  Pt  Pt21  1  0.143548  0.143548  0.572126  1
  Pt  Pt22  1  0.143487  0.572075  0.143411  1
  Pt  Pt23  1  0.572075  0.143487  0.143411  1
