# generated using pymatgen
data_Sr4Pt6ClO18
_symmetry_space_group_name_H-M   'P 1'
_cell_length_a   8.16411094
_cell_length_b   8.16444917
_cell_length_c   8.16424785
_cell_angle_alpha   109.54771631
_cell_angle_beta   109.42988394
_cell_angle_gamma   109.43849973
_symmetry_Int_Tables_number   1
_chemical_formula_structural   Sr4Pt6ClO18
_chemical_formula_sum   'Sr4 Pt6 Cl1 O18'
_cell_volume   418.90599982
_cell_formula_units_Z   1
loop_
 _symmetry_equiv_pos_site_id
 _symmetry_equiv_pos_as_xyz
  1  'x, y, z'
loop_
 _atom_site_type_symbol
 _atom_site_label
 _atom_site_symmetry_multiplicity
 _atom_site_fract_x
 _atom_site_fract_y
 _atom_site_fract_z
 _atom_site_occupancy
  Sr  Sr0  1  0.000008  0.999773  0.366628  1
  Sr  Sr1  1  0.633143  0.633422  0.633331  1
  Sr  Sr2  1  0.999982  0.366615  0.999735  1
  Sr  Sr3  1  0.366856  0.000171  0.000290  1
  Pt  Pt4  1  0.500005  0.658239  0.158251  1
  Pt  Pt5  1  0.341684  0.841737  0.500028  1
  Pt  Pt6  1  0.841741  0.499987  0.341723  1
  Pt  Pt7  1  0.499996  0.341713  0.841722  1
  Pt  Pt8  1  0.158275  0.500006  0.658247  1
  Pt  Pt9  1  0.658311  0.158342  0.500053  1
  Cl  Cl10  1  0.000001  0.000006  0.999997  1
  O  O11  1  0.650146  0.956981  0.271407  1
  O  O12  1  0.378245  0.728176  0.685379  1
  O  O13  1  0.693041  0.314756  0.042919  1
  O  O14  1  0.685479  0.378697  0.728612  1
  O  O15  1  0.042770  0.692853  0.314616  1
  O  O16  1  0.271730  0.650117  0.957044  1
  O  O17  1  0.314530  0.043119  0.693207  1
  O  O18  1  0.957248  0.271840  0.650090  1
  O  O19  1  0.728277  0.685301  0.378386  1
  O  O20  1  0.349853  0.621279  0.306849  1
  O  O21  1  0.621759  0.307145  0.349917  1
  O  O22  1  0.306964  0.349879  0.621709  1
  O  O23  1  0.642129  0.642059  0.999952  1
  O  O24  1  0.642052  0.999983  0.642048  1
  O  O25  1  0.999986  0.358013  0.358005  1
  O  O26  1  0.357926  0.999965  0.357923  1
  O  O27  1  0.999996  0.642002  0.642001  1
  O  O28  1  0.357871  0.357824  0.999931  1
