# generated using pymatgen
data_NdCoRe2C
_symmetry_space_group_name_H-M   'P 1'
_cell_length_a   5.68951327
_cell_length_b   5.68951477
_cell_length_c   7.57624800
_cell_angle_alpha   90.00000000
_cell_angle_beta   90.00000000
_cell_angle_gamma   139.66470685
_symmetry_Int_Tables_number   1
_chemical_formula_structural   NdCoRe2C
_chemical_formula_sum   'Nd2 Co2 Re4 C2'
_cell_volume   158.73873831
_cell_formula_units_Z   2
loop_
 _symmetry_equiv_pos_site_id
 _symmetry_equiv_pos_as_xyz
  1  'x, y, z'
loop_
 _atom_site_type_symbol
 _atom_site_label
 _atom_site_symmetry_multiplicity
 _atom_site_fract_x
 _atom_site_fract_y
 _atom_site_fract_z
 _atom_site_occupancy
  Nd  Nd0  1  0.534305  0.465695  0.250000  1
  Nd  Nd1  1  0.465695  0.534305  0.750000  1
  Co  Co2  1  0.260331  0.739669  0.250000  1
  Co  Co3  1  0.739669  0.260331  0.750000  1
  Re  Re4  1  0.821036  0.178964  0.064601  1
  Re  Re5  1  0.178964  0.821036  0.935399  1
  Re  Re6  1  0.178964  0.821036  0.564601  1
  Re  Re7  1  0.821036  0.178964  0.435399  1
  C  C8  1  0.000000  0.000000  0.000000  1
  C  C9  1  0.000000  0.000000  0.500000  1
