# generated using pymatgen
data_Y13Th3Mg3InCo4
_symmetry_space_group_name_H-M   'P 1'
_cell_length_a   9.62108579
_cell_length_b   9.63631157
_cell_length_c   9.63631072
_cell_angle_alpha   60.27889016
_cell_angle_beta   60.31996628
_cell_angle_gamma   60.31996979
_symmetry_Int_Tables_number   1
_chemical_formula_structural   Y13Th3Mg3InCo4
_chemical_formula_sum   'Y13 Th3 Mg3 In1 Co4'
_cell_volume   636.10683820
_cell_formula_units_Z   1
loop_
 _symmetry_equiv_pos_site_id
 _symmetry_equiv_pos_as_xyz
  1  'x, y, z'
loop_
 _atom_site_type_symbol
 _atom_site_label
 _atom_site_symmetry_multiplicity
 _atom_site_fract_x
 _atom_site_fract_y
 _atom_site_fract_z
 _atom_site_occupancy
  Y  Y0  1  0.956404  0.348089  0.348089  1
  Y  Y1  1  0.812440  0.187570  0.187570  1
  Y  Y2  1  0.188472  0.811748  0.811748  1
  Y  Y3  1  0.187153  0.813528  0.185959  1
  Y  Y4  1  0.811812  0.188484  0.810905  1
  Y  Y5  1  0.187153  0.185959  0.813528  1
  Y  Y6  1  0.811812  0.810905  0.188484  1
  Y  Y7  1  0.935010  0.564364  0.564364  1
  Y  Y8  1  0.562391  0.936926  0.936926  1
  Y  Y9  1  0.561959  0.936175  0.563612  1
  Y  Y10  1  0.935433  0.564655  0.934826  1
  Y  Y11  1  0.561959  0.563612  0.936175  1
  Y  Y12  1  0.935433  0.934826  0.564655  1
  Th  Th13  1  0.339955  0.345009  0.345009  1
  Th  Th14  1  0.340378  0.345114  0.968650  1
  Th  Th15  1  0.340378  0.968650  0.345114  1
  Mg  Mg16  1  0.580581  0.579774  0.262015  1
  Mg  Mg17  1  0.580581  0.262015  0.579774  1
  Mg  Mg18  1  0.259947  0.580674  0.580674  1
  In  In19  1  0.584343  0.580739  0.580739  1
  Co  Co20  1  0.153190  0.139080  0.139080  1
  Co  Co21  1  0.154542  0.138189  0.568610  1
  Co  Co22  1  0.154542  0.568610  0.138189  1
  Co  Co23  1  0.564127  0.145309  0.145309  1
