# generated using pymatgen
data_Tb8PPt24
_symmetry_space_group_name_H-M   'P 1'
_cell_length_a   8.37455300
_cell_length_b   8.37455300
_cell_length_c   8.37455300
_cell_angle_alpha   90.00000000
_cell_angle_beta   90.00000000
_cell_angle_gamma   90.00000000
_symmetry_Int_Tables_number   1
_chemical_formula_structural   Tb8PPt24
_chemical_formula_sum   'Tb8 P1 Pt24'
_cell_volume   587.33368082
_cell_formula_units_Z   1
loop_
 _symmetry_equiv_pos_site_id
 _symmetry_equiv_pos_as_xyz
  1  'x, y, z'
loop_
 _atom_site_type_symbol
 _atom_site_label
 _atom_site_symmetry_multiplicity
 _atom_site_fract_x
 _atom_site_fract_y
 _atom_site_fract_z
 _atom_site_occupancy
  Tb  Tb0  1  0.254411  0.254411  0.254411  1
  Tb  Tb1  1  0.745589  0.745589  0.745589  1
  Tb  Tb2  1  0.745589  0.745589  0.254411  1
  Tb  Tb3  1  0.745589  0.254411  0.745589  1
  Tb  Tb4  1  0.254411  0.254411  0.745589  1
  Tb  Tb5  1  0.254411  0.745589  0.254411  1
  Tb  Tb6  1  0.254411  0.745589  0.745589  1
  Tb  Tb7  1  0.745589  0.254411  0.254411  1
  P  P8  1  0.000000  0.000000  0.000000  1
  Pt  Pt9  1  0.256307  0.500000  0.000000  1
  Pt  Pt10  1  0.743693  0.500000  0.000000  1
  Pt  Pt11  1  0.000000  0.256307  0.500000  1
  Pt  Pt12  1  0.500000  0.256307  0.000000  1
  Pt  Pt13  1  0.000000  0.743693  0.500000  1
  Pt  Pt14  1  0.500000  0.743693  0.000000  1
  Pt  Pt15  1  0.500000  0.000000  0.256307  1
  Pt  Pt16  1  0.256307  0.000000  0.500000  1
  Pt  Pt17  1  0.500000  0.000000  0.743693  1
  Pt  Pt18  1  0.743693  0.000000  0.500000  1
  Pt  Pt19  1  0.000000  0.500000  0.256307  1
  Pt  Pt20  1  0.000000  0.500000  0.743693  1
  Pt  Pt21  1  0.251770  0.500000  0.500000  1
  Pt  Pt22  1  0.748230  0.500000  0.500000  1
  Pt  Pt23  1  0.500000  0.251770  0.500000  1
  Pt  Pt24  1  0.500000  0.748230  0.500000  1
  Pt  Pt25  1  0.500000  0.500000  0.251770  1
  Pt  Pt26  1  0.500000  0.500000  0.748230  1
  Pt  Pt27  1  0.276179  0.000000  0.000000  1
  Pt  Pt28  1  0.723821  0.000000  0.000000  1
  Pt  Pt29  1  0.000000  0.276179  0.000000  1
  Pt  Pt30  1  0.000000  0.723821  0.000000  1
  Pt  Pt31  1  0.000000  0.000000  0.276179  1
  Pt  Pt32  1  0.000000  0.000000  0.723821  1
