# generated using pymatgen
data_Er8Tm2IrOs3
_symmetry_space_group_name_H-M   'P 1'
_cell_length_a   6.33928952
_cell_length_b   7.31283297
_cell_length_c   8.31528163
_cell_angle_alpha   96.78911525
_cell_angle_beta   112.29865632
_cell_angle_gamma   90.00513331
_symmetry_Int_Tables_number   1
_chemical_formula_structural   Er8Tm2IrOs3
_chemical_formula_sum   'Er8 Tm2 Ir1 Os3'
_cell_volume   353.72948466
_cell_formula_units_Z   1
loop_
 _symmetry_equiv_pos_site_id
 _symmetry_equiv_pos_as_xyz
  1  'x, y, z'
loop_
 _atom_site_type_symbol
 _atom_site_label
 _atom_site_symmetry_multiplicity
 _atom_site_fract_x
 _atom_site_fract_y
 _atom_site_fract_z
 _atom_site_occupancy
  Er  Er0  1  0.970128  0.915760  0.179583  1
  Er  Er1  1  0.789921  0.582055  0.818257  1
  Er  Er2  1  0.025880  0.083333  0.815241  1
  Er  Er3  1  0.208762  0.419111  0.179948  1
  Er  Er4  1  0.649640  0.816961  0.439433  1
  Er  Er5  1  0.210386  0.681977  0.562046  1
  Er  Er6  1  0.350846  0.181599  0.563247  1
  Er  Er7  1  0.792797  0.319358  0.439189  1
  Tm  Tm8  1  0.422543  0.748816  0.999307  1
  Tm  Tm9  1  0.577765  0.250567  0.999374  1
  Ir  Ir10  1  0.394641  0.076648  0.220685  1
  Os  Os11  1  0.823031  0.575966  0.217726  1
  Os  Os12  1  0.607390  0.924453  0.782454  1
  Os  Os13  1  0.176273  0.423397  0.783510  1
