# generated using pymatgen
data_Dy3Ho3Al24(Ru3Rh)2
_symmetry_space_group_name_H-M   'P 1'
_cell_length_a   8.80060208
_cell_length_b   8.79863830
_cell_length_c   9.55590800
_cell_angle_alpha   90.00000000
_cell_angle_beta   90.00000000
_cell_angle_gamma   119.58918508
_symmetry_Int_Tables_number   1
_chemical_formula_structural   Dy3Ho3Al24(Ru3Rh)2
_chemical_formula_sum   'Dy3 Ho3 Al24 Ru6 Rh2'
_cell_volume   643.44794984
_cell_formula_units_Z   1
loop_
 _symmetry_equiv_pos_site_id
 _symmetry_equiv_pos_as_xyz
  1  'x, y, z'
loop_
 _atom_site_type_symbol
 _atom_site_label
 _atom_site_symmetry_multiplicity
 _atom_site_fract_x
 _atom_site_fract_y
 _atom_site_fract_z
 _atom_site_occupancy
  Dy  Dy0  1  0.189335  0.386253  0.250000  1
  Dy  Dy1  1  0.810621  0.613758  0.750000  1
  Dy  Dy2  1  0.613726  0.810670  0.250000  1
  Ho  Ho3  1  0.386591  0.189413  0.750000  1
  Ho  Ho4  1  0.194616  0.805273  0.250000  1
  Ho  Ho5  1  0.805322  0.194632  0.750000  1
  Al  Al6  1  0.332107  0.667870  0.018889  1
  Al  Al7  1  0.667703  0.332018  0.981021  1
  Al  Al8  1  0.667703  0.332018  0.518979  1
  Al  Al9  1  0.332107  0.667870  0.481111  1
  Al  Al10  1  0.161301  0.323590  0.578425  1
  Al  Al11  1  0.838793  0.676363  0.421647  1
  Al  Al12  1  0.676386  0.838803  0.578381  1
  Al  Al13  1  0.838793  0.676363  0.078353  1
  Al  Al14  1  0.323634  0.161209  0.421772  1
  Al  Al15  1  0.161301  0.323590  0.921575  1
  Al  Al16  1  0.163214  0.837030  0.577794  1
  Al  Al17  1  0.323634  0.161209  0.078228  1
  Al  Al18  1  0.836872  0.163115  0.422293  1
  Al  Al19  1  0.676386  0.838803  0.921619  1
  Al  Al20  1  0.836872  0.163115  0.077707  1
  Al  Al21  1  0.163214  0.837030  0.922206  1
  Al  Al22  1  0.560118  0.123025  0.250000  1
  Al  Al23  1  0.439837  0.877255  0.750000  1
  Al  Al24  1  0.877016  0.439899  0.250000  1
  Al  Al25  1  0.123014  0.560120  0.750000  1
  Al  Al26  1  0.560862  0.439125  0.250000  1
  Al  Al27  1  0.439106  0.560603  0.750000  1
  Al  Al28  1  0.999460  0.000537  0.250000  1
  Al  Al29  1  0.000765  0.999603  0.750000  1
  Ru  Ru30  1  0.499937  0.000091  0.999879  1
  Ru  Ru31  1  0.999901  0.499967  0.999963  1
  Ru  Ru32  1  0.499937  0.000091  0.500121  1
  Ru  Ru33  1  0.999901  0.499967  0.500037  1
  Ru  Ru34  1  0.000005  0.000003  0.999962  1
  Ru  Ru35  1  0.000005  0.000003  0.500038  1
  Rh  Rh36  1  0.499953  0.499857  0.999896  1
  Rh  Rh37  1  0.499953  0.499857  0.500104  1
