# generated using pymatgen
data_La5PrCd23Te
_symmetry_space_group_name_H-M   'P 1'
_cell_length_a   10.25073078
_cell_length_b   10.25073152
_cell_length_c   10.24674000
_cell_angle_alpha   60.01288005
_cell_angle_beta   60.01287765
_cell_angle_gamma   59.97424270
_symmetry_Int_Tables_number   1
_chemical_formula_structural   La5PrCd23Te
_chemical_formula_sum   'La5 Pr1 Cd23 Te1'
_cell_volume   761.34285258
_cell_formula_units_Z   1
loop_
 _symmetry_equiv_pos_site_id
 _symmetry_equiv_pos_as_xyz
  1  'x, y, z'
loop_
 _atom_site_type_symbol
 _atom_site_label
 _atom_site_symmetry_multiplicity
 _atom_site_fract_x
 _atom_site_fract_y
 _atom_site_fract_z
 _atom_site_occupancy
  La  La0  1  0.218675  0.780966  0.219034  1
  La  La1  1  0.780966  0.218675  0.219034  1
  La  La2  1  0.218569  0.218569  0.781431  1
  La  La3  1  0.780966  0.218675  0.781325  1
  La  La4  1  0.218675  0.780966  0.781325  1
  Pr  Pr5  1  0.781155  0.781155  0.218845  1
  Cd  Cd6  1  0.832844  0.832844  0.500736  1
  Cd  Cd7  1  0.832535  0.501893  0.832787  1
  Cd  Cd8  1  0.501893  0.832535  0.832787  1
  Cd  Cd9  1  0.832844  0.832844  0.833575  1
  Cd  Cd10  1  0.167213  0.167213  0.498107  1
  Cd  Cd11  1  0.166425  0.499264  0.167156  1
  Cd  Cd12  1  0.499264  0.166425  0.167156  1
  Cd  Cd13  1  0.167213  0.167213  0.167465  1
  Cd  Cd14  1  0.623808  0.623808  0.130800  1
  Cd  Cd15  1  0.623296  0.130386  0.623159  1
  Cd  Cd16  1  0.130386  0.623296  0.623159  1
  Cd  Cd17  1  0.623808  0.623808  0.621584  1
  Cd  Cd18  1  0.376841  0.376841  0.869614  1
  Cd  Cd19  1  0.378416  0.869200  0.376192  1
  Cd  Cd20  1  0.869200  0.378416  0.376192  1
  Cd  Cd21  1  0.376841  0.376841  0.376704  1
  Cd  Cd22  1  0.999891  0.999891  0.500109  1
  Cd  Cd23  1  0.499998  0.999740  0.500002  1
  Cd  Cd24  1  0.999740  0.499998  0.500002  1
  Cd  Cd25  1  0.499891  0.499891  0.000109  1
  Cd  Cd26  1  0.999740  0.499998  0.000260  1
  Cd  Cd27  1  0.499998  0.999740  0.000260  1
  Cd  Cd28  1  0.499822  0.499822  0.500178  1
  Te  Te29  1  0.999086  0.999086  0.000914  1
