# generated using pymatgen
data_Tb5Dy7Y8(CoSb2)4
_symmetry_space_group_name_H-M   'P 1'
_cell_length_a   7.97789322
_cell_length_b   8.75645307
_cell_length_c   12.25826133
_cell_angle_alpha   90.00992442
_cell_angle_beta   90.02456924
_cell_angle_gamma   90.01012660
_symmetry_Int_Tables_number   1
_chemical_formula_structural   Tb5Dy7Y8(CoSb2)4
_chemical_formula_sum   'Tb5 Dy7 Y8 Co4 Sb8'
_cell_volume   856.33809722
_cell_formula_units_Z   1
loop_
 _symmetry_equiv_pos_site_id
 _symmetry_equiv_pos_as_xyz
  1  'x, y, z'
loop_
 _atom_site_type_symbol
 _atom_site_label
 _atom_site_symmetry_multiplicity
 _atom_site_fract_x
 _atom_site_fract_y
 _atom_site_fract_z
 _atom_site_occupancy
  Tb  Tb0  1  0.623037  0.750152  0.305743  1
  Tb  Tb1  1  0.122789  0.250053  0.193937  1
  Tb  Tb2  1  0.377560  0.249779  0.694033  1
  Tb  Tb3  1  0.877250  0.749989  0.806061  1
  Tb  Tb4  1  0.321685  0.465727  0.435096  1
  Dy  Dy5  1  0.822627  0.965833  0.064948  1
  Dy  Dy6  1  0.322604  0.034349  0.435115  1
  Dy  Dy7  1  0.177364  0.465876  0.935025  1
  Dy  Dy8  1  0.677596  0.533965  0.565050  1
  Dy  Dy9  1  0.177354  0.034110  0.935007  1
  Dy  Dy10  1  0.677481  0.965951  0.565056  1
  Dy  Dy11  1  0.822602  0.534153  0.064925  1
  Y  Y12  1  0.154899  0.750030  0.203191  1
  Y  Y13  1  0.655112  0.249900  0.296723  1
  Y  Y14  1  0.845010  0.249986  0.796719  1
  Y  Y15  1  0.344852  0.750075  0.703504  1
  Y  Y16  1  0.456237  0.750015  0.998287  1
  Y  Y17  1  0.955867  0.249878  0.501688  1
  Y  Y18  1  0.543790  0.249976  0.001691  1
  Y  Y19  1  0.043268  0.750190  0.498316  1
  Co  Co20  1  0.438059  0.750163  0.490130  1
  Co  Co21  1  0.937864  0.249997  0.009882  1
  Co  Co22  1  0.562940  0.249707  0.510097  1
  Co  Co23  1  0.062256  0.750002  0.990064  1
  Sb  Sb24  1  0.928560  0.991764  0.327121  1
  Sb  Sb25  1  0.428507  0.008255  0.172860  1
  Sb  Sb26  1  0.071595  0.491732  0.672777  1
  Sb  Sb27  1  0.571464  0.508270  0.827143  1
  Sb  Sb28  1  0.071495  0.008274  0.672817  1
  Sb  Sb29  1  0.571535  0.991712  0.827221  1
  Sb  Sb30  1  0.928106  0.508347  0.327058  1
  Sb  Sb31  1  0.428635  0.491793  0.172714  1
