# generated using pymatgen
data_YHf(ZrPt6)2
_symmetry_space_group_name_H-M   'P 1'
_cell_length_a   5.76163300
_cell_length_b   5.76163278
_cell_length_c   9.38032500
_cell_angle_alpha   90.00000000
_cell_angle_beta   90.00000000
_cell_angle_gamma   120.00000702
_symmetry_Int_Tables_number   1
_chemical_formula_structural   YHf(ZrPt6)2
_chemical_formula_sum   'Y1 Hf1 Zr2 Pt12'
_cell_volume   269.67435758
_cell_formula_units_Z   1
loop_
 _symmetry_equiv_pos_site_id
 _symmetry_equiv_pos_as_xyz
  1  'x, y, z'
loop_
 _atom_site_type_symbol
 _atom_site_label
 _atom_site_symmetry_multiplicity
 _atom_site_fract_x
 _atom_site_fract_y
 _atom_site_fract_z
 _atom_site_occupancy
  Y  Y0  1  0.666667  0.333333  0.750000  1
  Hf  Hf1  1  0.333333  0.666667  0.250000  1
  Zr  Zr2  1  0.000000  0.000000  0.502371  1
  Zr  Zr3  1  0.000000  0.000000  0.997629  1
  Pt  Pt4  1  0.170846  0.341690  0.750000  1
  Pt  Pt5  1  0.004388  0.502194  0.005635  1
  Pt  Pt6  1  0.830915  0.661831  0.250000  1
  Pt  Pt7  1  0.338169  0.169085  0.250000  1
  Pt  Pt8  1  0.497806  0.502194  0.005635  1
  Pt  Pt9  1  0.830915  0.169085  0.250000  1
  Pt  Pt10  1  0.497806  0.502194  0.494365  1
  Pt  Pt11  1  0.497806  0.995612  0.494365  1
  Pt  Pt12  1  0.170846  0.829154  0.750000  1
  Pt  Pt13  1  0.658310  0.829154  0.750000  1
  Pt  Pt14  1  0.497806  0.995612  0.005635  1
  Pt  Pt15  1  0.004388  0.502194  0.494365  1
