# generated using pymatgen
data_K4Zr6CuBr18
_symmetry_space_group_name_H-M   'P 1'
_cell_length_a   10.58048754
_cell_length_b   10.71062673
_cell_length_c   10.80594099
_cell_angle_alpha   118.49370009
_cell_angle_beta   100.34645669
_cell_angle_gamma   103.71055847
_symmetry_Int_Tables_number   1
_chemical_formula_structural   K4Zr6CuBr18
_chemical_formula_sum   'K4 Zr6 Cu1 Br18'
_cell_volume   982.22551183
_cell_formula_units_Z   1
loop_
 _symmetry_equiv_pos_site_id
 _symmetry_equiv_pos_as_xyz
  1  'x, y, z'
loop_
 _atom_site_type_symbol
 _atom_site_label
 _atom_site_symmetry_multiplicity
 _atom_site_fract_x
 _atom_site_fract_y
 _atom_site_fract_z
 _atom_site_occupancy
  K  K0  1  0.651611  0.537335  0.226697  1
  K  K1  1  0.348389  0.462665  0.773303  1
  K  K2  1  0.686588  0.226391  0.563914  1
  K  K3  1  0.313412  0.773609  0.436086  1
  Zr  Zr4  1  0.158935  0.058715  0.243023  1
  Zr  Zr5  1  0.841065  0.941285  0.756977  1
  Zr  Zr6  1  0.854720  0.134156  0.140490  1
  Zr  Zr7  1  0.145280  0.865844  0.859510  1
  Zr  Zr8  1  0.152597  0.251297  0.046746  1
  Zr  Zr9  1  0.847403  0.748703  0.953254  1
  Cu  Cu10  1  0.000000  0.000000  0.000000  1
  Br  Br11  1  0.009362  0.414416  0.199476  1
  Br  Br12  1  0.990638  0.585584  0.800524  1
  Br  Br13  1  0.331347  0.335309  0.313647  1
  Br  Br14  1  0.668653  0.664691  0.686353  1
  Br  Br15  1  0.329310  0.526499  0.102561  1
  Br  Br16  1  0.670690  0.473501  0.897439  1
  Br  Br17  1  0.005650  0.793534  0.212312  1
  Br  Br18  1  0.994350  0.206466  0.787688  1
  Br  Br19  1  0.701063  0.282995  0.295353  1
  Br  Br20  1  0.298937  0.717005  0.704647  1
  Br  Br21  1  0.318299  0.127356  0.901119  1
  Br  Br22  1  0.681701  0.872644  0.098881  1
  Br  Br23  1  0.016136  0.206561  0.412324  1
  Br  Br24  1  0.983864  0.793439  0.587676  1
  Br  Br25  1  0.322700  0.919668  0.110488  1
  Br  Br26  1  0.677300  0.080332  0.889512  1
  Br  Br27  1  0.340366  0.122671  0.508251  1
  Br  Br28  1  0.659634  0.877329  0.491749  1
