# generated using pymatgen
data_Dy3Y6Th3(Si2Ni)4
_symmetry_space_group_name_H-M   'P 1'
_cell_length_a   4.16725600
_cell_length_b   11.46882084
_cell_length_c   11.28074173
_cell_angle_alpha   89.51326184
_cell_angle_beta   90.00000000
_cell_angle_gamma   90.00000000
_symmetry_Int_Tables_number   1
_chemical_formula_structural   Dy3Y6Th3(Si2Ni)4
_chemical_formula_sum   'Dy3 Y6 Th3 Si8 Ni4'
_cell_volume   539.12681597
_cell_formula_units_Z   1
loop_
 _symmetry_equiv_pos_site_id
 _symmetry_equiv_pos_as_xyz
  1  'x, y, z'
loop_
 _atom_site_type_symbol
 _atom_site_label
 _atom_site_symmetry_multiplicity
 _atom_site_fract_x
 _atom_site_fract_y
 _atom_site_fract_z
 _atom_site_occupancy
  Dy  Dy0  1  0.250000  0.692023  0.209544  1
  Dy  Dy1  1  0.750000  0.197730  0.291700  1
  Dy  Dy2  1  0.750000  0.310938  0.791086  1
  Y  Y3  1  0.750000  0.559407  0.615717  1
  Y  Y4  1  0.250000  0.119960  0.562828  1
  Y  Y5  1  0.250000  0.379871  0.060223  1
  Y  Y6  1  0.750000  0.875224  0.438205  1
  Y  Y7  1  0.750000  0.621948  0.936154  1
  Y  Y8  1  0.250000  0.801622  0.708653  1
  Th  Th9  1  0.250000  0.062305  0.883491  1
  Th  Th10  1  0.250000  0.438340  0.385657  1
  Th  Th11  1  0.750000  0.939463  0.117055  1
  Si  Si12  1  0.250000  0.806484  0.970338  1
  Si  Si13  1  0.250000  0.689382  0.471248  1
  Si  Si14  1  0.750000  0.194847  0.029250  1
  Si  Si15  1  0.750000  0.308207  0.532665  1
  Si  Si16  1  0.250000  0.495220  0.800471  1
  Si  Si17  1  0.250000  0.014952  0.308571  1
  Si  Si18  1  0.750000  0.508248  0.193803  1
  Si  Si19  1  0.750000  0.984473  0.692766  1
  Ni  Ni20  1  0.250000  0.362529  0.630709  1
  Ni  Ni21  1  0.250000  0.136388  0.130257  1
  Ni  Ni22  1  0.750000  0.633345  0.366939  1
  Ni  Ni23  1  0.750000  0.867094  0.872672  1
