# generated using pymatgen
data_Tb3Ho5Sc11Si16Ag
_symmetry_space_group_name_H-M   'P 1'
_cell_length_a   7.02683502
_cell_length_b   7.38723739
_cell_length_c   14.00874488
_cell_angle_alpha   90.04037149
_cell_angle_beta   90.06143676
_cell_angle_gamma   89.89361191
_symmetry_Int_Tables_number   1
_chemical_formula_structural   Tb3Ho5Sc11Si16Ag
_chemical_formula_sum   'Tb3 Ho5 Sc11 Si16 Ag1'
_cell_volume   727.17666357
_cell_formula_units_Z   1
loop_
 _symmetry_equiv_pos_site_id
 _symmetry_equiv_pos_as_xyz
  1  'x, y, z'
loop_
 _atom_site_type_symbol
 _atom_site_label
 _atom_site_symmetry_multiplicity
 _atom_site_fract_x
 _atom_site_fract_y
 _atom_site_fract_z
 _atom_site_occupancy
  Tb  Tb0  1  0.010775  0.174723  0.096866  1
  Tb  Tb1  1  0.990006  0.815211  0.901255  1
  Tb  Tb2  1  0.484357  0.673134  0.901373  1
  Ho  Ho3  1  0.989668  0.814798  0.598356  1
  Ho  Ho4  1  0.510407  0.323643  0.097219  1
  Ho  Ho5  1  0.011490  0.175525  0.403553  1
  Ho  Ho6  1  0.510818  0.323343  0.403874  1
  Ho  Ho7  1  0.484671  0.673616  0.598095  1
  Sc  Sc8  1  0.838732  0.497417  0.250301  1
  Sc  Sc9  1  0.340373  0.003332  0.250329  1
  Sc  Sc10  1  0.656859  0.998123  0.749719  1
  Sc  Sc11  1  0.325312  0.182355  0.626420  1
  Sc  Sc12  1  0.671035  0.823946  0.375177  1
  Sc  Sc13  1  0.170579  0.678655  0.374249  1
  Sc  Sc14  1  0.671023  0.823752  0.125572  1
  Sc  Sc15  1  0.836150  0.326781  0.626032  1
  Sc  Sc16  1  0.325094  0.182723  0.872793  1
  Sc  Sc17  1  0.836873  0.327585  0.873008  1
  Sc  Sc18  1  0.171069  0.678550  0.126633  1
  Si  Si19  1  0.027108  0.099027  0.749177  1
  Si  Si20  1  0.969119  0.887418  0.250668  1
  Si  Si21  1  0.467912  0.616722  0.250520  1
  Si  Si22  1  0.537593  0.383809  0.749357  1
  Si  Si23  1  0.287793  0.883041  0.748978  1
  Si  Si24  1  0.713138  0.128051  0.250882  1
  Si  Si25  1  0.213541  0.372384  0.250804  1
  Si  Si26  1  0.776550  0.628597  0.748944  1
  Si  Si27  1  0.161870  0.460249  0.531628  1
  Si  Si28  1  0.842989  0.534907  0.461548  1
  Si  Si29  1  0.344445  0.965453  0.462714  1
  Si  Si30  1  0.842493  0.534880  0.038617  1
  Si  Si31  1  0.657368  0.033568  0.540305  1
  Si  Si32  1  0.161420  0.459313  0.969339  1
  Si  Si33  1  0.656884  0.035217  0.959978  1
  Si  Si34  1  0.345327  0.965771  0.037459  1
  Ag  Ag35  1  0.159156  0.514379  0.748260  1
