# generated using pymatgen
data_Dy3Y3Al24(RuRh)4
_symmetry_space_group_name_H-M   'P 1'
_cell_length_a   8.83621700
_cell_length_b   8.78098363
_cell_length_c   9.55289700
_cell_angle_alpha   90.00000000
_cell_angle_beta   90.00000000
_cell_angle_gamma   119.79344195
_symmetry_Int_Tables_number   1
_chemical_formula_structural   Dy3Y3Al24(RuRh)4
_chemical_formula_sum   'Dy3 Y3 Al24 Ru4 Rh4'
_cell_volume   643.24357491
_cell_formula_units_Z   1
loop_
 _symmetry_equiv_pos_site_id
 _symmetry_equiv_pos_as_xyz
  1  'x, y, z'
loop_
 _atom_site_type_symbol
 _atom_site_label
 _atom_site_symmetry_multiplicity
 _atom_site_fract_x
 _atom_site_fract_y
 _atom_site_fract_z
 _atom_site_occupancy
  Dy  Dy0  1  0.810124  0.196148  0.750000  1
  Dy  Dy1  1  0.810124  0.613976  0.750000  1
  Dy  Dy2  1  0.384146  0.192073  0.750000  1
  Y  Y3  1  0.189871  0.804110  0.250000  1
  Y  Y4  1  0.189871  0.385761  0.250000  1
  Y  Y5  1  0.616212  0.808106  0.250000  1
  Al  Al6  1  0.560793  0.437792  0.250000  1
  Al  Al7  1  0.560793  0.123002  0.250000  1
  Al  Al8  1  0.876159  0.438080  0.250000  1
  Al  Al9  1  0.439275  0.562199  0.750000  1
  Al  Al10  1  0.439275  0.877076  0.750000  1
  Al  Al11  1  0.123818  0.561909  0.750000  1
  Al  Al12  1  0.324816  0.162409  0.422582  1
  Al  Al13  1  0.837829  0.164274  0.422568  1
  Al  Al14  1  0.837829  0.673555  0.422568  1
  Al  Al15  1  0.675320  0.837660  0.577696  1
  Al  Al16  1  0.162086  0.835793  0.577733  1
  Al  Al17  1  0.162086  0.326293  0.577733  1
  Al  Al18  1  0.675320  0.837660  0.922304  1
  Al  Al19  1  0.162086  0.835793  0.922267  1
  Al  Al20  1  0.162086  0.326293  0.922267  1
  Al  Al21  1  0.324816  0.162409  0.077418  1
  Al  Al22  1  0.837829  0.164274  0.077432  1
  Al  Al23  1  0.837829  0.673555  0.077432  1
  Al  Al24  1  0.668927  0.334463  0.522878  1
  Al  Al25  1  0.331062  0.665532  0.477503  1
  Al  Al26  1  0.331062  0.665532  0.022497  1
  Al  Al27  1  0.668927  0.334463  0.977122  1
  Al  Al28  1  0.997948  0.998975  0.250000  1
  Al  Al29  1  0.002133  0.001066  0.750000  1
  Ru  Ru30  1  0.999933  0.999967  0.499873  1
  Ru  Ru31  1  0.999933  0.999967  0.000127  1
  Ru  Ru32  1  0.999917  0.499958  0.500208  1
  Ru  Ru33  1  0.999917  0.499958  0.999792  1
  Rh  Rh34  1  0.499962  0.499966  0.500072  1
  Rh  Rh35  1  0.499962  0.999996  0.500072  1
  Rh  Rh36  1  0.499962  0.499966  0.999928  1
  Rh  Rh37  1  0.499962  0.999996  0.999928  1
