# generated using pymatgen
data_Er4Lu4Mn(B8Os)3
_symmetry_space_group_name_H-M   'P 1'
_cell_length_a   3.58992100
_cell_length_b   9.04214381
_cell_length_c   11.42423502
_cell_angle_alpha   90.03272051
_cell_angle_beta   90.00000000
_cell_angle_gamma   90.00000000
_symmetry_Int_Tables_number   1
_chemical_formula_structural   Er4Lu4Mn(B8Os)3
_chemical_formula_sum   'Er4 Lu4 Mn1 B24 Os3'
_cell_volume   370.83725664
_cell_formula_units_Z   1
loop_
 _symmetry_equiv_pos_site_id
 _symmetry_equiv_pos_as_xyz
  1  'x, y, z'
loop_
 _atom_site_type_symbol
 _atom_site_label
 _atom_site_symmetry_multiplicity
 _atom_site_fract_x
 _atom_site_fract_y
 _atom_site_fract_z
 _atom_site_occupancy
  Er  Er0  1  0.000000  0.324718  0.412307  1
  Er  Er1  1  0.000000  0.677655  0.582135  1
  Er  Er2  1  0.000000  0.818734  0.088894  1
  Er  Er3  1  0.000000  0.179458  0.915076  1
  Lu  Lu4  1  0.000000  0.939880  0.371746  1
  Lu  Lu5  1  0.000000  0.056291  0.626831  1
  Lu  Lu6  1  0.000000  0.446608  0.130085  1
  Lu  Lu7  1  0.000000  0.556394  0.873015  1
  Mn  Mn8  1  0.000000  0.637864  0.320326  1
  B  B9  1  0.500000  0.553987  0.431632  1
  B  B10  1  0.500000  0.446982  0.565952  1
  B  B11  1  0.500000  0.053481  0.067002  1
  B  B12  1  0.500000  0.946896  0.933579  1
  B  B13  1  0.500000  0.746801  0.417818  1
  B  B14  1  0.500000  0.251035  0.579479  1
  B  B15  1  0.500000  0.250165  0.080724  1
  B  B16  1  0.500000  0.750937  0.920362  1
  B  B17  1  0.500000  0.789597  0.266572  1
  B  B18  1  0.500000  0.208392  0.733848  1
  B  B19  1  0.500000  0.292354  0.234627  1
  B  B20  1  0.500000  0.708498  0.765728  1
  B  B21  1  0.500000  0.630457  0.186569  1
  B  B22  1  0.500000  0.369820  0.815661  1
  B  B23  1  0.500000  0.129916  0.315244  1
  B  B24  1  0.500000  0.869361  0.684118  1
  B  B25  1  0.500000  0.980631  0.213222  1
  B  B26  1  0.500000  0.018672  0.786895  1
  B  B27  1  0.500000  0.484087  0.287902  1
  B  B28  1  0.500000  0.518617  0.712760  1
  B  B29  1  0.500000  0.605201  0.029617  1
  B  B30  1  0.500000  0.395630  0.971606  1
  B  B31  1  0.500000  0.103977  0.470589  1
  B  B32  1  0.500000  0.894775  0.528430  1
  Os  Os33  1  0.000000  0.361805  0.679842  1
  Os  Os34  1  0.000000  0.137919  0.179397  1
  Os  Os35  1  0.000000  0.862409  0.820408  1
