# generated using pymatgen
data_BaIn3Hg2Au
_symmetry_space_group_name_H-M   'P 1'
_cell_length_a   4.94120500
_cell_length_b   7.91160900
_cell_length_c   9.84153300
_cell_angle_alpha   90.00000000
_cell_angle_beta   90.00000000
_cell_angle_gamma   90.00000000
_symmetry_Int_Tables_number   1
_chemical_formula_structural   BaIn3Hg2Au
_chemical_formula_sum   'Ba2 In6 Hg4 Au2'
_cell_volume   384.73388776
_cell_formula_units_Z   2
loop_
 _symmetry_equiv_pos_site_id
 _symmetry_equiv_pos_as_xyz
  1  'x, y, z'
loop_
 _atom_site_type_symbol
 _atom_site_label
 _atom_site_symmetry_multiplicity
 _atom_site_fract_x
 _atom_site_fract_y
 _atom_site_fract_z
 _atom_site_occupancy
  Ba  Ba0  1  0.500000  0.000000  0.753717  1
  Ba  Ba1  1  0.000000  0.500000  0.246283  1
  In  In2  1  0.000000  0.303449  0.892244  1
  In  In3  1  0.500000  0.196551  0.107756  1
  In  In4  1  0.000000  0.696551  0.892244  1
  In  In5  1  0.000000  0.000000  0.352995  1
  In  In6  1  0.500000  0.803449  0.107756  1
  In  In7  1  0.500000  0.500000  0.647005  1
  Hg  Hg8  1  0.000000  0.732755  0.592833  1
  Hg  Hg9  1  0.500000  0.767245  0.407167  1
  Hg  Hg10  1  0.500000  0.232755  0.407167  1
  Hg  Hg11  1  0.000000  0.267245  0.592833  1
  Au  Au12  1  0.500000  0.500000  0.939495  1
  Au  Au13  1  0.000000  0.000000  0.060505  1
