# generated using pymatgen
data_LiSc(PSe3)2
_symmetry_space_group_name_H-M   'P 1'
_cell_length_a   6.52530500
_cell_length_b   6.52530484
_cell_length_c   14.88126200
_cell_angle_alpha   90.00000000
_cell_angle_beta   90.00000000
_cell_angle_gamma   119.99999575
_symmetry_Int_Tables_number   1
_chemical_formula_structural   LiSc(PSe3)2
_chemical_formula_sum   'Li2 Sc2 P4 Se12'
_cell_volume   548.74684250
_cell_formula_units_Z   2
loop_
 _symmetry_equiv_pos_site_id
 _symmetry_equiv_pos_as_xyz
  1  'x, y, z'
loop_
 _atom_site_type_symbol
 _atom_site_label
 _atom_site_symmetry_multiplicity
 _atom_site_fract_x
 _atom_site_fract_y
 _atom_site_fract_z
 _atom_site_occupancy
  Li  Li0  1  0.333333  0.666667  0.750000  1
  Li  Li1  1  0.666667  0.333333  0.250000  1
  Sc  Sc2  1  0.000000  0.000000  0.250000  1
  Sc  Sc3  1  0.000000  0.000000  0.750000  1
  P  P4  1  0.666667  0.333333  0.675106  1
  P  P5  1  0.666667  0.333333  0.824894  1
  P  P6  1  0.333333  0.666667  0.324894  1
  P  P7  1  0.333333  0.666667  0.175106  1
  Se  Se8  1  0.668902  0.687089  0.132959  1
  Se  Se9  1  0.018187  0.687089  0.367041  1
  Se  Se10  1  0.018187  0.331098  0.132959  1
  Se  Se11  1  0.331098  0.312911  0.867041  1
  Se  Se12  1  0.687089  0.018187  0.867041  1
  Se  Se13  1  0.331098  0.018187  0.632959  1
  Se  Se14  1  0.687089  0.668902  0.632959  1
  Se  Se15  1  0.981813  0.312911  0.632959  1
  Se  Se16  1  0.312911  0.981813  0.132959  1
  Se  Se17  1  0.668902  0.981813  0.367041  1
  Se  Se18  1  0.981813  0.668902  0.867041  1
  Se  Se19  1  0.312911  0.331098  0.367041  1
