# generated using pymatgen
data_La12Nd8Ir5Pt7
_symmetry_space_group_name_H-M   'P 1'
_cell_length_a   11.56215495
_cell_length_b   11.55568152
_cell_length_c   6.59120132
_cell_angle_alpha   89.98929926
_cell_angle_beta   90.03380023
_cell_angle_gamma   90.05775875
_symmetry_Int_Tables_number   1
_chemical_formula_structural   La12Nd8Ir5Pt7
_chemical_formula_sum   'La12 Nd8 Ir5 Pt7'
_cell_volume   880.64043570
_cell_formula_units_Z   1
loop_
 _symmetry_equiv_pos_site_id
 _symmetry_equiv_pos_as_xyz
  1  'x, y, z'
loop_
 _atom_site_type_symbol
 _atom_site_label
 _atom_site_symmetry_multiplicity
 _atom_site_fract_x
 _atom_site_fract_y
 _atom_site_fract_z
 _atom_site_occupancy
  La  La0  1  0.088988  0.295252  0.119022  1
  La  La1  1  0.792113  0.409192  0.112086  1
  La  La2  1  0.205103  0.588901  0.118170  1
  La  La3  1  0.910812  0.704462  0.118692  1
  La  La4  1  0.410344  0.794039  0.382736  1
  La  La5  1  0.591705  0.208797  0.388652  1
  La  La6  1  0.294681  0.089944  0.382030  1
  La  La7  1  0.705622  0.910355  0.381953  1
  La  La8  1  0.412578  0.207280  0.880179  1
  La  La9  1  0.705174  0.093740  0.880043  1
  La  La10  1  0.294355  0.910413  0.880381  1
  La  La11  1  0.590015  0.794612  0.881502  1
  Nd  Nd12  1  0.087519  0.703502  0.618759  1
  Nd  Nd13  1  0.908899  0.296934  0.618926  1
  Nd  Nd14  1  0.203363  0.411923  0.617929  1
  Nd  Nd15  1  0.794985  0.585501  0.618695  1
  Nd  Nd16  1  0.999796  0.999732  0.999293  1
  Nd  Nd17  1  0.501792  0.498411  0.998267  1
  Nd  Nd18  1  0.501744  0.498032  0.502486  1
  Nd  Nd19  1  0.000350  0.000252  0.501156  1
  Ir  Ir20  1  0.653900  0.347088  0.749209  1
  Ir  Ir21  1  0.000483  0.500535  0.378068  1
  Ir  Ir22  1  0.499314  0.999520  0.121237  1
  Ir  Ir23  1  0.499658  0.998396  0.619781  1
  Ir  Ir24  1  0.001460  0.500424  0.881395  1
  Pt  Pt25  1  0.152726  0.846868  0.250795  1
  Pt  Pt26  1  0.345726  0.347021  0.250722  1
  Pt  Pt27  1  0.653441  0.653948  0.250927  1
  Pt  Pt28  1  0.848077  0.152360  0.250902  1
  Pt  Pt29  1  0.344906  0.652989  0.748659  1
  Pt  Pt30  1  0.152531  0.154256  0.748966  1
  Pt  Pt31  1  0.847839  0.845323  0.748383  1
