# generated using pymatgen
data_Tm7ScB24(MoRh)2
_symmetry_space_group_name_H-M   'P 1'
_cell_length_a   3.61072700
_cell_length_b   9.09168520
_cell_length_c   11.46897847
_cell_angle_alpha   90.01298942
_cell_angle_beta   90.00000000
_cell_angle_gamma   90.00000000
_symmetry_Int_Tables_number   1
_chemical_formula_structural   Tm7ScB24(MoRh)2
_chemical_formula_sum   'Tm7 Sc1 B24 Mo2 Rh2'
_cell_volume   376.49895031
_cell_formula_units_Z   1
loop_
 _symmetry_equiv_pos_site_id
 _symmetry_equiv_pos_as_xyz
  1  'x, y, z'
loop_
 _atom_site_type_symbol
 _atom_site_label
 _atom_site_symmetry_multiplicity
 _atom_site_fract_x
 _atom_site_fract_y
 _atom_site_fract_z
 _atom_site_occupancy
  Tm  Tm0  1  0.000000  0.942792  0.371696  1
  Tm  Tm1  1  0.000000  0.055803  0.627322  1
  Tm  Tm2  1  0.000000  0.556840  0.874558  1
  Tm  Tm3  1  0.000000  0.184631  0.915026  1
  Tm  Tm4  1  0.000000  0.823663  0.086488  1
  Tm  Tm5  1  0.000000  0.674751  0.585518  1
  Tm  Tm6  1  0.000000  0.317219  0.413457  1
  Sc  Sc7  1  0.000000  0.442384  0.127307  1
  B  B8  1  0.500000  0.370226  0.818309  1
  B  B9  1  0.500000  0.978567  0.211640  1
  B  B10  1  0.500000  0.552502  0.432379  1
  B  B11  1  0.500000  0.296955  0.235694  1
  B  B12  1  0.500000  0.205492  0.737562  1
  B  B13  1  0.500000  0.101415  0.471405  1
  B  B14  1  0.500000  0.790910  0.264033  1
  B  B15  1  0.500000  0.448486  0.563806  1
  B  B16  1  0.500000  0.248011  0.579234  1
  B  B17  1  0.500000  0.481119  0.285168  1
  B  B18  1  0.500000  0.707920  0.765878  1
  B  B19  1  0.500000  0.747554  0.419517  1
  B  B20  1  0.500000  0.522497  0.712960  1
  B  B21  1  0.500000  0.891421  0.528856  1
  B  B22  1  0.500000  0.053150  0.063654  1
  B  B23  1  0.500000  0.602950  0.030674  1
  B  B24  1  0.500000  0.751154  0.921322  1
  B  B25  1  0.500000  0.017469  0.787425  1
  B  B26  1  0.500000  0.402097  0.975194  1
  B  B27  1  0.500000  0.947088  0.933765  1
  B  B28  1  0.500000  0.629600  0.182379  1
  B  B29  1  0.500000  0.256179  0.079483  1
  B  B30  1  0.500000  0.866822  0.683649  1
  B  B31  1  0.500000  0.131133  0.316484  1
  Mo  Mo32  1  0.000000  0.141130  0.178322  1
  Mo  Mo33  1  0.000000  0.362305  0.679946  1
  Rh  Rh34  1  0.000000  0.861537  0.821248  1
  Rh  Rh35  1  0.000000  0.636225  0.318645  1
