# generated using pymatgen
data_La2Y3Tm15Si15Os
_symmetry_space_group_name_H-M   'P 1'
_cell_length_a   7.35057309
_cell_length_b   7.71443478
_cell_length_c   14.48884791
_cell_angle_alpha   89.68635207
_cell_angle_beta   89.94104702
_cell_angle_gamma   90.00207220
_symmetry_Int_Tables_number   1
_chemical_formula_structural   La2Y3Tm15Si15Os
_chemical_formula_sum   'La2 Y3 Tm15 Si15 Os1'
_cell_volume   821.58486089
_cell_formula_units_Z   1
loop_
 _symmetry_equiv_pos_site_id
 _symmetry_equiv_pos_as_xyz
  1  'x, y, z'
loop_
 _atom_site_type_symbol
 _atom_site_label
 _atom_site_symmetry_multiplicity
 _atom_site_fract_x
 _atom_site_fract_y
 _atom_site_fract_z
 _atom_site_occupancy
  La  La0  1  0.518858  0.570662  0.341318  1
  La  La1  1  0.020956  0.426438  0.658094  1
  Y  Y2  1  0.977747  0.070004  0.848526  1
  Y  Y3  1  0.523612  0.566696  0.653453  1
  Y  Y4  1  0.022818  0.430365  0.345925  1
  Tm  Tm5  1  0.806409  0.578731  0.878213  1
  Tm  Tm6  1  0.327941  0.433641  0.122254  1
  Tm  Tm7  1  0.181735  0.926772  0.372880  1
  Tm  Tm8  1  0.680096  0.069791  0.626901  1
  Tm  Tm9  1  0.181737  0.924830  0.627638  1
  Tm  Tm10  1  0.679809  0.070457  0.372122  1
  Tm  Tm11  1  0.809433  0.576333  0.122539  1
  Tm  Tm12  1  0.330952  0.437757  0.877602  1
  Tm  Tm13  1  0.646768  0.241247  0.999947  1
  Tm  Tm14  1  0.160263  0.761081  0.000485  1
  Tm  Tm15  1  0.347289  0.261361  0.500017  1
  Tm  Tm16  1  0.846645  0.735788  0.499531  1
  Tm  Tm17  1  0.481070  0.922640  0.850794  1
  Tm  Tm18  1  0.976547  0.067013  0.150586  1
  Tm  Tm19  1  0.479058  0.923473  0.149356  1
  Si  Si20  1  0.020151  0.353064  0.000254  1
  Si  Si21  1  0.475062  0.862175  0.500971  1
  Si  Si22  1  0.976929  0.135410  0.498662  1
  Si  Si23  1  0.653177  0.274786  0.790556  1
  Si  Si24  1  0.148514  0.722922  0.208742  1
  Si  Si25  1  0.350023  0.212314  0.285138  1
  Si  Si26  1  0.848728  0.785551  0.713304  1
  Si  Si27  1  0.357365  0.214355  0.714072  1
  Si  Si28  1  0.856749  0.783376  0.287394  1
  Si  Si29  1  0.653604  0.267541  0.207133  1
  Si  Si30  1  0.146228  0.726981  0.792675  1
  Si  Si31  1  0.773363  0.885807  0.000826  1
  Si  Si32  1  0.263353  0.125349  0.000628  1
  Si  Si33  1  0.227418  0.624475  0.501483  1
  Si  Si34  1  0.728932  0.373328  0.499122  1
  Os  Os35  1  0.520662  0.657484  0.000858  1
