# generated using pymatgen
data_Np2Si5PdPt2
_symmetry_space_group_name_H-M   'P 1'
_cell_length_a   8.21359783
_cell_length_b   8.21359640
_cell_length_c   8.21359751
_cell_angle_alpha   136.98073221
_cell_angle_beta   104.84440751
_cell_angle_gamma   90.72656958
_symmetry_Int_Tables_number   1
_chemical_formula_structural   Np2Si5PdPt2
_chemical_formula_sum   'Np4 Si10 Pd2 Pt4'
_cell_volume   348.21648613
_cell_formula_units_Z   2
loop_
 _symmetry_equiv_pos_site_id
 _symmetry_equiv_pos_as_xyz
  1  'x, y, z'
loop_
 _atom_site_type_symbol
 _atom_site_label
 _atom_site_symmetry_multiplicity
 _atom_site_fract_x
 _atom_site_fract_y
 _atom_site_fract_z
 _atom_site_occupancy
  Np  Np0  1  0.101211  0.870359  0.230852  1
  Np  Np1  1  0.898789  0.129641  0.769148  1
  Np  Np2  1  0.639507  0.370359  0.269148  1
  Np  Np3  1  0.360493  0.629641  0.730852  1
  Si  Si4  1  0.000000  0.750000  0.750000  1
  Si  Si5  1  0.000000  0.250000  0.250000  1
  Si  Si6  1  0.273407  0.023407  0.750000  1
  Si  Si7  1  0.726593  0.476593  0.750000  1
  Si  Si8  1  0.726593  0.976593  0.250000  1
  Si  Si9  1  0.273407  0.523407  0.250000  1
  Si  Si10  1  0.763812  0.611750  0.152062  1
  Si  Si11  1  0.236188  0.388250  0.847938  1
  Si  Si12  1  0.459688  0.111750  0.347938  1
  Si  Si13  1  0.540312  0.888250  0.652062  1
  Pd  Pd14  1  0.500000  0.750000  0.250000  1
  Pd  Pd15  1  0.500000  0.250000  0.750000  1
  Pt  Pt16  1  0.027777  0.638076  0.389700  1
  Pt  Pt17  1  0.972223  0.361924  0.610300  1
  Pt  Pt18  1  0.248377  0.138076  0.110300  1
  Pt  Pt19  1  0.751623  0.861924  0.889700  1
