# generated using pymatgen
data_SrCe(Sn2Rh)2
_symmetry_space_group_name_H-M   'P 1'
_cell_length_a   8.91952019
_cell_length_b   8.91952038
_cell_length_c   9.69136927
_cell_angle_alpha   90.02624944
_cell_angle_beta   89.97374921
_cell_angle_gamma   148.95410767
_symmetry_Int_Tables_number   1
_chemical_formula_structural   SrCe(Sn2Rh)2
_chemical_formula_sum   'Sr2 Ce2 Sn8 Rh4'
_cell_volume   397.63612443
_cell_formula_units_Z   2
loop_
 _symmetry_equiv_pos_site_id
 _symmetry_equiv_pos_as_xyz
  1  'x, y, z'
loop_
 _atom_site_type_symbol
 _atom_site_label
 _atom_site_symmetry_multiplicity
 _atom_site_fract_x
 _atom_site_fract_y
 _atom_site_fract_z
 _atom_site_occupancy
  Sr  Sr0  1  0.500000  0.500000  0.500000  1
  Sr  Sr1  1  0.500000  0.500000  0.000000  1
  Ce  Ce2  1  0.704542  0.295458  0.749903  1
  Ce  Ce3  1  0.295458  0.704542  0.250097  1
  Sn  Sn4  1  0.697196  0.302804  0.409336  1
  Sn  Sn5  1  0.302804  0.697196  0.590664  1
  Sn  Sn6  1  0.302713  0.697287  0.909475  1
  Sn  Sn7  1  0.697287  0.302713  0.090525  1
  Sn  Sn8  1  0.907285  0.092715  0.749788  1
  Sn  Sn9  1  0.092715  0.907285  0.250212  1
  Sn  Sn10  1  0.078596  0.921404  0.750081  1
  Sn  Sn11  1  0.921404  0.078596  0.249919  1
  Rh  Rh12  1  0.847680  0.152320  0.496957  1
  Rh  Rh13  1  0.152320  0.847680  0.503043  1
  Rh  Rh14  1  0.152324  0.847676  0.997055  1
  Rh  Rh15  1  0.847676  0.152324  0.002945  1
