# generated using pymatgen
data_Er6Fe7Co10P12Ru
_symmetry_space_group_name_H-M   'P 1'
_cell_length_a   3.69660200
_cell_length_b   10.55162400
_cell_length_c   12.05541000
_cell_angle_alpha   90.00000000
_cell_angle_beta   90.00000000
_cell_angle_gamma   90.00000000
_symmetry_Int_Tables_number   1
_chemical_formula_structural   Er6Fe7Co10P12Ru
_chemical_formula_sum   'Er6 Fe7 Co10 P12 Ru1'
_cell_volume   470.22312818
_cell_formula_units_Z   1
loop_
 _symmetry_equiv_pos_site_id
 _symmetry_equiv_pos_as_xyz
  1  'x, y, z'
loop_
 _atom_site_type_symbol
 _atom_site_label
 _atom_site_symmetry_multiplicity
 _atom_site_fract_x
 _atom_site_fract_y
 _atom_site_fract_z
 _atom_site_occupancy
  Er  Er0  1  0.750000  0.250000  0.473124  1
  Er  Er1  1  0.250000  0.750000  0.523144  1
  Er  Er2  1  0.250000  0.929980  0.796732  1
  Er  Er3  1  0.250000  0.570020  0.796732  1
  Er  Er4  1  0.750000  0.069161  0.204471  1
  Er  Er5  1  0.750000  0.430839  0.204471  1
  Fe  Fe6  1  0.750000  0.750000  0.155881  1
  Fe  Fe7  1  0.750000  0.250000  0.012745  1
  Fe  Fe8  1  0.250000  0.750000  0.989905  1
  Fe  Fe9  1  0.750000  0.581635  0.994987  1
  Fe  Fe10  1  0.750000  0.918365  0.994987  1
  Fe  Fe11  1  0.750000  0.547234  0.429483  1
  Fe  Fe12  1  0.750000  0.952766  0.429483  1
  Co  Co13  1  0.250000  0.250000  0.300404  1
  Co  Co14  1  0.750000  0.750000  0.701112  1
  Co  Co15  1  0.250000  0.417094  0.009260  1
  Co  Co16  1  0.250000  0.082906  0.009260  1
  Co  Co17  1  0.250000  0.452864  0.570532  1
  Co  Co18  1  0.250000  0.047136  0.570532  1
  Co  Co19  1  0.250000  0.869633  0.288782  1
  Co  Co20  1  0.250000  0.630367  0.288782  1
  Co  Co21  1  0.750000  0.129195  0.708049  1
  Co  Co22  1  0.750000  0.370805  0.708049  1
  P  P23  1  0.250000  0.250000  0.118149  1
  P  P24  1  0.750000  0.750000  0.885663  1
  P  P25  1  0.250000  0.250000  0.649983  1
  P  P26  1  0.750000  0.750000  0.343357  1
  P  P27  1  0.250000  0.441943  0.383463  1
  P  P28  1  0.250000  0.058057  0.383463  1
  P  P29  1  0.750000  0.561379  0.615448  1
  P  P30  1  0.750000  0.938621  0.615448  1
  P  P31  1  0.250000  0.902884  0.105331  1
  P  P32  1  0.250000  0.597116  0.105331  1
  P  P33  1  0.750000  0.094566  0.895647  1
  P  P34  1  0.750000  0.405434  0.895647  1
  Ru  Ru35  1  0.250000  0.250000  0.842163  1
