# generated using pymatgen
data_Pr4Al18Os4PtAu
_symmetry_space_group_name_H-M   'P 1'
_cell_length_a   7.66135826
_cell_length_b   7.66136032
_cell_length_c   9.74624132
_cell_angle_alpha   89.89671493
_cell_angle_beta   89.89668946
_cell_angle_gamma   119.19050374
_symmetry_Int_Tables_number   1
_chemical_formula_structural   Pr4Al18Os4PtAu
_chemical_formula_sum   'Pr4 Al18 Os4 Pt1 Au1'
_cell_volume   499.41520723
_cell_formula_units_Z   1
loop_
 _symmetry_equiv_pos_site_id
 _symmetry_equiv_pos_as_xyz
  1  'x, y, z'
loop_
 _atom_site_type_symbol
 _atom_site_label
 _atom_site_symmetry_multiplicity
 _atom_site_fract_x
 _atom_site_fract_y
 _atom_site_fract_z
 _atom_site_occupancy
  Pr  Pr0  1  0.997485  0.674021  0.250226  1
  Pr  Pr1  1  0.002515  0.325979  0.749774  1
  Pr  Pr2  1  0.674021  0.997484  0.250226  1
  Pr  Pr3  1  0.325979  0.002516  0.749774  1
  Al  Al4  1  0.140978  0.140978  0.254784  1
  Al  Al5  1  0.859022  0.859022  0.745216  1
  Al  Al6  1  0.006516  0.347198  0.073330  1
  Al  Al7  1  0.993484  0.652802  0.926670  1
  Al  Al8  1  0.995549  0.658580  0.570509  1
  Al  Al9  1  0.341420  0.004451  0.429491  1
  Al  Al10  1  0.004451  0.341420  0.429491  1
  Al  Al11  1  0.658580  0.995549  0.570509  1
  Al  Al12  1  0.652802  0.993484  0.926669  1
  Al  Al13  1  0.347198  0.006516  0.073331  1
  Al  Al14  1  0.339985  0.339985  0.544016  1
  Al  Al15  1  0.660015  0.660015  0.455984  1
  Al  Al16  1  0.654611  0.654611  0.049033  1
  Al  Al17  1  0.345389  0.345389  0.950967  1
  Al  Al18  1  0.336982  0.549259  0.250313  1
  Al  Al19  1  0.663018  0.450741  0.749687  1
  Al  Al20  1  0.549259  0.336982  0.250313  1
  Al  Al21  1  0.450741  0.663018  0.749687  1
  Os  Os22  1  0.671823  0.328177  0.000000  1
  Os  Os23  1  0.328177  0.671823  0.000000  1
  Os  Os24  1  0.328622  0.671378  0.500000  1
  Os  Os25  1  0.671378  0.328622  0.500000  1
  Pt  Pt26  1  0.000000  0.000000  0.500000  1
  Au  Au27  1  0.000000  0.000000  0.000000  1
