# generated using pymatgen
data_Lu4Zn3Ru4W
_symmetry_space_group_name_H-M   'P 1'
_cell_length_a   5.51095900
_cell_length_b   5.19248603
_cell_length_c   8.90356300
_cell_angle_alpha   90.00000000
_cell_angle_beta   90.00000000
_cell_angle_gamma   122.05051963
_symmetry_Int_Tables_number   1
_chemical_formula_structural   Lu4Zn3Ru4W
_chemical_formula_sum   'Lu4 Zn3 Ru4 W1'
_cell_volume   215.94707138
_cell_formula_units_Z   1
loop_
 _symmetry_equiv_pos_site_id
 _symmetry_equiv_pos_as_xyz
  1  'x, y, z'
loop_
 _atom_site_type_symbol
 _atom_site_label
 _atom_site_symmetry_multiplicity
 _atom_site_fract_x
 _atom_site_fract_y
 _atom_site_fract_z
 _atom_site_occupancy
  Lu  Lu0  1  0.332002  0.664005  0.445169  1
  Lu  Lu1  1  0.671646  0.343292  0.567766  1
  Lu  Lu2  1  0.671646  0.343292  0.932234  1
  Lu  Lu3  1  0.332002  0.664005  0.054831  1
  Zn  Zn4  1  0.331000  0.169723  0.250000  1
  Zn  Zn5  1  0.831312  0.662622  0.250000  1
  Zn  Zn6  1  0.838723  0.169723  0.250000  1
  Ru  Ru7  1  0.164385  0.812683  0.750000  1
  Ru  Ru8  1  0.648298  0.812683  0.750000  1
  Ru  Ru9  1  0.010250  0.020501  0.000093  1
  Ru  Ru10  1  0.010250  0.020501  0.499907  1
  W  W11  1  0.158485  0.316970  0.750000  1
