# generated using pymatgen
data_La9Nd7Cd4Ir3Pt
_symmetry_space_group_name_H-M   'P 1'
_cell_length_a   10.07372892
_cell_length_b   10.07372879
_cell_length_c   10.08244586
_cell_angle_alpha   60.16097782
_cell_angle_beta   60.16097927
_cell_angle_gamma   60.43241609
_symmetry_Int_Tables_number   1
_chemical_formula_structural   La9Nd7Cd4Ir3Pt
_chemical_formula_sum   'La9 Nd7 Cd4 Ir3 Pt1'
_cell_volume   727.59545780
_cell_formula_units_Z   1
loop_
 _symmetry_equiv_pos_site_id
 _symmetry_equiv_pos_as_xyz
  1  'x, y, z'
loop_
 _atom_site_type_symbol
 _atom_site_label
 _atom_site_symmetry_multiplicity
 _atom_site_fract_x
 _atom_site_fract_y
 _atom_site_fract_z
 _atom_site_occupancy
  La  La0  1  0.346420  0.346420  0.346992  1
  La  La1  1  0.350639  0.350639  0.953987  1
  La  La2  1  0.352147  0.955834  0.348943  1
  La  La3  1  0.955834  0.352147  0.348943  1
  La  La4  1  0.803884  0.189505  0.192437  1
  La  La5  1  0.188020  0.808193  0.810490  1
  La  La6  1  0.189505  0.803884  0.192437  1
  La  La7  1  0.808193  0.188020  0.810490  1
  La  La8  1  0.191556  0.191556  0.804329  1
  Nd  Nd9  1  0.806106  0.806106  0.192771  1
  Nd  Nd10  1  0.936493  0.565141  0.564176  1
  Nd  Nd11  1  0.565374  0.934944  0.936013  1
  Nd  Nd12  1  0.565141  0.936493  0.564176  1
  Nd  Nd13  1  0.934944  0.565374  0.936013  1
  Nd  Nd14  1  0.563469  0.563469  0.938328  1
  Nd  Nd15  1  0.936661  0.936661  0.563809  1
  Cd  Cd16  1  0.581350  0.581350  0.578795  1
  Cd  Cd17  1  0.581543  0.581543  0.258008  1
  Cd  Cd18  1  0.581201  0.257753  0.580526  1
  Cd  Cd19  1  0.257753  0.581201  0.580526  1
  Ir  Ir20  1  0.141024  0.141024  0.576428  1
  Ir  Ir21  1  0.144958  0.576181  0.139551  1
  Ir  Ir22  1  0.576181  0.144958  0.139551  1
  Pt  Pt23  1  0.141603  0.141603  0.142281  1
