# generated using pymatgen
data_LiTb13Er3In2HgIr4
_symmetry_space_group_name_H-M   'P 1'
_cell_length_a   9.66553909
_cell_length_b   9.69065026
_cell_length_c   9.65907500
_cell_angle_alpha   60.07389088
_cell_angle_beta   59.70894888
_cell_angle_gamma   60.01554700
_symmetry_Int_Tables_number   1
_chemical_formula_structural   LiTb13Er3In2HgIr4
_chemical_formula_sum   'Li1 Tb13 Er3 In2 Hg1 Ir4'
_cell_volume   638.74403617
_cell_formula_units_Z   1
loop_
 _symmetry_equiv_pos_site_id
 _symmetry_equiv_pos_as_xyz
  1  'x, y, z'
loop_
 _atom_site_type_symbol
 _atom_site_label
 _atom_site_symmetry_multiplicity
 _atom_site_fract_x
 _atom_site_fract_y
 _atom_site_fract_z
 _atom_site_occupancy
  Li  Li0  1  0.318107  0.321759  0.320383  1
  Tb  Tb1  1  0.310409  0.691369  0.310422  1
  Tb  Tb2  1  0.936252  0.562811  0.562699  1
  Tb  Tb3  1  0.310863  0.311942  0.689734  1
  Tb  Tb4  1  0.099755  0.101145  0.101006  1
  Tb  Tb5  1  0.561038  0.560967  0.937359  1
  Tb  Tb6  1  0.098373  0.098853  0.704457  1
  Tb  Tb7  1  0.692012  0.310977  0.685165  1
  Tb  Tb8  1  0.693357  0.686483  0.309203  1
  Tb  Tb9  1  0.691813  0.311218  0.309937  1
  Tb  Tb10  1  0.308950  0.690329  0.690567  1
  Tb  Tb11  1  0.561583  0.936724  0.561427  1
  Tb  Tb12  1  0.705956  0.097720  0.098192  1
  Tb  Tb13  1  0.559279  0.941618  0.941122  1
  Er  Er14  1  0.098138  0.705033  0.098753  1
  Er  Er15  1  0.942440  0.940761  0.558871  1
  Er  Er16  1  0.943039  0.558409  0.941276  1
  In  In17  1  0.331897  0.004747  0.332993  1
  In  In18  1  0.331569  0.333383  0.004892  1
  Hg  Hg19  1  0.997778  0.336560  0.334930  1
  Ir  Ir20  1  0.895031  0.888448  0.892464  1
  Ir  Ir21  1  0.894485  0.891584  0.325776  1
  Ir  Ir22  1  0.324819  0.890477  0.894356  1
  Ir  Ir23  1  0.893058  0.326683  0.894016  1
