# generated using pymatgen
data_TbY3Co18(P6Ru)2
_symmetry_space_group_name_H-M   'P 1'
_cell_length_a   3.67405100
_cell_length_b   10.33227606
_cell_length_c   11.75850407
_cell_angle_alpha   89.98757099
_cell_angle_beta   90.00000000
_cell_angle_gamma   90.00000000
_symmetry_Int_Tables_number   1
_chemical_formula_structural   TbY3Co18(P6Ru)2
_chemical_formula_sum   'Tb1 Y3 Co18 P12 Ru2'
_cell_volume   446.36819812
_cell_formula_units_Z   1
loop_
 _symmetry_equiv_pos_site_id
 _symmetry_equiv_pos_as_xyz
  1  'x, y, z'
loop_
 _atom_site_type_symbol
 _atom_site_label
 _atom_site_symmetry_multiplicity
 _atom_site_fract_x
 _atom_site_fract_y
 _atom_site_fract_z
 _atom_site_occupancy
  Tb  Tb0  1  0.250000  0.917488  0.202110  1
  Y  Y1  1  0.250000  0.582599  0.702019  1
  Y  Y2  1  0.750000  0.413817  0.295617  1
  Y  Y3  1  0.750000  0.086162  0.795621  1
  Co  Co4  1  0.750000  0.283947  0.008886  1
  Co  Co5  1  0.750000  0.216084  0.508888  1
  Co  Co6  1  0.250000  0.406095  0.488061  1
  Co  Co7  1  0.250000  0.094008  0.988057  1
  Co  Co8  1  0.750000  0.591232  0.509978  1
  Co  Co9  1  0.750000  0.908801  0.009885  1
  Co  Co10  1  0.250000  0.220751  0.176516  1
  Co  Co11  1  0.250000  0.279289  0.676509  1
  Co  Co12  1  0.750000  0.778219  0.823079  1
  Co  Co13  1  0.750000  0.721585  0.323166  1
  Co  Co14  1  0.250000  0.886630  0.701617  1
  Co  Co15  1  0.250000  0.613320  0.201617  1
  Co  Co16  1  0.750000  0.116793  0.301240  1
  Co  Co17  1  0.750000  0.383335  0.801166  1
  Co  Co18  1  0.250000  0.464452  0.932452  1
  Co  Co19  1  0.250000  0.035602  0.432553  1
  Co  Co20  1  0.750000  0.532576  0.068729  1
  Co  Co21  1  0.750000  0.967306  0.568825  1
  P  P22  1  0.250000  0.417103  0.111810  1
  P  P23  1  0.250000  0.082897  0.611849  1
  P  P24  1  0.750000  0.578501  0.887168  1
  P  P25  1  0.750000  0.921496  0.387321  1
  P  P26  1  0.250000  0.270811  0.869282  1
  P  P27  1  0.250000  0.229182  0.369263  1
  P  P28  1  0.750000  0.727784  0.132704  1
  P  P29  1  0.750000  0.771935  0.632711  1
  P  P30  1  0.250000  0.595304  0.390639  1
  P  P31  1  0.250000  0.904710  0.890681  1
  P  P32  1  0.750000  0.396733  0.608438  1
  P  P33  1  0.750000  0.103471  0.108386  1
  Ru  Ru34  1  0.250000  0.714997  0.991610  1
  Ru  Ru35  1  0.250000  0.784986  0.491550  1
