# generated using pymatgen
data_Ac2Yb3Pt4
_symmetry_space_group_name_H-M   'P 1'
_cell_length_a   7.75966900
_cell_length_b   7.85551200
_cell_length_c   14.84800800
_cell_angle_alpha   90.00000000
_cell_angle_beta   90.00000000
_cell_angle_gamma   90.00000000
_symmetry_Int_Tables_number   1
_chemical_formula_structural   Ac2Yb3Pt4
_chemical_formula_sum   'Ac8 Yb12 Pt16'
_cell_volume   905.07774354
_cell_formula_units_Z   4
loop_
 _symmetry_equiv_pos_site_id
 _symmetry_equiv_pos_as_xyz
  1  'x, y, z'
loop_
 _atom_site_type_symbol
 _atom_site_label
 _atom_site_symmetry_multiplicity
 _atom_site_fract_x
 _atom_site_fract_y
 _atom_site_fract_z
 _atom_site_occupancy
  Ac  Ac0  1  0.497667  0.677182  0.598436  1
  Ac  Ac1  1  0.997667  0.822818  0.901564  1
  Ac  Ac2  1  0.502333  0.322818  0.098436  1
  Ac  Ac3  1  0.002333  0.177182  0.401564  1
  Ac  Ac4  1  0.502333  0.322818  0.401564  1
  Ac  Ac5  1  0.002333  0.177182  0.098436  1
  Ac  Ac6  1  0.497667  0.677182  0.901564  1
  Ac  Ac7  1  0.997667  0.822818  0.598436  1
  Yb  Yb8  1  0.657160  0.169042  0.625417  1
  Yb  Yb9  1  0.157160  0.330958  0.874583  1
  Yb  Yb10  1  0.342840  0.830958  0.125417  1
  Yb  Yb11  1  0.842840  0.669042  0.374583  1
  Yb  Yb12  1  0.342840  0.830958  0.374583  1
  Yb  Yb13  1  0.842840  0.669042  0.125417  1
  Yb  Yb14  1  0.657160  0.169042  0.874583  1
  Yb  Yb15  1  0.157160  0.330958  0.625417  1
  Yb  Yb16  1  0.822214  0.491880  0.750000  1
  Yb  Yb17  1  0.322214  0.008120  0.750000  1
  Yb  Yb18  1  0.177786  0.508120  0.250000  1
  Yb  Yb19  1  0.677786  0.991880  0.250000  1
  Pt  Pt20  1  0.676828  0.965235  0.460173  1
  Pt  Pt21  1  0.176828  0.534765  0.039827  1
  Pt  Pt22  1  0.323172  0.034765  0.960173  1
  Pt  Pt23  1  0.823172  0.465235  0.539827  1
  Pt  Pt24  1  0.323172  0.034765  0.539827  1
  Pt  Pt25  1  0.823172  0.465235  0.960173  1
  Pt  Pt26  1  0.676828  0.965235  0.039827  1
  Pt  Pt27  1  0.176828  0.534765  0.460173  1
  Pt  Pt28  1  0.452724  0.380071  0.750000  1
  Pt  Pt29  1  0.952724  0.119929  0.750000  1
  Pt  Pt30  1  0.547276  0.619929  0.250000  1
  Pt  Pt31  1  0.047276  0.880071  0.250000  1
  Pt  Pt32  1  0.694041  0.861773  0.750000  1
  Pt  Pt33  1  0.194041  0.638227  0.750000  1
  Pt  Pt34  1  0.305959  0.138227  0.250000  1
  Pt  Pt35  1  0.805959  0.361773  0.250000  1
