# generated using pymatgen
data_U6Sb8PdPt4Rh
_symmetry_space_group_name_H-M   'P 1'
_cell_length_a   8.43697652
_cell_length_b   8.43236078
_cell_length_c   8.43196711
_cell_angle_alpha   109.56535118
_cell_angle_beta   109.37976128
_cell_angle_gamma   109.50199384
_symmetry_Int_Tables_number   1
_chemical_formula_structural   U6Sb8PdPt4Rh
_chemical_formula_sum   'U6 Sb8 Pd1 Pt4 Rh1'
_cell_volume   461.59677526
_cell_formula_units_Z   1
loop_
 _symmetry_equiv_pos_site_id
 _symmetry_equiv_pos_as_xyz
  1  'x, y, z'
loop_
 _atom_site_type_symbol
 _atom_site_label
 _atom_site_symmetry_multiplicity
 _atom_site_fract_x
 _atom_site_fract_y
 _atom_site_fract_z
 _atom_site_occupancy
  U  U0  1  0.877110  0.254454  0.132565  1
  U  U1  1  0.622078  0.745187  0.368171  1
  U  U2  1  0.256118  0.125134  0.873614  1
  U  U3  1  0.741175  0.375786  0.621809  1
  U  U4  1  0.127741  0.879335  0.255727  1
  U  U5  1  0.376614  0.619754  0.748240  1
  Sb  Sb6  1  0.676002  0.499146  0.995170  1
  Sb  Sb7  1  0.502749  0.005308  0.677707  1
  Sb  Sb8  1  0.002114  0.678616  0.501680  1
  Sb  Sb9  1  0.825336  0.826688  0.821847  1
  Sb  Sb10  1  0.497880  0.996896  0.175372  1
  Sb  Sb11  1  0.173308  0.495756  0.997859  1
  Sb  Sb12  1  0.000907  0.176385  0.504363  1
  Sb  Sb13  1  0.321653  0.320682  0.325552  1
  Pd  Pd14  1  0.873940  0.125042  0.750104  1
  Pt  Pt15  1  0.122855  0.746764  0.874962  1
  Pt  Pt16  1  0.253347  0.627244  0.376555  1
  Pt  Pt17  1  0.752299  0.877043  0.124878  1
  Pt  Pt18  1  0.624281  0.375069  0.248611  1
  Rh  Rh19  1  0.372492  0.249709  0.625213  1
