# generated using pymatgen
data_Na3Mn(SO4)3
_symmetry_space_group_name_H-M   'P 1'
_cell_length_a   8.46748389
_cell_length_b   8.46748436
_cell_length_c   8.46748508
_cell_angle_alpha   107.32399865
_cell_angle_beta   107.32399329
_cell_angle_gamma   107.32399935
_symmetry_Int_Tables_number   1
_chemical_formula_structural   Na3Mn(SO4)3
_chemical_formula_sum   'Na6 Mn2 S6 O24'
_cell_volume   501.06636010
_cell_formula_units_Z   2
loop_
 _symmetry_equiv_pos_site_id
 _symmetry_equiv_pos_as_xyz
  1  'x, y, z'
loop_
 _atom_site_type_symbol
 _atom_site_label
 _atom_site_symmetry_multiplicity
 _atom_site_fract_x
 _atom_site_fract_y
 _atom_site_fract_z
 _atom_site_occupancy
  Na  Na0  1  0.623616  0.774764  0.147587  1
  Na  Na1  1  0.147587  0.623616  0.774764  1
  Na  Na2  1  0.774764  0.147587  0.623616  1
  Na  Na3  1  0.376384  0.225236  0.852413  1
  Na  Na4  1  0.852413  0.376384  0.225236  1
  Na  Na5  1  0.225236  0.852413  0.376384  1
  Mn  Mn6  1  0.000000  0.000000  0.000000  1
  Mn  Mn7  1  0.500000  0.500000  0.500000  1
  S  S8  1  0.895192  0.757394  0.544286  1
  S  S9  1  0.544286  0.895192  0.757394  1
  S  S10  1  0.757394  0.544286  0.895192  1
  S  S11  1  0.104808  0.242606  0.455714  1
  S  S12  1  0.455714  0.104808  0.242606  1
  S  S13  1  0.242606  0.455714  0.104808  1
  O  O14  1  0.746111  0.578296  0.512372  1
  O  O15  1  0.512372  0.746111  0.578296  1
  O  O16  1  0.578296  0.512372  0.746111  1
  O  O17  1  0.253889  0.421704  0.487628  1
  O  O18  1  0.487628  0.253889  0.421704  1
  O  O19  1  0.421704  0.487628  0.253889  1
  O  O20  1  0.814399  0.863503  0.468542  1
  O  O21  1  0.468542  0.814399  0.863503  1
  O  O22  1  0.863503  0.468542  0.814399  1
  O  O23  1  0.185601  0.136497  0.531458  1
  O  O24  1  0.531458  0.185601  0.136497  1
  O  O25  1  0.136497  0.531458  0.185601  1
  O  O26  1  0.003445  0.692307  0.454890  1
  O  O27  1  0.454890  0.003445  0.692307  1
  O  O28  1  0.692307  0.454890  0.003445  1
  O  O29  1  0.996555  0.307693  0.545110  1
  O  O30  1  0.545110  0.996555  0.307693  1
  O  O31  1  0.307693  0.545110  0.996555  1
  O  O32  1  0.011972  0.858828  0.745164  1
  O  O33  1  0.745164  0.011972  0.858828  1
  O  O34  1  0.858828  0.745164  0.011972  1
  O  O35  1  0.988028  0.141172  0.254836  1
  O  O36  1  0.254836  0.988028  0.141172  1
  O  O37  1  0.141172  0.254836  0.988028  1
