# generated using pymatgen
data_Tb15YIn2(AgRh2)2
_symmetry_space_group_name_H-M   'P 1'
_cell_length_a   9.61355232
_cell_length_b   9.61355237
_cell_length_c   9.63387100
_cell_angle_alpha   59.93006343
_cell_angle_beta   59.93006326
_cell_angle_gamma   60.30981542
_symmetry_Int_Tables_number   1
_chemical_formula_structural   Tb15YIn2(AgRh2)2
_chemical_formula_sum   'Tb15 Y1 In2 Ag2 Rh4'
_cell_volume   630.37374026
_cell_formula_units_Z   1
loop_
 _symmetry_equiv_pos_site_id
 _symmetry_equiv_pos_as_xyz
  1  'x, y, z'
loop_
 _atom_site_type_symbol
 _atom_site_label
 _atom_site_symmetry_multiplicity
 _atom_site_fract_x
 _atom_site_fract_y
 _atom_site_fract_z
 _atom_site_occupancy
  Tb  Tb0  1  0.810863  0.189535  0.809321  1
  Tb  Tb1  1  0.188366  0.188366  0.811634  1
  Tb  Tb2  1  0.648429  0.052307  0.649632  1
  Tb  Tb3  1  0.063803  0.063803  0.436197  1
  Tb  Tb4  1  0.439056  0.439056  0.060944  1
  Tb  Tb5  1  0.649860  0.649860  0.649589  1
  Tb  Tb6  1  0.810863  0.189535  0.190279  1
  Tb  Tb7  1  0.189535  0.810863  0.809321  1
  Tb  Tb8  1  0.052307  0.648429  0.649632  1
  Tb  Tb9  1  0.437567  0.066738  0.059798  1
  Tb  Tb10  1  0.437567  0.066738  0.435896  1
  Tb  Tb11  1  0.066738  0.437567  0.059798  1
  Tb  Tb12  1  0.649860  0.649860  0.050692  1
  Tb  Tb13  1  0.189535  0.810863  0.190279  1
  Tb  Tb14  1  0.066738  0.437567  0.435896  1
  Y  Y15  1  0.807631  0.807631  0.192369  1
  In  In16  1  0.416749  0.742767  0.420242  1
  In  In17  1  0.742767  0.416749  0.420242  1
  Ag  Ag18  1  0.416284  0.416284  0.418186  1
  Ag  Ag19  1  0.416284  0.416284  0.749243  1
  Rh  Rh20  1  0.856947  0.427243  0.857905  1
  Rh  Rh21  1  0.857502  0.857502  0.857482  1
  Rh  Rh22  1  0.857502  0.857502  0.427516  1
  Rh  Rh23  1  0.427243  0.856947  0.857905  1
