# generated using pymatgen
data_Nd8Ho12Ga7Si9
_symmetry_space_group_name_H-M   'P 1'
_cell_length_a   7.52016409
_cell_length_b   7.88770605
_cell_length_c   15.03388005
_cell_angle_alpha   90.00088462
_cell_angle_beta   89.99023048
_cell_angle_gamma   89.98605158
_symmetry_Int_Tables_number   1
_chemical_formula_structural   Nd8Ho12Ga7Si9
_chemical_formula_sum   'Nd8 Ho12 Ga7 Si9'
_cell_volume   891.76227545
_cell_formula_units_Z   1
loop_
 _symmetry_equiv_pos_site_id
 _symmetry_equiv_pos_as_xyz
  1  'x, y, z'
loop_
 _atom_site_type_symbol
 _atom_site_label
 _atom_site_symmetry_multiplicity
 _atom_site_fract_x
 _atom_site_fract_y
 _atom_site_fract_z
 _atom_site_occupancy
  Nd  Nd0  1  0.979400  0.821755  0.095386  1
  Nd  Nd1  1  0.479006  0.678513  0.405205  1
  Nd  Nd2  1  0.520262  0.321517  0.902326  1
  Nd  Nd3  1  0.022238  0.180851  0.597989  1
  Nd  Nd4  1  0.025340  0.178073  0.901676  1
  Nd  Nd5  1  0.523629  0.324253  0.598166  1
  Nd  Nd6  1  0.475961  0.675654  0.095396  1
  Nd  Nd7  1  0.975787  0.824023  0.403901  1
  Ho  Ho8  1  0.654801  0.990386  0.251551  1
  Ho  Ho9  1  0.155387  0.509226  0.248449  1
  Ho  Ho10  1  0.848886  0.492564  0.748573  1
  Ho  Ho11  1  0.344611  0.011898  0.751236  1
  Ho  Ho12  1  0.678940  0.822145  0.875728  1
  Ho  Ho13  1  0.181157  0.675442  0.624303  1
  Ho  Ho14  1  0.820393  0.322177  0.123433  1
  Ho  Ho15  1  0.320227  0.177645  0.376606  1
  Ho  Ho16  1  0.317894  0.177681  0.121738  1
  Ho  Ho17  1  0.817762  0.322023  0.378323  1
  Ho  Ho18  1  0.182823  0.675719  0.877241  1
  Ho  Ho19  1  0.681325  0.822009  0.622717  1
  Ga  Ga20  1  0.765807  0.622407  0.249728  1
  Ga  Ga21  1  0.265980  0.877918  0.250249  1
  Ga  Ga22  1  0.731679  0.121989  0.750323  1
  Ga  Ga23  1  0.849695  0.532047  0.959385  1
  Ga  Ga24  1  0.348922  0.967106  0.540706  1
  Ga  Ga25  1  0.649789  0.032849  0.040073  1
  Ga  Ga26  1  0.149894  0.467436  0.459421  1
  Si  Si27  1  0.233251  0.380637  0.749564  1
  Si  Si28  1  0.024450  0.115215  0.249475  1
  Si  Si29  1  0.524871  0.384535  0.250493  1
  Si  Si30  1  0.475129  0.611872  0.750654  1
  Si  Si31  1  0.976261  0.883260  0.749459  1
  Si  Si32  1  0.146967  0.467728  0.040172  1
  Si  Si33  1  0.646972  0.032453  0.460283  1
  Si  Si34  1  0.351769  0.967314  0.959729  1
  Si  Si35  1  0.852735  0.531679  0.540343  1
