# generated using pymatgen
data_CsMoOF4
_symmetry_space_group_name_H-M   'P 1'
_cell_length_a   5.70398700
_cell_length_b   6.83553900
_cell_length_c   14.75040200
_cell_angle_alpha   90.00000000
_cell_angle_beta   90.00000000
_cell_angle_gamma   90.00000000
_symmetry_Int_Tables_number   1
_chemical_formula_structural   CsMoOF4
_chemical_formula_sum   'Cs4 Mo4 O4 F16'
_cell_volume   575.11560142
_cell_formula_units_Z   4
loop_
 _symmetry_equiv_pos_site_id
 _symmetry_equiv_pos_as_xyz
  1  'x, y, z'
loop_
 _atom_site_type_symbol
 _atom_site_label
 _atom_site_symmetry_multiplicity
 _atom_site_fract_x
 _atom_site_fract_y
 _atom_site_fract_z
 _atom_site_occupancy
  Cs  Cs0  1  0.529430  0.750000  0.373683  1
  Cs  Cs1  1  0.029430  0.750000  0.126317  1
  Cs  Cs2  1  0.470570  0.250000  0.626317  1
  Cs  Cs3  1  0.970570  0.250000  0.873683  1
  Mo  Mo4  1  0.016930  0.250000  0.358717  1
  Mo  Mo5  1  0.516930  0.250000  0.141283  1
  Mo  Mo6  1  0.983070  0.750000  0.641283  1
  Mo  Mo7  1  0.483070  0.750000  0.858717  1
  O  O8  1  0.809974  0.250000  0.442105  1
  O  O9  1  0.309974  0.250000  0.057895  1
  O  O10  1  0.190026  0.750000  0.557895  1
  O  O11  1  0.690026  0.750000  0.942105  1
  F  F12  1  0.053667  0.966059  0.336268  1
  F  F13  1  0.553667  0.533941  0.163732  1
  F  F14  1  0.946333  0.466059  0.663732  1
  F  F15  1  0.446333  0.033941  0.836268  1
  F  F16  1  0.946333  0.033941  0.663732  1
  F  F17  1  0.446333  0.466059  0.836268  1
  F  F18  1  0.053667  0.533941  0.336268  1
  F  F19  1  0.553667  0.966059  0.163732  1
  F  F20  1  0.795536  0.250000  0.250329  1
  F  F21  1  0.295536  0.250000  0.249671  1
  F  F22  1  0.204464  0.750000  0.749671  1
  F  F23  1  0.704464  0.750000  0.750329  1
  F  F24  1  0.300076  0.250000  0.434720  1
  F  F25  1  0.800076  0.250000  0.065280  1
  F  F26  1  0.699924  0.750000  0.565280  1
  F  F27  1  0.199924  0.750000  0.934720  1
