# generated using pymatgen
data_Ho12FeCo3SnPt
_symmetry_space_group_name_H-M   'P 1'
_cell_length_a   8.29518801
_cell_length_b   8.29423755
_cell_length_c   8.29423755
_cell_angle_alpha   111.36343090
_cell_angle_beta   110.81149985
_cell_angle_gamma   106.28110477
_symmetry_Int_Tables_number   1
_chemical_formula_structural   Ho12FeCo3SnPt
_chemical_formula_sum   'Ho12 Fe1 Co3 Sn1 Pt1'
_cell_volume   438.29603181
_cell_formula_units_Z   1
loop_
 _symmetry_equiv_pos_site_id
 _symmetry_equiv_pos_as_xyz
  1  'x, y, z'
loop_
 _atom_site_type_symbol
 _atom_site_label
 _atom_site_symmetry_multiplicity
 _atom_site_fract_x
 _atom_site_fract_y
 _atom_site_fract_z
 _atom_site_occupancy
  Ho  Ho0  1  0.414136  0.214065  0.200072  1
  Ho  Ho1  1  0.584815  0.784893  0.799920  1
  Ho  Ho2  1  0.015025  0.215178  0.799847  1
  Ho  Ho3  1  0.985899  0.785880  0.200019  1
  Ho  Ho4  1  0.187019  0.289436  0.476402  1
  Ho  Ho5  1  0.812774  0.709707  0.522418  1
  Ho  Ho6  1  0.187019  0.710616  0.897583  1
  Ho  Ho7  1  0.812774  0.290357  0.103067  1
  Ho  Ho8  1  0.311654  0.618327  0.303158  1
  Ho  Ho9  1  0.684764  0.381496  0.693174  1
  Ho  Ho10  1  0.311654  0.008496  0.693327  1
  Ho  Ho11  1  0.684764  0.991591  0.303268  1
  Fe  Fe12  1  0.387424  0.999804  0.387620  1
  Co  Co13  1  0.623690  0.999969  0.623722  1
  Co  Co14  1  0.110038  0.610977  0.499060  1
  Co  Co15  1  0.888188  0.389090  0.499098  1
  Sn  Sn16  1  0.499120  0.500097  0.999022  1
  Pt  Pt17  1  0.999244  0.000021  0.999223  1
