# generated using pymatgen
data_Ho5Er15GaBi11
_symmetry_space_group_name_H-M   'P 1'
_cell_length_a   8.16837803
_cell_length_b   9.43257400
_cell_length_c   11.95332901
_cell_angle_alpha   90.00000000
_cell_angle_beta   90.27838804
_cell_angle_gamma   90.00000000
_symmetry_Int_Tables_number   1
_chemical_formula_structural   Ho5Er15GaBi11
_chemical_formula_sum   'Ho5 Er15 Ga1 Bi11'
_cell_volume   920.97914653
_cell_formula_units_Z   1
loop_
 _symmetry_equiv_pos_site_id
 _symmetry_equiv_pos_as_xyz
  1  'x, y, z'
loop_
 _atom_site_type_symbol
 _atom_site_label
 _atom_site_symmetry_multiplicity
 _atom_site_fract_x
 _atom_site_fract_y
 _atom_site_fract_z
 _atom_site_occupancy
  Ho  Ho0  1  0.978935  0.250000  0.010408  1
  Ho  Ho1  1  0.314235  0.250000  0.219420  1
  Ho  Ho2  1  0.811846  0.250000  0.281458  1
  Ho  Ho3  1  0.673365  0.750000  0.788666  1
  Ho  Ho4  1  0.190709  0.750000  0.722280  1
  Er  Er5  1  0.355331  0.750000  0.206153  1
  Er  Er6  1  0.852578  0.750000  0.284411  1
  Er  Er7  1  0.648537  0.250000  0.784096  1
  Er  Er8  1  0.148799  0.250000  0.716586  1
  Er  Er9  1  0.684053  0.571071  0.054818  1
  Er  Er10  1  0.193289  0.935202  0.439867  1
  Er  Er11  1  0.309486  0.049679  0.941011  1
  Er  Er12  1  0.806929  0.435653  0.559104  1
  Er  Er13  1  0.309486  0.450321  0.941011  1
  Er  Er14  1  0.806929  0.064347  0.559104  1
  Er  Er15  1  0.684053  0.928929  0.054818  1
  Er  Er16  1  0.193289  0.564798  0.439867  1
  Er  Er17  1  0.475463  0.250000  0.488829  1
  Er  Er18  1  0.525459  0.750000  0.511562  1
  Er  Er19  1  0.036053  0.750000  0.989578  1
  Ga  Ga20  1  0.407927  0.750000  0.960846  1
  Bi  Bi21  1  0.908007  0.750000  0.544467  1
  Bi  Bi22  1  0.593118  0.250000  0.042147  1
  Bi  Bi23  1  0.093403  0.250000  0.457706  1
  Bi  Bi24  1  0.564874  0.995308  0.325669  1
  Bi  Bi25  1  0.064153  0.503547  0.175228  1
  Bi  Bi26  1  0.435338  0.495751  0.674855  1
  Bi  Bi27  1  0.934997  0.002766  0.825142  1
  Bi  Bi28  1  0.435338  0.004249  0.674855  1
  Bi  Bi29  1  0.934997  0.497234  0.825142  1
  Bi  Bi30  1  0.564874  0.504692  0.325669  1
  Bi  Bi31  1  0.064153  0.996453  0.175228  1
