# generated using pymatgen
data_Y20Ir5Pd3Ru4
_symmetry_space_group_name_H-M   'P 1'
_cell_length_a   10.93873616
_cell_length_b   10.93873616
_cell_length_c   6.47918727
_cell_angle_alpha   89.97662846
_cell_angle_beta   89.97662846
_cell_angle_gamma   90.21874206
_symmetry_Int_Tables_number   1
_chemical_formula_structural   Y20Ir5Pd3Ru4
_chemical_formula_sum   'Y20 Ir5 Pd3 Ru4'
_cell_volume   775.26752038
_cell_formula_units_Z   1
loop_
 _symmetry_equiv_pos_site_id
 _symmetry_equiv_pos_as_xyz
  1  'x, y, z'
loop_
 _atom_site_type_symbol
 _atom_site_label
 _atom_site_symmetry_multiplicity
 _atom_site_fract_x
 _atom_site_fract_y
 _atom_site_fract_z
 _atom_site_occupancy
  Y  Y0  1  0.296526  0.084641  0.370884  1
  Y  Y1  1  0.295240  0.908396  0.879861  1
  Y  Y2  1  0.702257  0.089514  0.873510  1
  Y  Y3  1  0.700577  0.909931  0.372669  1
  Y  Y4  1  0.582288  0.792002  0.879839  1
  Y  Y5  1  0.582059  0.207896  0.379856  1
  Y  Y6  1  0.411683  0.792373  0.380211  1
  Y  Y7  1  0.416784  0.207533  0.879710  1
  Y  Y8  1  0.207998  0.417712  0.620161  1
  Y  Y9  1  0.207627  0.588317  0.119789  1
  Y  Y10  1  0.792104  0.417941  0.120144  1
  Y  Y11  1  0.792467  0.583216  0.620290  1
  Y  Y12  1  0.915359  0.703474  0.129116  1
  Y  Y13  1  0.910486  0.297743  0.626490  1
  Y  Y14  1  0.091604  0.704760  0.620139  1
  Y  Y15  1  0.090069  0.299423  0.127331  1
  Y  Y16  1  0.001792  0.997502  0.498960  1
  Y  Y17  1  0.002498  0.998208  0.001040  1
  Y  Y18  1  0.499665  0.499805  0.000653  1
  Y  Y19  1  0.500195  0.500335  0.499347  1
  Ir  Ir20  1  0.150687  0.849313  0.250000  1
  Ir  Ir21  1  0.653510  0.346490  0.750000  1
  Ir  Ir22  1  0.654089  0.653638  0.249573  1
  Ir  Ir23  1  0.346362  0.345911  0.250427  1
  Ir  Ir24  1  0.347566  0.652434  0.750000  1
  Pd  Pd25  1  0.847535  0.152465  0.250000  1
  Pd  Pd26  1  0.845790  0.846534  0.750107  1
  Pd  Pd27  1  0.153466  0.154210  0.749893  1
  Ru  Ru28  1  0.501047  0.000190  0.125064  1
  Ru  Ru29  1  0.500916  0.000059  0.626613  1
  Ru  Ru30  1  0.999941  0.499084  0.873387  1
  Ru  Ru31  1  0.999810  0.498953  0.374936  1
