# generated using pymatgen
data_Dy3HoTm4(WO6)4
_symmetry_space_group_name_H-M   'P 1'
_cell_length_a   5.37454300
_cell_length_b   7.66614636
_cell_length_c   11.38908269
_cell_angle_alpha   75.46828239
_cell_angle_beta   90.00000000
_cell_angle_gamma   90.00000000
_symmetry_Int_Tables_number   1
_chemical_formula_structural   Dy3HoTm4(WO6)4
_chemical_formula_sum   'Dy3 Ho1 Tm4 W4 O24'
_cell_volume   454.24142674
_cell_formula_units_Z   1
loop_
 _symmetry_equiv_pos_site_id
 _symmetry_equiv_pos_as_xyz
  1  'x, y, z'
loop_
 _atom_site_type_symbol
 _atom_site_label
 _atom_site_symmetry_multiplicity
 _atom_site_fract_x
 _atom_site_fract_y
 _atom_site_fract_z
 _atom_site_occupancy
  Dy  Dy0  1  0.740773  0.000000  0.750000  1
  Dy  Dy1  1  0.684048  0.500000  0.750000  1
  Dy  Dy2  1  0.315749  0.500000  0.250000  1
  Ho  Ho3  1  0.259566  0.000000  0.250000  1
  Tm  Tm4  1  0.184555  0.794804  0.578501  1
  Tm  Tm5  1  0.815588  0.794882  0.078754  1
  Tm  Tm6  1  0.184555  0.205196  0.921499  1
  Tm  Tm7  1  0.815588  0.205118  0.421246  1
  W  W8  1  0.255294  0.723162  0.886175  1
  W  W9  1  0.744650  0.723467  0.386002  1
  W  W10  1  0.255294  0.276838  0.613825  1
  W  W11  1  0.744650  0.276533  0.113998  1
  O  O12  1  0.044630  0.940582  0.897009  1
  O  O13  1  0.535012  0.845886  0.932413  1
  O  O14  1  0.956363  0.940758  0.396453  1
  O  O15  1  0.457300  0.790228  0.726459  1
  O  O16  1  0.464762  0.846426  0.432003  1
  O  O17  1  0.982150  0.711479  0.770570  1
  O  O18  1  0.541875  0.790951  0.226428  1
  O  O19  1  0.853399  0.634952  0.549380  1
  O  O20  1  0.359753  0.487983  0.887122  1
  O  O21  1  0.017868  0.711802  0.270469  1
  O  O22  1  0.359753  0.512017  0.612878  1
  O  O23  1  0.853399  0.365048  0.950620  1
  O  O24  1  0.146339  0.634599  0.049496  1
  O  O25  1  0.640392  0.488245  0.386929  1
  O  O26  1  0.982150  0.288521  0.729430  1
  O  O27  1  0.640392  0.511755  0.113071  1
  O  O28  1  0.146339  0.365401  0.450504  1
  O  O29  1  0.457300  0.209772  0.773541  1
  O  O30  1  0.017868  0.288198  0.229531  1
  O  O31  1  0.535012  0.154114  0.567587  1
  O  O32  1  0.541875  0.209049  0.273572  1
  O  O33  1  0.044630  0.059418  0.602991  1
  O  O34  1  0.464762  0.153574  0.067997  1
  O  O35  1  0.956363  0.059242  0.103547  1
