# generated using pymatgen
data_Dy2Ho6Ti12Si15Sn
_symmetry_space_group_name_H-M   'P 1'
_cell_length_a   7.09969226
_cell_length_b   7.06484902
_cell_length_c   13.00797416
_cell_angle_alpha   89.97943986
_cell_angle_beta   89.71794076
_cell_angle_gamma   89.93019206
_symmetry_Int_Tables_number   1
_chemical_formula_structural   Dy2Ho6Ti12Si15Sn
_chemical_formula_sum   'Dy2 Ho6 Ti12 Si15 Sn1'
_cell_volume   652.44883949
_cell_formula_units_Z   1
loop_
 _symmetry_equiv_pos_site_id
 _symmetry_equiv_pos_as_xyz
  1  'x, y, z'
loop_
 _atom_site_type_symbol
 _atom_site_label
 _atom_site_symmetry_multiplicity
 _atom_site_fract_x
 _atom_site_fract_y
 _atom_site_fract_z
 _atom_site_occupancy
  Dy  Dy0  1  0.343201  0.999791  0.461514  1
  Dy  Dy1  1  0.505084  0.835007  0.718130  1
  Ho  Ho2  1  0.502406  0.159833  0.216514  1
  Ho  Ho3  1  0.840877  0.497264  0.282381  1
  Ho  Ho4  1  0.159057  0.510075  0.786080  1
  Ho  Ho5  1  0.661235  0.996346  0.968595  1
  Ho  Ho6  1  0.993203  0.348382  0.527714  1
  Ho  Ho7  1  0.998628  0.659131  0.034237  1
  Ti  Ti8  1  0.325960  0.326659  0.001113  1
  Ti  Ti9  1  0.173957  0.826021  0.249685  1
  Ti  Ti10  1  0.816687  0.175308  0.751978  1
  Ti  Ti11  1  0.672937  0.673058  0.499470  1
  Ti  Ti12  1  0.152141  0.007515  0.883246  1
  Ti  Ti13  1  0.492231  0.650518  0.126802  1
  Ti  Ti14  1  0.515468  0.353730  0.626484  1
  Ti  Ti15  1  0.654039  0.493184  0.875457  1
  Ti  Ti16  1  0.347730  0.509025  0.372748  1
  Ti  Ti17  1  0.847290  0.992169  0.375765  1
  Ti  Ti18  1  0.009244  0.151561  0.123422  1
  Ti  Ti19  1  0.979989  0.835404  0.618966  1
  Si  Si20  1  0.370650  0.702791  0.935970  1
  Si  Si21  1  0.628811  0.297276  0.432866  1
  Si  Si22  1  0.703406  0.369420  0.066361  1
  Si  Si23  1  0.296729  0.630298  0.565609  1
  Si  Si24  1  0.797408  0.869565  0.184259  1
  Si  Si25  1  0.129998  0.202920  0.314814  1
  Si  Si26  1  0.870427  0.799713  0.816182  1
  Si  Si27  1  0.292165  0.951865  0.066780  1
  Si  Si28  1  0.549593  0.789311  0.313477  1
  Si  Si29  1  0.459161  0.210773  0.820012  1
  Si  Si30  1  0.793925  0.544753  0.686781  1
  Si  Si31  1  0.209322  0.452642  0.185168  1
  Si  Si32  1  0.707565  0.048745  0.564484  1
  Si  Si33  1  0.952364  0.291381  0.935261  1
  Si  Si34  1  0.048126  0.710757  0.432896  1
  Sn  Sn35  1  0.198982  0.127805  0.678776  1
