# generated using pymatgen
data_Sr2Yb(YGe2)2
_symmetry_space_group_name_H-M   'P 1'
_cell_length_a   7.63482100
_cell_length_b   8.07750500
_cell_length_c   15.56150600
_cell_angle_alpha   90.00000000
_cell_angle_beta   90.00000000
_cell_angle_gamma   90.00000000
_symmetry_Int_Tables_number   1
_chemical_formula_structural   Sr2Yb(YGe2)2
_chemical_formula_sum   'Sr8 Yb4 Y8 Ge16'
_cell_volume   959.68281819
_cell_formula_units_Z   4
loop_
 _symmetry_equiv_pos_site_id
 _symmetry_equiv_pos_as_xyz
  1  'x, y, z'
loop_
 _atom_site_type_symbol
 _atom_site_label
 _atom_site_symmetry_multiplicity
 _atom_site_fract_x
 _atom_site_fract_y
 _atom_site_fract_z
 _atom_site_occupancy
  Sr  Sr0  1  0.980284  0.818797  0.404510  1
  Sr  Sr1  1  0.480284  0.681203  0.095490  1
  Sr  Sr2  1  0.519716  0.318797  0.595490  1
  Sr  Sr3  1  0.019716  0.181203  0.904510  1
  Sr  Sr4  1  0.019716  0.181203  0.595490  1
  Sr  Sr5  1  0.519716  0.318797  0.904510  1
  Sr  Sr6  1  0.480284  0.681203  0.404510  1
  Sr  Sr7  1  0.980284  0.818797  0.095490  1
  Yb  Yb8  1  0.347553  0.014526  0.750000  1
  Yb  Yb9  1  0.847553  0.485474  0.750000  1
  Yb  Yb10  1  0.152447  0.514526  0.250000  1
  Yb  Yb11  1  0.652447  0.985474  0.250000  1
  Y  Y12  1  0.319087  0.174068  0.122359  1
  Y  Y13  1  0.819087  0.325932  0.377641  1
  Y  Y14  1  0.180913  0.674068  0.877641  1
  Y  Y15  1  0.680913  0.825932  0.622359  1
  Y  Y16  1  0.319087  0.174068  0.377641  1
  Y  Y17  1  0.819087  0.325932  0.122359  1
  Y  Y18  1  0.180913  0.674068  0.622359  1
  Y  Y19  1  0.680913  0.825932  0.877641  1
  Ge  Ge20  1  0.852331  0.538285  0.540235  1
  Ge  Ge21  1  0.352331  0.961715  0.959765  1
  Ge  Ge22  1  0.647669  0.038285  0.459765  1
  Ge  Ge23  1  0.147669  0.461715  0.040235  1
  Ge  Ge24  1  0.147669  0.461715  0.459765  1
  Ge  Ge25  1  0.647669  0.038285  0.040235  1
  Ge  Ge26  1  0.352331  0.961715  0.540235  1
  Ge  Ge27  1  0.852331  0.538285  0.959765  1
  Ge  Ge28  1  0.976383  0.874401  0.750000  1
  Ge  Ge29  1  0.476383  0.625599  0.750000  1
  Ge  Ge30  1  0.523617  0.374401  0.250000  1
  Ge  Ge31  1  0.023617  0.125599  0.250000  1
  Ge  Ge32  1  0.235513  0.396271  0.750000  1
  Ge  Ge33  1  0.735513  0.103729  0.750000  1
  Ge  Ge34  1  0.264487  0.896271  0.250000  1
  Ge  Ge35  1  0.764487  0.603729  0.250000  1
