# generated using pymatgen
data_Ta10Al4Rh
_symmetry_space_group_name_H-M   'P 1'
_cell_length_a   9.88492800
_cell_length_b   9.88492800
_cell_length_c   5.23078200
_cell_angle_alpha   90.00000000
_cell_angle_beta   90.00000000
_cell_angle_gamma   90.00000000
_symmetry_Int_Tables_number   1
_chemical_formula_structural   Ta10Al4Rh
_chemical_formula_sum   'Ta20 Al8 Rh2'
_cell_volume   511.10913281
_cell_formula_units_Z   2
loop_
 _symmetry_equiv_pos_site_id
 _symmetry_equiv_pos_as_xyz
  1  'x, y, z'
loop_
 _atom_site_type_symbol
 _atom_site_label
 _atom_site_symmetry_multiplicity
 _atom_site_fract_x
 _atom_site_fract_y
 _atom_site_fract_z
 _atom_site_occupancy
  Ta  Ta0  1  0.398582  0.398582  0.000000  1
  Ta  Ta1  1  0.898582  0.101418  0.500000  1
  Ta  Ta2  1  0.101418  0.898582  0.500000  1
  Ta  Ta3  1  0.601418  0.601418  0.000000  1
  Ta  Ta4  1  0.130581  0.465734  0.000000  1
  Ta  Ta5  1  0.965734  0.369419  0.500000  1
  Ta  Ta6  1  0.034266  0.630581  0.500000  1
  Ta  Ta7  1  0.869419  0.534266  0.000000  1
  Ta  Ta8  1  0.369419  0.965734  0.500000  1
  Ta  Ta9  1  0.630581  0.034266  0.500000  1
  Ta  Ta10  1  0.465734  0.130581  0.000000  1
  Ta  Ta11  1  0.534266  0.869419  0.000000  1
  Ta  Ta12  1  0.181581  0.181581  0.251316  1
  Ta  Ta13  1  0.681581  0.318419  0.751316  1
  Ta  Ta14  1  0.318419  0.681581  0.751316  1
  Ta  Ta15  1  0.818419  0.818419  0.251316  1
  Ta  Ta16  1  0.318419  0.681581  0.248684  1
  Ta  Ta17  1  0.681581  0.318419  0.248684  1
  Ta  Ta18  1  0.181581  0.181581  0.748684  1
  Ta  Ta19  1  0.818419  0.818419  0.748684  1
  Al  Al20  1  0.256360  0.935445  0.000000  1
  Al  Al21  1  0.435445  0.243640  0.500000  1
  Al  Al22  1  0.564555  0.756360  0.500000  1
  Al  Al23  1  0.743640  0.064555  0.000000  1
  Al  Al24  1  0.243640  0.435445  0.500000  1
  Al  Al25  1  0.756360  0.564555  0.500000  1
  Al  Al26  1  0.935445  0.256360  0.000000  1
  Al  Al27  1  0.064555  0.743640  0.000000  1
  Rh  Rh28  1  0.000000  0.000000  0.000000  1
  Rh  Rh29  1  0.500000  0.500000  0.500000  1
