# generated using pymatgen
data_Er3ZnSn3RuRh
_symmetry_space_group_name_H-M   'P 1'
_cell_length_a   7.65017400
_cell_length_b   7.65017298
_cell_length_c   3.79118800
_cell_angle_alpha   90.00000000
_cell_angle_beta   90.00000000
_cell_angle_gamma   119.99998713
_symmetry_Int_Tables_number   1
_chemical_formula_structural   Er3ZnSn3RuRh
_chemical_formula_sum   'Er3 Zn1 Sn3 Ru1 Rh1'
_cell_volume   192.15362291
_cell_formula_units_Z   1
loop_
 _symmetry_equiv_pos_site_id
 _symmetry_equiv_pos_as_xyz
  1  'x, y, z'
loop_
 _atom_site_type_symbol
 _atom_site_label
 _atom_site_symmetry_multiplicity
 _atom_site_fract_x
 _atom_site_fract_y
 _atom_site_fract_z
 _atom_site_occupancy
  Er  Er0  1  0.390313  0.406960  0.000000  1
  Er  Er1  1  0.016648  0.609687  0.000000  1
  Er  Er2  1  0.593040  0.983352  0.000000  1
  Zn  Zn3  1  0.666667  0.333333  0.500000  1
  Sn  Sn4  1  0.739599  0.737231  0.500000  1
  Sn  Sn5  1  0.997632  0.260401  0.500000  1
  Sn  Sn6  1  0.262769  0.002368  0.500000  1
  Ru  Ru7  1  0.000000  0.000000  0.000000  1
  Rh  Rh8  1  0.333333  0.666667  0.500000  1
