# generated using pymatgen
data_Er8V9Re3Si16
_symmetry_space_group_name_H-M   'P 1'
_cell_length_a   6.61912700
_cell_length_b   6.84015520
_cell_length_c   12.97964100
_cell_angle_alpha   90.00000000
_cell_angle_beta   90.00000000
_cell_angle_gamma   90.05541818
_symmetry_Int_Tables_number   1
_chemical_formula_structural   Er8V9Re3Si16
_chemical_formula_sum   'Er8 V9 Re3 Si16'
_cell_volume   587.66408151
_cell_formula_units_Z   1
loop_
 _symmetry_equiv_pos_site_id
 _symmetry_equiv_pos_as_xyz
  1  'x, y, z'
loop_
 _atom_site_type_symbol
 _atom_site_label
 _atom_site_symmetry_multiplicity
 _atom_site_fract_x
 _atom_site_fract_y
 _atom_site_fract_z
 _atom_site_occupancy
  Er  Er0  1  0.496540  0.333152  0.094070  1
  Er  Er1  1  0.996478  0.167139  0.405839  1
  Er  Er2  1  0.502397  0.669076  0.595251  1
  Er  Er3  1  0.002214  0.831578  0.905088  1
  Er  Er4  1  0.502397  0.669076  0.904749  1
  Er  Er5  1  0.002214  0.831578  0.594912  1
  Er  Er6  1  0.496540  0.333152  0.405930  1
  Er  Er7  1  0.996478  0.167139  0.094161  1
  V  V8  1  0.831843  0.332853  0.625664  1
  V  V9  1  0.335039  0.166900  0.874132  1
  V  V10  1  0.167978  0.665447  0.125009  1
  V  V11  1  0.668075  0.834277  0.373703  1
  V  V12  1  0.167978  0.665447  0.374991  1
  V  V13  1  0.668075  0.834277  0.126297  1
  V  V14  1  0.831843  0.332853  0.874336  1
  V  V15  1  0.335039  0.166900  0.625868  1
  V  V16  1  0.663403  0.012963  0.750000  1
  Re  Re17  1  0.165369  0.489464  0.750000  1
  Re  Re18  1  0.334265  0.995076  0.250000  1
  Re  Re19  1  0.833338  0.505159  0.250000  1
  Si  Si20  1  0.661268  0.045821  0.544185  1
  Si  Si21  1  0.161461  0.451860  0.955317  1
  Si  Si22  1  0.340040  0.953297  0.045131  1
  Si  Si23  1  0.839398  0.546503  0.455441  1
  Si  Si24  1  0.340040  0.953297  0.454869  1
  Si  Si25  1  0.839398  0.546503  0.044559  1
  Si  Si26  1  0.661268  0.045821  0.955815  1
  Si  Si27  1  0.161461  0.451860  0.544683  1
  Si  Si28  1  0.535831  0.365734  0.750000  1
  Si  Si29  1  0.035763  0.134164  0.750000  1
  Si  Si30  1  0.463748  0.637027  0.250000  1
  Si  Si31  1  0.965005  0.862812  0.250000  1
  Si  Si32  1  0.803633  0.622659  0.750000  1
  Si  Si33  1  0.305111  0.878526  0.750000  1
  Si  Si34  1  0.194349  0.375915  0.250000  1
  Si  Si35  1  0.694727  0.124699  0.250000  1
