# generated using pymatgen
data_Ho2AlNiOs
_symmetry_space_group_name_H-M   'P 1'
_cell_length_a   5.46169003
_cell_length_b   5.46168958
_cell_length_c   5.46169045
_cell_angle_alpha   135.68415076
_cell_angle_beta   118.65983091
_cell_angle_gamma   78.74897750
_symmetry_Int_Tables_number   1
_chemical_formula_structural   Ho2AlNiOs
_chemical_formula_sum   'Ho2 Al1 Ni1 Os1'
_cell_volume   96.91841971
_cell_formula_units_Z   1
loop_
 _symmetry_equiv_pos_site_id
 _symmetry_equiv_pos_as_xyz
  1  'x, y, z'
loop_
 _atom_site_type_symbol
 _atom_site_label
 _atom_site_symmetry_multiplicity
 _atom_site_fract_x
 _atom_site_fract_y
 _atom_site_fract_z
 _atom_site_occupancy
  Ho  Ho0  1  0.695486  0.201791  0.493695  1
  Ho  Ho1  1  0.291904  0.798209  0.493695  1
  Al  Al2  1  0.999942  0.000000  0.999942  1
  Ni  Ni3  1  0.737439  0.500000  0.237439  1
  Os  Os4  1  0.275230  0.500000  0.775230  1
