# generated using pymatgen
data_SmYCo2(Re2C)2
_symmetry_space_group_name_H-M   'P 1'
_cell_length_a   5.68335055
_cell_length_b   5.68335169
_cell_length_c   7.50081100
_cell_angle_alpha   90.00000000
_cell_angle_beta   90.00000000
_cell_angle_gamma   140.16517079
_symmetry_Int_Tables_number   1
_chemical_formula_structural   SmYCo2(Re2C)2
_chemical_formula_sum   'Sm1 Y1 Co2 Re4 C2'
_cell_volume   155.19876963
_cell_formula_units_Z   1
loop_
 _symmetry_equiv_pos_site_id
 _symmetry_equiv_pos_as_xyz
  1  'x, y, z'
loop_
 _atom_site_type_symbol
 _atom_site_label
 _atom_site_symmetry_multiplicity
 _atom_site_fract_x
 _atom_site_fract_y
 _atom_site_fract_z
 _atom_site_occupancy
  Sm  Sm0  1  0.534475  0.465525  0.250000  1
  Y  Y1  1  0.465850  0.534150  0.750000  1
  Co  Co2  1  0.259857  0.740143  0.250000  1
  Co  Co3  1  0.739945  0.260055  0.750000  1
  Re  Re4  1  0.822280  0.177720  0.064269  1
  Re  Re5  1  0.177889  0.822111  0.934019  1
  Re  Re6  1  0.177889  0.822111  0.565981  1
  Re  Re7  1  0.822280  0.177720  0.435731  1
  C  C8  1  0.999767  0.000233  0.996503  1
  C  C9  1  0.999767  0.000233  0.503497  1
