# generated using pymatgen
data_ErSc3Ga17SiIr6
_symmetry_space_group_name_H-M   'P 1'
_cell_length_a   7.52746906
_cell_length_b   7.50187409
_cell_length_c   9.41014937
_cell_angle_alpha   90.06021361
_cell_angle_beta   89.83462132
_cell_angle_gamma   120.04230670
_symmetry_Int_Tables_number   1
_chemical_formula_structural   ErSc3Ga17SiIr6
_chemical_formula_sum   'Er1 Sc3 Ga17 Si1 Ir6'
_cell_volume   460.00096462
_cell_formula_units_Z   1
loop_
 _symmetry_equiv_pos_site_id
 _symmetry_equiv_pos_as_xyz
  1  'x, y, z'
loop_
 _atom_site_type_symbol
 _atom_site_label
 _atom_site_symmetry_multiplicity
 _atom_site_fract_x
 _atom_site_fract_y
 _atom_site_fract_z
 _atom_site_occupancy
  Er  Er0  1  0.996554  0.664204  0.248107  1
  Sc  Sc1  1  0.002269  0.330608  0.752264  1
  Sc  Sc2  1  0.676059  0.004093  0.247587  1
  Sc  Sc3  1  0.329475  0.001629  0.749300  1
  Ga  Ga4  1  0.128724  0.128923  0.250773  1
  Ga  Ga5  1  0.875120  0.877879  0.750702  1
  Ga  Ga6  1  0.002700  0.672056  0.912462  1
  Ga  Ga7  1  0.003925  0.665968  0.585119  1
  Ga  Ga8  1  0.336971  0.997655  0.419063  1
  Ga  Ga9  1  0.996426  0.331150  0.420325  1
  Ga  Ga10  1  0.665560  0.003829  0.583041  1
  Ga  Ga11  1  0.657668  0.997981  0.914490  1
  Ga  Ga12  1  0.336520  0.997451  0.081411  1
  Ga  Ga13  1  0.329924  0.328886  0.570421  1
  Ga  Ga14  1  0.668589  0.671761  0.432234  1
  Ga  Ga15  1  0.667773  0.672604  0.070674  1
  Ga  Ga16  1  0.335788  0.329020  0.928120  1
  Ga  Ga17  1  0.342688  0.549321  0.251452  1
  Ga  Ga18  1  0.660449  0.447431  0.751473  1
  Ga  Ga19  1  0.547475  0.338074  0.250582  1
  Ga  Ga20  1  0.447229  0.657502  0.750667  1
  Si  Si21  1  0.997277  0.331695  0.072390  1
  Ir  Ir22  1  0.685383  0.330733  0.003828  1
  Ir  Ir23  1  0.312536  0.656046  0.001168  1
  Ir  Ir24  1  0.327627  0.670863  0.500747  1
  Ir  Ir25  1  0.672286  0.329445  0.500241  1
  Ir  Ir26  1  0.996915  0.013762  0.001281  1
  Ir  Ir27  1  0.000092  0.999431  0.500081  1
