# generated using pymatgen
data_Ta3Nb3Ga4(CoC)2
_symmetry_space_group_name_H-M   'P 1'
_cell_length_a   8.21931256
_cell_length_b   8.21947081
_cell_length_c   8.21931202
_cell_angle_alpha   59.99936867
_cell_angle_beta   59.99248588
_cell_angle_gamma   59.99936610
_symmetry_Int_Tables_number   1
_chemical_formula_structural   Ta3Nb3Ga4(CoC)2
_chemical_formula_sum   'Ta6 Nb6 Ga8 Co4 C4'
_cell_volume   392.61871890
_cell_formula_units_Z   2
loop_
 _symmetry_equiv_pos_site_id
 _symmetry_equiv_pos_as_xyz
  1  'x, y, z'
loop_
 _atom_site_type_symbol
 _atom_site_label
 _atom_site_symmetry_multiplicity
 _atom_site_fract_x
 _atom_site_fract_y
 _atom_site_fract_z
 _atom_site_occupancy
  Ta  Ta0  1  0.690836  0.309164  0.690836  1
  Ta  Ta1  1  0.940291  0.560042  0.560058  1
  Ta  Ta2  1  0.560058  0.939609  0.940291  1
  Ta  Ta3  1  0.939339  0.560661  0.939339  1
  Ta  Ta4  1  0.560058  0.560042  0.940291  1
  Ta  Ta5  1  0.940291  0.939609  0.560058  1
  Nb  Nb6  1  0.689953  0.689712  0.310391  1
  Nb  Nb7  1  0.310391  0.689712  0.689953  1
  Nb  Nb8  1  0.689953  0.309944  0.310391  1
  Nb  Nb9  1  0.310391  0.309944  0.689953  1
  Nb  Nb10  1  0.561164  0.938836  0.561164  1
  Nb  Nb11  1  0.309555  0.690445  0.309555  1
  Ga  Ga12  1  0.333848  0.332224  0.333848  1
  Ga  Ga13  1  0.249637  0.917202  0.915958  1
  Ga  Ga14  1  0.917389  0.249860  0.917389  1
  Ga  Ga15  1  0.915958  0.917202  0.249637  1
  Ga  Ga16  1  0.333848  0.000080  0.333848  1
  Ga  Ga17  1  0.332231  0.333846  0.000077  1
  Ga  Ga18  1  0.000077  0.333846  0.332231  1
  Ga  Ga19  1  0.917389  0.915361  0.917389  1
  Co  Co20  1  0.125214  0.125040  0.125214  1
  Co  Co21  1  0.625779  0.128166  0.117890  1
  Co  Co22  1  0.125214  0.624531  0.125214  1
  Co  Co23  1  0.117890  0.128166  0.625779  1
  C  C24  1  0.627322  0.621906  0.627322  1
  C  C25  1  0.122168  0.625699  0.626434  1
  C  C26  1  0.627322  0.123450  0.627322  1
  C  C27  1  0.626434  0.625699  0.122168  1
