# generated using pymatgen
data_Li2Co7Ni2Mo3As7
_symmetry_space_group_name_H-M   'P 1'
_cell_length_a   9.31644828
_cell_length_b   9.38784979
_cell_length_c   3.77174800
_cell_angle_alpha   90.00000000
_cell_angle_beta   90.00000000
_cell_angle_gamma   120.18477567
_symmetry_Int_Tables_number   1
_chemical_formula_structural   Li2Co7Ni2Mo3As7
_chemical_formula_sum   'Li2 Co7 Ni2 Mo3 As7'
_cell_volume   285.15314906
_cell_formula_units_Z   1
loop_
 _symmetry_equiv_pos_site_id
 _symmetry_equiv_pos_as_xyz
  1  'x, y, z'
loop_
 _atom_site_type_symbol
 _atom_site_label
 _atom_site_symmetry_multiplicity
 _atom_site_fract_x
 _atom_site_fract_y
 _atom_site_fract_z
 _atom_site_occupancy
  Li  Li0  1  0.334785  0.666999  0.000000  1
  Li  Li1  1  0.997474  0.997323  0.500000  1
  Co  Co2  1  0.276972  0.377173  0.500000  1
  Co  Co3  1  0.624283  0.901035  0.500000  1
  Co  Co4  1  0.098683  0.725449  0.500000  1
  Co  Co5  1  0.503706  0.449949  0.000000  1
  Co  Co6  1  0.548819  0.049918  0.000000  1
  Co  Co7  1  0.951311  0.500370  0.000000  1
  Co  Co8  1  0.718796  0.758797  0.000000  1
  Ni  Ni9  1  0.238411  0.961521  0.000000  1
  Ni  Ni10  1  0.038234  0.279045  0.000000  1
  Mo  Mo11  1  0.758455  0.550305  0.500000  1
  Mo  Mo12  1  0.447057  0.206730  0.500000  1
  Mo  Mo13  1  0.793442  0.239649  0.500000  1
  As  As14  1  0.962545  0.755083  0.000000  1
  As  As15  1  0.245204  0.212878  0.000000  1
  As  As16  1  0.789186  0.030174  0.000000  1
  As  As17  1  0.667790  0.331865  0.000000  1
  As  As18  1  0.532923  0.622857  0.500000  1
  As  As19  1  0.379674  0.909813  0.500000  1
  As  As20  1  0.092250  0.473065  0.500000  1
