# generated using pymatgen
data_Ti6NbRh5
_symmetry_space_group_name_H-M   'P 1'
_cell_length_a   5.42528467
_cell_length_b   7.68182176
_cell_length_c   4.41063800
_cell_angle_alpha   90.00001492
_cell_angle_beta   90.00000000
_cell_angle_gamma   89.13449024
_symmetry_Int_Tables_number   1
_chemical_formula_structural   Ti6NbRh5
_chemical_formula_sum   'Ti6 Nb1 Rh5'
_cell_volume   183.79708499
_cell_formula_units_Z   1
loop_
 _symmetry_equiv_pos_site_id
 _symmetry_equiv_pos_as_xyz
  1  'x, y, z'
loop_
 _atom_site_type_symbol
 _atom_site_label
 _atom_site_symmetry_multiplicity
 _atom_site_fract_x
 _atom_site_fract_y
 _atom_site_fract_z
 _atom_site_occupancy
  Ti  Ti0  1  0.110215  0.277868  0.000000  1
  Ti  Ti1  1  0.446984  0.609897  0.000000  1
  Ti  Ti2  1  0.775841  0.945708  0.000000  1
  Ti  Ti3  1  0.443667  0.111545  0.500000  1
  Ti  Ti4  1  0.777772  0.444065  0.500000  1
  Ti  Ti5  1  0.112204  0.777512  0.500000  1
  Nb  Nb6  1  0.610698  0.277619  0.000000  1
  Rh  Rh7  1  0.946302  0.615055  0.000000  1
  Rh  Rh8  1  0.276440  0.940365  0.000000  1
  Rh  Rh9  1  0.949250  0.106058  0.500000  1
  Rh  Rh10  1  0.271788  0.449422  0.500000  1
  Rh  Rh11  1  0.612052  0.778197  0.500000  1
