# generated using pymatgen
data_Ho10Co4RuPt
_symmetry_space_group_name_H-M   'P 1'
_cell_length_a   7.08169346
_cell_length_b   7.08169404
_cell_length_c   8.69738600
_cell_angle_alpha   114.02380401
_cell_angle_beta   114.02379723
_cell_angle_gamma   90.00000409
_symmetry_Int_Tables_number   1
_chemical_formula_structural   Ho10Co4RuPt
_chemical_formula_sum   'Ho10 Co4 Ru1 Pt1'
_cell_volume   356.63005481
_cell_formula_units_Z   1
loop_
 _symmetry_equiv_pos_site_id
 _symmetry_equiv_pos_as_xyz
  1  'x, y, z'
loop_
 _atom_site_type_symbol
 _atom_site_label
 _atom_site_symmetry_multiplicity
 _atom_site_fract_x
 _atom_site_fract_y
 _atom_site_fract_z
 _atom_site_occupancy
  Ho  Ho0  1  0.999068  0.999068  0.998135  1
  Ho  Ho1  1  0.500932  0.500932  0.001865  1
  Ho  Ho2  1  0.460991  0.315943  0.282604  1
  Ho  Ho3  1  0.966662  0.460991  0.282604  1
  Ho  Ho4  1  0.315943  0.821613  0.282604  1
  Ho  Ho5  1  0.821613  0.966662  0.282604  1
  Ho  Ho6  1  0.184057  0.039009  0.717395  1
  Ho  Ho7  1  0.678385  0.184057  0.717395  1
  Ho  Ho8  1  0.039009  0.533338  0.717395  1
  Ho  Ho9  1  0.533338  0.678385  0.717395  1
  Co  Co10  1  0.612457  0.112457  0.000000  1
  Co  Co11  1  0.112457  0.387544  0.000000  1
  Co  Co12  1  0.887543  0.612457  0.000000  1
  Co  Co13  1  0.387544  0.887543  0.000000  1
  Ru  Ru14  1  0.250000  0.250000  0.500000  1
  Pt  Pt15  1  0.750000  0.750000  0.500000  1
