# generated using pymatgen
data_Tb4Mg4Pt3Rh
_symmetry_space_group_name_H-M   'P 1'
_cell_length_a   4.18106600
_cell_length_b   7.10810941
_cell_length_c   8.66321292
_cell_angle_alpha   89.78785659
_cell_angle_beta   90.00000000
_cell_angle_gamma   90.00000000
_symmetry_Int_Tables_number   1
_chemical_formula_structural   Tb4Mg4Pt3Rh
_chemical_formula_sum   'Tb4 Mg4 Pt3 Rh1'
_cell_volume   257.46437110
_cell_formula_units_Z   1
loop_
 _symmetry_equiv_pos_site_id
 _symmetry_equiv_pos_as_xyz
  1  'x, y, z'
loop_
 _atom_site_type_symbol
 _atom_site_label
 _atom_site_symmetry_multiplicity
 _atom_site_fract_x
 _atom_site_fract_y
 _atom_site_fract_z
 _atom_site_occupancy
  Tb  Tb0  1  0.250000  0.541199  0.173545  1
  Tb  Tb1  1  0.750000  0.466320  0.825286  1
  Tb  Tb2  1  0.250000  0.038490  0.323329  1
  Tb  Tb3  1  0.750000  0.958991  0.678601  1
  Mg  Mg4  1  0.250000  0.134569  0.938143  1
  Mg  Mg5  1  0.750000  0.863354  0.059389  1
  Mg  Mg6  1  0.250000  0.636648  0.562539  1
  Mg  Mg7  1  0.750000  0.364392  0.437770  1
  Pt  Pt8  1  0.750000  0.751633  0.375732  1
  Pt  Pt9  1  0.250000  0.249387  0.623408  1
  Pt  Pt10  1  0.750000  0.250499  0.125503  1
  Rh  Rh11  1  0.250000  0.744517  0.876755  1
