# generated using pymatgen
data_HoPa3(InCo2)2
_symmetry_space_group_name_H-M   'P 1'
_cell_length_a   7.42300733
_cell_length_b   7.42300605
_cell_length_c   3.48247500
_cell_angle_alpha   90.00000000
_cell_angle_beta   90.00000000
_cell_angle_gamma   92.37244068
_symmetry_Int_Tables_number   1
_chemical_formula_structural   HoPa3(InCo2)2
_chemical_formula_sum   'Ho1 Pa3 In2 Co4'
_cell_volume   191.72347815
_cell_formula_units_Z   1
loop_
 _symmetry_equiv_pos_site_id
 _symmetry_equiv_pos_as_xyz
  1  'x, y, z'
loop_
 _atom_site_type_symbol
 _atom_site_label
 _atom_site_symmetry_multiplicity
 _atom_site_fract_x
 _atom_site_fract_y
 _atom_site_fract_z
 _atom_site_occupancy
  Ho  Ho0  1  0.833618  0.666382  0.500000  1
  Pa  Pa1  1  0.672936  0.166974  0.500000  1
  Pa  Pa2  1  0.333026  0.827064  0.500000  1
  Pa  Pa3  1  0.168882  0.331118  0.500000  1
  In  In4  1  0.510327  0.501171  0.000000  1
  In  In5  1  0.998829  0.989673  0.000000  1
  Co  Co6  1  0.153150  0.626866  0.000000  1
  Co  Co7  1  0.873134  0.346850  0.000000  1
  Co  Co8  1  0.602386  0.897614  0.000000  1
  Co  Co9  1  0.353714  0.146286  0.000000  1
