# generated using pymatgen
data_CsMn3CoO8
_symmetry_space_group_name_H-M   'P 1'
_cell_length_a   5.85590079
_cell_length_b   5.85590471
_cell_length_c   7.64723246
_cell_angle_alpha   69.51150871
_cell_angle_beta   69.51140207
_cell_angle_gamma   60.31107171
_symmetry_Int_Tables_number   1
_chemical_formula_structural   CsMn3CoO8
_chemical_formula_sum   'Cs1 Mn3 Co1 O8'
_cell_volume   208.31149815
_cell_formula_units_Z   1
loop_
 _symmetry_equiv_pos_site_id
 _symmetry_equiv_pos_as_xyz
  1  'x, y, z'
loop_
 _atom_site_type_symbol
 _atom_site_label
 _atom_site_symmetry_multiplicity
 _atom_site_fract_x
 _atom_site_fract_y
 _atom_site_fract_z
 _atom_site_occupancy
  Cs  Cs0  1  0.500000  0.500000  0.500000  1
  Mn  Mn1  1  0.000000  0.000000  0.000000  1
  Mn  Mn2  1  0.000000  0.500000  0.000000  1
  Mn  Mn3  1  0.500000  0.000000  0.000000  1
  Co  Co4  1  0.500000  0.500000  0.000000  1
  O  O5  1  0.712693  0.712698  0.860745  1
  O  O6  1  0.716636  0.195415  0.859139  1
  O  O7  1  0.195408  0.716643  0.859134  1
  O  O8  1  0.210644  0.210641  0.858239  1
  O  O9  1  0.789356  0.789359  0.141761  1
  O  O10  1  0.804592  0.283357  0.140866  1
  O  O11  1  0.283364  0.804585  0.140861  1
  O  O12  1  0.287307  0.287302  0.139255  1
