# generated using pymatgen
data_Pr16MgTl2AgRu4
_symmetry_space_group_name_H-M   'P 1'
_cell_length_a   10.02556459
_cell_length_b   10.09227406
_cell_length_c   10.00192030
_cell_angle_alpha   59.70071552
_cell_angle_beta   59.67852438
_cell_angle_gamma   59.77963329
_symmetry_Int_Tables_number   1
_chemical_formula_structural   Pr16MgTl2AgRu4
_chemical_formula_sum   'Pr16 Mg1 Tl2 Ag1 Ru4'
_cell_volume   711.03521701
_cell_formula_units_Z   1
loop_
 _symmetry_equiv_pos_site_id
 _symmetry_equiv_pos_as_xyz
  1  'x, y, z'
loop_
 _atom_site_type_symbol
 _atom_site_label
 _atom_site_symmetry_multiplicity
 _atom_site_fract_x
 _atom_site_fract_y
 _atom_site_fract_z
 _atom_site_occupancy
  Pr  Pr0  1  0.054997  0.440899  0.439340  1
  Pr  Pr1  1  0.191775  0.807617  0.192989  1
  Pr  Pr2  1  0.654663  0.653401  0.655547  1
  Pr  Pr3  1  0.436528  0.440660  0.060209  1
  Pr  Pr4  1  0.056410  0.442159  0.059272  1
  Pr  Pr5  1  0.436528  0.062603  0.060209  1
  Pr  Pr6  1  0.054997  0.064764  0.439340  1
  Pr  Pr7  1  0.651425  0.652006  0.044561  1
  Pr  Pr8  1  0.654663  0.036389  0.655547  1
  Pr  Pr9  1  0.190370  0.810392  0.809435  1
  Pr  Pr10  1  0.437011  0.061497  0.439996  1
  Pr  Pr11  1  0.190370  0.189802  0.809435  1
  Pr  Pr12  1  0.038408  0.654160  0.653271  1
  Pr  Pr13  1  0.807160  0.808720  0.192930  1
  Pr  Pr14  1  0.807160  0.191190  0.192930  1
  Pr  Pr15  1  0.810920  0.188223  0.812633  1
  Mg  Mg16  1  0.435093  0.425088  0.714731  1
  Tl  Tl17  1  0.419563  0.413585  0.418623  1
  Tl  Tl18  1  0.419563  0.748230  0.418623  1
  Ag  Ag19  1  0.749502  0.414901  0.420698  1
  Ru  Ru20  1  0.863090  0.859563  0.865013  1
  Ru  Ru21  1  0.415216  0.860877  0.863030  1
  Ru  Ru22  1  0.863090  0.412334  0.865013  1
  Ru  Ru23  1  0.861499  0.860938  0.416627  1
