# generated using pymatgen
data_Er10Cd3Fe
_symmetry_space_group_name_H-M   'P 1'
_cell_length_a   9.46458800
_cell_length_b   9.46458781
_cell_length_c   9.73401900
_cell_angle_alpha   90.00000000
_cell_angle_beta   90.00000000
_cell_angle_gamma   119.99999368
_symmetry_Int_Tables_number   1
_chemical_formula_structural   Er10Cd3Fe
_chemical_formula_sum   'Er20 Cd6 Fe2'
_cell_volume   755.13789907
_cell_formula_units_Z   2
loop_
 _symmetry_equiv_pos_site_id
 _symmetry_equiv_pos_as_xyz
  1  'x, y, z'
loop_
 _atom_site_type_symbol
 _atom_site_label
 _atom_site_symmetry_multiplicity
 _atom_site_fract_x
 _atom_site_fract_y
 _atom_site_fract_z
 _atom_site_occupancy
  Er  Er0  1  0.000000  0.000000  0.500000  1
  Er  Er1  1  0.000000  0.000000  0.000000  1
  Er  Er2  1  0.541234  0.458766  0.250000  1
  Er  Er3  1  0.541234  0.082469  0.250000  1
  Er  Er4  1  0.917531  0.458766  0.250000  1
  Er  Er5  1  0.458766  0.541234  0.750000  1
  Er  Er6  1  0.458766  0.917531  0.750000  1
  Er  Er7  1  0.082469  0.541234  0.750000  1
  Er  Er8  1  0.211998  0.788002  0.436763  1
  Er  Er9  1  0.211998  0.423997  0.436763  1
  Er  Er10  1  0.576003  0.788002  0.436763  1
  Er  Er11  1  0.788002  0.211998  0.563237  1
  Er  Er12  1  0.788002  0.576003  0.563237  1
  Er  Er13  1  0.423997  0.211998  0.563237  1
  Er  Er14  1  0.788002  0.211998  0.936763  1
  Er  Er15  1  0.788002  0.576003  0.936763  1
  Er  Er16  1  0.423997  0.211998  0.936763  1
  Er  Er17  1  0.211998  0.788002  0.063237  1
  Er  Er18  1  0.211998  0.423997  0.063237  1
  Er  Er19  1  0.576003  0.788002  0.063237  1
  Cd  Cd20  1  0.885478  0.114522  0.250000  1
  Cd  Cd21  1  0.885478  0.770957  0.250000  1
  Cd  Cd22  1  0.229043  0.114522  0.250000  1
  Cd  Cd23  1  0.114522  0.885478  0.750000  1
  Cd  Cd24  1  0.114522  0.229043  0.750000  1
  Cd  Cd25  1  0.770957  0.885478  0.750000  1
  Fe  Fe26  1  0.333333  0.666667  0.250000  1
  Fe  Fe27  1  0.666667  0.333333  0.750000  1
