# generated using pymatgen
data_Y3Ho2Tm(B7W)2
_symmetry_space_group_name_H-M   'P 1'
_cell_length_a   8.14459459
_cell_length_b   8.14459366
_cell_length_c   9.49224328
_cell_angle_alpha   89.95546845
_cell_angle_beta   90.04453772
_cell_angle_gamma   155.52120697
_symmetry_Int_Tables_number   1
_chemical_formula_structural   Y3Ho2Tm(B7W)2
_chemical_formula_sum   'Y3 Ho2 Tm1 B14 W2'
_cell_volume   260.90456458
_cell_formula_units_Z   1
loop_
 _symmetry_equiv_pos_site_id
 _symmetry_equiv_pos_as_xyz
  1  'x, y, z'
loop_
 _atom_site_type_symbol
 _atom_site_label
 _atom_site_symmetry_multiplicity
 _atom_site_fract_x
 _atom_site_fract_y
 _atom_site_fract_z
 _atom_site_occupancy
  Y  Y0  1  0.754464  0.245536  0.250158  1
  Y  Y1  1  0.246353  0.753647  0.750080  1
  Y  Y2  1  0.107642  0.892358  0.439604  1
  Ho  Ho3  1  0.892609  0.107391  0.939912  1
  Ho  Ho4  1  0.106981  0.893019  0.059589  1
  Tm  Tm5  1  0.893422  0.106578  0.559028  1
  B  B6  1  0.544988  0.455012  0.249392  1
  B  B7  1  0.453717  0.546283  0.749110  1
  B  B8  1  0.518988  0.481012  0.907886  1
  B  B9  1  0.480177  0.519823  0.091206  1
  B  B10  1  0.480062  0.519938  0.408573  1
  B  B11  1  0.518746  0.481254  0.591525  1
  B  B12  1  0.634788  0.365212  0.852711  1
  B  B13  1  0.365014  0.634986  0.146581  1
  B  B14  1  0.727355  0.272645  0.967120  1
  B  B15  1  0.272284  0.727716  0.033096  1
  B  B16  1  0.273595  0.726405  0.468221  1
  B  B17  1  0.728732  0.271268  0.534183  1
  B  B18  1  0.635176  0.364824  0.648015  1
  B  B19  1  0.365438  0.634562  0.354254  1
  W  W20  1  0.052732  0.947268  0.749902  1
  W  W21  1  0.946740  0.053260  0.249856  1
