# generated using pymatgen
data_Dy5YReTcB14
_symmetry_space_group_name_H-M   'P 1'
_cell_length_a   8.09610301
_cell_length_b   8.09610256
_cell_length_c   9.36489700
_cell_angle_alpha   90.00000000
_cell_angle_beta   90.00000000
_cell_angle_gamma   154.73569514
_symmetry_Int_Tables_number   1
_chemical_formula_structural   Dy5YReTcB14
_chemical_formula_sum   'Dy5 Y1 Re1 Tc1 B14'
_cell_volume   261.98346714
_cell_formula_units_Z   1
loop_
 _symmetry_equiv_pos_site_id
 _symmetry_equiv_pos_as_xyz
  1  'x, y, z'
loop_
 _atom_site_type_symbol
 _atom_site_label
 _atom_site_symmetry_multiplicity
 _atom_site_fract_x
 _atom_site_fract_y
 _atom_site_fract_z
 _atom_site_occupancy
  Dy  Dy0  1  0.895025  0.104975  0.439333  1
  Dy  Dy1  1  0.105230  0.894770  0.559686  1
  Dy  Dy2  1  0.895025  0.104975  0.060667  1
  Dy  Dy3  1  0.105230  0.894770  0.940314  1
  Dy  Dy4  1  0.757671  0.242329  0.750000  1
  Y  Y5  1  0.242067  0.757933  0.250000  1
  Re  Re6  1  0.947298  0.052702  0.750000  1
  Tc  Tc7  1  0.052851  0.947149  0.250000  1
  B  B8  1  0.727031  0.272969  0.466840  1
  B  B9  1  0.272910  0.727090  0.533320  1
  B  B10  1  0.727031  0.272969  0.033160  1
  B  B11  1  0.272910  0.727090  0.966680  1
  B  B12  1  0.631687  0.368313  0.151015  1
  B  B13  1  0.367977  0.632023  0.849190  1
  B  B14  1  0.631687  0.368313  0.348985  1
  B  B15  1  0.367977  0.632023  0.650810  1
  B  B16  1  0.520916  0.479084  0.095695  1
  B  B17  1  0.479150  0.520850  0.904685  1
  B  B18  1  0.520916  0.479084  0.404305  1
  B  B19  1  0.479150  0.520850  0.595315  1
  B  B20  1  0.457633  0.542367  0.250000  1
  B  B21  1  0.542624  0.457376  0.750000  1
