# generated using pymatgen
data_Er5Tm3(TcB6)4
_symmetry_space_group_name_H-M   'P 1'
_cell_length_a   3.65346900
_cell_length_b   9.11144900
_cell_length_c   11.48411500
_cell_angle_alpha   89.99961240
_cell_angle_beta   90.00000000
_cell_angle_gamma   90.00000000
_symmetry_Int_Tables_number   1
_chemical_formula_structural   Er5Tm3(TcB6)4
_chemical_formula_sum   'Er5 Tm3 Tc4 B24'
_cell_volume   382.28777338
_cell_formula_units_Z   1
loop_
 _symmetry_equiv_pos_site_id
 _symmetry_equiv_pos_as_xyz
  1  'x, y, z'
loop_
 _atom_site_type_symbol
 _atom_site_label
 _atom_site_symmetry_multiplicity
 _atom_site_fract_x
 _atom_site_fract_y
 _atom_site_fract_z
 _atom_site_occupancy
  Er  Er0  1  0.000000  0.323729  0.414088  1
  Er  Er1  1  0.000000  0.676182  0.586005  1
  Er  Er2  1  0.000000  0.823736  0.085870  1
  Er  Er3  1  0.000000  0.176304  0.914031  1
  Er  Er4  1  0.000000  0.943089  0.369552  1
  Tm  Tm5  1  0.000000  0.057050  0.630730  1
  Tm  Tm6  1  0.000000  0.443001  0.130473  1
  Tm  Tm7  1  0.000000  0.557015  0.869422  1
  Tc  Tc8  1  0.000000  0.638775  0.320315  1
  Tc  Tc9  1  0.000000  0.360895  0.679734  1
  Tc  Tc10  1  0.000000  0.139363  0.179363  1
  Tc  Tc11  1  0.000000  0.860845  0.820456  1
  B  B12  1  0.500000  0.553239  0.433148  1
  B  B13  1  0.500000  0.446530  0.566920  1
  B  B14  1  0.500000  0.053506  0.066750  1
  B  B15  1  0.500000  0.946556  0.933108  1
  B  B16  1  0.500000  0.749492  0.419043  1
  B  B17  1  0.500000  0.250105  0.581050  1
  B  B18  1  0.500000  0.250059  0.080885  1
  B  B19  1  0.500000  0.750006  0.919033  1
  B  B20  1  0.500000  0.792433  0.265041  1
  B  B21  1  0.500000  0.207264  0.734894  1
  B  B22  1  0.500000  0.292902  0.234752  1
  B  B23  1  0.500000  0.707232  0.765185  1
  B  B24  1  0.500000  0.630730  0.184939  1
  B  B25  1  0.500000  0.369174  0.814991  1
  B  B26  1  0.500000  0.131204  0.314780  1
  B  B27  1  0.500000  0.869117  0.685133  1
  B  B28  1  0.500000  0.982048  0.211712  1
  B  B29  1  0.500000  0.018135  0.788067  1
  B  B30  1  0.500000  0.481737  0.287977  1
  B  B31  1  0.500000  0.518184  0.711977  1
  B  B32  1  0.500000  0.599454  0.027697  1
  B  B33  1  0.500000  0.400577  0.972224  1
  B  B34  1  0.500000  0.100028  0.472488  1
  B  B35  1  0.500000  0.900304  0.528167  1
