# generated using pymatgen
data_CeEu3Hf3ZrO14
_symmetry_space_group_name_H-M   'P 1'
_cell_length_a   7.53177698
_cell_length_b   7.53177775
_cell_length_c   7.56997980
_cell_angle_alpha   60.16680428
_cell_angle_beta   60.16679324
_cell_angle_gamma   60.00000275
_symmetry_Int_Tables_number   1
_chemical_formula_structural   CeEu3Hf3ZrO14
_chemical_formula_sum   'Ce1 Eu3 Hf3 Zr1 O14'
_cell_volume   304.41427793
_cell_formula_units_Z   1
loop_
 _symmetry_equiv_pos_site_id
 _symmetry_equiv_pos_as_xyz
  1  'x, y, z'
loop_
 _atom_site_type_symbol
 _atom_site_label
 _atom_site_symmetry_multiplicity
 _atom_site_fract_x
 _atom_site_fract_y
 _atom_site_fract_z
 _atom_site_occupancy
  Ce  Ce0  1  0.125000  0.125000  0.625000  1
  Eu  Eu1  1  0.625000  0.125000  0.125000  1
  Eu  Eu2  1  0.125000  0.625000  0.125000  1
  Eu  Eu3  1  0.125000  0.125000  0.125000  1
  Hf  Hf4  1  0.625000  0.125000  0.625000  1
  Hf  Hf5  1  0.625000  0.625000  0.625000  1
  Hf  Hf6  1  0.125000  0.625000  0.625000  1
  Zr  Zr7  1  0.625000  0.625000  0.125000  1
  O  O8  1  0.957807  0.535516  0.548868  1
  O  O9  1  0.292193  0.714484  0.701132  1
  O  O10  1  0.242099  0.242099  0.273703  1
  O  O11  1  0.539619  0.963937  0.956826  1
  O  O12  1  0.292193  0.292193  0.701132  1
  O  O13  1  0.286063  0.710381  0.293174  1
  O  O14  1  0.963937  0.539619  0.956826  1
  O  O15  1  0.710381  0.286063  0.293174  1
  O  O16  1  0.957807  0.957807  0.548868  1
  O  O17  1  0.007901  0.007901  0.976297  1
  O  O18  1  0.714484  0.292193  0.701132  1
  O  O19  1  0.535516  0.957807  0.548868  1
  O  O20  1  0.539619  0.539619  0.956826  1
  O  O21  1  0.710381  0.710381  0.293174  1
