# generated using pymatgen
data_TbSm7(GeO5)4
_symmetry_space_group_name_H-M   'P 1'
_cell_length_a   8.36829840
_cell_length_b   8.38167815
_cell_length_c   10.80495859
_cell_angle_alpha   61.45241096
_cell_angle_beta   61.31437768
_cell_angle_gamma   49.67356430
_symmetry_Int_Tables_number   1
_chemical_formula_structural   TbSm7(GeO5)4
_chemical_formula_sum   'Tb1 Sm7 Ge4 O20'
_cell_volume   490.75434943
_cell_formula_units_Z   1
loop_
 _symmetry_equiv_pos_site_id
 _symmetry_equiv_pos_as_xyz
  1  'x, y, z'
loop_
 _atom_site_type_symbol
 _atom_site_label
 _atom_site_symmetry_multiplicity
 _atom_site_fract_x
 _atom_site_fract_y
 _atom_site_fract_z
 _atom_site_occupancy
  Tb  Tb0  1  0.741032  0.980756  0.337358  1
  Sm  Sm1  1  0.719613  0.209011  0.965628  1
  Sm  Sm2  1  0.791800  0.275549  0.536506  1
  Sm  Sm3  1  0.276618  0.794232  0.034840  1
  Sm  Sm4  1  0.207762  0.721144  0.464439  1
  Sm  Sm5  1  0.987834  0.735007  0.837212  1
  Sm  Sm6  1  0.266230  0.015942  0.660109  1
  Sm  Sm7  1  0.009168  0.266184  0.165067  1
  Ge  Ge8  1  0.778192  0.591585  0.690536  1
  Ge  Ge9  1  0.407703  0.223415  0.808628  1
  Ge  Ge10  1  0.225166  0.407194  0.306152  1
  Ge  Ge11  1  0.589972  0.778738  0.194277  1
  O  O12  1  0.775780  0.633560  0.058167  1
  O  O13  1  0.379572  0.220233  0.436549  1
  O  O14  1  0.221572  0.368673  0.944412  1
  O  O15  1  0.633877  0.780136  0.554673  1
  O  O16  1  0.583655  0.587328  0.364642  1
  O  O17  1  0.404107  0.423753  0.130865  1
  O  O18  1  0.416414  0.411050  0.636955  1
  O  O19  1  0.589557  0.582515  0.862360  1
  O  O20  1  0.957251  0.646897  0.675657  1
  O  O21  1  0.349739  0.045715  0.825204  1
  O  O22  1  0.047286  0.345665  0.327248  1
  O  O23  1  0.648897  0.955175  0.179053  1
  O  O24  1  0.885824  0.075776  0.397907  1
  O  O25  1  0.917064  0.110109  0.107362  1
  O  O26  1  0.112330  0.920829  0.603106  1
  O  O27  1  0.078048  0.892274  0.895051  1
  O  O28  1  0.087910  0.675192  0.322304  1
  O  O29  1  0.321509  0.911513  0.181028  1
  O  O30  1  0.912173  0.324886  0.675071  1
  O  O31  1  0.676343  0.089963  0.821633  1
