# generated using pymatgen
data_Sr8TaMn3O16
_symmetry_space_group_name_H-M   'P 1'
_cell_length_a   5.55642407
_cell_length_b   8.84943018
_cell_length_c   8.84941447
_cell_angle_alpha   89.34118407
_cell_angle_beta   71.70572460
_cell_angle_gamma   108.29423344
_symmetry_Int_Tables_number   1
_chemical_formula_structural   Sr8TaMn3O16
_chemical_formula_sum   'Sr8 Ta1 Mn3 O16'
_cell_volume   389.32873688
_cell_formula_units_Z   1
loop_
 _symmetry_equiv_pos_site_id
 _symmetry_equiv_pos_as_xyz
  1  'x, y, z'
loop_
 _atom_site_type_symbol
 _atom_site_label
 _atom_site_symmetry_multiplicity
 _atom_site_fract_x
 _atom_site_fract_y
 _atom_site_fract_z
 _atom_site_occupancy
  Sr  Sr0  1  0.258159  0.403680  0.886920  1
  Sr  Sr1  1  0.999986  0.639581  0.639558  1
  Sr  Sr2  1  0.741913  0.886915  0.403700  1
  Sr  Sr3  1  0.499988  0.148603  0.148572  1
  Sr  Sr4  1  0.999980  0.360441  0.360422  1
  Sr  Sr5  1  0.742008  0.596405  0.113007  1
  Sr  Sr6  1  0.499959  0.851413  0.851437  1
  Sr  Sr7  1  0.258107  0.113034  0.596378  1
  Ta  Ta8  1  0.000000  0.000033  0.000030  1
  Mn  Mn9  1  0.500046  0.500056  0.499963  1
  Mn  Mn10  1  0.248788  0.748148  0.251740  1
  Mn  Mn11  1  0.751238  0.251783  0.748141  1
  O  O12  1  0.254046  0.596003  0.088707  1
  O  O13  1  0.999937  0.839389  0.839555  1
  O  O14  1  0.745993  0.088746  0.595941  1
  O  O15  1  0.499962  0.343404  0.343423  1
  O  O16  1  0.000043  0.160601  0.160529  1
  O  O17  1  0.745992  0.404060  0.911266  1
  O  O18  1  0.499967  0.656553  0.656555  1
  O  O19  1  0.253929  0.911176  0.404130  1
  O  O20  1  0.871448  0.124656  0.875317  1
  O  O21  1  0.626023  0.370658  0.629339  1
  O  O22  1  0.374026  0.629333  0.370602  1
  O  O23  1  0.128515  0.875353  0.124747  1
  O  O24  1  0.377011  0.125096  0.874884  1
  O  O25  1  0.114287  0.370677  0.629318  1
  O  O26  1  0.885722  0.629271  0.370663  1
  O  O27  1  0.622927  0.874934  0.125151  1
