# generated using pymatgen
data_Gd2AlSe4
_symmetry_space_group_name_H-M   'P 1'
_cell_length_a   8.08853766
_cell_length_b   8.08853676
_cell_length_c   8.08853700
_cell_angle_alpha   60.00000312
_cell_angle_beta   59.99999863
_cell_angle_gamma   60.00000421
_symmetry_Int_Tables_number   1
_chemical_formula_structural   Gd2AlSe4
_chemical_formula_sum   'Gd4 Al2 Se8'
_cell_volume   374.19240988
_cell_formula_units_Z   2
loop_
 _symmetry_equiv_pos_site_id
 _symmetry_equiv_pos_as_xyz
  1  'x, y, z'
loop_
 _atom_site_type_symbol
 _atom_site_label
 _atom_site_symmetry_multiplicity
 _atom_site_fract_x
 _atom_site_fract_y
 _atom_site_fract_z
 _atom_site_occupancy
  Gd  Gd0  1  0.999708  0.000528  0.000188  1
  Gd  Gd1  1  0.499956  0.000100  0.000027  1
  Gd  Gd2  1  0.500291  0.499039  0.000855  1
  Gd  Gd3  1  0.499877  0.999367  0.500407  1
  Al  Al4  1  0.874932  0.375657  0.374516  1
  Al  Al5  1  0.124985  0.624774  0.625030  1
  Se  Se6  1  0.241917  0.252847  0.252327  1
  Se  Se7  1  0.753207  0.742238  0.251903  1
  Se  Se8  1  0.752959  0.252423  0.252884  1
  Se  Se9  1  0.247141  0.747739  0.257982  1
  Se  Se10  1  0.752924  0.252419  0.741631  1
  Se  Se11  1  0.757902  0.747233  0.747507  1
  Se  Se12  1  0.247228  0.747602  0.747228  1
  Se  Se13  1  0.246981  0.258038  0.747513  1
