# generated using pymatgen
data_Tb4YBi2Pt
_symmetry_space_group_name_H-M   'P 1'
_cell_length_a   8.11369700
_cell_length_b   9.05929700
_cell_length_c   12.50888000
_cell_angle_alpha   90.00000000
_cell_angle_beta   90.00000000
_cell_angle_gamma   90.00000000
_symmetry_Int_Tables_number   1
_chemical_formula_structural   Tb4YBi2Pt
_chemical_formula_sum   'Tb16 Y4 Bi8 Pt4'
_cell_volume   919.45760513
_cell_formula_units_Z   4
loop_
 _symmetry_equiv_pos_site_id
 _symmetry_equiv_pos_as_xyz
  1  'x, y, z'
loop_
 _atom_site_type_symbol
 _atom_site_label
 _atom_site_symmetry_multiplicity
 _atom_site_fract_x
 _atom_site_fract_y
 _atom_site_fract_z
 _atom_site_occupancy
  Tb  Tb0  1  0.372007  0.750000  0.697898  1
  Tb  Tb1  1  0.627993  0.250000  0.302102  1
  Tb  Tb2  1  0.872007  0.250000  0.802102  1
  Tb  Tb3  1  0.127993  0.750000  0.197898  1
  Tb  Tb4  1  0.950023  0.750000  0.499601  1
  Tb  Tb5  1  0.049977  0.250000  0.500399  1
  Tb  Tb6  1  0.450023  0.250000  0.000399  1
  Tb  Tb7  1  0.549977  0.750000  0.999601  1
  Tb  Tb8  1  0.679745  0.046005  0.566771  1
  Tb  Tb9  1  0.320255  0.953995  0.433229  1
  Tb  Tb10  1  0.179745  0.953995  0.933229  1
  Tb  Tb11  1  0.320255  0.546005  0.433229  1
  Tb  Tb12  1  0.820255  0.046005  0.066771  1
  Tb  Tb13  1  0.679745  0.453995  0.566771  1
  Tb  Tb14  1  0.820255  0.453995  0.066771  1
  Tb  Tb15  1  0.179745  0.546005  0.933229  1
  Y  Y16  1  0.838632  0.750000  0.789796  1
  Y  Y17  1  0.161368  0.250000  0.210204  1
  Y  Y18  1  0.338632  0.250000  0.710204  1
  Y  Y19  1  0.661368  0.750000  0.289796  1
  Bi  Bi20  1  0.569737  0.490786  0.827179  1
  Bi  Bi21  1  0.430263  0.509214  0.172821  1
  Bi  Bi22  1  0.069737  0.509214  0.672821  1
  Bi  Bi23  1  0.430263  0.990786  0.172821  1
  Bi  Bi24  1  0.930263  0.490786  0.327179  1
  Bi  Bi25  1  0.569737  0.009214  0.827179  1
  Bi  Bi26  1  0.930263  0.009214  0.327179  1
  Bi  Bi27  1  0.069737  0.990786  0.672821  1
  Pt  Pt28  1  0.575314  0.750000  0.512065  1
  Pt  Pt29  1  0.424686  0.250000  0.487935  1
  Pt  Pt30  1  0.075314  0.250000  0.987935  1
  Pt  Pt31  1  0.924686  0.750000  0.012065  1
