# generated using pymatgen
data_Nd2Pa(InPd)3
_symmetry_space_group_name_H-M   'P 1'
_cell_length_a   7.66247039
_cell_length_b   7.73131098
_cell_length_c   4.08119000
_cell_angle_alpha   90.00000000
_cell_angle_beta   90.00000000
_cell_angle_gamma   120.29763724
_symmetry_Int_Tables_number   1
_chemical_formula_structural   Nd2Pa(InPd)3
_chemical_formula_sum   'Nd2 Pa1 In3 Pd3'
_cell_volume   208.75122704
_cell_formula_units_Z   1
loop_
 _symmetry_equiv_pos_site_id
 _symmetry_equiv_pos_as_xyz
  1  'x, y, z'
loop_
 _atom_site_type_symbol
 _atom_site_label
 _atom_site_symmetry_multiplicity
 _atom_site_fract_x
 _atom_site_fract_y
 _atom_site_fract_z
 _atom_site_occupancy
  Nd  Nd0  1  0.411127  0.413157  0.000000  1
  Nd  Nd1  1  0.588873  0.002029  0.000000  1
  Pa  Pa2  1  0.000000  0.585060  0.000000  1
  In  In3  1  0.741731  0.747427  0.500000  1
  In  In4  1  0.000000  0.244638  0.500000  1
  In  In5  1  0.258269  0.005696  0.500000  1
  Pd  Pd6  1  0.305197  0.662400  0.500000  1
  Pd  Pd7  1  0.000000  0.982391  0.000000  1
  Pd  Pd8  1  0.694803  0.357201  0.500000  1
