# generated using pymatgen
data_Zr2TaRe3Si2Ge
_symmetry_space_group_name_H-M   'P 1'
_cell_length_a   6.98075510
_cell_length_b   6.99769104
_cell_length_c   3.41289300
_cell_angle_alpha   90.00000000
_cell_angle_beta   90.00000000
_cell_angle_gamma   120.05871284
_symmetry_Int_Tables_number   1
_chemical_formula_structural   Zr2TaRe3Si2Ge
_chemical_formula_sum   'Zr2 Ta1 Re3 Si2 Ge1'
_cell_volume   144.29564527
_cell_formula_units_Z   1
loop_
 _symmetry_equiv_pos_site_id
 _symmetry_equiv_pos_as_xyz
  1  'x, y, z'
loop_
 _atom_site_type_symbol
 _atom_site_label
 _atom_site_symmetry_multiplicity
 _atom_site_fract_x
 _atom_site_fract_y
 _atom_site_fract_z
 _atom_site_occupancy
  Zr  Zr0  1  0.400318  0.405701  0.500000  1
  Zr  Zr1  1  0.595049  0.995285  0.500000  1
  Ta  Ta2  1  0.006078  0.602916  0.500000  1
  Re  Re3  1  0.749622  0.748217  0.000000  1
  Re  Re4  1  0.245747  0.988993  0.000000  1
  Re  Re5  1  0.004701  0.257402  0.000000  1
  Si  Si6  1  0.326967  0.665037  0.000000  1
  Si  Si7  1  0.999928  0.999633  0.500000  1
  Ge  Ge8  1  0.671590  0.336816  0.000000  1
