# generated using pymatgen
data_RbTb2Ag3Te5
_symmetry_space_group_name_H-M   'P 1'
_cell_length_a   4.59222000
_cell_length_b   8.48292695
_cell_length_c   18.52609500
_cell_angle_alpha   90.00000000
_cell_angle_beta   90.00000000
_cell_angle_gamma   74.29561365
_symmetry_Int_Tables_number   1
_chemical_formula_structural   RbTb2Ag3Te5
_chemical_formula_sum   'Rb2 Tb4 Ag6 Te10'
_cell_volume   694.75263225
_cell_formula_units_Z   2
loop_
 _symmetry_equiv_pos_site_id
 _symmetry_equiv_pos_as_xyz
  1  'x, y, z'
loop_
 _atom_site_type_symbol
 _atom_site_label
 _atom_site_symmetry_multiplicity
 _atom_site_fract_x
 _atom_site_fract_y
 _atom_site_fract_z
 _atom_site_occupancy
  Rb  Rb0  1  0.558152  0.883696  0.250000  1
  Rb  Rb1  1  0.441848  0.116303  0.750000  1
  Tb  Tb2  1  0.309967  0.380066  0.093467  1
  Tb  Tb3  1  0.309967  0.380066  0.406533  1
  Tb  Tb4  1  0.690032  0.619935  0.593467  1
  Tb  Tb5  1  0.690032  0.619935  0.906533  1
  Ag  Ag6  1  0.085846  0.828308  0.030996  1
  Ag  Ag7  1  0.837750  0.324502  0.250000  1
  Ag  Ag8  1  0.085846  0.828308  0.469004  1
  Ag  Ag9  1  0.914154  0.171691  0.530996  1
  Ag  Ag10  1  0.162251  0.675498  0.750000  1
  Ag  Ag11  1  0.914154  0.171691  0.969004  1
  Te  Te12  1  0.676736  0.646529  0.073836  1
  Te  Te13  1  0.938196  0.123608  0.121087  1
  Te  Te14  1  0.241231  0.517537  0.250000  1
  Te  Te15  1  0.938196  0.123608  0.378913  1
  Te  Te16  1  0.676736  0.646529  0.426164  1
  Te  Te17  1  0.323264  0.353472  0.573836  1
  Te  Te18  1  0.061803  0.876393  0.621088  1
  Te  Te19  1  0.758769  0.482462  0.750000  1
  Te  Te20  1  0.061803  0.876393  0.878913  1
  Te  Te21  1  0.323264  0.353472  0.926164  1
