# generated using pymatgen
data_Sm4MnTc3B16
_symmetry_space_group_name_H-M   'P 1'
_cell_length_a   3.60725000
_cell_length_b   6.01099115
_cell_length_c   11.63699623
_cell_angle_alpha   89.92914431
_cell_angle_beta   90.00000000
_cell_angle_gamma   90.00000000
_symmetry_Int_Tables_number   1
_chemical_formula_structural   Sm4MnTc3B16
_chemical_formula_sum   'Sm4 Mn1 Tc3 B16'
_cell_volume   252.32651640
_cell_formula_units_Z   1
loop_
 _symmetry_equiv_pos_site_id
 _symmetry_equiv_pos_as_xyz
  1  'x, y, z'
loop_
 _atom_site_type_symbol
 _atom_site_label
 _atom_site_symmetry_multiplicity
 _atom_site_fract_x
 _atom_site_fract_y
 _atom_site_fract_z
 _atom_site_occupancy
  Sm  Sm0  1  0.000000  0.374828  0.648415  1
  Sm  Sm1  1  0.000000  0.624364  0.351402  1
  Sm  Sm2  1  0.000000  0.874014  0.848286  1
  Sm  Sm3  1  0.000000  0.126305  0.152988  1
  Mn  Mn4  1  0.000000  0.129468  0.414649  1
  Tc  Tc5  1  0.000000  0.368697  0.913485  1
  Tc  Tc6  1  0.000000  0.631401  0.087215  1
  Tc  Tc7  1  0.000000  0.871974  0.583870  1
  B  B8  1  0.500000  0.025365  0.689662  1
  B  B9  1  0.500000  0.977042  0.310583  1
  B  B10  1  0.500000  0.525147  0.808856  1
  B  B11  1  0.500000  0.473829  0.191816  1
  B  B12  1  0.500000  0.387230  0.046934  1
  B  B13  1  0.500000  0.612360  0.953952  1
  B  B14  1  0.500000  0.889241  0.452855  1
  B  B15  1  0.500000  0.113200  0.544428  1
  B  B16  1  0.500000  0.279430  0.318430  1
  B  B17  1  0.500000  0.717452  0.683234  1
  B  B18  1  0.500000  0.783428  0.185380  1
  B  B19  1  0.500000  0.217442  0.814963  1
  B  B20  1  0.500000  0.359421  0.466744  1
  B  B21  1  0.500000  0.638197  0.531348  1
  B  B22  1  0.500000  0.862335  0.032028  1
  B  B23  1  0.500000  0.137829  0.968476  1
