# generated using pymatgen
data_Ac2Al2GaGeAu4
_symmetry_space_group_name_H-M   'P 1'
_cell_length_a   4.54833900
_cell_length_b   4.54833900
_cell_length_c   10.79358800
_cell_angle_alpha   90.00000000
_cell_angle_beta   90.00000000
_cell_angle_gamma   90.00000000
_symmetry_Int_Tables_number   1
_chemical_formula_structural   Ac2Al2GaGeAu4
_chemical_formula_sum   'Ac2 Al2 Ga1 Ge1 Au4'
_cell_volume   223.29113919
_cell_formula_units_Z   1
loop_
 _symmetry_equiv_pos_site_id
 _symmetry_equiv_pos_as_xyz
  1  'x, y, z'
loop_
 _atom_site_type_symbol
 _atom_site_label
 _atom_site_symmetry_multiplicity
 _atom_site_fract_x
 _atom_site_fract_y
 _atom_site_fract_z
 _atom_site_occupancy
  Ac  Ac0  1  0.000000  0.500000  0.243250  1
  Ac  Ac1  1  0.500000  0.000000  0.759566  1
  Al  Al2  1  0.000000  0.000000  0.499357  1
  Al  Al3  1  0.500000  0.500000  0.499357  1
  Ga  Ga4  1  0.500000  0.000000  0.133444  1
  Ge  Ge5  1  0.000000  0.500000  0.863069  1
  Au  Au6  1  0.000000  0.000000  0.002434  1
  Au  Au7  1  0.500000  0.500000  0.002434  1
  Au  Au8  1  0.000000  0.500000  0.620015  1
  Au  Au9  1  0.500000  0.000000  0.377074  1
