# generated using pymatgen
data_Tm16MgIn3RuRh3
_symmetry_space_group_name_H-M   'P 1'
_cell_length_a   9.53322764
_cell_length_b   9.53322640
_cell_length_c   9.54972935
_cell_angle_alpha   59.84677889
_cell_angle_beta   59.84677731
_cell_angle_gamma   59.74029123
_symmetry_Int_Tables_number   1
_chemical_formula_structural   Tm16MgIn3RuRh3
_chemical_formula_sum   'Tm16 Mg1 In3 Ru1 Rh3'
_cell_volume   611.06938531
_cell_formula_units_Z   1
loop_
 _symmetry_equiv_pos_site_id
 _symmetry_equiv_pos_as_xyz
  1  'x, y, z'
loop_
 _atom_site_type_symbol
 _atom_site_label
 _atom_site_symmetry_multiplicity
 _atom_site_fract_x
 _atom_site_fract_y
 _atom_site_fract_z
 _atom_site_occupancy
  Tm  Tm0  1  0.060325  0.060325  0.437531  1
  Tm  Tm1  1  0.441112  0.062148  0.435658  1
  Tm  Tm2  1  0.062049  0.438560  0.061398  1
  Tm  Tm3  1  0.045074  0.651541  0.650785  1
  Tm  Tm4  1  0.437324  0.437324  0.062236  1
  Tm  Tm5  1  0.651541  0.045074  0.650785  1
  Tm  Tm6  1  0.186696  0.811983  0.190712  1
  Tm  Tm7  1  0.189209  0.189209  0.811170  1
  Tm  Tm8  1  0.808748  0.808748  0.193559  1
  Tm  Tm9  1  0.438560  0.062049  0.061398  1
  Tm  Tm10  1  0.811983  0.186696  0.190712  1
  Tm  Tm11  1  0.062148  0.441112  0.435658  1
  Tm  Tm12  1  0.808881  0.191867  0.808374  1
  Tm  Tm13  1  0.191867  0.808881  0.808374  1
  Tm  Tm14  1  0.650537  0.650537  0.046770  1
  Tm  Tm15  1  0.651135  0.651135  0.649669  1
  Mg  Mg16  1  0.422777  0.422777  0.422293  1
  In  In17  1  0.749396  0.416641  0.416376  1
  In  In18  1  0.416641  0.749396  0.416376  1
  In  In19  1  0.417075  0.417075  0.748088  1
  Ru  Ru20  1  0.857028  0.857028  0.425381  1
  Rh  Rh21  1  0.857571  0.857571  0.859473  1
  Rh  Rh22  1  0.424785  0.857538  0.858615  1
  Rh  Rh23  1  0.857538  0.424785  0.858615  1
