# generated using pymatgen
data_Ba3YbRuO6
_symmetry_space_group_name_H-M   'P 1'
_cell_length_a   7.15745316
_cell_length_b   7.15745219
_cell_length_c   7.15745280
_cell_angle_alpha   93.19743651
_cell_angle_beta   93.19743073
_cell_angle_gamma   93.19742997
_symmetry_Int_Tables_number   1
_chemical_formula_structural   Ba3YbRuO6
_chemical_formula_sum   'Ba6 Yb2 Ru2 O12'
_cell_volume   364.89103772
_cell_formula_units_Z   2
loop_
 _symmetry_equiv_pos_site_id
 _symmetry_equiv_pos_as_xyz
  1  'x, y, z'
loop_
 _atom_site_type_symbol
 _atom_site_label
 _atom_site_symmetry_multiplicity
 _atom_site_fract_x
 _atom_site_fract_y
 _atom_site_fract_z
 _atom_site_occupancy
  Ba  Ba0  1  0.109844  0.750000  0.390156  1
  Ba  Ba1  1  0.390156  0.109844  0.750000  1
  Ba  Ba2  1  0.890156  0.250000  0.609844  1
  Ba  Ba3  1  0.609844  0.890156  0.250000  1
  Ba  Ba4  1  0.750000  0.390156  0.109844  1
  Ba  Ba5  1  0.250000  0.609844  0.890156  1
  Yb  Yb6  1  0.250000  0.250000  0.250000  1
  Yb  Yb7  1  0.750000  0.750000  0.750000  1
  Ru  Ru8  1  0.000000  0.000000  0.000000  1
  Ru  Ru9  1  0.500000  0.500000  0.500000  1
  O  O10  1  0.458119  0.773298  0.589080  1
  O  O11  1  0.589080  0.458119  0.773298  1
  O  O12  1  0.773298  0.589080  0.458119  1
  O  O13  1  0.041881  0.910920  0.726702  1
  O  O14  1  0.726702  0.041881  0.910920  1
  O  O15  1  0.910920  0.726702  0.041881  1
  O  O16  1  0.541881  0.226702  0.410920  1
  O  O17  1  0.410920  0.541881  0.226702  1
  O  O18  1  0.226702  0.410920  0.541881  1
  O  O19  1  0.958119  0.089080  0.273298  1
  O  O20  1  0.089080  0.273298  0.958119  1
  O  O21  1  0.273298  0.958119  0.089080  1
