# generated using pymatgen
data_ErSc(NbN2)2
_symmetry_space_group_name_H-M   'P 1'
_cell_length_a   3.14054000
_cell_length_b   3.14053963
_cell_length_c   10.81603400
_cell_angle_alpha   90.00000000
_cell_angle_beta   90.00000000
_cell_angle_gamma   120.00000385
_symmetry_Int_Tables_number   1
_chemical_formula_structural   ErSc(NbN2)2
_chemical_formula_sum   'Er1 Sc1 Nb2 N4'
_cell_volume   92.38623455
_cell_formula_units_Z   1
loop_
 _symmetry_equiv_pos_site_id
 _symmetry_equiv_pos_as_xyz
  1  'x, y, z'
loop_
 _atom_site_type_symbol
 _atom_site_label
 _atom_site_symmetry_multiplicity
 _atom_site_fract_x
 _atom_site_fract_y
 _atom_site_fract_z
 _atom_site_occupancy
  Er  Er0  1  0.000000  0.000000  0.000000  1
  Sc  Sc1  1  0.000000  0.000000  0.500000  1
  Nb  Nb2  1  0.333333  0.666667  0.255653  1
  Nb  Nb3  1  0.666667  0.333333  0.744347  1
  N  N4  1  0.333333  0.666667  0.620058  1
  N  N5  1  0.666667  0.333333  0.379942  1
  N  N6  1  0.666667  0.333333  0.133796  1
  N  N7  1  0.333333  0.666667  0.866204  1
