# generated using pymatgen
data_Dy3Ho2CoRu
_symmetry_space_group_name_H-M   'P 1'
_cell_length_a   6.31900511
_cell_length_b   7.09948454
_cell_length_c   8.50412293
_cell_angle_alpha   96.61753311
_cell_angle_beta   111.80975637
_cell_angle_gamma   90.00000435
_symmetry_Int_Tables_number   1
_chemical_formula_structural   Dy3Ho2CoRu
_chemical_formula_sum   'Dy6 Ho4 Co2 Ru2'
_cell_volume   351.46256429
_cell_formula_units_Z   2
loop_
 _symmetry_equiv_pos_site_id
 _symmetry_equiv_pos_as_xyz
  1  'x, y, z'
loop_
 _atom_site_type_symbol
 _atom_site_label
 _atom_site_symmetry_multiplicity
 _atom_site_fract_x
 _atom_site_fract_y
 _atom_site_fract_z
 _atom_site_occupancy
  Dy  Dy0  1  0.977778  0.911567  0.189883  1
  Dy  Dy1  1  0.787895  0.588433  0.810117  1
  Dy  Dy2  1  0.013230  0.083377  0.813977  1
  Dy  Dy3  1  0.199254  0.416623  0.186023  1
  Dy  Dy4  1  0.648254  0.811509  0.431820  1
  Dy  Dy5  1  0.216434  0.688491  0.568180  1
  Ho  Ho6  1  0.358780  0.182085  0.566863  1
  Ho  Ho7  1  0.791918  0.317915  0.433137  1
  Ho  Ho8  1  0.428001  0.750000  0.000000  1
  Ho  Ho9  1  0.575972  0.250000  0.000000  1
  Co  Co10  1  0.824243  0.575925  0.221977  1
  Co  Co11  1  0.602266  0.924075  0.778023  1
  Ru  Ru12  1  0.177073  0.427339  0.778171  1
  Ru  Ru13  1  0.398901  0.072661  0.221829  1
