# generated using pymatgen
data_Tb3Pr2Y(IrO7)2
_symmetry_space_group_name_H-M   'P 1'
_cell_length_a   6.51548673
_cell_length_b   6.50514652
_cell_length_c   7.54243031
_cell_angle_alpha   90.01802264
_cell_angle_beta   90.01958100
_cell_angle_gamma   109.83037801
_symmetry_Int_Tables_number   1
_chemical_formula_structural   Tb3Pr2Y(IrO7)2
_chemical_formula_sum   'Tb3 Pr2 Y1 Ir2 O14'
_cell_volume   300.72311145
_cell_formula_units_Z   1
loop_
 _symmetry_equiv_pos_site_id
 _symmetry_equiv_pos_as_xyz
  1  'x, y, z'
loop_
 _atom_site_type_symbol
 _atom_site_label
 _atom_site_symmetry_multiplicity
 _atom_site_fract_x
 _atom_site_fract_y
 _atom_site_fract_z
 _atom_site_occupancy
  Tb  Tb0  1  0.484221  0.935599  0.749960  1
  Tb  Tb1  1  0.515804  0.064161  0.250037  1
  Tb  Tb2  1  0.935966  0.484355  0.749968  1
  Pr  Pr3  1  0.000093  0.000010  0.000020  1
  Pr  Pr4  1  0.000093  0.000010  0.499979  1
  Y  Y5  1  0.062282  0.515416  0.250042  1
  Ir  Ir6  1  0.499950  0.500047  0.000085  1
  Ir  Ir7  1  0.499952  0.500053  0.499912  1
  O  O8  1  0.588980  0.588948  0.749988  1
  O  O9  1  0.411164  0.410979  0.250010  1
  O  O10  1  0.840417  0.120144  0.750003  1
  O  O11  1  0.159827  0.878215  0.249996  1
  O  O12  1  0.120644  0.840841  0.750001  1
  O  O13  1  0.879943  0.159937  0.249997  1
  O  O14  1  0.439496  0.181414  0.965972  1
  O  O15  1  0.560781  0.818774  0.465961  1
  O  O16  1  0.181396  0.439812  0.966488  1
  O  O17  1  0.818709  0.560709  0.466246  1
  O  O18  1  0.439473  0.181362  0.533997  1
  O  O19  1  0.560759  0.818725  0.034069  1
  O  O20  1  0.818681  0.560691  0.033786  1
  O  O21  1  0.181368  0.439797  0.533485  1
