# generated using pymatgen
data_Li2TbDy(WO4)4
_symmetry_space_group_name_H-M   'P 1'
_cell_length_a   10.06919864
_cell_length_b   5.99499400
_cell_length_c   5.08865550
_cell_angle_alpha   90.00000000
_cell_angle_beta   92.90238953
_cell_angle_gamma   90.00000000
_symmetry_Int_Tables_number   1
_chemical_formula_structural   Li2TbDy(WO4)4
_chemical_formula_sum   'Li2 Tb1 Dy1 W4 O16'
_cell_volume   306.78156672
_cell_formula_units_Z   1
loop_
 _symmetry_equiv_pos_site_id
 _symmetry_equiv_pos_as_xyz
  1  'x, y, z'
loop_
 _atom_site_type_symbol
 _atom_site_label
 _atom_site_symmetry_multiplicity
 _atom_site_fract_x
 _atom_site_fract_y
 _atom_site_fract_z
 _atom_site_occupancy
  Li  Li0  1  0.750000  0.742993  0.249999  1
  Li  Li1  1  0.250000  0.255662  0.749999  1
  Tb  Tb2  1  0.250000  0.671999  0.250001  1
  Dy  Dy3  1  0.750000  0.331180  0.750000  1
  W  W4  1  0.488103  0.170594  0.250384  1
  W  W5  1  0.011897  0.170594  0.249615  1
  W  W6  1  0.987107  0.829522  0.752744  1
  W  W7  1  0.512893  0.829522  0.747256  1
  O  O8  1  0.890081  0.910338  0.050939  1
  O  O9  1  0.403273  0.889780  0.057142  1
  O  O10  1  0.365163  0.360654  0.096612  1
  O  O11  1  0.888912  0.366277  0.107896  1
  O  O12  1  0.611089  0.366277  0.392104  1
  O  O13  1  0.134838  0.360654  0.403389  1
  O  O14  1  0.096727  0.889780  0.442858  1
  O  O15  1  0.609919  0.910338  0.449061  1
  O  O16  1  0.390232  0.088102  0.547193  1
  O  O17  1  0.902371  0.111846  0.560384  1
  O  O18  1  0.864258  0.639767  0.597367  1
  O  O19  1  0.390116  0.632203  0.608397  1
  O  O20  1  0.109883  0.632203  0.891603  1
  O  O21  1  0.635741  0.639767  0.902633  1
  O  O22  1  0.597629  0.111846  0.939616  1
  O  O23  1  0.109768  0.088102  0.952808  1
