# generated using pymatgen
data_Ho4CdPdPt3Pb
_symmetry_space_group_name_H-M   'P 1'
_cell_length_a   7.86969753
_cell_length_b   7.85392750
_cell_length_c   3.61278800
_cell_angle_alpha   90.00000000
_cell_angle_beta   90.00000000
_cell_angle_gamma   90.13576545
_symmetry_Int_Tables_number   1
_chemical_formula_structural   Ho4CdPdPt3Pb
_chemical_formula_sum   'Ho4 Cd1 Pd1 Pt3 Pb1'
_cell_volume   223.29869626
_cell_formula_units_Z   1
loop_
 _symmetry_equiv_pos_site_id
 _symmetry_equiv_pos_as_xyz
  1  'x, y, z'
loop_
 _atom_site_type_symbol
 _atom_site_label
 _atom_site_symmetry_multiplicity
 _atom_site_fract_x
 _atom_site_fract_y
 _atom_site_fract_z
 _atom_site_occupancy
  Ho  Ho0  1  0.658788  0.169924  0.500000  1
  Ho  Ho1  1  0.177938  0.338342  0.500000  1
  Ho  Ho2  1  0.828835  0.669289  0.500000  1
  Ho  Ho3  1  0.335396  0.824936  0.500000  1
  Cd  Cd4  1  0.000211  0.003056  0.000000  1
  Pd  Pd5  1  0.877988  0.360439  0.000000  1
  Pt  Pt6  1  0.359715  0.117794  0.000000  1
  Pt  Pt7  1  0.116677  0.634668  0.000000  1
  Pt  Pt8  1  0.639377  0.881942  0.000000  1
  Pb  Pb9  1  0.505076  0.499611  0.000000  1
