# generated using pymatgen
data_Li2Yb2TmAlSi3
_symmetry_space_group_name_H-M   'P 1'
_cell_length_a   7.01001544
_cell_length_b   7.12088990
_cell_length_c   4.26257000
_cell_angle_alpha   90.00000000
_cell_angle_beta   90.00000000
_cell_angle_gamma   120.89013785
_symmetry_Int_Tables_number   1
_chemical_formula_structural   Li2Yb2TmAlSi3
_chemical_formula_sum   'Li2 Yb2 Tm1 Al1 Si3'
_cell_volume   182.59531895
_cell_formula_units_Z   1
loop_
 _symmetry_equiv_pos_site_id
 _symmetry_equiv_pos_as_xyz
  1  'x, y, z'
loop_
 _atom_site_type_symbol
 _atom_site_label
 _atom_site_symmetry_multiplicity
 _atom_site_fract_x
 _atom_site_fract_y
 _atom_site_fract_z
 _atom_site_occupancy
  Li  Li0  1  0.239929  0.997170  0.500000  1
  Li  Li1  1  0.996971  0.236964  0.500000  1
  Yb  Yb2  1  0.421591  0.422817  0.000000  1
  Yb  Yb3  1  0.572472  0.007833  0.000000  1
  Tm  Tm4  1  0.007760  0.580612  0.000000  1
  Al  Al5  1  0.755147  0.754178  0.500000  1
  Si  Si6  1  0.334794  0.667372  0.500000  1
  Si  Si7  1  0.687019  0.358114  0.500000  1
  Si  Si8  1  0.984318  0.974943  0.000000  1
