# generated using pymatgen
data_Yb6Pr2SiPd24
_symmetry_space_group_name_H-M   'P 1'
_cell_length_a   8.34430677
_cell_length_b   8.34430677
_cell_length_c   8.34430677
_cell_angle_alpha   90.08660812
_cell_angle_beta   89.91339188
_cell_angle_gamma   89.91339188
_symmetry_Int_Tables_number   1
_chemical_formula_structural   Yb6Pr2SiPd24
_chemical_formula_sum   'Yb6 Pr2 Si1 Pd24'
_cell_volume   580.99085480
_cell_formula_units_Z   1
loop_
 _symmetry_equiv_pos_site_id
 _symmetry_equiv_pos_as_xyz
  1  'x, y, z'
loop_
 _atom_site_type_symbol
 _atom_site_label
 _atom_site_symmetry_multiplicity
 _atom_site_fract_x
 _atom_site_fract_y
 _atom_site_fract_z
 _atom_site_occupancy
  Yb  Yb0  1  0.252504  0.252342  0.252342  1
  Yb  Yb1  1  0.747496  0.747658  0.747658  1
  Yb  Yb2  1  0.747658  0.747496  0.252342  1
  Yb  Yb3  1  0.747658  0.252342  0.747496  1
  Yb  Yb4  1  0.252342  0.252504  0.747658  1
  Yb  Yb5  1  0.252342  0.747658  0.252504  1
  Pr  Pr6  1  0.253276  0.746724  0.746724  1
  Pr  Pr7  1  0.746724  0.253276  0.253276  1
  Si  Si8  1  0.000000  0.000000  0.000000  1
  Pd  Pd9  1  0.257408  0.497307  0.003643  1
  Pd  Pd10  1  0.742592  0.502693  0.996357  1
  Pd  Pd11  1  0.003643  0.257408  0.502693  1
  Pd  Pd12  1  0.497307  0.257408  0.996357  1
  Pd  Pd13  1  0.996357  0.742592  0.497307  1
  Pd  Pd14  1  0.502693  0.742592  0.003643  1
  Pd  Pd15  1  0.497307  0.996357  0.257408  1
  Pd  Pd16  1  0.257408  0.003643  0.497307  1
  Pd  Pd17  1  0.502693  0.003643  0.742592  1
  Pd  Pd18  1  0.742592  0.996357  0.502693  1
  Pd  Pd19  1  0.003643  0.502693  0.257408  1
  Pd  Pd20  1  0.996357  0.497307  0.742592  1
  Pd  Pd21  1  0.251951  0.496242  0.496242  1
  Pd  Pd22  1  0.748049  0.503758  0.503758  1
  Pd  Pd23  1  0.496242  0.251951  0.503758  1
  Pd  Pd24  1  0.503758  0.748049  0.496242  1
  Pd  Pd25  1  0.496242  0.503758  0.251951  1
  Pd  Pd26  1  0.503758  0.496242  0.748049  1
  Pd  Pd27  1  0.280802  0.003691  0.003691  1
  Pd  Pd28  1  0.719198  0.996309  0.996309  1
  Pd  Pd29  1  0.003691  0.280802  0.996309  1
  Pd  Pd30  1  0.996309  0.719198  0.003691  1
  Pd  Pd31  1  0.003691  0.996309  0.280802  1
  Pd  Pd32  1  0.996309  0.003691  0.719198  1
