# generated using pymatgen
data_Pr3Ag3Pt2Au
_symmetry_space_group_name_H-M   'P 1'
_cell_length_a   7.72172400
_cell_length_b   7.72172474
_cell_length_c   4.03275700
_cell_angle_alpha   90.00000000
_cell_angle_beta   90.00000000
_cell_angle_gamma   119.99999683
_symmetry_Int_Tables_number   1
_chemical_formula_structural   Pr3Ag3Pt2Au
_chemical_formula_sum   'Pr3 Ag3 Pt2 Au1'
_cell_volume   208.23862613
_cell_formula_units_Z   1
loop_
 _symmetry_equiv_pos_site_id
 _symmetry_equiv_pos_as_xyz
  1  'x, y, z'
loop_
 _atom_site_type_symbol
 _atom_site_label
 _atom_site_symmetry_multiplicity
 _atom_site_fract_x
 _atom_site_fract_y
 _atom_site_fract_z
 _atom_site_occupancy
  Pr  Pr0  1  0.593588  0.000000  0.000000  1
  Pr  Pr1  1  0.000000  0.593588  0.000000  1
  Pr  Pr2  1  0.406412  0.406412  0.000000  1
  Ag  Ag3  1  0.257411  0.000000  0.500000  1
  Ag  Ag4  1  0.000000  0.257411  0.500000  1
  Ag  Ag5  1  0.742589  0.742589  0.500000  1
  Pt  Pt6  1  0.333333  0.666667  0.500000  1
  Pt  Pt7  1  0.666667  0.333333  0.500000  1
  Au  Au8  1  0.000000  0.000000  0.000000  1
