# generated using pymatgen
data_Cs2Ta2Ag3Te8Au
_symmetry_space_group_name_H-M   'P 1'
_cell_length_a   11.32407396
_cell_length_b   11.32407436
_cell_length_c   8.77934103
_cell_angle_alpha   90.76061229
_cell_angle_beta   89.23938599
_cell_angle_gamma   146.85530457
_symmetry_Int_Tables_number   1
_chemical_formula_structural   Cs2Ta2Ag3Te8Au
_chemical_formula_sum   'Cs2 Ta2 Ag3 Te8 Au1'
_cell_volume   615.48668165
_cell_formula_units_Z   1
loop_
 _symmetry_equiv_pos_site_id
 _symmetry_equiv_pos_as_xyz
  1  'x, y, z'
loop_
 _atom_site_type_symbol
 _atom_site_label
 _atom_site_symmetry_multiplicity
 _atom_site_fract_x
 _atom_site_fract_y
 _atom_site_fract_z
 _atom_site_occupancy
  Cs  Cs0  1  0.451833  0.824508  0.751606  1
  Cs  Cs1  1  0.824508  0.451833  0.248394  1
  Ta  Ta2  1  0.510047  0.301328  0.754029  1
  Ta  Ta3  1  0.301328  0.510047  0.245971  1
  Ag  Ag4  1  0.383248  0.383248  0.500000  1
  Ag  Ag5  1  0.016202  0.798839  0.754961  1
  Ag  Ag6  1  0.798839  0.016202  0.245039  1
  Te  Te7  1  0.658387  0.650548  0.748859  1
  Te  Te8  1  0.650548  0.658387  0.251141  1
  Te  Te9  1  0.284043  0.065749  0.006851  1
  Te  Te10  1  0.062643  0.288595  0.497999  1
  Te  Te11  1  0.419474  0.832784  0.245634  1
  Te  Te12  1  0.065749  0.284043  0.993149  1
  Te  Te13  1  0.288595  0.062643  0.502001  1
  Te  Te14  1  0.832784  0.419474  0.754366  1
  Au  Au15  1  0.395190  0.395190  0.000000  1
