# generated using pymatgen
data_DyMn3Cl7O
_symmetry_space_group_name_H-M   'P 1'
_cell_length_a   7.61252162
_cell_length_b   7.64928911
_cell_length_c   7.61252200
_cell_angle_alpha   59.79168835
_cell_angle_beta   58.84265601
_cell_angle_gamma   59.79168221
_symmetry_Int_Tables_number   1
_chemical_formula_structural   DyMn3Cl7O
_chemical_formula_sum   'Dy1 Mn3 Cl7 O1'
_cell_volume   309.64849199
_cell_formula_units_Z   1
loop_
 _symmetry_equiv_pos_site_id
 _symmetry_equiv_pos_as_xyz
  1  'x, y, z'
loop_
 _atom_site_type_symbol
 _atom_site_label
 _atom_site_symmetry_multiplicity
 _atom_site_fract_x
 _atom_site_fract_y
 _atom_site_fract_z
 _atom_site_occupancy
  Dy  Dy0  1  0.030129  0.967958  0.030129  1
  Mn  Mn1  1  0.482179  0.511929  0.021810  1
  Mn  Mn2  1  0.021810  0.511929  0.482179  1
  Mn  Mn3  1  0.500077  0.004609  0.500077  1
  Cl  Cl4  1  0.266556  0.239590  0.266556  1
  Cl  Cl5  1  0.737326  0.765801  0.260942  1
  Cl  Cl6  1  0.260942  0.765801  0.737326  1
  Cl  Cl7  1  0.735577  0.754604  0.735577  1
  Cl  Cl8  1  0.762312  0.282890  0.762312  1
  Cl  Cl9  1  0.254365  0.249152  0.739285  1
  Cl  Cl10  1  0.739285  0.249152  0.254365  1
  O  O11  1  0.209441  0.696585  0.209441  1
