# generated using pymatgen
data_DyEr7Ti12Si15As
_symmetry_space_group_name_H-M   'P 1'
_cell_length_a   7.03227262
_cell_length_b   7.02431036
_cell_length_c   12.91200109
_cell_angle_alpha   89.98705940
_cell_angle_beta   89.81630791
_cell_angle_gamma   89.91817362
_symmetry_Int_Tables_number   1
_chemical_formula_structural   DyEr7Ti12Si15As
_chemical_formula_sum   'Dy1 Er7 Ti12 Si15 As1'
_cell_volume   637.80843596
_cell_formula_units_Z   1
loop_
 _symmetry_equiv_pos_site_id
 _symmetry_equiv_pos_as_xyz
  1  'x, y, z'
loop_
 _atom_site_type_symbol
 _atom_site_label
 _atom_site_symmetry_multiplicity
 _atom_site_fract_x
 _atom_site_fract_y
 _atom_site_fract_z
 _atom_site_occupancy
  Dy  Dy0  1  0.340970  0.001987  0.466090  1
  Er  Er1  1  0.497794  0.842316  0.717627  1
  Er  Er2  1  0.501761  0.158823  0.216469  1
  Er  Er3  1  0.840364  0.497235  0.283095  1
  Er  Er4  1  0.158942  0.501208  0.783286  1
  Er  Er5  1  0.660971  0.995411  0.967735  1
  Er  Er6  1  0.998773  0.343710  0.531845  1
  Er  Er7  1  0.998889  0.659177  0.033504  1
  Ti  Ti8  1  0.326663  0.326928  0.999803  1
  Ti  Ti9  1  0.172593  0.827062  0.249734  1
  Ti  Ti10  1  0.824265  0.173629  0.750342  1
  Ti  Ti11  1  0.672475  0.672453  0.500038  1
  Ti  Ti12  1  0.154265  0.009001  0.875132  1
  Ti  Ti13  1  0.492348  0.651059  0.125278  1
  Ti  Ti14  1  0.508780  0.347988  0.627012  1
  Ti  Ti15  1  0.654638  0.495268  0.875412  1
  Ti  Ti16  1  0.347263  0.507426  0.374076  1
  Ti  Ti17  1  0.846889  0.992753  0.375269  1
  Ti  Ti18  1  0.007551  0.151137  0.124378  1
  Ti  Ti19  1  0.989887  0.844189  0.623451  1
  Si  Si20  1  0.368594  0.703740  0.933015  1
  Si  Si21  1  0.630009  0.297771  0.433960  1
  Si  Si22  1  0.703897  0.368972  0.066956  1
  Si  Si23  1  0.296669  0.630285  0.566899  1
  Si  Si24  1  0.796557  0.868719  0.183797  1
  Si  Si25  1  0.130350  0.203538  0.316251  1
  Si  Si26  1  0.870294  0.797546  0.816047  1
  Si  Si27  1  0.291778  0.953132  0.064350  1
  Si  Si28  1  0.546888  0.790454  0.314121  1
  Si  Si29  1  0.462444  0.210928  0.819605  1
  Si  Si30  1  0.791146  0.546594  0.685486  1
  Si  Si31  1  0.208331  0.453080  0.185454  1
  Si  Si32  1  0.708498  0.046346  0.564425  1
  Si  Si33  1  0.954259  0.291344  0.935572  1
  Si  Si34  1  0.045873  0.708821  0.434745  1
  As  As35  1  0.198332  0.129971  0.679741  1
