# generated using pymatgen
data_TbMn2(Al4Fe)2
_symmetry_space_group_name_H-M   'P 1'
_cell_length_a   6.68809274
_cell_length_b   6.71010663
_cell_length_c   6.68809196
_cell_angle_alpha   98.27405311
_cell_angle_beta   98.23750031
_cell_angle_gamma   135.23527024
_symmetry_Int_Tables_number   1
_chemical_formula_structural   TbMn2(Al4Fe)2
_chemical_formula_sum   'Tb1 Mn2 Al8 Fe2'
_cell_volume   195.75872524
_cell_formula_units_Z   1
loop_
 _symmetry_equiv_pos_site_id
 _symmetry_equiv_pos_as_xyz
  1  'x, y, z'
loop_
 _atom_site_type_symbol
 _atom_site_label
 _atom_site_symmetry_multiplicity
 _atom_site_fract_x
 _atom_site_fract_y
 _atom_site_fract_z
 _atom_site_occupancy
  Tb  Tb0  1  0.000000  0.000000  0.000000  1
  Mn  Mn1  1  0.000000  0.000000  0.500000  1
  Mn  Mn2  1  0.500000  0.000000  0.000000  1
  Al  Al3  1  0.660672  0.000000  0.660672  1
  Al  Al4  1  0.998503  0.659007  0.660503  1
  Al  Al5  1  0.001497  0.340993  0.339497  1
  Al  Al6  1  0.339328  0.000000  0.339328  1
  Al  Al7  1  0.724005  0.500000  0.224005  1
  Al  Al8  1  0.494663  0.718209  0.223546  1
  Al  Al9  1  0.505337  0.281791  0.776454  1
  Al  Al10  1  0.275995  0.500000  0.775995  1
  Fe  Fe11  1  0.000000  0.500000  0.000000  1
  Fe  Fe12  1  0.500000  0.500000  0.500000  1
