# generated using pymatgen
data_Ca11Yb2Y7Sn16
_symmetry_space_group_name_H-M   'P 1'
_cell_length_a   7.92981789
_cell_length_b   8.42963322
_cell_length_c   16.18163721
_cell_angle_alpha   90.01252321
_cell_angle_beta   90.04745773
_cell_angle_gamma   90.01792625
_symmetry_Int_Tables_number   1
_chemical_formula_structural   Ca11Yb2Y7Sn16
_chemical_formula_sum   'Ca11 Yb2 Y7 Sn16'
_cell_volume   1081.66847345
_cell_formula_units_Z   1
loop_
 _symmetry_equiv_pos_site_id
 _symmetry_equiv_pos_as_xyz
  1  'x, y, z'
loop_
 _atom_site_type_symbol
 _atom_site_label
 _atom_site_symmetry_multiplicity
 _atom_site_fract_x
 _atom_site_fract_y
 _atom_site_fract_z
 _atom_site_occupancy
  Ca  Ca0  1  0.170845  0.332559  0.622390  1
  Ca  Ca1  1  0.501781  0.683178  0.595122  1
  Ca  Ca2  1  0.003113  0.815430  0.905667  1
  Ca  Ca3  1  0.496052  0.315954  0.093534  1
  Ca  Ca4  1  0.997762  0.185316  0.406722  1
  Ca  Ca5  1  0.496994  0.317349  0.406561  1
  Ca  Ca6  1  0.996090  0.184219  0.093496  1
  Ca  Ca7  1  0.503082  0.683475  0.905230  1
  Ca  Ca8  1  0.003880  0.815449  0.594078  1
  Ca  Ca9  1  0.837011  0.507798  0.748628  1
  Ca  Ca10  1  0.334733  0.992581  0.749281  1
  Yb  Yb11  1  0.164807  0.490734  0.249915  1
  Yb  Yb12  1  0.665223  0.008641  0.250473  1
  Y  Y13  1  0.669551  0.167335  0.624345  1
  Y  Y14  1  0.169849  0.332264  0.876754  1
  Y  Y15  1  0.330064  0.832096  0.122867  1
  Y  Y16  1  0.831051  0.667145  0.376495  1
  Y  Y17  1  0.330105  0.832180  0.376698  1
  Y  Y18  1  0.829809  0.667865  0.122775  1
  Y  Y19  1  0.669145  0.167733  0.876726  1
  Sn  Sn20  1  0.670676  0.962005  0.460988  1
  Sn  Sn21  1  0.168809  0.536535  0.039640  1
  Sn  Sn22  1  0.331081  0.036938  0.961067  1
  Sn  Sn23  1  0.826511  0.463773  0.537539  1
  Sn  Sn24  1  0.336626  0.035074  0.538364  1
  Sn  Sn25  1  0.830211  0.463724  0.960579  1
  Sn  Sn26  1  0.668392  0.963311  0.039571  1
  Sn  Sn27  1  0.167386  0.539348  0.458757  1
  Sn  Sn28  1  0.469582  0.380218  0.752756  1
  Sn  Sn29  1  0.966379  0.118987  0.751517  1
  Sn  Sn30  1  0.531900  0.622901  0.249766  1
  Sn  Sn31  1  0.032252  0.876815  0.249176  1
  Sn  Sn32  1  0.712016  0.869625  0.751025  1
  Sn  Sn33  1  0.215048  0.631951  0.752579  1
  Sn  Sn34  1  0.286424  0.128511  0.249622  1
  Sn  Sn35  1  0.785756  0.370984  0.249298  1
