# generated using pymatgen
data_La5As12Ru9Rh10
_symmetry_space_group_name_H-M   'P 1'
_cell_length_a   13.20838700
_cell_length_b   13.20838752
_cell_length_c   4.09553400
_cell_angle_alpha   90.00000000
_cell_angle_beta   90.00000000
_cell_angle_gamma   120.00000120
_symmetry_Int_Tables_number   1
_chemical_formula_structural   La5As12Ru9Rh10
_chemical_formula_sum   'La5 As12 Ru9 Rh10'
_cell_volume   618.78638505
_cell_formula_units_Z   1
loop_
 _symmetry_equiv_pos_site_id
 _symmetry_equiv_pos_as_xyz
  1  'x, y, z'
loop_
 _atom_site_type_symbol
 _atom_site_label
 _atom_site_symmetry_multiplicity
 _atom_site_fract_x
 _atom_site_fract_y
 _atom_site_fract_z
 _atom_site_occupancy
  La  La0  1  0.186907  0.186907  0.500000  1
  La  La1  1  0.813093  0.000000  0.500000  1
  La  La2  1  0.000000  0.813093  0.500000  1
  La  La3  1  0.333333  0.666667  0.000000  1
  La  La4  1  0.666667  0.333333  0.000000  1
  As  As5  1  0.816104  0.816104  0.000000  1
  As  As6  1  0.183896  0.000000  0.000000  1
  As  As7  1  0.000000  0.183896  0.000000  1
  As  As8  1  0.170012  0.481740  0.500000  1
  As  As9  1  0.518260  0.688271  0.500000  1
  As  As10  1  0.311729  0.829988  0.500000  1
  As  As11  1  0.688271  0.518260  0.500000  1
  As  As12  1  0.829988  0.311729  0.500000  1
  As  As13  1  0.481740  0.170012  0.500000  1
  As  As14  1  0.373214  0.373214  0.000000  1
  As  As15  1  0.626786  0.000000  0.000000  1
  As  As16  1  0.000000  0.626786  0.000000  1
  Ru  Ru17  1  0.713612  0.713612  0.500000  1
  Ru  Ru18  1  0.286388  0.000000  0.500000  1
  Ru  Ru19  1  0.000000  0.286388  0.500000  1
  Ru  Ru20  1  0.362619  0.484850  0.500000  1
  Ru  Ru21  1  0.515150  0.877769  0.500000  1
  Ru  Ru22  1  0.122231  0.637381  0.500000  1
  Ru  Ru23  1  0.877769  0.515150  0.500000  1
  Ru  Ru24  1  0.637381  0.122231  0.500000  1
  Ru  Ru25  1  0.484850  0.362619  0.500000  1
  Rh  Rh26  1  0.555625  0.555625  0.000000  1
  Rh  Rh27  1  0.444375  0.000000  0.000000  1
  Rh  Rh28  1  0.000000  0.444375  0.000000  1
  Rh  Rh29  1  0.182675  0.377425  0.000000  1
  Rh  Rh30  1  0.622575  0.805250  0.000000  1
  Rh  Rh31  1  0.194750  0.817325  0.000000  1
  Rh  Rh32  1  0.805250  0.622575  0.000000  1
  Rh  Rh33  1  0.817325  0.194750  0.000000  1
  Rh  Rh34  1  0.377425  0.182675  0.000000  1
  Rh  Rh35  1  0.000000  0.000000  0.000000  1
