# generated using pymatgen
data_Er3TmZn2(B2Ir5)2
_symmetry_space_group_name_H-M   'P 1'
_cell_length_a   9.59525518
_cell_length_b   9.59525518
_cell_length_c   3.13056300
_cell_angle_alpha   90.00000000
_cell_angle_beta   90.00000000
_cell_angle_gamma   89.94320136
_symmetry_Int_Tables_number   1
_chemical_formula_structural   Er3TmZn2(B2Ir5)2
_chemical_formula_sum   'Er3 Tm1 Zn2 B4 Ir10'
_cell_volume   288.22741886
_cell_formula_units_Z   1
loop_
 _symmetry_equiv_pos_site_id
 _symmetry_equiv_pos_as_xyz
  1  'x, y, z'
loop_
 _atom_site_type_symbol
 _atom_site_label
 _atom_site_symmetry_multiplicity
 _atom_site_fract_x
 _atom_site_fract_y
 _atom_site_fract_z
 _atom_site_occupancy
  Er  Er0  1  0.322510  0.822422  0.000000  1
  Er  Er1  1  0.677578  0.177490  0.000000  1
  Er  Er2  1  0.177299  0.322701  0.000000  1
  Tm  Tm3  1  0.822561  0.677439  0.000000  1
  Zn  Zn4  1  0.499964  0.500015  0.000000  1
  Zn  Zn5  1  0.999985  0.000036  0.000000  1
  B  B6  1  0.124262  0.624473  0.000000  1
  B  B7  1  0.875527  0.375738  0.000000  1
  B  B8  1  0.375579  0.124421  0.000000  1
  B  B9  1  0.624726  0.875274  0.000000  1
  Ir  Ir10  1  0.568592  0.719654  0.500000  1
  Ir  Ir11  1  0.432015  0.280062  0.500000  1
  Ir  Ir12  1  0.931976  0.220029  0.500000  1
  Ir  Ir13  1  0.067449  0.780066  0.500000  1
  Ir  Ir14  1  0.780346  0.931408  0.500000  1
  Ir  Ir15  1  0.219938  0.067985  0.500000  1
  Ir  Ir16  1  0.279971  0.568024  0.500000  1
  Ir  Ir17  1  0.719934  0.432551  0.500000  1
  Ir  Ir18  1  0.999652  0.500348  0.500000  1
  Ir  Ir19  1  0.500136  0.999864  0.500000  1
