# generated using pymatgen
data_Sr4V5In3(P2O9)4
_symmetry_space_group_name_H-M   'P 1'
_cell_length_a   6.72884863
_cell_length_b   7.72249748
_cell_length_c   14.72781357
_cell_angle_alpha   89.87938313
_cell_angle_beta   89.71633454
_cell_angle_gamma   89.67796984
_symmetry_Int_Tables_number   1
_chemical_formula_structural   Sr4V5In3(P2O9)4
_chemical_formula_sum   'Sr4 V5 In3 P8 O36'
_cell_volume   765.28586555
_cell_formula_units_Z   1
loop_
 _symmetry_equiv_pos_site_id
 _symmetry_equiv_pos_as_xyz
  1  'x, y, z'
loop_
 _atom_site_type_symbol
 _atom_site_label
 _atom_site_symmetry_multiplicity
 _atom_site_fract_x
 _atom_site_fract_y
 _atom_site_fract_z
 _atom_site_occupancy
  Sr  Sr0  1  0.250282  0.883997  0.725834  1
  Sr  Sr1  1  0.749718  0.116003  0.274166  1
  Sr  Sr2  1  0.759017  0.378139  0.778015  1
  Sr  Sr3  1  0.240983  0.621861  0.221985  1
  V  V4  1  0.751948  0.647381  0.381344  1
  V  V5  1  0.752767  0.848366  0.884731  1
  V  V6  1  0.247233  0.151634  0.115269  1
  V  V7  1  0.248052  0.352619  0.618656  1
  V  V8  1  0.000000  0.500000  0.000000  1
  In  In9  1  0.000000  0.000000  0.500000  1
  In  In10  1  0.500000  0.000000  0.500000  1
  In  In11  1  0.500000  0.500000  0.000000  1
  P  P12  1  0.247614  0.856171  0.939872  1
  P  P13  1  0.752386  0.143829  0.060128  1
  P  P14  1  0.747772  0.363004  0.562218  1
  P  P15  1  0.252228  0.636996  0.437782  1
  P  P16  1  0.750082  0.885982  0.697601  1
  P  P17  1  0.249918  0.114018  0.302399  1
  P  P18  1  0.248854  0.392156  0.806752  1
  P  P19  1  0.751146  0.607844  0.193248  1
  O  O20  1  0.061370  0.105171  0.363074  1
  O  O21  1  0.562659  0.894973  0.637021  1
  O  O22  1  0.933024  0.594401  0.128242  1
  O  O23  1  0.442682  0.396480  0.862971  1
  O  O24  1  0.938630  0.894829  0.636926  1
  O  O25  1  0.437341  0.105027  0.362979  1
  O  O26  1  0.066976  0.405599  0.871758  1
  O  O27  1  0.557318  0.603520  0.137029  1
  O  O28  1  0.251210  0.815907  0.490217  1
  O  O29  1  0.748790  0.184093  0.509783  1
  O  O30  1  0.762062  0.323463  0.008809  1
  O  O31  1  0.237938  0.676537  0.991191  1
  O  O32  1  0.763462  0.627805  0.946074  1
  O  O33  1  0.236538  0.372195  0.053926  1
  O  O34  1  0.249354  0.129122  0.560657  1
  O  O35  1  0.750646  0.870878  0.439343  1
  O  O36  1  0.750891  0.718310  0.756838  1
  O  O37  1  0.249109  0.281690  0.243162  1
  O  O38  1  0.238380  0.224038  0.748526  1
  O  O39  1  0.761620  0.775962  0.251474  1
  O  O40  1  0.435010  0.633333  0.373656  1
  O  O41  1  0.932574  0.366817  0.624288  1
  O  O42  1  0.565276  0.145027  0.121881  1
  O  O43  1  0.066613  0.869524  0.875783  1
  O  O44  1  0.564990  0.366667  0.626344  1
  O  O45  1  0.067426  0.633183  0.375712  1
  O  O46  1  0.434724  0.854973  0.878119  1
  O  O47  1  0.933387  0.130476  0.124217  1
  O  O48  1  0.747629  0.003565  0.988011  1
  O  O49  1  0.244121  0.535537  0.731767  1
  O  O50  1  0.251710  0.968668  0.228537  1
  O  O51  1  0.748290  0.031332  0.771463  1
  O  O52  1  0.747018  0.503726  0.489970  1
  O  O53  1  0.252982  0.496274  0.510030  1
  O  O54  1  0.252371  0.996435  0.011989  1
  O  O55  1  0.755879  0.464463  0.268233  1
