# generated using pymatgen
data_Ta4Si4Ir3Os
_symmetry_space_group_name_H-M   'P 1'
_cell_length_a   3.83387700
_cell_length_b   6.41864903
_cell_length_c   7.30980919
_cell_angle_alpha   89.80821783
_cell_angle_beta   90.00000000
_cell_angle_gamma   90.00000000
_symmetry_Int_Tables_number   1
_chemical_formula_structural   Ta4Si4Ir3Os
_chemical_formula_sum   'Ta4 Si4 Ir3 Os1'
_cell_volume   179.88104941
_cell_formula_units_Z   1
loop_
 _symmetry_equiv_pos_site_id
 _symmetry_equiv_pos_as_xyz
  1  'x, y, z'
loop_
 _atom_site_type_symbol
 _atom_site_label
 _atom_site_symmetry_multiplicity
 _atom_site_fract_x
 _atom_site_fract_y
 _atom_site_fract_z
 _atom_site_occupancy
  Ta  Ta0  1  0.750000  0.526155  0.828461  1
  Ta  Ta1  1  0.250000  0.974878  0.324719  1
  Ta  Ta2  1  0.750000  0.020668  0.675384  1
  Ta  Ta3  1  0.250000  0.477579  0.171109  1
  Si  Si4  1  0.250000  0.229493  0.875330  1
  Si  Si5  1  0.250000  0.729945  0.624710  1
  Si  Si6  1  0.750000  0.770552  0.122962  1
  Si  Si7  1  0.750000  0.268420  0.376803  1
  Ir  Ir8  1  0.250000  0.352205  0.563474  1
  Ir  Ir9  1  0.750000  0.647575  0.434878  1
  Ir  Ir10  1  0.750000  0.149995  0.064543  1
  Os  Os11  1  0.250000  0.852536  0.937627  1
