# generated using pymatgen
data_Lu2GaRh5
_symmetry_space_group_name_H-M   'P 1'
_cell_length_a   4.16673700
_cell_length_b   5.60203400
_cell_length_c   11.11654900
_cell_angle_alpha   90.00000000
_cell_angle_beta   90.00000000
_cell_angle_gamma   90.00000000
_symmetry_Int_Tables_number   1
_chemical_formula_structural   Lu2GaRh5
_chemical_formula_sum   'Lu4 Ga2 Rh10'
_cell_volume   259.48473611
_cell_formula_units_Z   2
loop_
 _symmetry_equiv_pos_site_id
 _symmetry_equiv_pos_as_xyz
  1  'x, y, z'
loop_
 _atom_site_type_symbol
 _atom_site_label
 _atom_site_symmetry_multiplicity
 _atom_site_fract_x
 _atom_site_fract_y
 _atom_site_fract_z
 _atom_site_occupancy
  Lu  Lu0  1  0.500000  0.184424  0.638401  1
  Lu  Lu1  1  0.500000  0.815576  0.361599  1
  Lu  Lu2  1  0.500000  0.684424  0.861599  1
  Lu  Lu3  1  0.500000  0.315576  0.138401  1
  Ga  Ga4  1  0.000000  0.500000  0.500000  1
  Ga  Ga5  1  0.000000  0.000000  0.000000  1
  Rh  Rh6  1  0.500000  0.186684  0.891518  1
  Rh  Rh7  1  0.500000  0.813316  0.108482  1
  Rh  Rh8  1  0.500000  0.686684  0.608482  1
  Rh  Rh9  1  0.500000  0.313316  0.391518  1
  Rh  Rh10  1  0.000000  0.435243  0.747277  1
  Rh  Rh11  1  0.000000  0.564757  0.252723  1
  Rh  Rh12  1  0.000000  0.000000  0.500000  1
  Rh  Rh13  1  0.000000  0.500000  0.000000  1
  Rh  Rh14  1  0.000000  0.064757  0.247277  1
  Rh  Rh15  1  0.000000  0.935243  0.752723  1
