# generated using pymatgen
data_Ho6ErCrO12
_symmetry_space_group_name_H-M   'P 1'
_cell_length_a   6.58907588
_cell_length_b   6.58907751
_cell_length_c   6.58907637
_cell_angle_alpha   93.24394950
_cell_angle_beta   93.24394846
_cell_angle_gamma   93.24395425
_symmetry_Int_Tables_number   1
_chemical_formula_structural   Ho6ErCrO12
_chemical_formula_sum   'Ho6 Er1 Cr1 O12'
_cell_volume   284.64142737
_cell_formula_units_Z   1
loop_
 _symmetry_equiv_pos_site_id
 _symmetry_equiv_pos_as_xyz
  1  'x, y, z'
loop_
 _atom_site_type_symbol
 _atom_site_label
 _atom_site_symmetry_multiplicity
 _atom_site_fract_x
 _atom_site_fract_y
 _atom_site_fract_z
 _atom_site_occupancy
  Ho  Ho0  1  0.739276  0.924404  0.436139  1
  Ho  Ho1  1  0.924404  0.436139  0.739276  1
  Ho  Ho2  1  0.436139  0.739276  0.924404  1
  Ho  Ho3  1  0.260724  0.075596  0.563861  1
  Ho  Ho4  1  0.075596  0.563861  0.260724  1
  Ho  Ho5  1  0.563861  0.260724  0.075596  1
  Er  Er6  1  0.000000  0.000000  0.000000  1
  Cr  Cr7  1  0.500000  0.500000  0.500000  1
  O  O8  1  0.588754  0.462422  0.799061  1
  O  O9  1  0.462422  0.799061  0.588754  1
  O  O10  1  0.799061  0.588754  0.462422  1
  O  O11  1  0.411246  0.537578  0.200939  1
  O  O12  1  0.537578  0.200939  0.411246  1
  O  O13  1  0.200939  0.411246  0.537578  1
  O  O14  1  0.068500  0.907299  0.318115  1
  O  O15  1  0.907299  0.318115  0.068500  1
  O  O16  1  0.681885  0.931500  0.092701  1
  O  O17  1  0.092701  0.681885  0.931500  1
  O  O18  1  0.931500  0.092701  0.681885  1
  O  O19  1  0.318115  0.068500  0.907299  1
