# generated using pymatgen
data_Ta6Nb2Os3Ru
_symmetry_space_group_name_H-M   'P 1'
_cell_length_a   4.53959300
_cell_length_b   6.46716100
_cell_length_c   13.66389400
_cell_angle_alpha   90.00000000
_cell_angle_beta   90.00007950
_cell_angle_gamma   90.00000000
_symmetry_Int_Tables_number   1
_chemical_formula_structural   Ta6Nb2Os3Ru
_chemical_formula_sum   'Ta12 Nb4 Os6 Ru2'
_cell_volume   401.14840962
_cell_formula_units_Z   2
loop_
 _symmetry_equiv_pos_site_id
 _symmetry_equiv_pos_as_xyz
  1  'x, y, z'
loop_
 _atom_site_type_symbol
 _atom_site_label
 _atom_site_symmetry_multiplicity
 _atom_site_fract_x
 _atom_site_fract_y
 _atom_site_fract_z
 _atom_site_occupancy
  Ta  Ta0  1  0.499999  0.251732  0.999565  1
  Ta  Ta1  1  0.499999  0.748268  0.999565  1
  Ta  Ta2  1  0.000007  0.248254  0.167108  1
  Ta  Ta3  1  0.000007  0.751746  0.167108  1
  Ta  Ta4  1  0.500003  0.250483  0.333156  1
  Ta  Ta5  1  0.500003  0.749516  0.333156  1
  Ta  Ta6  1  0.999999  0.249510  0.499903  1
  Ta  Ta7  1  0.999999  0.750490  0.499903  1
  Ta  Ta8  1  0.499994  0.250472  0.666743  1
  Ta  Ta9  1  0.499994  0.749527  0.666743  1
  Ta  Ta10  1  0.999997  0.249535  0.833516  1
  Ta  Ta11  1  0.999997  0.750465  0.833516  1
  Nb  Nb12  1  0.000006  0.000000  0.329559  1
  Nb  Nb13  1  0.500000  0.500000  0.497800  1
  Nb  Nb14  1  0.999993  0.000000  0.668894  1
  Nb  Nb15  1  0.499997  0.500000  0.837102  1
  Os  Os16  1  0.000001  0.500000  0.006049  1
  Os  Os17  1  0.500007  0.000000  0.160596  1
  Os  Os18  1  0.000003  0.500000  0.327642  1
  Os  Os19  1  0.499996  0.000000  0.499229  1
  Os  Os20  1  0.999996  0.500000  0.667430  1
  Os  Os21  1  0.499996  0.000000  0.839040  1
  Ru  Ru22  1  0.000003  0.000000  0.001048  1
  Ru  Ru23  1  0.500009  0.500000  0.165629  1
