# generated using pymatgen
data_RbCeUSe6
_symmetry_space_group_name_H-M   'P 1'
_cell_length_a   4.10606391
_cell_length_b   5.50710848
_cell_length_c   11.89055699
_cell_angle_alpha   103.38980751
_cell_angle_beta   99.95570520
_cell_angle_gamma   90.00000657
_symmetry_Int_Tables_number   1
_chemical_formula_structural   RbCeUSe6
_chemical_formula_sum   'Rb1 Ce1 U1 Se6'
_cell_volume   257.40311548
_cell_formula_units_Z   1
loop_
 _symmetry_equiv_pos_site_id
 _symmetry_equiv_pos_as_xyz
  1  'x, y, z'
loop_
 _atom_site_type_symbol
 _atom_site_label
 _atom_site_symmetry_multiplicity
 _atom_site_fract_x
 _atom_site_fract_y
 _atom_site_fract_z
 _atom_site_occupancy
  Rb  Rb0  1  0.000111  0.500245  0.000489  1
  Ce  Ce1  1  0.181396  0.181259  0.362517  1
  U  U2  1  0.817203  0.817422  0.634845  1
  Se  Se3  1  0.609697  0.358535  0.219253  1
  Se  Se4  1  0.609697  0.860719  0.219253  1
  Se  Se5  1  0.230437  0.730540  0.461079  1
  Se  Se6  1  0.775786  0.275240  0.550479  1
  Se  Se7  1  0.387841  0.134084  0.776040  1
  Se  Se8  1  0.387841  0.641956  0.776040  1
