# generated using pymatgen
data_Tb9Y3(OsRu)2
_symmetry_space_group_name_H-M   'P 1'
_cell_length_a   6.36628106
_cell_length_b   7.36659270
_cell_length_c   9.21642704
_cell_angle_alpha   89.94770262
_cell_angle_beta   89.98491670
_cell_angle_gamma   90.13089294
_symmetry_Int_Tables_number   1
_chemical_formula_structural   Tb9Y3(OsRu)2
_chemical_formula_sum   'Tb9 Y3 Os2 Ru2'
_cell_volume   432.22882472
_cell_formula_units_Z   1
loop_
 _symmetry_equiv_pos_site_id
 _symmetry_equiv_pos_as_xyz
  1  'x, y, z'
loop_
 _atom_site_type_symbol
 _atom_site_label
 _atom_site_symmetry_multiplicity
 _atom_site_fract_x
 _atom_site_fract_y
 _atom_site_fract_z
 _atom_site_occupancy
  Tb  Tb0  1  0.635059  0.040072  0.250058  1
  Tb  Tb1  1  0.364557  0.960389  0.750023  1
  Tb  Tb2  1  0.133575  0.458402  0.750043  1
  Tb  Tb3  1  0.866752  0.541773  0.250093  1
  Tb  Tb4  1  0.171248  0.176458  0.065947  1
  Tb  Tb5  1  0.828745  0.823620  0.934324  1
  Tb  Tb6  1  0.669422  0.324443  0.936535  1
  Tb  Tb7  1  0.828404  0.823871  0.565381  1
  Tb  Tb8  1  0.330537  0.675469  0.063625  1
  Y  Y9  1  0.171377  0.176521  0.434693  1
  Y  Y10  1  0.330634  0.674961  0.436995  1
  Y  Y11  1  0.669331  0.324874  0.562924  1
  Os  Os12  1  0.461122  0.384454  0.249277  1
  Os  Os13  1  0.539650  0.615552  0.750628  1
  Ru  Ru14  1  0.961990  0.114077  0.750319  1
  Ru  Ru15  1  0.037598  0.885063  0.249134  1
