# generated using pymatgen
data_DyLuZr2(Al8Pt3)3
_symmetry_space_group_name_H-M   'P 1'
_cell_length_a   7.49626200
_cell_length_b   7.50610699
_cell_length_c   13.04253719
_cell_angle_alpha   84.54517684
_cell_angle_beta   78.98052061
_cell_angle_gamma   59.94512422
_symmetry_Int_Tables_number   1
_chemical_formula_structural   DyLuZr2(Al8Pt3)3
_chemical_formula_sum   'Dy1 Lu1 Zr2 Al24 Pt9'
_cell_volume   623.49004339
_cell_formula_units_Z   1
loop_
 _symmetry_equiv_pos_site_id
 _symmetry_equiv_pos_as_xyz
  1  'x, y, z'
loop_
 _atom_site_type_symbol
 _atom_site_label
 _atom_site_symmetry_multiplicity
 _atom_site_fract_x
 _atom_site_fract_y
 _atom_site_fract_z
 _atom_site_occupancy
  Dy  Dy0  1  0.733588  0.498501  0.807946  1
  Lu  Lu1  1  0.265787  0.501417  0.193314  1
  Zr  Zr2  1  0.393558  0.168018  0.810219  1
  Zr  Zr3  1  0.606338  0.832318  0.189651  1
  Al  Al4  1  0.681279  0.836074  0.943695  1
  Al  Al5  1  0.318344  0.164724  0.057267  1
  Al  Al6  1  0.146068  0.832964  0.562900  1
  Al  Al7  1  0.854089  0.166886  0.436865  1
  Al  Al8  1  0.479733  0.166925  0.561015  1
  Al  Al9  1  0.520306  0.833127  0.438635  1
  Al  Al10  1  0.220977  0.163492  0.326155  1
  Al  Al11  1  0.779407  0.836706  0.673112  1
  Al  Al12  1  0.436176  0.504359  0.673247  1
  Al  Al13  1  0.563627  0.495701  0.326054  1
  Al  Al14  1  0.111153  0.159978  0.671965  1
  Al  Al15  1  0.889505  0.839635  0.327270  1
  Al  Al16  1  0.353079  0.497051  0.942971  1
  Al  Al17  1  0.645631  0.503093  0.058311  1
  Al  Al18  1  0.018557  0.167751  0.950961  1
  Al  Al19  1  0.981946  0.831530  0.049928  1
  Al  Al20  1  0.186689  0.499711  0.440409  1
  Al  Al21  1  0.813515  0.500283  0.559298  1
  Al  Al22  1  0.732604  0.159715  0.183522  1
  Al  Al23  1  0.266397  0.840907  0.816421  1
  Al  Al24  1  0.065894  0.626931  0.815345  1
  Al  Al25  1  0.934832  0.373452  0.184583  1
  Al  Al26  1  0.851002  0.040808  0.815868  1
  Al  Al27  1  0.149419  0.957988  0.184099  1
  Pt  Pt28  1  0.119814  0.490914  0.639350  1
  Pt  Pt29  1  0.880936  0.509082  0.360271  1
  Pt  Pt30  1  0.656477  0.173030  0.999628  1
  Pt  Pt31  1  0.343365  0.827018  0.000454  1
  Pt  Pt32  1  0.536331  0.167454  0.361160  1
  Pt  Pt33  1  0.463329  0.833011  0.638393  1
  Pt  Pt34  1  0.778391  0.176319  0.637591  1
  Pt  Pt35  1  0.221844  0.823027  0.362048  1
  Pt  Pt36  1  0.000011  0.500101  0.000077  1
