# generated using pymatgen
data_LaY7In3Ru
_symmetry_space_group_name_H-M   'P 1'
_cell_length_a   10.43344400
_cell_length_b   10.43344302
_cell_length_c   7.05356800
_cell_angle_alpha   90.00000000
_cell_angle_beta   90.00000000
_cell_angle_gamma   119.99999676
_symmetry_Int_Tables_number   1
_chemical_formula_structural   LaY7In3Ru
_chemical_formula_sum   'La2 Y14 In6 Ru2'
_cell_volume   664.95895860
_cell_formula_units_Z   2
loop_
 _symmetry_equiv_pos_site_id
 _symmetry_equiv_pos_as_xyz
  1  'x, y, z'
loop_
 _atom_site_type_symbol
 _atom_site_label
 _atom_site_symmetry_multiplicity
 _atom_site_fract_x
 _atom_site_fract_y
 _atom_site_fract_z
 _atom_site_occupancy
  La  La0  1  0.000000  0.000000  0.777239  1
  La  La1  1  0.000000  0.000000  0.277239  1
  Y  Y2  1  0.532374  0.064747  0.790921  1
  Y  Y3  1  0.935253  0.467626  0.790921  1
  Y  Y4  1  0.532374  0.467626  0.790921  1
  Y  Y5  1  0.467626  0.935253  0.290921  1
  Y  Y6  1  0.064747  0.532374  0.290921  1
  Y  Y7  1  0.467626  0.532374  0.290921  1
  Y  Y8  1  0.823546  0.647092  0.500140  1
  Y  Y9  1  0.352908  0.176454  0.500140  1
  Y  Y10  1  0.823546  0.176454  0.500140  1
  Y  Y11  1  0.176454  0.352908  0.000140  1
  Y  Y12  1  0.647092  0.823546  0.000140  1
  Y  Y13  1  0.176454  0.823546  0.000140  1
  Y  Y14  1  0.666667  0.333333  0.177111  1
  Y  Y15  1  0.333333  0.666667  0.677111  1
  In  In16  1  0.832338  0.664675  0.040017  1
  In  In17  1  0.335325  0.167662  0.040017  1
  In  In18  1  0.832338  0.167662  0.040017  1
  In  In19  1  0.167662  0.335325  0.540017  1
  In  In20  1  0.664675  0.832338  0.540017  1
  In  In21  1  0.167662  0.832338  0.540017  1
  Ru  Ru22  1  0.666667  0.333333  0.570366  1
  Ru  Ru23  1  0.333333  0.666667  0.070366  1
