# generated using pymatgen
data_DyY4P12Ru19
_symmetry_space_group_name_H-M   'P 1'
_cell_length_a   12.54631703
_cell_length_b   12.54490029
_cell_length_c   3.98200400
_cell_angle_alpha   90.00000000
_cell_angle_beta   90.00000000
_cell_angle_gamma   119.99625837
_symmetry_Int_Tables_number   1
_chemical_formula_structural   DyY4P12Ru19
_chemical_formula_sum   'Dy1 Y4 P12 Ru19'
_cell_volume   542.79041228
_cell_formula_units_Z   1
loop_
 _symmetry_equiv_pos_site_id
 _symmetry_equiv_pos_as_xyz
  1  'x, y, z'
loop_
 _atom_site_type_symbol
 _atom_site_label
 _atom_site_symmetry_multiplicity
 _atom_site_fract_x
 _atom_site_fract_y
 _atom_site_fract_z
 _atom_site_occupancy
  Dy  Dy0  1  0.000000  0.183469  0.500000  1
  Y  Y1  1  0.816359  0.816347  0.500000  1
  Y  Y2  1  0.183641  0.999988  0.500000  1
  Y  Y3  1  0.666676  0.333296  0.000000  1
  Y  Y4  1  0.333324  0.666621  0.000000  1
  P  P5  1  0.000000  0.815573  0.000000  1
  P  P6  1  0.184437  0.184616  0.000000  1
  P  P7  1  0.815563  0.000179  0.000000  1
  P  P8  1  0.693889  0.171400  0.500000  1
  P  P9  1  0.828593  0.522441  0.500000  1
  P  P10  1  0.477463  0.306106  0.500000  1
  P  P11  1  0.171407  0.693849  0.500000  1
  P  P12  1  0.522537  0.828642  0.500000  1
  P  P13  1  0.306111  0.477511  0.500000  1
  P  P14  1  0.000000  0.372982  0.000000  1
  P  P15  1  0.626875  0.626878  0.000000  1
  P  P16  1  0.373125  0.000003  0.000000  1
  Ru  Ru17  1  0.000000  0.554698  0.000000  1
  Ru  Ru18  1  0.445099  0.445224  0.000000  1
  Ru  Ru19  1  0.554901  0.000125  0.000000  1
  Ru  Ru20  1  0.000000  0.716672  0.500000  1
  Ru  Ru21  1  0.283147  0.283237  0.500000  1
  Ru  Ru22  1  0.716853  0.000090  0.500000  1
  Ru  Ru23  1  0.807855  0.184830  0.000000  1
  Ru  Ru24  1  0.815203  0.622841  0.000000  1
  Ru  Ru25  1  0.377107  0.192373  0.000000  1
  Ru  Ru26  1  0.184797  0.807637  0.000000  1
  Ru  Ru27  1  0.622893  0.815266  0.000000  1
  Ru  Ru28  1  0.192145  0.376973  0.000000  1
  Ru  Ru29  1  0.874302  0.366189  0.500000  1
  Ru  Ru30  1  0.633717  0.507984  0.500000  1
  Ru  Ru31  1  0.491954  0.125718  0.500000  1
  Ru  Ru32  1  0.366283  0.874268  0.500000  1
  Ru  Ru33  1  0.508046  0.633764  0.500000  1
  Ru  Ru34  1  0.125698  0.491887  0.500000  1
  Ru  Ru35  1  0.000000  0.000325  0.000000  1
