# generated using pymatgen
data_Tm4Be7BRu10
_symmetry_space_group_name_H-M   'P 1'
_cell_length_a   3.20200200
_cell_length_b   8.90856789
_cell_length_c   10.27384312
_cell_angle_alpha   90.17715294
_cell_angle_beta   90.00000000
_cell_angle_gamma   90.00000000
_symmetry_Int_Tables_number   1
_chemical_formula_structural   Tm4Be7BRu10
_chemical_formula_sum   'Tm4 Be7 B1 Ru10'
_cell_volume   293.06256523
_cell_formula_units_Z   1
loop_
 _symmetry_equiv_pos_site_id
 _symmetry_equiv_pos_as_xyz
  1  'x, y, z'
loop_
 _atom_site_type_symbol
 _atom_site_label
 _atom_site_symmetry_multiplicity
 _atom_site_fract_x
 _atom_site_fract_y
 _atom_site_fract_z
 _atom_site_occupancy
  Tm  Tm0  1  0.500000  0.829745  0.182570  1
  Tm  Tm1  1  0.500000  0.163397  0.816718  1
  Tm  Tm2  1  0.500000  0.667522  0.684063  1
  Tm  Tm3  1  0.500000  0.337938  0.317835  1
  Be  Be4  1  0.500000  0.963284  0.592925  1
  Be  Be5  1  0.500000  0.032011  0.405912  1
  Be  Be6  1  0.500000  0.846219  0.905521  1
  Be  Be7  1  0.500000  0.165825  0.093765  1
  Be  Be8  1  0.500000  0.654354  0.404447  1
  Be  Be9  1  0.500000  0.335022  0.592215  1
  Be  Be10  1  0.500000  0.469308  0.908442  1
  B  B11  1  0.500000  0.534531  0.091549  1
  Ru  Ru12  1  0.000000  0.656517  0.962221  1
  Ru  Ru13  1  0.000000  0.352561  0.047780  1
  Ru  Ru14  1  0.000000  0.839803  0.452464  1
  Ru  Ru15  1  0.000000  0.153627  0.545184  1
  Ru  Ru16  1  0.000000  0.003898  0.005358  1
  Ru  Ru17  1  0.000000  0.411044  0.752257  1
  Ru  Ru18  1  0.000000  0.584423  0.236385  1
  Ru  Ru19  1  0.000000  0.500545  0.503758  1
  Ru  Ru20  1  0.000000  0.910505  0.746202  1
  Ru  Ru21  1  0.000000  0.087921  0.252428  1
