# generated using pymatgen
data_LuZr2Ti6(In2Co)7
_symmetry_space_group_name_H-M   'P 1'
_cell_length_a   9.33080110
_cell_length_b   9.28498388
_cell_length_c   9.28424622
_cell_angle_alpha   59.72415935
_cell_angle_beta   59.83921747
_cell_angle_gamma   59.83139390
_symmetry_Int_Tables_number   1
_chemical_formula_structural   LuZr2Ti6(In2Co)7
_chemical_formula_sum   'Lu1 Zr2 Ti6 In14 Co7'
_cell_volume   566.15727470
_cell_formula_units_Z   1
loop_
 _symmetry_equiv_pos_site_id
 _symmetry_equiv_pos_as_xyz
  1  'x, y, z'
loop_
 _atom_site_type_symbol
 _atom_site_label
 _atom_site_symmetry_multiplicity
 _atom_site_fract_x
 _atom_site_fract_y
 _atom_site_fract_z
 _atom_site_occupancy
  Lu  Lu0  1  0.499988  0.495885  0.504115  1
  Zr  Zr1  1  0.876664  0.366840  0.879894  1
  Zr  Zr2  1  0.123402  0.120106  0.633160  1
  Ti  Ti3  1  0.116120  0.651952  0.115931  1
  Ti  Ti4  1  0.348075  0.882326  0.886360  1
  Ti  Ti5  1  0.883233  0.882493  0.886210  1
  Ti  Ti6  1  0.651938  0.113790  0.117507  1
  Ti  Ti7  1  0.884002  0.884069  0.348048  1
  Ti  Ti8  1  0.116762  0.113640  0.117674  1
  In  In9  1  0.499851  0.843121  0.156879  1
  In  In10  1  0.503157  0.841796  0.500926  1
  In  In11  1  0.504237  0.149055  0.502519  1
  In  In12  1  0.495827  0.497405  0.851058  1
  In  In13  1  0.154571  0.502822  0.497178  1
  In  In14  1  0.844290  0.148942  0.502595  1
  In  In15  1  0.154105  0.841747  0.500728  1
  In  In16  1  0.500016  0.150768  0.849232  1
  In  In17  1  0.155811  0.497481  0.850945  1
  In  In18  1  0.496579  0.499272  0.158253  1
  In  In19  1  0.845375  0.502722  0.497278  1
  In  In20  1  0.845878  0.499074  0.158204  1
  In  In21  1  0.256770  0.256209  0.230333  1
  In  In22  1  0.743313  0.769667  0.743791  1
  Co  Co23  1  0.787752  0.789587  0.210413  1
  Co  Co24  1  0.999988  0.997360  0.002640  1
  Co  Co25  1  0.212383  0.789454  0.210546  1
  Co  Co26  1  0.213699  0.781761  0.790794  1
  Co  Co27  1  0.219543  0.210702  0.789298  1
  Co  Co28  1  0.780418  0.210748  0.789252  1
  Co  Co29  1  0.786254  0.209206  0.218239  1
