# generated using pymatgen
data_Hf5ZrSi5GeRu6
_symmetry_space_group_name_H-M   'P 1'
_cell_length_a   7.63703797
_cell_length_b   7.63381386
_cell_length_c   7.63267666
_cell_angle_alpha   127.84485559
_cell_angle_beta   122.20426709
_cell_angle_gamma   81.57892351
_symmetry_Int_Tables_number   1
_chemical_formula_structural   Hf5ZrSi5GeRu6
_chemical_formula_sum   'Hf5 Zr1 Si5 Ge1 Ru6'
_cell_volume   286.27436861
_cell_formula_units_Z   1
loop_
 _symmetry_equiv_pos_site_id
 _symmetry_equiv_pos_as_xyz
  1  'x, y, z'
loop_
 _atom_site_type_symbol
 _atom_site_label
 _atom_site_symmetry_multiplicity
 _atom_site_fract_x
 _atom_site_fract_y
 _atom_site_fract_z
 _atom_site_occupancy
  Hf  Hf0  1  0.527577  0.511019  0.476885  1
  Hf  Hf1  1  0.056669  0.511314  0.957624  1
  Hf  Hf2  1  0.248842  0.086663  0.332664  1
  Hf  Hf3  1  0.747722  0.081603  0.837668  1
  Hf  Hf4  1  0.949073  0.898617  0.451412  1
  Zr  Zr5  1  0.468133  0.944831  0.972949  1
  Si  Si6  1  0.326954  0.839240  0.498923  1
  Si  Si7  1  0.724739  0.465307  0.242145  1
  Si  Si8  1  0.837494  0.835803  0.009504  1
  Si  Si9  1  0.274537  0.520410  0.747062  1
  Si  Si10  1  0.161066  0.173006  0.998992  1
  Ge  Ge11  1  0.672764  0.173874  0.511451  1
  Ru  Ru12  1  0.651362  0.509069  0.913704  1
  Ru  Ru13  1  0.995081  0.749627  0.744717  1
  Ru  Ru14  1  0.909393  0.255376  0.405782  1
  Ru  Ru15  1  0.098617  0.504694  0.353917  1
  Ru  Ru16  1  0.502655  0.744594  0.254198  1
  Ru  Ru17  1  0.347319  0.254952  0.850402  1
