# generated using pymatgen
data_Li2Er3AgPb3
_symmetry_space_group_name_H-M   'P 1'
_cell_length_a   7.38028200
_cell_length_b   7.37205828
_cell_length_c   4.62842200
_cell_angle_alpha   90.00000000
_cell_angle_beta   90.00000000
_cell_angle_gamma   120.03690815
_symmetry_Int_Tables_number   1
_chemical_formula_structural   Li2Er3AgPb3
_chemical_formula_sum   'Li2 Er3 Ag1 Pb3'
_cell_volume   218.00359643
_cell_formula_units_Z   1
loop_
 _symmetry_equiv_pos_site_id
 _symmetry_equiv_pos_as_xyz
  1  'x, y, z'
loop_
 _atom_site_type_symbol
 _atom_site_label
 _atom_site_symmetry_multiplicity
 _atom_site_fract_x
 _atom_site_fract_y
 _atom_site_fract_z
 _atom_site_occupancy
  Li  Li0  1  0.769394  0.765929  0.000000  1
  Li  Li1  1  0.003465  0.234071  0.000000  1
  Er  Er2  1  0.553717  0.000000  0.500000  1
  Er  Er3  1  0.431631  0.428264  0.500000  1
  Er  Er4  1  0.003367  0.571736  0.500000  1
  Ag  Ag5  1  0.238614  0.000000  0.000000  1
  Pb  Pb6  1  0.988147  0.000000  0.500000  1
  Pb  Pb7  1  0.335292  0.658920  0.000000  1
  Pb  Pb8  1  0.676374  0.341080  0.000000  1
