# generated using pymatgen
data_Mg4GaGePd10
_symmetry_space_group_name_H-M   'P 1'
_cell_length_a   4.18409800
_cell_length_b   5.49524068
_cell_length_c   10.75255114
_cell_angle_alpha   89.88740196
_cell_angle_beta   90.00000000
_cell_angle_gamma   90.00000000
_symmetry_Int_Tables_number   1
_chemical_formula_structural   Mg4GaGePd10
_chemical_formula_sum   'Mg4 Ga1 Ge1 Pd10'
_cell_volume   247.22890450
_cell_formula_units_Z   1
loop_
 _symmetry_equiv_pos_site_id
 _symmetry_equiv_pos_as_xyz
  1  'x, y, z'
loop_
 _atom_site_type_symbol
 _atom_site_label
 _atom_site_symmetry_multiplicity
 _atom_site_fract_x
 _atom_site_fract_y
 _atom_site_fract_z
 _atom_site_occupancy
  Mg  Mg0  1  0.500000  0.162336  0.143164  1
  Mg  Mg1  1  0.500000  0.837664  0.856836  1
  Mg  Mg2  1  0.500000  0.335182  0.640570  1
  Mg  Mg3  1  0.500000  0.664818  0.359430  1
  Ga  Ga4  1  0.000000  0.000000  0.500000  1
  Ge  Ge5  1  0.000000  0.500000  0.000000  1
  Pd  Pd6  1  0.500000  0.180737  0.393732  1
  Pd  Pd7  1  0.500000  0.819263  0.606268  1
  Pd  Pd8  1  0.500000  0.320977  0.895927  1
  Pd  Pd9  1  0.500000  0.679023  0.104073  1
  Pd  Pd10  1  0.000000  0.417453  0.236725  1
  Pd  Pd11  1  0.000000  0.582547  0.763275  1
  Pd  Pd12  1  0.000000  0.084390  0.738405  1
  Pd  Pd13  1  0.000000  0.915610  0.261595  1
  Pd  Pd14  1  0.000000  0.000000  0.000000  1
  Pd  Pd15  1  0.000000  0.500000  0.500000  1
