# generated using pymatgen
data_Dy2Ho2ErIr3
_symmetry_space_group_name_H-M   'P 1'
_cell_length_a   10.85073800
_cell_length_b   10.85073800
_cell_length_c   6.35226500
_cell_angle_alpha   90.00000000
_cell_angle_beta   90.00000000
_cell_angle_gamma   90.00000000
_symmetry_Int_Tables_number   1
_chemical_formula_structural   Dy2Ho2ErIr3
_chemical_formula_sum   'Dy8 Ho8 Er4 Ir12'
_cell_volume   747.90624891
_cell_formula_units_Z   4
loop_
 _symmetry_equiv_pos_site_id
 _symmetry_equiv_pos_as_xyz
  1  'x, y, z'
loop_
 _atom_site_type_symbol
 _atom_site_label
 _atom_site_symmetry_multiplicity
 _atom_site_fract_x
 _atom_site_fract_y
 _atom_site_fract_z
 _atom_site_occupancy
  Dy  Dy0  1  0.290786  0.088014  0.377602  1
  Dy  Dy1  1  0.290786  0.911986  0.877602  1
  Dy  Dy2  1  0.709214  0.088014  0.877602  1
  Dy  Dy3  1  0.709214  0.911986  0.377602  1
  Dy  Dy4  1  0.588014  0.790786  0.877602  1
  Dy  Dy5  1  0.588014  0.209214  0.377602  1
  Dy  Dy6  1  0.411986  0.790786  0.377602  1
  Dy  Dy7  1  0.411986  0.209214  0.877602  1
  Ho  Ho8  1  0.208868  0.412234  0.622155  1
  Ho  Ho9  1  0.208868  0.587766  0.122155  1
  Ho  Ho10  1  0.791132  0.412234  0.122155  1
  Ho  Ho11  1  0.791132  0.587766  0.622155  1
  Ho  Ho12  1  0.912234  0.708868  0.122155  1
  Ho  Ho13  1  0.912234  0.291132  0.622155  1
  Ho  Ho14  1  0.087766  0.708868  0.622155  1
  Ho  Ho15  1  0.087766  0.291132  0.122155  1
  Er  Er16  1  0.000000  0.000000  0.500116  1
  Er  Er17  1  0.000000  0.000000  0.000116  1
  Er  Er18  1  0.500000  0.500000  0.000116  1
  Er  Er19  1  0.500000  0.500000  0.500116  1
  Ir  Ir20  1  0.847229  0.153142  0.250130  1
  Ir  Ir21  1  0.847229  0.846858  0.750130  1
  Ir  Ir22  1  0.152771  0.153142  0.750130  1
  Ir  Ir23  1  0.152771  0.846858  0.250130  1
  Ir  Ir24  1  0.653142  0.347229  0.750130  1
  Ir  Ir25  1  0.653142  0.652771  0.250130  1
  Ir  Ir26  1  0.346858  0.347229  0.250130  1
  Ir  Ir27  1  0.346858  0.652771  0.750130  1
  Ir  Ir28  1  0.500000  0.000000  0.122271  1
  Ir  Ir29  1  0.500000  0.000000  0.622271  1
  Ir  Ir30  1  0.000000  0.500000  0.877949  1
  Ir  Ir31  1  0.000000  0.500000  0.377949  1
