# generated using pymatgen
data_Ce2SiNi16H3
_symmetry_space_group_name_H-M   'P 1'
_cell_length_a   6.27848994
_cell_length_b   6.27849025
_cell_length_c   6.30900121
_cell_angle_alpha   84.08594003
_cell_angle_beta   84.08595232
_cell_angle_gamma   83.13129395
_symmetry_Int_Tables_number   1
_chemical_formula_structural   Ce2SiNi16H3
_chemical_formula_sum   'Ce2 Si1 Ni16 H3'
_cell_volume   244.55978721
_cell_formula_units_Z   1
loop_
 _symmetry_equiv_pos_site_id
 _symmetry_equiv_pos_as_xyz
  1  'x, y, z'
loop_
 _atom_site_type_symbol
 _atom_site_label
 _atom_site_symmetry_multiplicity
 _atom_site_fract_x
 _atom_site_fract_y
 _atom_site_fract_z
 _atom_site_occupancy
  Ce  Ce0  1  0.656537  0.656537  0.666477  1
  Ce  Ce1  1  0.343463  0.343463  0.333523  1
  Si  Si2  1  0.000000  0.000000  0.500000  1
  Ni  Ni3  1  0.500000  0.000000  0.000000  1
  Ni  Ni4  1  0.000000  0.500000  0.000000  1
  Ni  Ni5  1  0.711533  0.288467  0.000000  1
  Ni  Ni6  1  0.001032  0.711885  0.291982  1
  Ni  Ni7  1  0.288115  0.998968  0.708018  1
  Ni  Ni8  1  0.998968  0.288115  0.708018  1
  Ni  Ni9  1  0.711885  0.001032  0.291982  1
  Ni  Ni10  1  0.288467  0.711533  0.000000  1
  Ni  Ni11  1  0.346273  0.346273  0.848085  1
  Ni  Ni12  1  0.856534  0.345259  0.345910  1
  Ni  Ni13  1  0.345259  0.856534  0.345910  1
  Ni  Ni14  1  0.653727  0.653727  0.151915  1
  Ni  Ni15  1  0.143466  0.654741  0.654090  1
  Ni  Ni16  1  0.654741  0.143466  0.654090  1
  Ni  Ni17  1  0.898593  0.898593  0.900765  1
  Ni  Ni18  1  0.101407  0.101407  0.099235  1
  H  H19  1  0.500000  0.500000  0.000000  1
  H  H20  1  0.000000  0.500000  0.500000  1
  H  H21  1  0.500000  0.000000  0.500000  1
