# generated using pymatgen
data_Li8SmTh7Sn8
_symmetry_space_group_name_H-M   'P 1'
_cell_length_a   9.68383400
_cell_length_b   9.68383378
_cell_length_c   7.34032500
_cell_angle_alpha   90.00000000
_cell_angle_beta   90.00000000
_cell_angle_gamma   120.00000074
_symmetry_Int_Tables_number   1
_chemical_formula_structural   Li8SmTh7Sn8
_chemical_formula_sum   'Li8 Sm1 Th7 Sn8'
_cell_volume   596.12945392
_cell_formula_units_Z   1
loop_
 _symmetry_equiv_pos_site_id
 _symmetry_equiv_pos_as_xyz
  1  'x, y, z'
loop_
 _atom_site_type_symbol
 _atom_site_label
 _atom_site_symmetry_multiplicity
 _atom_site_fract_x
 _atom_site_fract_y
 _atom_site_fract_z
 _atom_site_occupancy
  Li  Li0  1  0.833827  0.166173  0.747092  1
  Li  Li1  1  0.833827  0.667655  0.747092  1
  Li  Li2  1  0.332345  0.166173  0.747092  1
  Li  Li3  1  0.165698  0.834302  0.231499  1
  Li  Li4  1  0.165698  0.331396  0.231499  1
  Li  Li5  1  0.668604  0.834302  0.231499  1
  Li  Li6  1  0.666667  0.333333  0.279014  1
  Li  Li7  1  0.333333  0.666667  0.780024  1
  Sm  Sm8  1  0.000000  0.000000  0.001255  1
  Th  Th9  1  0.496586  0.503414  0.503922  1
  Th  Th10  1  0.496586  0.993172  0.503922  1
  Th  Th11  1  0.006828  0.503414  0.503922  1
  Th  Th12  1  0.503306  0.496694  0.003439  1
  Th  Th13  1  0.503306  0.006611  0.003439  1
  Th  Th14  1  0.993389  0.496694  0.003439  1
  Th  Th15  1  0.000000  0.000000  0.502194  1
  Sn  Sn16  1  0.833601  0.166399  0.257280  1
  Sn  Sn17  1  0.833601  0.667202  0.257280  1
  Sn  Sn18  1  0.332798  0.166399  0.257280  1
  Sn  Sn19  1  0.166156  0.833844  0.758330  1
  Sn  Sn20  1  0.166156  0.332313  0.758330  1
  Sn  Sn21  1  0.667687  0.833844  0.758330  1
  Sn  Sn22  1  0.666667  0.333333  0.745259  1
  Sn  Sn23  1  0.333333  0.666667  0.245582  1
