# generated using pymatgen
data_SmFe3CoP12
_symmetry_space_group_name_H-M   'P 1'
_cell_length_a   6.75482953
_cell_length_b   6.75483001
_cell_length_c   6.75482805
_cell_angle_alpha   109.42972111
_cell_angle_beta   109.42973418
_cell_angle_gamma   109.42972290
_symmetry_Int_Tables_number   1
_chemical_formula_structural   SmFe3CoP12
_chemical_formula_sum   'Sm1 Fe3 Co1 P12'
_cell_volume   237.62199654
_cell_formula_units_Z   1
loop_
 _symmetry_equiv_pos_site_id
 _symmetry_equiv_pos_as_xyz
  1  'x, y, z'
loop_
 _atom_site_type_symbol
 _atom_site_label
 _atom_site_symmetry_multiplicity
 _atom_site_fract_x
 _atom_site_fract_y
 _atom_site_fract_z
 _atom_site_occupancy
  Sm  Sm0  1  0.000000  0.000000  0.000000  1
  Fe  Fe1  1  0.500000  0.000000  0.000000  1
  Fe  Fe2  1  0.000000  0.500000  0.000000  1
  Fe  Fe3  1  0.000000  0.000000  0.500000  1
  Co  Co4  1  0.500000  0.500000  0.500000  1
  P  P5  1  0.150713  0.800241  0.649854  1
  P  P6  1  0.147532  0.500766  0.348967  1
  P  P7  1  0.852468  0.499234  0.651033  1
  P  P8  1  0.348967  0.147532  0.500766  1
  P  P9  1  0.800241  0.649854  0.150713  1
  P  P10  1  0.849287  0.199759  0.350146  1
  P  P11  1  0.649854  0.150713  0.800241  1
  P  P12  1  0.499234  0.651033  0.852468  1
  P  P13  1  0.651033  0.852468  0.499234  1
  P  P14  1  0.500766  0.348967  0.147532  1
  P  P15  1  0.350146  0.849287  0.199759  1
  P  P16  1  0.199759  0.350146  0.849287  1
