# generated using pymatgen
data_Dy4TmCo19SiP11
_symmetry_space_group_name_H-M   'P 1'
_cell_length_a   11.98566201
_cell_length_b   11.98740781
_cell_length_c   3.67137900
_cell_angle_alpha   90.00000000
_cell_angle_beta   90.00000000
_cell_angle_gamma   119.94630215
_symmetry_Int_Tables_number   1
_chemical_formula_structural   Dy4TmCo19SiP11
_chemical_formula_sum   'Dy4 Tm1 Co19 Si1 P11'
_cell_volume   457.06913847
_cell_formula_units_Z   1
loop_
 _symmetry_equiv_pos_site_id
 _symmetry_equiv_pos_as_xyz
  1  'x, y, z'
loop_
 _atom_site_type_symbol
 _atom_site_label
 _atom_site_symmetry_multiplicity
 _atom_site_fract_x
 _atom_site_fract_y
 _atom_site_fract_z
 _atom_site_occupancy
  Dy  Dy0  1  0.665971  0.334202  0.000000  1
  Dy  Dy1  1  0.185028  0.184713  0.500000  1
  Dy  Dy2  1  0.812519  0.000767  0.500000  1
  Dy  Dy3  1  0.000328  0.812288  0.500000  1
  Tm  Tm4  1  0.334240  0.665943  0.000000  1
  Co  Co5  1  0.821053  0.199645  0.000000  1
  Co  Co6  1  0.801471  0.623600  0.000000  1
  Co  Co7  1  0.378069  0.173862  0.000000  1
  Co  Co8  1  0.199676  0.819969  0.000000  1
  Co  Co9  1  0.622558  0.801469  0.000000  1
  Co  Co10  1  0.174969  0.379239  0.000000  1
  Co  Co11  1  0.558057  0.558144  0.000000  1
  Co  Co12  1  0.445879  0.996662  0.000000  1
  Co  Co13  1  0.996787  0.445963  0.000000  1
  Co  Co14  1  0.640676  0.124286  0.500000  1
  Co  Co15  1  0.874434  0.516674  0.500000  1
  Co  Co16  1  0.485716  0.358791  0.500000  1
  Co  Co17  1  0.125246  0.640402  0.500000  1
  Co  Co18  1  0.515253  0.873464  0.500000  1
  Co  Co19  1  0.359182  0.486953  0.500000  1
  Co  Co20  1  0.716315  0.717123  0.500000  1
  Co  Co21  1  0.285067  0.997576  0.500000  1
  Co  Co22  1  0.999147  0.285781  0.500000  1
  Co  Co23  1  0.000852  0.000789  0.000000  1
  Si  Si24  1  0.369394  0.369425  0.000000  1
  P  P25  1  0.631326  0.999969  0.000000  1
  P  P26  1  0.999788  0.631291  0.000000  1
  P  P27  1  0.832985  0.313996  0.500000  1
  P  P28  1  0.685924  0.521587  0.500000  1
  P  P29  1  0.479636  0.165947  0.500000  1
  P  P30  1  0.313629  0.831220  0.500000  1
  P  P31  1  0.520332  0.686379  0.500000  1
  P  P32  1  0.167569  0.480998  0.500000  1
  P  P33  1  0.819739  0.820218  0.000000  1
  P  P34  1  0.181369  0.998754  0.000000  1
  P  P35  1  0.999818  0.181910  0.000000  1
