# generated using pymatgen
data_RbLiSi2O5
_symmetry_space_group_name_H-M   'P 1'
_cell_length_a   4.87450900
_cell_length_b   6.08470022
_cell_length_c   8.30369300
_cell_angle_alpha   86.56193253
_cell_angle_beta   90.00000000
_cell_angle_gamma   90.00000000
_symmetry_Int_Tables_number   1
_chemical_formula_structural   RbLiSi2O5
_chemical_formula_sum   'Rb2 Li2 Si4 O10'
_cell_volume   245.84365353
_cell_formula_units_Z   2
loop_
 _symmetry_equiv_pos_site_id
 _symmetry_equiv_pos_as_xyz
  1  'x, y, z'
loop_
 _atom_site_type_symbol
 _atom_site_label
 _atom_site_symmetry_multiplicity
 _atom_site_fract_x
 _atom_site_fract_y
 _atom_site_fract_z
 _atom_site_occupancy
  Rb  Rb0  1  0.311088  0.037149  0.316659  1
  Rb  Rb1  1  0.811088  0.962851  0.683341  1
  Li  Li2  1  0.302461  0.129005  0.906958  1
  Li  Li3  1  0.802461  0.870995  0.093042  1
  Si  Si4  1  0.780009  0.369592  0.063851  1
  Si  Si5  1  0.863982  0.556819  0.392191  1
  Si  Si6  1  0.363982  0.443181  0.607809  1
  Si  Si7  1  0.280009  0.630408  0.936149  1
  O  O8  1  0.652435  0.146093  0.009130  1
  O  O9  1  0.807641  0.802111  0.323185  1
  O  O10  1  0.601817  0.593353  0.001883  1
  O  O11  1  0.191264  0.518672  0.441952  1
  O  O12  1  0.296001  0.633811  0.737438  1
  O  O13  1  0.796001  0.366189  0.262562  1
  O  O14  1  0.101817  0.406647  0.998117  1
  O  O15  1  0.691264  0.481328  0.558048  1
  O  O16  1  0.307641  0.197889  0.676815  1
  O  O17  1  0.152435  0.853907  0.990870  1
