# generated using pymatgen
data_PrTm11Tc4
_symmetry_space_group_name_H-M   'P 1'
_cell_length_a   6.15373600
_cell_length_b   7.38943960
_cell_length_c   9.00464900
_cell_angle_alpha   90.00000000
_cell_angle_beta   90.00000000
_cell_angle_gamma   90.05653251
_symmetry_Int_Tables_number   1
_chemical_formula_structural   PrTm11Tc4
_chemical_formula_sum   'Pr1 Tm11 Tc4'
_cell_volume   409.46514729
_cell_formula_units_Z   1
loop_
 _symmetry_equiv_pos_site_id
 _symmetry_equiv_pos_as_xyz
  1  'x, y, z'
loop_
 _atom_site_type_symbol
 _atom_site_label
 _atom_site_symmetry_multiplicity
 _atom_site_fract_x
 _atom_site_fract_y
 _atom_site_fract_z
 _atom_site_occupancy
  Pr  Pr0  1  0.622988  0.039233  0.250000  1
  Tm  Tm1  1  0.126321  0.458984  0.750000  1
  Tm  Tm2  1  0.656221  0.326885  0.935873  1
  Tm  Tm3  1  0.375936  0.961248  0.750000  1
  Tm  Tm4  1  0.876214  0.539322  0.250000  1
  Tm  Tm5  1  0.155032  0.176170  0.439711  1
  Tm  Tm6  1  0.844722  0.822533  0.564515  1
  Tm  Tm7  1  0.155032  0.176170  0.060289  1
  Tm  Tm8  1  0.844722  0.822533  0.935485  1
  Tm  Tm9  1  0.656221  0.326885  0.564127  1
  Tm  Tm10  1  0.341677  0.675214  0.061063  1
  Tm  Tm11  1  0.341677  0.675214  0.438937  1
  Tc  Tc12  1  0.543860  0.616052  0.750000  1
  Tc  Tc13  1  0.956520  0.115657  0.750000  1
  Tc  Tc14  1  0.046575  0.881684  0.250000  1
  Tc  Tc15  1  0.456282  0.386217  0.250000  1
