# generated using pymatgen
data_Pr8GePBr12
_symmetry_space_group_name_H-M   'P 1'
_cell_length_a   4.25521900
_cell_length_b   13.75489325
_cell_length_c   14.60943536
_cell_angle_alpha   90.06532722
_cell_angle_beta   90.00000000
_cell_angle_gamma   90.00000000
_symmetry_Int_Tables_number   1
_chemical_formula_structural   Pr8GePBr12
_chemical_formula_sum   'Pr8 Ge1 P1 Br12'
_cell_volume   855.09090976
_cell_formula_units_Z   1
loop_
 _symmetry_equiv_pos_site_id
 _symmetry_equiv_pos_as_xyz
  1  'x, y, z'
loop_
 _atom_site_type_symbol
 _atom_site_label
 _atom_site_symmetry_multiplicity
 _atom_site_fract_x
 _atom_site_fract_y
 _atom_site_fract_z
 _atom_site_occupancy
  Pr  Pr0  1  0.500000  0.116846  0.343077  1
  Pr  Pr1  1  0.500000  0.883154  0.656923  1
  Pr  Pr2  1  0.500000  0.620563  0.161565  1
  Pr  Pr3  1  0.500000  0.379437  0.838435  1
  Pr  Pr4  1  0.000000  0.114474  0.575736  1
  Pr  Pr5  1  0.000000  0.885526  0.424264  1
  Pr  Pr6  1  0.000000  0.621543  0.919430  1
  Pr  Pr7  1  0.000000  0.378457  0.080570  1
  Ge  Ge8  1  0.500000  0.500000  0.000000  1
  P  P9  1  0.500000  0.000000  0.500000  1
  Br  Br10  1  0.500000  0.241923  0.163942  1
  Br  Br11  1  0.500000  0.758077  0.836058  1
  Br  Br12  1  0.500000  0.746528  0.340086  1
  Br  Br13  1  0.500000  0.253472  0.659914  1
  Br  Br14  1  0.000000  0.253534  0.411440  1
  Br  Br15  1  0.000000  0.746466  0.588560  1
  Br  Br16  1  0.000000  0.755032  0.088899  1
  Br  Br17  1  0.000000  0.244968  0.911101  1
  Br  Br18  1  0.000000  0.001791  0.245151  1
  Br  Br19  1  0.000000  0.998209  0.754849  1
  Br  Br20  1  0.000000  0.501919  0.256267  1
  Br  Br21  1  0.000000  0.498081  0.743733  1
