# generated using pymatgen
data_Er2MgSi2Rh5
_symmetry_space_group_name_H-M   'P 1'
_cell_length_a   9.88192500
_cell_length_b   9.88192500
_cell_length_c   3.40262600
_cell_angle_alpha   90.00000000
_cell_angle_beta   90.00000000
_cell_angle_gamma   90.00000000
_symmetry_Int_Tables_number   1
_chemical_formula_structural   Er2MgSi2Rh5
_chemical_formula_sum   'Er4 Mg2 Si4 Rh10'
_cell_volume   332.27473711
_cell_formula_units_Z   2
loop_
 _symmetry_equiv_pos_site_id
 _symmetry_equiv_pos_as_xyz
  1  'x, y, z'
loop_
 _atom_site_type_symbol
 _atom_site_label
 _atom_site_symmetry_multiplicity
 _atom_site_fract_x
 _atom_site_fract_y
 _atom_site_fract_z
 _atom_site_occupancy
  Er  Er0  1  0.674074  0.174074  0.000000  1
  Er  Er1  1  0.325926  0.825926  0.000000  1
  Er  Er2  1  0.174074  0.325926  0.000000  1
  Er  Er3  1  0.825926  0.674074  0.000000  1
  Mg  Mg4  1  0.000000  0.000000  0.000000  1
  Mg  Mg5  1  0.500000  0.500000  0.000000  1
  Si  Si6  1  0.125367  0.625367  0.000000  1
  Si  Si7  1  0.874633  0.374633  0.000000  1
  Si  Si8  1  0.625367  0.874633  0.000000  1
  Si  Si9  1  0.374633  0.125367  0.000000  1
  Rh  Rh10  1  0.500000  0.000000  0.500000  1
  Rh  Rh11  1  0.000000  0.500000  0.500000  1
  Rh  Rh12  1  0.215955  0.068431  0.500000  1
  Rh  Rh13  1  0.784045  0.931569  0.500000  1
  Rh  Rh14  1  0.068431  0.784045  0.500000  1
  Rh  Rh15  1  0.715955  0.431569  0.500000  1
  Rh  Rh16  1  0.931569  0.215955  0.500000  1
  Rh  Rh17  1  0.284045  0.568431  0.500000  1
  Rh  Rh18  1  0.568431  0.715955  0.500000  1
  Rh  Rh19  1  0.431569  0.284045  0.500000  1
