# generated using pymatgen
data_Gd2DyAl3Si2Pt
_symmetry_space_group_name_H-M   'P 1'
_cell_length_a   6.92831890
_cell_length_b   6.93719826
_cell_length_c   4.23410500
_cell_angle_alpha   90.00000000
_cell_angle_beta   90.00000000
_cell_angle_gamma   120.04239800
_symmetry_Int_Tables_number   1
_chemical_formula_structural   Gd2DyAl3Si2Pt
_chemical_formula_sum   'Gd2 Dy1 Al3 Si2 Pt1'
_cell_volume   176.16455405
_cell_formula_units_Z   1
loop_
 _symmetry_equiv_pos_site_id
 _symmetry_equiv_pos_as_xyz
  1  'x, y, z'
loop_
 _atom_site_type_symbol
 _atom_site_label
 _atom_site_symmetry_multiplicity
 _atom_site_fract_x
 _atom_site_fract_y
 _atom_site_fract_z
 _atom_site_occupancy
  Gd  Gd0  1  0.581909  0.000275  0.000000  1
  Gd  Gd1  1  0.418091  0.418364  0.000000  1
  Dy  Dy2  1  0.000000  0.583037  0.000000  1
  Al  Al3  1  0.236303  0.999528  0.499999  1
  Al  Al4  1  0.000000  0.236994  0.499999  1
  Al  Al5  1  0.763697  0.763225  0.499999  1
  Si  Si6  1  0.668167  0.334335  0.499999  1
  Si  Si7  1  0.331832  0.666169  0.499999  1
  Pt  Pt8  1  0.000000  0.998073  0.000000  1
