# generated using pymatgen
data_K(YbB8)3
_symmetry_space_group_name_H-M   'P 1'
_cell_length_a   7.17551038
_cell_length_b   7.17551118
_cell_length_c   5.88152300
_cell_angle_alpha   90.00000000
_cell_angle_beta   90.00000000
_cell_angle_gamma   109.36139316
_symmetry_Int_Tables_number   1
_chemical_formula_structural   K(YbB8)3
_chemical_formula_sum   'K1 Yb3 B24'
_cell_volume   285.70155814
_cell_formula_units_Z   1
loop_
 _symmetry_equiv_pos_site_id
 _symmetry_equiv_pos_as_xyz
  1  'x, y, z'
loop_
 _atom_site_type_symbol
 _atom_site_label
 _atom_site_symmetry_multiplicity
 _atom_site_fract_x
 _atom_site_fract_y
 _atom_site_fract_z
 _atom_site_occupancy
  K  K0  1  0.000000  0.000000  0.000000  1
  Yb  Yb1  1  0.751104  0.248896  0.500000  1
  Yb  Yb2  1  0.500000  0.500000  0.000000  1
  Yb  Yb3  1  0.248896  0.751104  0.500000  1
  B  B4  1  0.176836  0.326968  0.649264  1
  B  B5  1  0.923761  0.573925  0.149192  1
  B  B6  1  0.673032  0.823164  0.649264  1
  B  B7  1  0.426075  0.076239  0.149192  1
  B  B8  1  0.176836  0.326968  0.350736  1
  B  B9  1  0.923761  0.573925  0.850808  1
  B  B10  1  0.673032  0.823164  0.350736  1
  B  B11  1  0.426075  0.076239  0.850808  1
  B  B12  1  0.400691  0.400691  0.500000  1
  B  B13  1  0.148929  0.650664  0.000000  1
  B  B14  1  0.898774  0.898774  0.500000  1
  B  B15  1  0.650664  0.148929  0.000000  1
  B  B16  1  0.326968  0.176836  0.649264  1
  B  B17  1  0.076239  0.426075  0.149192  1
  B  B18  1  0.823164  0.673032  0.649264  1
  B  B19  1  0.573925  0.923761  0.149192  1
  B  B20  1  0.101226  0.101226  0.500000  1
  B  B21  1  0.851071  0.349336  0.000000  1
  B  B22  1  0.599309  0.599309  0.500000  1
  B  B23  1  0.349336  0.851071  0.000000  1
  B  B24  1  0.326968  0.176836  0.350736  1
  B  B25  1  0.076239  0.426075  0.850808  1
  B  B26  1  0.823164  0.673032  0.350736  1
  B  B27  1  0.573925  0.923761  0.850808  1
