# generated using pymatgen
data_SmHo(PdO2)4
_symmetry_space_group_name_H-M   'P 1'
_cell_length_a   6.54216526
_cell_length_b   6.54216587
_cell_length_c   6.54216586
_cell_angle_alpha   126.88221604
_cell_angle_beta   126.88222849
_cell_angle_gamma   78.44291686
_symmetry_Int_Tables_number   1
_chemical_formula_structural   SmHo(PdO2)4
_chemical_formula_sum   'Sm1 Ho1 Pd4 O8'
_cell_volume   173.46250910
_cell_formula_units_Z   1
loop_
 _symmetry_equiv_pos_site_id
 _symmetry_equiv_pos_as_xyz
  1  'x, y, z'
loop_
 _atom_site_type_symbol
 _atom_site_label
 _atom_site_symmetry_multiplicity
 _atom_site_fract_x
 _atom_site_fract_y
 _atom_site_fract_z
 _atom_site_occupancy
  Sm  Sm0  1  0.000000  0.000000  0.000000  1
  Ho  Ho1  1  0.750000  0.250000  0.500000  1
  Pd  Pd2  1  0.373958  0.624154  0.248319  1
  Pd  Pd3  1  0.874361  0.626042  0.250195  1
  Pd  Pd4  1  0.375835  0.125639  0.751681  1
  Pd  Pd5  1  0.375846  0.624165  0.749805  1
  O  O6  1  0.992485  0.962186  0.352536  1
  O  O7  1  0.704166  0.861579  0.458851  1
  O  O8  1  0.402728  0.245317  0.541149  1
  O  O9  1  0.609650  0.639948  0.647464  1
  O  O10  1  0.754683  0.295834  0.157412  1
  O  O11  1  0.037814  0.390350  0.030297  1
  O  O12  1  0.138421  0.597272  0.842588  1
  O  O13  1  0.360052  0.007515  0.969703  1
