# generated using pymatgen
data_Ho20CoBi8IrRu2
_symmetry_space_group_name_H-M   'P 1'
_cell_length_a   7.94202230
_cell_length_b   8.95642700
_cell_length_c   12.38112266
_cell_angle_alpha   90.00000000
_cell_angle_beta   89.73979207
_cell_angle_gamma   90.00000000
_symmetry_Int_Tables_number   1
_chemical_formula_structural   Ho20CoBi8IrRu2
_chemical_formula_sum   'Ho20 Co1 Bi8 Ir1 Ru2'
_cell_volume   880.68670458
_cell_formula_units_Z   1
loop_
 _symmetry_equiv_pos_site_id
 _symmetry_equiv_pos_as_xyz
  1  'x, y, z'
loop_
 _atom_site_type_symbol
 _atom_site_label
 _atom_site_symmetry_multiplicity
 _atom_site_fract_x
 _atom_site_fract_y
 _atom_site_fract_z
 _atom_site_occupancy
  Ho  Ho0  1  0.344906  0.750000  0.701424  1
  Ho  Ho1  1  0.656070  0.250000  0.294122  1
  Ho  Ho2  1  0.842086  0.250000  0.791825  1
  Ho  Ho3  1  0.155431  0.750000  0.205936  1
  Ho  Ho4  1  0.879974  0.750000  0.806274  1
  Ho  Ho5  1  0.121116  0.250000  0.194374  1
  Ho  Ho6  1  0.379996  0.250000  0.692345  1
  Ho  Ho7  1  0.615973  0.750000  0.311793  1
  Ho  Ho8  1  0.675493  0.543495  0.563853  1
  Ho  Ho9  1  0.325081  0.461663  0.436834  1
  Ho  Ho10  1  0.176503  0.458013  0.935003  1
  Ho  Ho11  1  0.325081  0.038337  0.436834  1
  Ho  Ho12  1  0.822789  0.544499  0.065093  1
  Ho  Ho13  1  0.675493  0.956505  0.563853  1
  Ho  Ho14  1  0.822789  0.955501  0.065093  1
  Ho  Ho15  1  0.176503  0.041987  0.935003  1
  Ho  Ho16  1  0.055275  0.750000  0.497320  1
  Ho  Ho17  1  0.947259  0.250000  0.502790  1
  Ho  Ho18  1  0.554720  0.250000  0.002714  1
  Ho  Ho19  1  0.446052  0.750000  0.996270  1
  Co  Co20  1  0.429368  0.750000  0.491041  1
  Bi  Bi21  1  0.570472  0.508747  0.826843  1
  Bi  Bi22  1  0.429153  0.491949  0.172963  1
  Bi  Bi23  1  0.071856  0.491479  0.672301  1
  Bi  Bi24  1  0.429153  0.008051  0.172963  1
  Bi  Bi25  1  0.928682  0.508988  0.328152  1
  Bi  Bi26  1  0.570472  0.991253  0.826843  1
  Bi  Bi27  1  0.928682  0.991012  0.328152  1
  Bi  Bi28  1  0.071856  0.008521  0.672301  1
  Ir  Ir29  1  0.925442  0.250000  0.010063  1
  Ru  Ru30  1  0.073268  0.750000  0.989377  1
  Ru  Ru31  1  0.573009  0.250000  0.510249  1
