# generated using pymatgen
data_RuPt3F24
_symmetry_space_group_name_H-M   'P 1'
_cell_length_a   5.13908869
_cell_length_b   8.99480700
_cell_length_c   9.67936190
_cell_angle_alpha   90.00000000
_cell_angle_beta   90.32291942
_cell_angle_gamma   90.00000000
_symmetry_Int_Tables_number   1
_chemical_formula_structural   RuPt3F24
_chemical_formula_sum   'Ru1 Pt3 F24'
_cell_volume   447.42247128
_cell_formula_units_Z   1
loop_
 _symmetry_equiv_pos_site_id
 _symmetry_equiv_pos_as_xyz
  1  'x, y, z'
loop_
 _atom_site_type_symbol
 _atom_site_label
 _atom_site_symmetry_multiplicity
 _atom_site_fract_x
 _atom_site_fract_y
 _atom_site_fract_z
 _atom_site_occupancy
  Ru  Ru0  1  0.907711  0.750000  0.873393  1
  Pt  Pt1  1  0.408943  0.250000  0.625702  1
  Pt  Pt2  1  0.092509  0.250000  0.126318  1
  Pt  Pt3  1  0.590777  0.750000  0.374512  1
  F  F4  1  0.200718  0.750000  0.986820  1
  F  F5  1  0.706255  0.250000  0.510329  1
  F  F6  1  0.793263  0.250000  0.010448  1
  F  F7  1  0.292240  0.750000  0.489329  1
  F  F8  1  0.613767  0.750000  0.760343  1
  F  F9  1  0.111484  0.250000  0.741414  1
  F  F10  1  0.392614  0.250000  0.241660  1
  F  F11  1  0.889972  0.750000  0.259880  1
  F  F12  1  0.756687  0.895913  0.982600  1
  F  F13  1  0.254243  0.100585  0.513730  1
  F  F14  1  0.245431  0.399215  0.014294  1
  F  F15  1  0.744756  0.600533  0.486942  1
  F  F16  1  0.245431  0.100785  0.014294  1
  F  F17  1  0.744756  0.899467  0.486942  1
  F  F18  1  0.756687  0.604087  0.982600  1
  F  F19  1  0.254243  0.399415  0.513730  1
  F  F20  1  0.058311  0.895590  0.763938  1
  F  F21  1  0.562971  0.100772  0.738131  1
  F  F22  1  0.940109  0.398815  0.238586  1
  F  F23  1  0.437366  0.600836  0.261706  1
  F  F24  1  0.940109  0.101185  0.238586  1
  F  F25  1  0.437366  0.899164  0.261706  1
  F  F26  1  0.058311  0.604410  0.763938  1
  F  F27  1  0.562971  0.399228  0.738131  1
