# generated using pymatgen
data_K3AsRhCl9
_symmetry_space_group_name_H-M   'P 1'
_cell_length_a   7.06223600
_cell_length_b   7.06223619
_cell_length_c   18.33551300
_cell_angle_alpha   90.00000000
_cell_angle_beta   90.00000000
_cell_angle_gamma   119.99999912
_symmetry_Int_Tables_number   1
_chemical_formula_structural   K3AsRhCl9
_chemical_formula_sum   'K6 As2 Rh2 Cl18'
_cell_volume   791.96896866
_cell_formula_units_Z   2
loop_
 _symmetry_equiv_pos_site_id
 _symmetry_equiv_pos_as_xyz
  1  'x, y, z'
loop_
 _atom_site_type_symbol
 _atom_site_label
 _atom_site_symmetry_multiplicity
 _atom_site_fract_x
 _atom_site_fract_y
 _atom_site_fract_z
 _atom_site_occupancy
  K  K0  1  0.666667  0.333333  0.913659  1
  K  K1  1  0.333333  0.666667  0.413659  1
  K  K2  1  0.666667  0.333333  0.549844  1
  K  K3  1  0.333333  0.666667  0.049844  1
  K  K4  1  0.000000  0.000000  0.772666  1
  K  K5  1  0.000000  0.000000  0.272666  1
  As  As6  1  0.333333  0.666667  0.653065  1
  As  As7  1  0.666667  0.333333  0.153065  1
  Rh  Rh8  1  0.666667  0.333333  0.336919  1
  Rh  Rh9  1  0.333333  0.666667  0.836919  1
  Cl  Cl10  1  0.823723  0.647445  0.410759  1
  Cl  Cl11  1  0.176277  0.352555  0.910759  1
  Cl  Cl12  1  0.176277  0.823723  0.910759  1
  Cl  Cl13  1  0.172977  0.345954  0.585469  1
  Cl  Cl14  1  0.647445  0.823723  0.910759  1
  Cl  Cl15  1  0.352555  0.176277  0.410759  1
  Cl  Cl16  1  0.013326  0.506663  0.761721  1
  Cl  Cl17  1  0.823723  0.176277  0.410759  1
  Cl  Cl18  1  0.506663  0.013326  0.261721  1
  Cl  Cl19  1  0.493337  0.506663  0.761721  1
  Cl  Cl20  1  0.506663  0.493337  0.261721  1
  Cl  Cl21  1  0.986674  0.493337  0.261721  1
  Cl  Cl22  1  0.345954  0.172977  0.085469  1
  Cl  Cl23  1  0.493337  0.986674  0.761721  1
  Cl  Cl24  1  0.827023  0.654046  0.085469  1
  Cl  Cl25  1  0.172977  0.827023  0.585469  1
  Cl  Cl26  1  0.654046  0.827023  0.585469  1
  Cl  Cl27  1  0.827023  0.172977  0.085469  1
