# generated using pymatgen
data_Lu10ZnGePb6
_symmetry_space_group_name_H-M   'P 1'
_cell_length_a   9.08859500
_cell_length_b   9.08859425
_cell_length_c   6.54237700
_cell_angle_alpha   90.00000000
_cell_angle_beta   90.00000000
_cell_angle_gamma   120.00000637
_symmetry_Int_Tables_number   1
_chemical_formula_structural   Lu10ZnGePb6
_chemical_formula_sum   'Lu10 Zn1 Ge1 Pb6'
_cell_volume   468.01485353
_cell_formula_units_Z   1
loop_
 _symmetry_equiv_pos_site_id
 _symmetry_equiv_pos_as_xyz
  1  'x, y, z'
loop_
 _atom_site_type_symbol
 _atom_site_label
 _atom_site_symmetry_multiplicity
 _atom_site_fract_x
 _atom_site_fract_y
 _atom_site_fract_z
 _atom_site_occupancy
  Lu  Lu0  1  0.255894  0.000000  0.764392  1
  Lu  Lu1  1  0.744106  0.000000  0.235608  1
  Lu  Lu2  1  0.000000  0.255894  0.764392  1
  Lu  Lu3  1  0.000000  0.744106  0.235608  1
  Lu  Lu4  1  0.744106  0.744106  0.764392  1
  Lu  Lu5  1  0.255894  0.255894  0.235608  1
  Lu  Lu6  1  0.333333  0.666667  0.500000  1
  Lu  Lu7  1  0.666667  0.333333  0.500000  1
  Lu  Lu8  1  0.666667  0.333333  0.000000  1
  Lu  Lu9  1  0.333333  0.666667  0.000000  1
  Zn  Zn10  1  0.000000  0.000000  0.500000  1
  Ge  Ge11  1  0.000000  0.000000  0.000000  1
  Pb  Pb12  1  0.609245  0.000000  0.750696  1
  Pb  Pb13  1  0.390755  0.000000  0.249304  1
  Pb  Pb14  1  0.000000  0.609245  0.750696  1
  Pb  Pb15  1  0.000000  0.390755  0.249304  1
  Pb  Pb16  1  0.390755  0.390755  0.750696  1
  Pb  Pb17  1  0.609245  0.609245  0.249304  1
