# generated using pymatgen
data_Ba12Si3BiI8
_symmetry_space_group_name_H-M   'P 1'
_cell_length_a   8.70026581
_cell_length_b   8.83387489
_cell_length_c   15.89301504
_cell_angle_alpha   100.89702605
_cell_angle_beta   100.57231145
_cell_angle_gamma   108.94687511
_symmetry_Int_Tables_number   1
_chemical_formula_structural   Ba12Si3BiI8
_chemical_formula_sum   'Ba12 Si3 Bi1 I8'
_cell_volume   1094.34239054
_cell_formula_units_Z   1
loop_
 _symmetry_equiv_pos_site_id
 _symmetry_equiv_pos_as_xyz
  1  'x, y, z'
loop_
 _atom_site_type_symbol
 _atom_site_label
 _atom_site_symmetry_multiplicity
 _atom_site_fract_x
 _atom_site_fract_y
 _atom_site_fract_z
 _atom_site_occupancy
  Ba  Ba0  1  0.308338  0.043717  0.065735  1
  Ba  Ba1  1  0.757397  0.522019  0.065735  1
  Ba  Ba2  1  0.845383  0.094595  0.260439  1
  Ba  Ba3  1  0.415056  0.665844  0.260439  1
  Ba  Ba4  1  0.469992  0.179900  0.433765  1
  Ba  Ba5  1  0.963773  0.753866  0.433765  1
  Ba  Ba6  1  0.036846  0.246861  0.568532  1
  Ba  Ba7  1  0.531686  0.821670  0.568532  1
  Ba  Ba8  1  0.581611  0.334010  0.748536  1
  Ba  Ba9  1  0.166925  0.914526  0.748536  1
  Ba  Ba10  1  0.240023  0.446801  0.923243  1
  Ba  Ba11  1  0.683220  0.976441  0.923243  1
  Si  Si12  1  0.709253  0.959253  0.418505  1
  Si  Si13  1  0.291200  0.041200  0.582401  1
  Si  Si14  1  0.459045  0.209045  0.918091  1
  Bi  Bi15  1  0.540639  0.790639  0.081277  1
  I  I16  1  0.046457  0.296457  0.092915  1
  I  I17  1  0.121160  0.871160  0.242320  1
  I  I18  1  0.627892  0.377891  0.255784  1
  I  I19  1  0.204252  0.454252  0.408505  1
  I  I20  1  0.796939  0.546939  0.593879  1
  I  I21  1  0.372061  0.622062  0.744122  1
  I  I22  1  0.877154  0.127154  0.754307  1
  I  I23  1  0.953696  0.703696  0.907392  1
