# generated using pymatgen
data_YbSc8(In2Co)7
_symmetry_space_group_name_H-M   'P 1'
_cell_length_a   9.46100417
_cell_length_b   9.46100430
_cell_length_c   9.46100400
_cell_angle_alpha   60.00000105
_cell_angle_beta   60.00000058
_cell_angle_gamma   60.00000490
_symmetry_Int_Tables_number   1
_chemical_formula_structural   YbSc8(In2Co)7
_chemical_formula_sum   'Yb1 Sc8 In14 Co7'
_cell_volume   598.82058788
_cell_formula_units_Z   1
loop_
 _symmetry_equiv_pos_site_id
 _symmetry_equiv_pos_as_xyz
  1  'x, y, z'
loop_
 _atom_site_type_symbol
 _atom_site_label
 _atom_site_symmetry_multiplicity
 _atom_site_fract_x
 _atom_site_fract_y
 _atom_site_fract_z
 _atom_site_occupancy
  Yb  Yb0  1  0.500000  0.500000  0.500000  1
  Sc  Sc1  1  0.117621  0.647137  0.117621  1
  Sc  Sc2  1  0.352863  0.882379  0.882379  1
  Sc  Sc3  1  0.882379  0.882379  0.882379  1
  Sc  Sc4  1  0.647137  0.117621  0.117621  1
  Sc  Sc5  1  0.882379  0.882379  0.352863  1
  Sc  Sc6  1  0.117621  0.117621  0.117621  1
  Sc  Sc7  1  0.882379  0.352863  0.882379  1
  Sc  Sc8  1  0.117621  0.117621  0.647137  1
  In  In9  1  0.500000  0.843902  0.156098  1
  In  In10  1  0.500000  0.843902  0.500000  1
  In  In11  1  0.500000  0.156098  0.500000  1
  In  In12  1  0.500000  0.500000  0.843902  1
  In  In13  1  0.156098  0.500000  0.500000  1
  In  In14  1  0.843902  0.156098  0.500000  1
  In  In15  1  0.156098  0.843902  0.500000  1
  In  In16  1  0.500000  0.156098  0.843902  1
  In  In17  1  0.156098  0.500000  0.843902  1
  In  In18  1  0.500000  0.500000  0.156098  1
  In  In19  1  0.843902  0.500000  0.500000  1
  In  In20  1  0.843902  0.500000  0.156098  1
  In  In21  1  0.250000  0.250000  0.250000  1
  In  In22  1  0.750000  0.750000  0.750000  1
  Co  Co23  1  0.773051  0.773051  0.226949  1
  Co  Co24  1  0.000000  0.000000  0.000000  1
  Co  Co25  1  0.226949  0.773051  0.226949  1
  Co  Co26  1  0.226949  0.773051  0.773051  1
  Co  Co27  1  0.226949  0.226949  0.773051  1
  Co  Co28  1  0.773051  0.226949  0.773051  1
  Co  Co29  1  0.773051  0.226949  0.226949  1
