# generated using pymatgen
data_La13Th(Ir2Pt)2
_symmetry_space_group_name_H-M   'P 1'
_cell_length_a   6.54899533
_cell_length_b   10.25201363
_cell_length_c   10.25413550
_cell_angle_alpha   119.99388000
_cell_angle_beta   90.09303647
_cell_angle_gamma   89.99584525
_symmetry_Int_Tables_number   1
_chemical_formula_structural   La13Th(Ir2Pt)2
_chemical_formula_sum   'La13 Th1 Ir4 Pt2'
_cell_volume   596.26537128
_cell_formula_units_Z   1
loop_
 _symmetry_equiv_pos_site_id
 _symmetry_equiv_pos_as_xyz
  1  'x, y, z'
loop_
 _atom_site_type_symbol
 _atom_site_label
 _atom_site_symmetry_multiplicity
 _atom_site_fract_x
 _atom_site_fract_y
 _atom_site_fract_z
 _atom_site_occupancy
  La  La0  1  0.969014  0.668800  0.337588  1
  La  La1  1  0.247818  0.123248  0.867253  1
  La  La2  1  0.247857  0.743951  0.867242  1
  La  La3  1  0.248630  0.129577  0.259173  1
  La  La4  1  0.739656  0.874766  0.126014  1
  La  La5  1  0.739632  0.251283  0.126020  1
  La  La6  1  0.745927  0.874445  0.748885  1
  La  La7  1  0.439984  0.540877  0.467219  1
  La  La8  1  0.439960  0.926279  0.467206  1
  La  La9  1  0.442789  0.534112  0.068206  1
  La  La10  1  0.939427  0.461670  0.540645  1
  La  La11  1  0.939311  0.078950  0.540596  1
  La  La12  1  0.942493  0.460680  0.921329  1
  Th  Th13  1  0.482644  0.333161  0.666301  1
  Ir  Ir14  1  0.192314  0.810739  0.621493  1
  Ir  Ir15  1  0.685857  0.192131  0.808907  1
  Ir  Ir16  1  0.685880  0.616799  0.808906  1
  Ir  Ir17  1  0.687367  0.191271  0.382500  1
  Pt  Pt18  1  0.192706  0.810728  0.187257  1
  Pt  Pt19  1  0.192730  0.376529  0.187259  1
