# generated using pymatgen
data_Ba2HoBrO3
_symmetry_space_group_name_H-M   'P 1'
_cell_length_a   4.43869200
_cell_length_b   4.43869200
_cell_length_c   15.56016200
_cell_angle_alpha   90.00000000
_cell_angle_beta   90.00000000
_cell_angle_gamma   90.00000000
_symmetry_Int_Tables_number   1
_chemical_formula_structural   Ba2HoBrO3
_chemical_formula_sum   'Ba4 Ho2 Br2 O6'
_cell_volume   306.56610432
_cell_formula_units_Z   2
loop_
 _symmetry_equiv_pos_site_id
 _symmetry_equiv_pos_as_xyz
  1  'x, y, z'
loop_
 _atom_site_type_symbol
 _atom_site_label
 _atom_site_symmetry_multiplicity
 _atom_site_fract_x
 _atom_site_fract_y
 _atom_site_fract_z
 _atom_site_occupancy
  Ba  Ba0  1  0.000000  0.500000  0.660680  1
  Ba  Ba1  1  0.500000  0.000000  0.339320  1
  Ba  Ba2  1  0.500000  0.000000  0.091759  1
  Ba  Ba3  1  0.000000  0.500000  0.908241  1
  Ho  Ho4  1  0.000000  0.500000  0.209068  1
  Ho  Ho5  1  0.500000  0.000000  0.790932  1
  Br  Br6  1  0.500000  0.000000  0.578056  1
  Br  Br7  1  0.000000  0.500000  0.421944  1
  O  O8  1  0.000000  0.000000  0.769434  1
  O  O9  1  0.500000  0.500000  0.769434  1
  O  O10  1  0.000000  0.000000  0.230566  1
  O  O11  1  0.500000  0.000000  0.927831  1
  O  O12  1  0.500000  0.500000  0.230566  1
  O  O13  1  0.000000  0.500000  0.072169  1
