# generated using pymatgen
data_YThNi2Hg
_symmetry_space_group_name_H-M   'P 1'
_cell_length_a   7.51548643
_cell_length_b   7.51548642
_cell_length_c   3.67178000
_cell_angle_alpha   90.00000000
_cell_angle_beta   90.00000000
_cell_angle_gamma   92.79316294
_symmetry_Int_Tables_number   1
_chemical_formula_structural   YThNi2Hg
_chemical_formula_sum   'Y2 Th2 Ni4 Hg2'
_cell_volume   207.14505743
_cell_formula_units_Z   2
loop_
 _symmetry_equiv_pos_site_id
 _symmetry_equiv_pos_as_xyz
  1  'x, y, z'
loop_
 _atom_site_type_symbol
 _atom_site_label
 _atom_site_symmetry_multiplicity
 _atom_site_fract_x
 _atom_site_fract_y
 _atom_site_fract_z
 _atom_site_occupancy
  Y  Y0  1  0.173444  0.326556  0.500000  1
  Y  Y1  1  0.826556  0.673444  0.500000  1
  Th  Th2  1  0.675934  0.175934  0.500000  1
  Th  Th3  1  0.324066  0.824066  0.500000  1
  Ni  Ni4  1  0.122750  0.622750  0.000000  1
  Ni  Ni5  1  0.877250  0.377250  0.000000  1
  Ni  Ni6  1  0.617550  0.882450  0.000000  1
  Ni  Ni7  1  0.382450  0.117550  0.000000  1
  Hg  Hg8  1  0.500000  0.500000  0.000000  1
  Hg  Hg9  1  0.000000  0.000000  0.000000  1
