# generated using pymatgen
data_Fe6Mo12PtRhN4
_symmetry_space_group_name_H-M   'P 1'
_cell_length_a   6.75038413
_cell_length_b   6.74625413
_cell_length_c   6.76526764
_cell_angle_alpha   90.42088094
_cell_angle_beta   89.99577817
_cell_angle_gamma   89.99274020
_symmetry_Int_Tables_number   1
_chemical_formula_structural   Fe6Mo12PtRhN4
_chemical_formula_sum   'Fe6 Mo12 Pt1 Rh1 N4'
_cell_volume   308.08066536
_cell_formula_units_Z   1
loop_
 _symmetry_equiv_pos_site_id
 _symmetry_equiv_pos_as_xyz
  1  'x, y, z'
loop_
 _atom_site_type_symbol
 _atom_site_label
 _atom_site_symmetry_multiplicity
 _atom_site_fract_x
 _atom_site_fract_y
 _atom_site_fract_z
 _atom_site_occupancy
  Fe  Fe0  1  0.818184  0.680392  0.566745  1
  Fe  Fe1  1  0.318483  0.319465  0.433670  1
  Fe  Fe2  1  0.067169  0.564751  0.327409  1
  Fe  Fe3  1  0.429154  0.079705  0.192547  1
  Fe  Fe4  1  0.568096  0.433616  0.674527  1
  Fe  Fe5  1  0.925384  0.922704  0.806317  1
  Mo  Mo6  1  0.622580  0.049855  0.542259  1
  Mo  Mo7  1  0.122364  0.951306  0.459121  1
  Mo  Mo8  1  0.875157  0.548771  0.952186  1
  Mo  Mo9  1  0.377162  0.448819  0.046778  1
  Mo  Mo10  1  0.207846  0.616096  0.698621  1
  Mo  Mo11  1  0.297815  0.127514  0.798701  1
  Mo  Mo12  1  0.795394  0.873536  0.201644  1
  Mo  Mo13  1  0.707727  0.382880  0.300237  1
  Mo  Mo14  1  0.051071  0.208764  0.130827  1
  Mo  Mo15  1  0.950182  0.294539  0.625942  1
  Mo  Mo16  1  0.553101  0.792344  0.868248  1
  Mo  Mo17  1  0.450957  0.704595  0.374852  1
  Pt  Pt18  1  0.184319  0.816247  0.064754  1
  Rh  Rh19  1  0.684103  0.184199  0.934875  1
  N  N20  1  0.373072  0.873362  0.626873  1
  N  N21  1  0.872890  0.126642  0.373047  1
  N  N22  1  0.123946  0.373594  0.878630  1
  N  N23  1  0.623846  0.626303  0.121187  1
