# generated using pymatgen
data_Ho2Fe4SiPC2
_symmetry_space_group_name_H-M   'P 1'
_cell_length_a   5.50742388
_cell_length_b   5.50742361
_cell_length_c   6.70492200
_cell_angle_alpha   90.00000000
_cell_angle_beta   90.00000000
_cell_angle_gamma   140.86039951
_symmetry_Int_Tables_number   1
_chemical_formula_structural   Ho2Fe4SiPC2
_chemical_formula_sum   'Ho2 Fe4 Si1 P1 C2'
_cell_volume   128.37072145
_cell_formula_units_Z   1
loop_
 _symmetry_equiv_pos_site_id
 _symmetry_equiv_pos_as_xyz
  1  'x, y, z'
loop_
 _atom_site_type_symbol
 _atom_site_label
 _atom_site_symmetry_multiplicity
 _atom_site_fract_x
 _atom_site_fract_y
 _atom_site_fract_z
 _atom_site_occupancy
  Ho  Ho0  1  0.549611  0.450389  0.250000  1
  Ho  Ho1  1  0.450589  0.549411  0.750000  1
  Fe  Fe2  1  0.834178  0.165822  0.064380  1
  Fe  Fe3  1  0.166519  0.833481  0.945899  1
  Fe  Fe4  1  0.166519  0.833481  0.554101  1
  Fe  Fe5  1  0.834178  0.165822  0.435620  1
  Si  Si6  1  0.730170  0.269830  0.750000  1
  P  P7  1  0.269430  0.730570  0.250000  1
  C  C8  1  0.999403  0.000597  0.998818  1
  C  C9  1  0.999403  0.000597  0.501182  1
