# generated using pymatgen
data_Th8Sc12GaSi15
_symmetry_space_group_name_H-M   'P 1'
_cell_length_a   7.24985230
_cell_length_b   7.48769153
_cell_length_c   14.26769044
_cell_angle_alpha   89.88894189
_cell_angle_beta   90.01713749
_cell_angle_gamma   89.96132860
_symmetry_Int_Tables_number   1
_chemical_formula_structural   Th8Sc12GaSi15
_chemical_formula_sum   'Th8 Sc12 Ga1 Si15'
_cell_volume   774.51502584
_cell_formula_units_Z   1
loop_
 _symmetry_equiv_pos_site_id
 _symmetry_equiv_pos_as_xyz
  1  'x, y, z'
loop_
 _atom_site_type_symbol
 _atom_site_label
 _atom_site_symmetry_multiplicity
 _atom_site_fract_x
 _atom_site_fract_y
 _atom_site_fract_z
 _atom_site_occupancy
  Th  Th0  1  0.007272  0.172071  0.096246  1
  Th  Th1  1  0.992343  0.828309  0.903752  1
  Th  Th2  1  0.493176  0.672935  0.903680  1
  Th  Th3  1  0.991560  0.830775  0.597637  1
  Th  Th4  1  0.507087  0.327488  0.096348  1
  Th  Th5  1  0.005195  0.169378  0.401945  1
  Th  Th6  1  0.510335  0.326035  0.401400  1
  Th  Th7  1  0.494627  0.675673  0.597360  1
  Sc  Sc8  1  0.160161  0.502595  0.752733  1
  Sc  Sc9  1  0.839304  0.497007  0.248761  1
  Sc  Sc10  1  0.339954  0.001899  0.249360  1
  Sc  Sc11  1  0.660417  0.997369  0.750544  1
  Sc  Sc12  1  0.335661  0.170854  0.626214  1
  Sc  Sc13  1  0.666437  0.826016  0.374732  1
  Sc  Sc14  1  0.168193  0.675703  0.373144  1
  Sc  Sc15  1  0.668164  0.825614  0.124606  1
  Sc  Sc16  1  0.827966  0.325359  0.625882  1
  Sc  Sc17  1  0.332284  0.174098  0.875266  1
  Sc  Sc18  1  0.832068  0.326045  0.875227  1
  Sc  Sc19  1  0.167321  0.673812  0.125141  1
  Ga  Ga20  1  0.159089  0.463234  0.539715  1
  Si  Si21  1  0.034532  0.122718  0.750834  1
  Si  Si22  1  0.966111  0.879092  0.249073  1
  Si  Si23  1  0.467225  0.621582  0.249687  1
  Si  Si24  1  0.531924  0.379367  0.750222  1
  Si  Si25  1  0.288753  0.875777  0.750759  1
  Si  Si26  1  0.710542  0.122710  0.248941  1
  Si  Si27  1  0.210411  0.375729  0.249601  1
  Si  Si28  1  0.790463  0.623257  0.750865  1
  Si  Si29  1  0.842324  0.536185  0.460607  1
  Si  Si30  1  0.340092  0.964357  0.459858  1
  Si  Si31  1  0.841278  0.535526  0.039614  1
  Si  Si32  1  0.659011  0.036939  0.539210  1
  Si  Si33  1  0.158553  0.464343  0.960757  1
  Si  Si34  1  0.657902  0.036055  0.960399  1
  Si  Si35  1  0.342263  0.964093  0.039885  1
