# generated using pymatgen
data_Tb2Er5Tm13Pb16
_symmetry_space_group_name_H-M   'P 1'
_cell_length_a   8.14522815
_cell_length_b   8.21110031
_cell_length_c   15.48505908
_cell_angle_alpha   90.00556204
_cell_angle_beta   90.10595949
_cell_angle_gamma   89.98265223
_symmetry_Int_Tables_number   1
_chemical_formula_structural   Tb2Er5Tm13Pb16
_chemical_formula_sum   'Tb2 Er5 Tm13 Pb16'
_cell_volume   1035.65883240
_cell_formula_units_Z   1
loop_
 _symmetry_equiv_pos_site_id
 _symmetry_equiv_pos_as_xyz
  1  'x, y, z'
loop_
 _atom_site_type_symbol
 _atom_site_label
 _atom_site_symmetry_multiplicity
 _atom_site_fract_x
 _atom_site_fract_y
 _atom_site_fract_z
 _atom_site_occupancy
  Tb  Tb0  1  0.035987  0.176764  0.599784  1
  Tb  Tb1  1  0.464035  0.676755  0.400302  1
  Er  Er2  1  0.963682  0.823567  0.099842  1
  Er  Er3  1  0.463716  0.676541  0.099886  1
  Er  Er4  1  0.963861  0.823441  0.400173  1
  Er  Er5  1  0.536121  0.323524  0.599849  1
  Er  Er6  1  0.036243  0.176612  0.900040  1
  Tm  Tm7  1  0.377476  0.841023  0.878898  1
  Tm  Tm8  1  0.877239  0.658908  0.621121  1
  Tm  Tm9  1  0.622737  0.158948  0.378879  1
  Tm  Tm10  1  0.122432  0.340943  0.121108  1
  Tm  Tm11  1  0.622501  0.159054  0.121000  1
  Tm  Tm12  1  0.122606  0.340965  0.378752  1
  Tm  Tm13  1  0.377407  0.841039  0.621258  1
  Tm  Tm14  1  0.877391  0.658907  0.878924  1
  Tm  Tm15  1  0.536478  0.323583  0.900099  1
  Tm  Tm16  1  0.208753  0.504299  0.750144  1
  Tm  Tm17  1  0.708339  0.995572  0.750181  1
  Tm  Tm18  1  0.791581  0.495541  0.249852  1
  Tm  Tm19  1  0.291357  0.004400  0.249897  1
  Pb  Pb20  1  0.281176  0.033241  0.042465  1
  Pb  Pb21  1  0.781816  0.466285  0.457629  1
  Pb  Pb22  1  0.718192  0.966260  0.542385  1
  Pb  Pb23  1  0.219212  0.532931  0.957502  1
  Pb  Pb24  1  0.718568  0.966925  0.957505  1
  Pb  Pb25  1  0.218591  0.533419  0.542658  1
  Pb  Pb26  1  0.281415  0.033391  0.457348  1
  Pb  Pb27  1  0.781043  0.466479  0.042258  1
  Pb  Pb28  1  0.571667  0.627116  0.750019  1
  Pb  Pb29  1  0.071731  0.872611  0.750009  1
  Pb  Pb30  1  0.428254  0.372675  0.249984  1
  Pb  Pb31  1  0.928283  0.127246  0.249981  1
  Pb  Pb32  1  0.348284  0.154007  0.750300  1
  Pb  Pb33  1  0.847366  0.346657  0.750348  1
  Pb  Pb34  1  0.652508  0.846628  0.249703  1
  Pb  Pb35  1  0.151951  0.653743  0.249913  1
