# generated using pymatgen
data_Cs6Cr(GeO4)2
_symmetry_space_group_name_H-M   'P 1'
_cell_length_a   7.16903125
_cell_length_b   7.40560106
_cell_length_c   8.35507429
_cell_angle_alpha   85.68218644
_cell_angle_beta   89.21700373
_cell_angle_gamma   68.99776289
_symmetry_Int_Tables_number   1
_chemical_formula_structural   Cs6Cr(GeO4)2
_chemical_formula_sum   'Cs6 Cr1 Ge2 O8'
_cell_volume   412.89298174
_cell_formula_units_Z   1
loop_
 _symmetry_equiv_pos_site_id
 _symmetry_equiv_pos_as_xyz
  1  'x, y, z'
loop_
 _atom_site_type_symbol
 _atom_site_label
 _atom_site_symmetry_multiplicity
 _atom_site_fract_x
 _atom_site_fract_y
 _atom_site_fract_z
 _atom_site_occupancy
  Cs  Cs0  1  0.200561  0.700703  0.010323  1
  Cs  Cs1  1  0.710225  0.194139  0.473642  1
  Cs  Cs2  1  0.799439  0.299297  0.989677  1
  Cs  Cs3  1  0.661158  0.827466  0.163623  1
  Cs  Cs4  1  0.338842  0.172534  0.836377  1
  Cs  Cs5  1  0.289775  0.805861  0.526358  1
  Cr  Cr6  1  0.000000  0.500000  0.500000  1
  Ge  Ge7  1  0.772485  0.745526  0.729456  1
  Ge  Ge8  1  0.227515  0.254474  0.270544  1
  O  O9  1  0.001943  0.472411  0.255673  1
  O  O10  1  0.755568  0.755094  0.509830  1
  O  O11  1  0.998057  0.527589  0.744327  1
  O  O12  1  0.437476  0.290125  0.177915  1
  O  O13  1  0.811449  0.949830  0.799471  1
  O  O14  1  0.244432  0.244906  0.490170  1
  O  O15  1  0.562524  0.709875  0.822085  1
  O  O16  1  0.188551  0.050170  0.200529  1
