# generated using pymatgen
data_YbYAg2(Ir2O7)2
_symmetry_space_group_name_H-M   'P 1'
_cell_length_a   7.20184750
_cell_length_b   7.14472183
_cell_length_c   7.23718776
_cell_angle_alpha   60.42174720
_cell_angle_beta   61.10632508
_cell_angle_gamma   60.26204585
_symmetry_Int_Tables_number   1
_chemical_formula_structural   YbYAg2(Ir2O7)2
_chemical_formula_sum   'Yb1 Y1 Ag2 Ir4 O14'
_cell_volume   266.83662958
_cell_formula_units_Z   1
loop_
 _symmetry_equiv_pos_site_id
 _symmetry_equiv_pos_as_xyz
  1  'x, y, z'
loop_
 _atom_site_type_symbol
 _atom_site_label
 _atom_site_symmetry_multiplicity
 _atom_site_fract_x
 _atom_site_fract_y
 _atom_site_fract_z
 _atom_site_occupancy
  Yb  Yb0  1  0.125000  0.125000  0.625000  1
  Y  Y1  1  0.625000  0.125000  0.125000  1
  Ag  Ag2  1  0.125000  0.625000  0.125000  1
  Ag  Ag3  1  0.125000  0.125000  0.125000  1
  Ir  Ir4  1  0.125000  0.625000  0.625000  1
  Ir  Ir5  1  0.625000  0.125000  0.625000  1
  Ir  Ir6  1  0.625000  0.625000  0.125000  1
  Ir  Ir7  1  0.625000  0.625000  0.625000  1
  O  O8  1  0.693619  0.712133  0.298936  1
  O  O9  1  0.300769  0.296118  0.699681  1
  O  O10  1  0.705154  0.288998  0.716849  1
  O  O11  1  0.307056  0.693504  0.305936  1
  O  O12  1  0.300769  0.703431  0.699681  1
  O  O13  1  0.693619  0.295311  0.298936  1
  O  O14  1  0.556381  0.537867  0.951064  1
  O  O15  1  0.949231  0.953882  0.550319  1
  O  O16  1  0.544846  0.961002  0.533151  1
  O  O17  1  0.942944  0.556496  0.944064  1
  O  O18  1  0.949231  0.546569  0.550319  1
  O  O19  1  0.556381  0.954689  0.951064  1
  O  O20  1  0.242810  0.260958  0.235274  1
  O  O21  1  0.007190  0.989042  0.014726  1
