# generated using pymatgen
data_Fe11CoW12CN
_symmetry_space_group_name_H-M   'P 1'
_cell_length_a   7.70378877
_cell_length_b   7.70873658
_cell_length_c   7.70378800
_cell_angle_alpha   60.02123308
_cell_angle_beta   60.00000330
_cell_angle_gamma   60.02122703
_symmetry_Int_Tables_number   1
_chemical_formula_structural   Fe11CoW12CN
_chemical_formula_sum   'Fe11 Co1 W12 C1 N1'
_cell_volume   323.60572400
_cell_formula_units_Z   1
loop_
 _symmetry_equiv_pos_site_id
 _symmetry_equiv_pos_as_xyz
  1  'x, y, z'
loop_
 _atom_site_type_symbol
 _atom_site_label
 _atom_site_symmetry_multiplicity
 _atom_site_fract_x
 _atom_site_fract_y
 _atom_site_fract_z
 _atom_site_occupancy
  Fe  Fe0  1  0.328733  0.013799  0.328733  1
  Fe  Fe1  1  0.328778  0.328859  0.328778  1
  Fe  Fe2  1  0.013584  0.328859  0.328778  1
  Fe  Fe3  1  0.919891  0.921302  0.238918  1
  Fe  Fe4  1  0.238918  0.921302  0.919891  1
  Fe  Fe5  1  0.328778  0.328859  0.013584  1
  Fe  Fe6  1  0.126036  0.122697  0.625232  1
  Fe  Fe7  1  0.919891  0.921302  0.919891  1
  Fe  Fe8  1  0.124764  0.625707  0.124764  1
  Fe  Fe9  1  0.126036  0.122697  0.126036  1
  Fe  Fe10  1  0.625232  0.122697  0.126036  1
  Co  Co11  1  0.917576  0.247274  0.917576  1
  W  W12  1  0.302481  0.697696  0.697341  1
  W  W13  1  0.301482  0.302374  0.698072  1
  W  W14  1  0.551857  0.948310  0.551857  1
  W  W15  1  0.949049  0.550560  0.551343  1
  W  W16  1  0.551857  0.948310  0.947977  1
  W  W17  1  0.698072  0.302374  0.301482  1
  W  W18  1  0.949049  0.550560  0.949049  1
  W  W19  1  0.302481  0.697696  0.302481  1
  W  W20  1  0.551343  0.550560  0.949049  1
  W  W21  1  0.698072  0.302374  0.698072  1
  W  W22  1  0.697341  0.697696  0.302481  1
  W  W23  1  0.947977  0.948310  0.551857  1
  C  C24  1  0.500286  0.499141  0.500286  1
  N  N25  1  0.750438  0.748687  0.750438  1
