# generated using pymatgen
data_La7TbLu2Si8O3
_symmetry_space_group_name_H-M   'P 1'
_cell_length_a   10.75451381
_cell_length_b   10.78325012
_cell_length_c   4.51998700
_cell_angle_alpha   90.00000000
_cell_angle_beta   90.00000000
_cell_angle_gamma   120.08843335
_symmetry_Int_Tables_number   1
_chemical_formula_structural   La7TbLu2Si8O3
_chemical_formula_sum   'La7 Tb1 Lu2 Si8 O3'
_cell_volume   453.54520761
_cell_formula_units_Z   1
loop_
 _symmetry_equiv_pos_site_id
 _symmetry_equiv_pos_as_xyz
  1  'x, y, z'
loop_
 _atom_site_type_symbol
 _atom_site_label
 _atom_site_symmetry_multiplicity
 _atom_site_fract_x
 _atom_site_fract_y
 _atom_site_fract_z
 _atom_site_occupancy
  La  La0  1  0.212927  0.789214  0.000000  1
  La  La1  1  0.576037  0.788018  0.000000  1
  La  La2  1  0.787073  0.576288  0.000000  1
  La  La3  1  0.000000  0.000000  0.000000  1
  La  La4  1  0.212927  0.423712  0.000000  1
  La  La5  1  0.423963  0.211982  0.000000  1
  La  La6  1  0.787073  0.210786  0.000000  1
  Tb  Tb7  1  0.000000  0.500000  0.500000  1
  Lu  Lu8  1  0.500000  0.500000  0.500000  1
  Lu  Lu9  1  0.500000  0.000000  0.500000  1
  Si  Si10  1  0.000000  0.776353  0.500000  1
  Si  Si11  1  0.000000  0.223647  0.500000  1
  Si  Si12  1  0.224693  0.224276  0.500000  1
  Si  Si13  1  0.775307  0.999582  0.500000  1
  Si  Si14  1  0.337916  0.668959  0.500000  1
  Si  Si15  1  0.224693  0.000418  0.500000  1
  Si  Si16  1  0.662084  0.331041  0.500000  1
  Si  Si17  1  0.775307  0.775724  0.500000  1
  O  O18  1  0.000000  0.500000  0.000000  1
  O  O19  1  0.500000  0.500000  0.000000  1
  O  O20  1  0.500000  0.000000  0.000000  1
