# generated using pymatgen
data_CeY2Bi5F30
_symmetry_space_group_name_H-M   'P 1'
_cell_length_a   8.61667416
_cell_length_b   8.61903469
_cell_length_c   8.63687047
_cell_angle_alpha   79.55516117
_cell_angle_beta   79.76844428
_cell_angle_gamma   100.70673717
_symmetry_Int_Tables_number   1
_chemical_formula_structural   CeY2Bi5F30
_chemical_formula_sum   'Ce1 Y2 Bi5 F30'
_cell_volume   604.82642962
_cell_formula_units_Z   1
loop_
 _symmetry_equiv_pos_site_id
 _symmetry_equiv_pos_as_xyz
  1  'x, y, z'
loop_
 _atom_site_type_symbol
 _atom_site_label
 _atom_site_symmetry_multiplicity
 _atom_site_fract_x
 _atom_site_fract_y
 _atom_site_fract_z
 _atom_site_occupancy
  Ce  Ce0  1  0.672709  0.753087  0.171029  1
  Y  Y1  1  0.172454  0.825230  0.250165  1
  Y  Y2  1  0.827468  0.175362  0.749271  1
  Bi  Bi3  1  0.751118  0.250041  0.250586  1
  Bi  Bi4  1  0.248713  0.751005  0.749402  1
  Bi  Bi5  1  0.756484  0.674862  0.668737  1
  Bi  Bi6  1  0.327569  0.245738  0.828700  1
  Bi  Bi7  1  0.242364  0.322989  0.331179  1
  F  F8  1  0.309902  0.343336  0.047356  1
  F  F9  1  0.938970  0.807447  0.158187  1
  F  F10  1  0.843381  0.441315  0.692656  1
  F  F11  1  0.444803  0.842147  0.191734  1
  F  F12  1  0.809324  0.948808  0.659573  1
  F  F13  1  0.343999  0.307580  0.556698  1
  F  F14  1  0.691528  0.655593  0.954046  1
  F  F15  1  0.057511  0.190191  0.846357  1
  F  F16  1  0.159724  0.558394  0.307143  1
  F  F17  1  0.553581  0.154265  0.810846  1
  F  F18  1  0.189672  0.051007  0.342225  1
  F  F19  1  0.657312  0.693932  0.437295  1
  F  F20  1  0.773451  0.288149  0.004690  1
  F  F21  1  0.997198  0.269370  0.210260  1
  F  F22  1  0.796586  0.496121  0.229054  1
  F  F23  1  0.493939  0.790971  0.729627  1
  F  F24  1  0.269781  0.997892  0.708530  1
  F  F25  1  0.289173  0.772794  0.503056  1
  F  F26  1  0.226147  0.712472  0.996036  1
  F  F27  1  0.002064  0.731314  0.789416  1
  F  F28  1  0.205343  0.505499  0.770819  1
  F  F29  1  0.506321  0.209659  0.269691  1
  F  F30  1  0.729950  0.003452  0.292919  1
  F  F31  1  0.710011  0.229282  0.496230  1
  F  F32  1  0.481590  0.530508  0.249527  1
  F  F33  1  0.748519  0.974264  0.976310  1
  F  F34  1  0.023804  0.251036  0.528163  1
  F  F35  1  0.251562  0.025299  0.023866  1
  F  F36  1  0.975180  0.748050  0.469991  1
  F  F37  1  0.520796  0.471538  0.748632  1
