# generated using pymatgen
data_TbY3Sc6(SiGe)4
_symmetry_space_group_name_H-M   'P 1'
_cell_length_a   7.17297706
_cell_length_b   7.43133011
_cell_length_c   14.09420632
_cell_angle_alpha   90.01963209
_cell_angle_beta   89.98574491
_cell_angle_gamma   89.99617208
_symmetry_Int_Tables_number   1
_chemical_formula_structural   TbY3Sc6(SiGe)4
_chemical_formula_sum   'Tb2 Y6 Sc12 Si8 Ge8'
_cell_volume   751.28822200
_cell_formula_units_Z   2
loop_
 _symmetry_equiv_pos_site_id
 _symmetry_equiv_pos_as_xyz
  1  'x, y, z'
loop_
 _atom_site_type_symbol
 _atom_site_label
 _atom_site_symmetry_multiplicity
 _atom_site_fract_x
 _atom_site_fract_y
 _atom_site_fract_z
 _atom_site_occupancy
  Tb  Tb0  1  0.508554  0.323619  0.401042  1
  Tb  Tb1  1  0.491446  0.676381  0.598958  1
  Y  Y2  1  0.008410  0.176429  0.098950  1
  Y  Y3  1  0.991590  0.823571  0.901050  1
  Y  Y4  1  0.491692  0.676435  0.900960  1
  Y  Y5  1  0.991693  0.823574  0.598990  1
  Y  Y6  1  0.508308  0.323565  0.099040  1
  Y  Y7  1  0.008307  0.176426  0.401010  1
  Sc  Sc8  1  0.163609  0.500880  0.749994  1
  Sc  Sc9  1  0.836391  0.499120  0.250006  1
  Sc  Sc10  1  0.336408  0.000942  0.249985  1
  Sc  Sc11  1  0.663592  0.999058  0.750015  1
  Sc  Sc12  1  0.334514  0.173075  0.626579  1
  Sc  Sc13  1  0.665486  0.826925  0.373421  1
  Sc  Sc14  1  0.165303  0.673154  0.373369  1
  Sc  Sc15  1  0.665388  0.826837  0.126600  1
  Sc  Sc16  1  0.834697  0.326846  0.626631  1
  Sc  Sc17  1  0.334612  0.173163  0.873400  1
  Sc  Sc18  1  0.834592  0.326907  0.873402  1
  Sc  Sc19  1  0.165408  0.673093  0.126598  1
  Si  Si20  1  0.035765  0.118533  0.750017  1
  Si  Si21  1  0.964235  0.881467  0.249983  1
  Si  Si22  1  0.464234  0.618641  0.249985  1
  Si  Si23  1  0.535766  0.381359  0.750015  1
  Si  Si24  1  0.288677  0.873140  0.750002  1
  Si  Si25  1  0.711323  0.126860  0.249998  1
  Si  Si26  1  0.211274  0.373116  0.249925  1
  Si  Si27  1  0.788726  0.626884  0.750075  1
  Ge  Ge28  1  0.168654  0.460979  0.540913  1
  Ge  Ge29  1  0.831346  0.539021  0.459087  1
  Ge  Ge30  1  0.331056  0.960953  0.459111  1
  Ge  Ge31  1  0.831123  0.539046  0.040920  1
  Ge  Ge32  1  0.668944  0.039047  0.540889  1
  Ge  Ge33  1  0.168877  0.460954  0.959080  1
  Ge  Ge34  1  0.668813  0.039070  0.959083  1
  Ge  Ge35  1  0.331187  0.960930  0.040917  1
