# generated using pymatgen
data_Ta5Be4Nb11Te16
_symmetry_space_group_name_H-M   'P 1'
_cell_length_a   4.79049600
_cell_length_b   11.14275109
_cell_length_c   19.25903816
_cell_angle_alpha   89.98520402
_cell_angle_beta   90.00000000
_cell_angle_gamma   90.00000000
_symmetry_Int_Tables_number   1
_chemical_formula_structural   Ta5Be4Nb11Te16
_chemical_formula_sum   'Ta5 Be4 Nb11 Te16'
_cell_volume   1028.03402883
_cell_formula_units_Z   1
loop_
 _symmetry_equiv_pos_site_id
 _symmetry_equiv_pos_as_xyz
  1  'x, y, z'
loop_
 _atom_site_type_symbol
 _atom_site_label
 _atom_site_symmetry_multiplicity
 _atom_site_fract_x
 _atom_site_fract_y
 _atom_site_fract_z
 _atom_site_occupancy
  Ta  Ta0  1  0.500000  0.939827  0.887931  1
  Ta  Ta1  1  0.500000  0.694803  0.535019  1
  Ta  Ta2  1  0.500000  0.305200  0.464972  1
  Ta  Ta3  1  0.500000  0.194293  0.964961  1
  Ta  Ta4  1  0.500000  0.805596  0.034856  1
  Be  Be5  1  0.251636  0.499958  0.499989  1
  Be  Be6  1  0.748541  0.999999  0.999968  1
  Be  Be7  1  0.748364  0.499958  0.499989  1
  Be  Be8  1  0.251459  0.999999  0.999968  1
  Nb  Nb9  1  0.500000  0.560759  0.386897  1
  Nb  Nb10  1  0.500000  0.439218  0.613089  1
  Nb  Nb11  1  0.500000  0.060684  0.112912  1
  Nb  Nb12  1  0.000000  0.679819  0.445132  1
  Nb  Nb13  1  0.000000  0.320166  0.554847  1
  Nb  Nb14  1  0.000000  0.180112  0.054983  1
  Nb  Nb15  1  0.000000  0.820268  0.945152  1
  Nb  Nb16  1  0.000000  0.405419  0.396324  1
  Nb  Nb17  1  0.000000  0.594550  0.603681  1
  Nb  Nb18  1  0.000000  0.905321  0.103899  1
  Nb  Nb19  1  0.000000  0.094523  0.896338  1
  Te  Te20  1  0.000000  0.840234  0.560765  1
  Te  Te21  1  0.000000  0.159761  0.439235  1
  Te  Te22  1  0.000000  0.340202  0.939237  1
  Te  Te23  1  0.000000  0.659840  0.060833  1
  Te  Te24  1  0.500000  0.334380  0.318396  1
  Te  Te25  1  0.500000  0.665611  0.681613  1
  Te  Te26  1  0.500000  0.834224  0.181473  1
  Te  Te27  1  0.500000  0.164949  0.818230  1
  Te  Te28  1  0.500000  0.814904  0.404674  1
  Te  Te29  1  0.500000  0.185078  0.595327  1
  Te  Te30  1  0.500000  0.314885  0.095153  1
  Te  Te31  1  0.500000  0.685586  0.904324  1
  Te  Te32  1  0.000000  0.605069  0.303656  1
  Te  Te33  1  0.000000  0.394894  0.696358  1
  Te  Te34  1  0.000000  0.105061  0.196350  1
  Te  Te35  1  0.000000  0.894852  0.803471  1
