# generated using pymatgen
data_Ce2Ni5Ru2
_symmetry_space_group_name_H-M   'P 1'
_cell_length_a   12.64831825
_cell_length_b   12.64831824
_cell_length_c   12.64831900
_cell_angle_alpha   23.19048020
_cell_angle_beta   23.19048032
_cell_angle_gamma   23.19047633
_symmetry_Int_Tables_number   1
_chemical_formula_structural   Ce2Ni5Ru2
_chemical_formula_sum   'Ce4 Ni10 Ru4'
_cell_volume   275.44977190
_cell_formula_units_Z   2
loop_
 _symmetry_equiv_pos_site_id
 _symmetry_equiv_pos_as_xyz
  1  'x, y, z'
loop_
 _atom_site_type_symbol
 _atom_site_label
 _atom_site_symmetry_multiplicity
 _atom_site_fract_x
 _atom_site_fract_y
 _atom_site_fract_z
 _atom_site_occupancy
  Ce  Ce0  1  0.147459  0.147459  0.147459  1
  Ce  Ce1  1  0.852541  0.852541  0.852540  1
  Ce  Ce2  1  0.050132  0.050132  0.050132  1
  Ce  Ce3  1  0.949868  0.949868  0.949867  1
  Ni  Ni4  1  0.276503  0.276503  0.276502  1
  Ni  Ni5  1  0.723498  0.723498  0.723497  1
  Ni  Ni6  1  0.390170  0.390170  0.390170  1
  Ni  Ni7  1  0.609830  0.609830  0.609830  1
  Ni  Ni8  1  0.610935  0.106447  0.610934  1
  Ni  Ni9  1  0.610934  0.610934  0.106447  1
  Ni  Ni10  1  0.106447  0.610935  0.610934  1
  Ni  Ni11  1  0.893554  0.389065  0.389066  1
  Ni  Ni12  1  0.389066  0.389066  0.893553  1
  Ni  Ni13  1  0.389065  0.893554  0.389066  1
  Ru  Ru14  1  0.500000  0.500000  0.500000  1
  Ru  Ru15  1  0.500000  0.500000  0.000000  1
  Ru  Ru16  1  0.000001  0.499999  0.500000  1
  Ru  Ru17  1  0.499999  0.000001  0.500000  1
