# generated using pymatgen
data_SmTm5(SiRh2)6
_symmetry_space_group_name_H-M   'P 1'
_cell_length_a   5.56554300
_cell_length_b   5.56554308
_cell_length_c   14.98502200
_cell_angle_alpha   90.00000000
_cell_angle_beta   90.00000000
_cell_angle_gamma   119.99999361
_symmetry_Int_Tables_number   1
_chemical_formula_structural   SmTm5(SiRh2)6
_chemical_formula_sum   'Sm1 Tm5 Si6 Rh12'
_cell_volume   401.97878713
_cell_formula_units_Z   1
loop_
 _symmetry_equiv_pos_site_id
 _symmetry_equiv_pos_as_xyz
  1  'x, y, z'
loop_
 _atom_site_type_symbol
 _atom_site_label
 _atom_site_symmetry_multiplicity
 _atom_site_fract_x
 _atom_site_fract_y
 _atom_site_fract_z
 _atom_site_occupancy
  Sm  Sm0  1  0.333333  0.666667  0.250000  1
  Tm  Tm1  1  0.666667  0.333333  0.962905  1
  Tm  Tm2  1  0.666667  0.333333  0.537095  1
  Tm  Tm3  1  0.333333  0.666667  0.036652  1
  Tm  Tm4  1  0.666667  0.333333  0.750000  1
  Tm  Tm5  1  0.333333  0.666667  0.463348  1
  Si  Si6  1  0.666667  0.333333  0.250000  1
  Si  Si7  1  0.000000  0.000000  0.500092  1
  Si  Si8  1  0.000000  0.000000  0.250000  1
  Si  Si9  1  0.000000  0.000000  0.750000  1
  Si  Si10  1  0.333333  0.666667  0.750000  1
  Si  Si11  1  0.000000  0.000000  0.999908  1
  Rh  Rh12  1  0.167101  0.334200  0.870247  1
  Rh  Rh13  1  0.167101  0.334200  0.629753  1
  Rh  Rh14  1  0.665800  0.832899  0.870247  1
  Rh  Rh15  1  0.334245  0.167123  0.370973  1
  Rh  Rh16  1  0.832877  0.665755  0.370973  1
  Rh  Rh17  1  0.832877  0.167123  0.370973  1
  Rh  Rh18  1  0.832877  0.167123  0.129027  1
  Rh  Rh19  1  0.334245  0.167123  0.129027  1
  Rh  Rh20  1  0.665800  0.832899  0.629753  1
  Rh  Rh21  1  0.167101  0.832899  0.629753  1
  Rh  Rh22  1  0.832877  0.665755  0.129027  1
  Rh  Rh23  1  0.167101  0.832899  0.870247  1
