# generated using pymatgen
data_NdSm5Al4Pd13
_symmetry_space_group_name_H-M   'P 1'
_cell_length_a   8.33574688
_cell_length_b   8.33574697
_cell_length_c   8.33574700
_cell_angle_alpha   109.45544252
_cell_angle_beta   109.47910696
_cell_angle_gamma   109.47911124
_symmetry_Int_Tables_number   1
_chemical_formula_structural   NdSm5Al4Pd13
_chemical_formula_sum   'Nd1 Sm5 Al4 Pd13'
_cell_volume   445.87350215
_cell_formula_units_Z   1
loop_
 _symmetry_equiv_pos_site_id
 _symmetry_equiv_pos_as_xyz
  1  'x, y, z'
loop_
 _atom_site_type_symbol
 _atom_site_label
 _atom_site_symmetry_multiplicity
 _atom_site_fract_x
 _atom_site_fract_y
 _atom_site_fract_z
 _atom_site_occupancy
  Nd  Nd0  1  0.000000  0.699924  0.699924  1
  Sm  Sm1  1  0.698470  0.698404  0.999934  1
  Sm  Sm2  1  0.301530  0.999934  0.301464  1
  Sm  Sm3  1  0.000000  0.302701  0.302701  1
  Sm  Sm4  1  0.301530  0.301464  0.999934  1
  Sm  Sm5  1  0.698470  0.999934  0.698404  1
  Al  Al6  1  0.000000  0.000145  0.499073  1
  Al  Al7  1  0.000000  0.499073  0.000145  1
  Al  Al8  1  0.501072  0.000145  0.000145  1
  Al  Al9  1  0.498928  0.499073  0.499073  1
  Pd  Pd10  1  0.323081  0.323100  0.646182  1
  Pd  Pd11  1  0.676919  0.000019  0.323100  1
  Pd  Pd12  1  0.000000  0.677346  0.321951  1
  Pd  Pd13  1  0.676919  0.323100  0.000019  1
  Pd  Pd14  1  0.323081  0.646182  0.323100  1
  Pd  Pd15  1  0.000000  0.321951  0.677346  1
  Pd  Pd16  1  0.324348  0.676149  0.000498  1
  Pd  Pd17  1  0.324348  0.000498  0.676149  1
  Pd  Pd18  1  0.644605  0.321951  0.321951  1
  Pd  Pd19  1  0.675652  0.676149  0.351801  1
  Pd  Pd20  1  0.675652  0.351801  0.676149  1
  Pd  Pd21  1  0.355395  0.677346  0.677346  1
  Pd  Pd22  1  0.000000  0.003613  0.003613  1
