# generated using pymatgen
data_Tb7Th(Si3Ir)4
_symmetry_space_group_name_H-M   'P 1'
_cell_length_a   8.20582000
_cell_length_b   8.16411351
_cell_length_c   8.14466400
_cell_angle_alpha   90.00000000
_cell_angle_beta   90.00000000
_cell_angle_gamma   120.16913266
_symmetry_Int_Tables_number   1
_chemical_formula_structural   Tb7Th(Si3Ir)4
_chemical_formula_sum   'Tb7 Th1 Si12 Ir4'
_cell_volume   471.72852030
_cell_formula_units_Z   1
loop_
 _symmetry_equiv_pos_site_id
 _symmetry_equiv_pos_as_xyz
  1  'x, y, z'
loop_
 _atom_site_type_symbol
 _atom_site_label
 _atom_site_symmetry_multiplicity
 _atom_site_fract_x
 _atom_site_fract_y
 _atom_site_fract_z
 _atom_site_occupancy
  Tb  Tb0  1  0.499453  0.998908  0.750000  1
  Tb  Tb1  1  0.999040  0.499577  0.250000  1
  Tb  Tb2  1  0.001154  0.500584  0.750000  1
  Tb  Tb3  1  0.500538  0.499577  0.250000  1
  Tb  Tb4  1  0.499429  0.500584  0.750000  1
  Tb  Tb5  1  0.999985  0.999968  0.250000  1
  Tb  Tb6  1  0.999993  0.999986  0.750000  1
  Th  Th7  1  0.500458  0.000915  0.250000  1
  Si  Si8  1  0.166882  0.333765  0.000856  1
  Si  Si9  1  0.833073  0.666147  0.000160  1
  Si  Si10  1  0.668689  0.833002  0.997925  1
  Si  Si11  1  0.833073  0.666147  0.499840  1
  Si  Si12  1  0.331362  0.167035  0.997060  1
  Si  Si13  1  0.166882  0.333765  0.499144  1
  Si  Si14  1  0.164312  0.833002  0.997925  1
  Si  Si15  1  0.331362  0.167035  0.502940  1
  Si  Si16  1  0.835674  0.167035  0.997060  1
  Si  Si17  1  0.668689  0.833002  0.502075  1
  Si  Si18  1  0.835674  0.167035  0.502940  1
  Si  Si19  1  0.164312  0.833002  0.502075  1
  Ir  Ir20  1  0.334579  0.669158  0.999449  1
  Ir  Ir21  1  0.665403  0.330805  0.997170  1
  Ir  Ir22  1  0.665403  0.330805  0.502830  1
  Ir  Ir23  1  0.334579  0.669158  0.500551  1
