# generated using pymatgen
data_Sm2Gd2Er(GeB4)2
_symmetry_space_group_name_H-M   'P 1'
_cell_length_a   7.30842100
_cell_length_b   7.30849078
_cell_length_c   8.26824005
_cell_angle_alpha   89.98974261
_cell_angle_beta   90.00268049
_cell_angle_gamma   90.03884539
_symmetry_Int_Tables_number   1
_chemical_formula_structural   Sm2Gd2Er(GeB4)2
_chemical_formula_sum   'Sm4 Gd4 Er2 Ge4 B16'
_cell_volume   441.63575837
_cell_formula_units_Z   2
loop_
 _symmetry_equiv_pos_site_id
 _symmetry_equiv_pos_as_xyz
  1  'x, y, z'
loop_
 _atom_site_type_symbol
 _atom_site_label
 _atom_site_symmetry_multiplicity
 _atom_site_fract_x
 _atom_site_fract_y
 _atom_site_fract_z
 _atom_site_occupancy
  Sm  Sm0  1  0.680585  0.180536  0.224358  1
  Sm  Sm1  1  0.319406  0.819418  0.775401  1
  Sm  Sm2  1  0.319542  0.819530  0.224362  1
  Sm  Sm3  1  0.819567  0.680435  0.224111  1
  Gd  Gd4  1  0.819146  0.680869  0.778627  1
  Gd  Gd5  1  0.680955  0.180946  0.778301  1
  Gd  Gd6  1  0.180796  0.319213  0.778585  1
  Gd  Gd7  1  0.180792  0.319235  0.221059  1
  Er  Er8  1  0.999934  0.000760  0.500817  1
  Er  Er9  1  0.499812  0.499245  0.500830  1
  Ge  Ge10  1  0.119504  0.618521  0.501165  1
  Ge  Ge11  1  0.880253  0.379445  0.502824  1
  Ge  Ge12  1  0.379502  0.121398  0.501079  1
  Ge  Ge13  1  0.620561  0.880472  0.502562  1
  B  B14  1  0.171645  0.040099  0.999319  1
  B  B15  1  0.828302  0.960911  0.999107  1
  B  B16  1  0.960942  0.172253  0.999288  1
  B  B17  1  0.328169  0.538561  0.999300  1
  B  B18  1  0.039072  0.828632  0.999101  1
  B  B19  1  0.671818  0.460407  0.999067  1
  B  B20  1  0.539589  0.671203  0.999298  1
  B  B21  1  0.460421  0.327887  0.999110  1
  B  B22  1  0.090695  0.590449  0.998840  1
  B  B23  1  0.909595  0.409362  0.998857  1
  B  B24  1  0.408968  0.091245  0.998837  1
  B  B25  1  0.591292  0.908933  0.998886  1
  B  B26  1  0.000521  0.001175  0.157734  1
  B  B27  1  0.999045  0.000653  0.840728  1
  B  B28  1  0.500543  0.498834  0.840724  1
  B  B29  1  0.499030  0.499373  0.157723  1
