# generated using pymatgen
data_Tm12Ni3BiRu2
_symmetry_space_group_name_H-M   'P 1'
_cell_length_a   8.23223262
_cell_length_b   8.23223158
_cell_length_c   8.23223051
_cell_angle_alpha   110.20458117
_cell_angle_beta   112.08129269
_cell_angle_gamma   106.18293030
_symmetry_Int_Tables_number   1
_chemical_formula_structural   Tm12Ni3BiRu2
_chemical_formula_sum   'Tm12 Ni3 Bi1 Ru2'
_cell_volume   428.29263244
_cell_formula_units_Z   1
loop_
 _symmetry_equiv_pos_site_id
 _symmetry_equiv_pos_as_xyz
  1  'x, y, z'
loop_
 _atom_site_type_symbol
 _atom_site_label
 _atom_site_symmetry_multiplicity
 _atom_site_fract_x
 _atom_site_fract_y
 _atom_site_fract_z
 _atom_site_occupancy
  Tm  Tm0  1  0.275563  0.180950  0.456514  1
  Tm  Tm1  1  0.720819  0.822889  0.543707  1
  Tm  Tm2  1  0.279181  0.822889  0.102070  1
  Tm  Tm3  1  0.724437  0.180950  0.905388  1
  Tm  Tm4  1  0.632779  0.318283  0.309613  1
  Tm  Tm5  1  0.367221  0.676832  0.685504  1
  Tm  Tm6  1  0.008672  0.318283  0.685504  1
  Tm  Tm7  1  0.991328  0.676832  0.309613  1
  Tm  Tm8  1  0.222919  0.410889  0.187972  1
  Tm  Tm9  1  0.780308  0.587291  0.806982  1
  Tm  Tm10  1  0.219692  0.026674  0.806982  1
  Tm  Tm11  1  0.777081  0.965053  0.187972  1
  Ni  Ni12  1  0.000000  0.653555  0.653555  1
  Ni  Ni13  1  0.381968  0.887100  0.505132  1
  Ni  Ni14  1  0.618032  0.123164  0.505132  1
  Bi  Bi15  1  0.500000  0.500165  0.000165  1
  Ru  Ru16  1  0.000000  0.349372  0.349372  1
  Ru  Ru17  1  0.000000  0.998826  0.998826  1
