# generated using pymatgen
data_Tb7Sc2PaIr6
_symmetry_space_group_name_H-M   'P 1'
_cell_length_a   10.97483186
_cell_length_b   10.78039900
_cell_length_c   6.24444483
_cell_angle_alpha   90.00000000
_cell_angle_beta   89.08057693
_cell_angle_gamma   90.00000000
_symmetry_Int_Tables_number   1
_chemical_formula_structural   Tb7Sc2PaIr6
_chemical_formula_sum   'Tb14 Sc4 Pa2 Ir12'
_cell_volume   738.70429580
_cell_formula_units_Z   2
loop_
 _symmetry_equiv_pos_site_id
 _symmetry_equiv_pos_as_xyz
  1  'x, y, z'
loop_
 _atom_site_type_symbol
 _atom_site_label
 _atom_site_symmetry_multiplicity
 _atom_site_fract_x
 _atom_site_fract_y
 _atom_site_fract_z
 _atom_site_occupancy
  Tb  Tb0  1  0.709537  0.087473  0.875345  1
  Tb  Tb1  1  0.709537  0.912527  0.375345  1
  Tb  Tb2  1  0.589785  0.785539  0.878409  1
  Tb  Tb3  1  0.589785  0.214461  0.378409  1
  Tb  Tb4  1  0.415103  0.778955  0.374722  1
  Tb  Tb5  1  0.415103  0.221045  0.874722  1
  Tb  Tb6  1  0.209805  0.414493  0.621666  1
  Tb  Tb7  1  0.209805  0.585507  0.121666  1
  Tb  Tb8  1  0.790080  0.412613  0.123340  1
  Tb  Tb9  1  0.790080  0.587387  0.623340  1
  Tb  Tb10  1  0.913306  0.712506  0.121457  1
  Tb  Tb11  1  0.913306  0.287494  0.621457  1
  Tb  Tb12  1  0.085606  0.714183  0.617789  1
  Tb  Tb13  1  0.085606  0.285817  0.117789  1
  Sc  Sc14  1  0.995466  0.999642  0.492074  1
  Sc  Sc15  1  0.995466  0.000358  0.992074  1
  Sc  Sc16  1  0.502106  0.500881  0.016501  1
  Sc  Sc17  1  0.502106  0.499119  0.516501  1
  Pa  Pa18  1  0.291120  0.088870  0.382275  1
  Pa  Pa19  1  0.291120  0.911130  0.882275  1
  Ir  Ir20  1  0.850883  0.146894  0.245576  1
  Ir  Ir21  1  0.850883  0.853106  0.745576  1
  Ir  Ir22  1  0.158701  0.136468  0.735318  1
  Ir  Ir23  1  0.158701  0.863532  0.235318  1
  Ir  Ir24  1  0.648328  0.354139  0.753881  1
  Ir  Ir25  1  0.648328  0.645861  0.253881  1
  Ir  Ir26  1  0.353778  0.345148  0.265433  1
  Ir  Ir27  1  0.353778  0.654852  0.765433  1
  Ir  Ir28  1  0.486150  0.002287  0.117780  1
  Ir  Ir29  1  0.486150  0.997713  0.617780  1
  Ir  Ir30  1  0.000246  0.499735  0.878434  1
  Ir  Ir31  1  0.000246  0.500265  0.378434  1
