# generated using pymatgen
data_Rb4Li2TmLuAs4
_symmetry_space_group_name_H-M   'P 1'
_cell_length_a   10.56411838
_cell_length_b   10.56411823
_cell_length_c   6.78520500
_cell_angle_alpha   90.00000000
_cell_angle_beta   90.00000000
_cell_angle_gamma   100.11066638
_symmetry_Int_Tables_number   1
_chemical_formula_structural   Rb4Li2TmLuAs4
_chemical_formula_sum   'Rb8 Li4 Tm2 Lu2 As8'
_cell_volume   745.47348251
_cell_formula_units_Z   2
loop_
 _symmetry_equiv_pos_site_id
 _symmetry_equiv_pos_as_xyz
  1  'x, y, z'
loop_
 _atom_site_type_symbol
 _atom_site_label
 _atom_site_symmetry_multiplicity
 _atom_site_fract_x
 _atom_site_fract_y
 _atom_site_fract_z
 _atom_site_occupancy
  Rb  Rb0  1  0.568938  0.931062  0.750000  1
  Rb  Rb1  1  0.931062  0.568938  0.250000  1
  Rb  Rb2  1  0.430880  0.069120  0.250000  1
  Rb  Rb3  1  0.069120  0.430880  0.750000  1
  Rb  Rb4  1  0.676978  0.322876  0.784360  1
  Rb  Rb5  1  0.823022  0.177124  0.284360  1
  Rb  Rb6  1  0.322876  0.676978  0.215640  1
  Rb  Rb7  1  0.177124  0.823022  0.715640  1
  Li  Li8  1  0.618617  0.618617  0.000000  1
  Li  Li9  1  0.881383  0.881383  0.500000  1
  Li  Li10  1  0.381101  0.381101  0.000000  1
  Li  Li11  1  0.118899  0.118899  0.500000  1
  Tm  Tm12  1  0.869042  0.869042  0.000000  1
  Tm  Tm13  1  0.630958  0.630958  0.500000  1
  Lu  Lu14  1  0.131288  0.131288  0.000000  1
  Lu  Lu15  1  0.368712  0.368712  0.500000  1
  As  As16  1  0.340644  0.159356  0.750000  1
  As  As17  1  0.159356  0.340644  0.250000  1
  As  As18  1  0.658286  0.841714  0.250000  1
  As  As19  1  0.841714  0.658286  0.750000  1
  As  As20  1  0.910449  0.090820  0.767629  1
  As  As21  1  0.589551  0.409180  0.267629  1
  As  As22  1  0.090820  0.910449  0.232371  1
  As  As23  1  0.409180  0.589551  0.732371  1
