# generated using pymatgen
data_Th3AlZn2FePd2
_symmetry_space_group_name_H-M   'P 1'
_cell_length_a   7.45667256
_cell_length_b   7.33571816
_cell_length_c   3.89187700
_cell_angle_alpha   90.00000000
_cell_angle_beta   90.00000000
_cell_angle_gamma   119.73530736
_symmetry_Int_Tables_number   1
_chemical_formula_structural   Th3AlZn2FePd2
_chemical_formula_sum   'Th3 Al1 Zn2 Fe1 Pd2'
_cell_volume   184.85433432
_cell_formula_units_Z   1
loop_
 _symmetry_equiv_pos_site_id
 _symmetry_equiv_pos_as_xyz
  1  'x, y, z'
loop_
 _atom_site_type_symbol
 _atom_site_label
 _atom_site_symmetry_multiplicity
 _atom_site_fract_x
 _atom_site_fract_y
 _atom_site_fract_z
 _atom_site_occupancy
  Th  Th0  1  0.431708  0.411230  0.500000  1
  Th  Th1  1  0.585486  0.015510  0.500000  1
  Th  Th2  1  0.979409  0.573376  0.500000  1
  Al  Al3  1  0.994046  0.237585  0.000000  1
  Zn  Zn4  1  0.754933  0.756069  0.000000  1
  Zn  Zn5  1  0.247449  0.005488  0.000000  1
  Fe  Fe6  1  0.681031  0.330696  0.000000  1
  Pd  Pd7  1  0.324481  0.657181  0.000000  1
  Pd  Pd8  1  0.001456  0.012864  0.500000  1
