# generated using pymatgen
data_Tm6AlNiRu
_symmetry_space_group_name_H-M   'P 1'
_cell_length_a   8.24457927
_cell_length_b   8.24456814
_cell_length_c   8.24457961
_cell_angle_alpha   112.91806167
_cell_angle_beta   110.78631423
_cell_angle_gamma   104.81523077
_symmetry_Int_Tables_number   1
_chemical_formula_structural   Tm6AlNiRu
_chemical_formula_sum   'Tm12 Al2 Ni2 Ru2'
_cell_volume   429.12662162
_cell_formula_units_Z   2
loop_
 _symmetry_equiv_pos_site_id
 _symmetry_equiv_pos_as_xyz
  1  'x, y, z'
loop_
 _atom_site_type_symbol
 _atom_site_label
 _atom_site_symmetry_multiplicity
 _atom_site_fract_x
 _atom_site_fract_y
 _atom_site_fract_z
 _atom_site_occupancy
  Tm  Tm0  1  0.437155  0.242168  0.194986  1
  Tm  Tm1  1  0.562845  0.757832  0.805014  1
  Tm  Tm2  1  0.047181  0.242168  0.805013  1
  Tm  Tm3  1  0.952819  0.757832  0.194987  1
  Tm  Tm4  1  0.181846  0.280782  0.462628  1
  Tm  Tm5  1  0.818154  0.719218  0.537372  1
  Tm  Tm6  1  0.181847  0.719218  0.901064  1
  Tm  Tm7  1  0.818153  0.280782  0.098936  1
  Tm  Tm8  1  0.328416  0.639566  0.311151  1
  Tm  Tm9  1  0.671584  0.360434  0.688849  1
  Tm  Tm10  1  0.328417  0.017267  0.688850  1
  Tm  Tm11  1  0.671583  0.982733  0.311150  1
  Al  Al12  1  0.500000  0.500000  0.000000  1
  Al  Al13  1  0.000000  0.000000  0.000000  1
  Ni  Ni14  1  0.118033  0.618034  0.500001  1
  Ni  Ni15  1  0.881967  0.381966  0.499999  1
  Ru  Ru16  1  0.326306  0.000000  0.326306  1
  Ru  Ru17  1  0.673694  0.000000  0.673694  1
