# generated using pymatgen
data_Pa6Al16Rh7
_symmetry_space_group_name_H-M   'P 1'
_cell_length_a   8.92016655
_cell_length_b   8.92016622
_cell_length_c   8.92016700
_cell_angle_alpha   60.00000082
_cell_angle_beta   60.00000205
_cell_angle_gamma   59.99999585
_symmetry_Int_Tables_number   1
_chemical_formula_structural   Pa6Al16Rh7
_chemical_formula_sum   'Pa6 Al16 Rh7'
_cell_volume   501.88462758
_cell_formula_units_Z   1
loop_
 _symmetry_equiv_pos_site_id
 _symmetry_equiv_pos_as_xyz
  1  'x, y, z'
loop_
 _atom_site_type_symbol
 _atom_site_label
 _atom_site_symmetry_multiplicity
 _atom_site_fract_x
 _atom_site_fract_y
 _atom_site_fract_z
 _atom_site_occupancy
  Pa  Pa0  1  0.690214  0.309786  0.309786  1
  Pa  Pa1  1  0.690214  0.309786  0.690214  1
  Pa  Pa2  1  0.690214  0.690214  0.309786  1
  Pa  Pa3  1  0.309786  0.690214  0.690214  1
  Pa  Pa4  1  0.309786  0.690214  0.309786  1
  Pa  Pa5  1  0.309786  0.309786  0.690214  1
  Al  Al6  1  0.645694  0.118102  0.118102  1
  Al  Al7  1  0.118102  0.645694  0.118102  1
  Al  Al8  1  0.118102  0.118102  0.645694  1
  Al  Al9  1  0.118102  0.118102  0.118102  1
  Al  Al10  1  0.354306  0.881898  0.881898  1
  Al  Al11  1  0.881898  0.354306  0.881898  1
  Al  Al12  1  0.881898  0.881898  0.354306  1
  Al  Al13  1  0.881898  0.881898  0.881898  1
  Al  Al14  1  0.014955  0.328348  0.328348  1
  Al  Al15  1  0.328348  0.014955  0.328348  1
  Al  Al16  1  0.328348  0.328348  0.014955  1
  Al  Al17  1  0.328348  0.328348  0.328348  1
  Al  Al18  1  0.985045  0.671652  0.671652  1
  Al  Al19  1  0.671652  0.985045  0.671652  1
  Al  Al20  1  0.671652  0.671652  0.985045  1
  Al  Al21  1  0.671652  0.671652  0.671652  1
  Rh  Rh22  1  0.000000  0.000000  0.000000  1
  Rh  Rh23  1  0.500000  0.000000  0.000000  1
  Rh  Rh24  1  0.500000  0.000000  0.500000  1
  Rh  Rh25  1  0.500000  0.500000  0.000000  1
  Rh  Rh26  1  0.000000  0.500000  0.500000  1
  Rh  Rh27  1  0.000000  0.500000  0.000000  1
  Rh  Rh28  1  0.000000  0.000000  0.500000  1
