# generated using pymatgen
data_Rb2Si3GeAu10
_symmetry_space_group_name_H-M   'P 1'
_cell_length_a   7.06759800
_cell_length_b   9.20638000
_cell_length_c   10.83699700
_cell_angle_alpha   90.00000000
_cell_angle_beta   90.00000000
_cell_angle_gamma   90.00000000
_symmetry_Int_Tables_number   1
_chemical_formula_structural   Rb2Si3GeAu10
_chemical_formula_sum   'Rb4 Si6 Ge2 Au20'
_cell_volume   705.13080659
_cell_formula_units_Z   2
loop_
 _symmetry_equiv_pos_site_id
 _symmetry_equiv_pos_as_xyz
  1  'x, y, z'
loop_
 _atom_site_type_symbol
 _atom_site_label
 _atom_site_symmetry_multiplicity
 _atom_site_fract_x
 _atom_site_fract_y
 _atom_site_fract_z
 _atom_site_occupancy
  Rb  Rb0  1  0.250000  0.244471  0.120217  1
  Rb  Rb1  1  0.250000  0.744471  0.379783  1
  Rb  Rb2  1  0.750000  0.755361  0.880664  1
  Rb  Rb3  1  0.750000  0.255361  0.619336  1
  Si  Si4  1  0.750000  0.954190  0.334819  1
  Si  Si5  1  0.750000  0.454190  0.165181  1
  Si  Si6  1  0.250000  0.304491  0.449242  1
  Si  Si7  1  0.250000  0.804491  0.050758  1
  Si  Si8  1  0.750000  0.692672  0.546222  1
  Si  Si9  1  0.750000  0.192672  0.953778  1
  Ge  Ge10  1  0.250000  0.048084  0.655628  1
  Ge  Ge11  1  0.250000  0.548084  0.844372  1
  Au  Au12  1  0.038385  0.089872  0.389632  1
  Au  Au13  1  0.461615  0.589872  0.110368  1
  Au  Au14  1  0.547004  0.906178  0.607879  1
  Au  Au15  1  0.952996  0.406178  0.892121  1
  Au  Au16  1  0.952996  0.906178  0.607879  1
  Au  Au17  1  0.547004  0.406178  0.892121  1
  Au  Au18  1  0.461615  0.089872  0.389632  1
  Au  Au19  1  0.038385  0.589872  0.110368  1
  Au  Au20  1  0.032790  0.079994  0.870128  1
  Au  Au21  1  0.467210  0.579994  0.629872  1
  Au  Au22  1  0.534565  0.919755  0.134978  1
  Au  Au23  1  0.965435  0.419755  0.365022  1
  Au  Au24  1  0.965435  0.919755  0.134978  1
  Au  Au25  1  0.534565  0.419755  0.365022  1
  Au  Au26  1  0.467210  0.079994  0.870128  1
  Au  Au27  1  0.032790  0.579994  0.629872  1
  Au  Au28  1  0.250000  0.322575  0.674540  1
  Au  Au29  1  0.250000  0.822575  0.825460  1
  Au  Au30  1  0.750000  0.686557  0.320921  1
  Au  Au31  1  0.750000  0.186557  0.179079  1
