# generated using pymatgen
data_Pr2ThMg2AlIr3
_symmetry_space_group_name_H-M   'P 1'
_cell_length_a   7.46363182
_cell_length_b   7.46363012
_cell_length_c   4.09271200
_cell_angle_alpha   90.00000000
_cell_angle_beta   90.00000000
_cell_angle_gamma   119.51681956
_symmetry_Int_Tables_number   1
_chemical_formula_structural   Pr2ThMg2AlIr3
_chemical_formula_sum   'Pr2 Th1 Mg2 Al1 Ir3'
_cell_volume   198.39746633
_cell_formula_units_Z   1
loop_
 _symmetry_equiv_pos_site_id
 _symmetry_equiv_pos_as_xyz
  1  'x, y, z'
loop_
 _atom_site_type_symbol
 _atom_site_label
 _atom_site_symmetry_multiplicity
 _atom_site_fract_x
 _atom_site_fract_y
 _atom_site_fract_z
 _atom_site_occupancy
  Pr  Pr0  1  0.411435  0.005558  0.500000  1
  Pr  Pr1  1  0.005558  0.411435  0.500000  1
  Th  Th2  1  0.570503  0.570503  0.500000  1
  Mg  Mg3  1  0.758422  0.999433  0.000000  1
  Mg  Mg4  1  0.999433  0.758422  0.000000  1
  Al  Al5  1  0.232283  0.232283  0.000000  1
  Ir  Ir6  1  0.348765  0.652554  0.000000  1
  Ir  Ir7  1  0.652554  0.348765  0.000000  1
  Ir  Ir8  1  0.021047  0.021047  0.500000  1
