# generated using pymatgen
data_Sm2Sc5Sn23Ru6
_symmetry_space_group_name_H-M   'P 1'
_cell_length_a   9.74609575
_cell_length_b   9.80880599
_cell_length_c   9.88530100
_cell_angle_alpha   90.00000000
_cell_angle_beta   89.88465700
_cell_angle_gamma   120.21308498
_symmetry_Int_Tables_number   1
_chemical_formula_structural   Sm2Sc5Sn23Ru6
_chemical_formula_sum   'Sm2 Sc5 Sn23 Ru6'
_cell_volume   816.63811978
_cell_formula_units_Z   1
loop_
 _symmetry_equiv_pos_site_id
 _symmetry_equiv_pos_as_xyz
  1  'x, y, z'
loop_
 _atom_site_type_symbol
 _atom_site_label
 _atom_site_symmetry_multiplicity
 _atom_site_fract_x
 _atom_site_fract_y
 _atom_site_fract_z
 _atom_site_occupancy
  Sm  Sm0  1  0.972127  0.486063  0.694701  1
  Sm  Sm1  1  0.001341  0.000670  0.001327  1
  Sc  Sc2  1  0.490236  0.508241  0.301931  1
  Sc  Sc3  1  0.510496  0.491614  0.697512  1
  Sc  Sc4  1  0.490236  0.981995  0.301931  1
  Sc  Sc5  1  0.510496  0.018882  0.697512  1
  Sc  Sc6  1  0.019660  0.509830  0.304726  1
  Sn  Sn7  1  0.121740  0.877388  0.278238  1
  Sn  Sn8  1  0.878768  0.118431  0.721792  1
  Sn  Sn9  1  0.121740  0.244352  0.278238  1
  Sn  Sn10  1  0.878768  0.760337  0.721792  1
  Sn  Sn11  1  0.753182  0.876592  0.276371  1
  Sn  Sn12  1  0.248086  0.124043  0.724021  1
  Sn  Sn13  1  0.774553  0.220658  0.465243  1
  Sn  Sn14  1  0.228115  0.780382  0.529966  1
  Sn  Sn15  1  0.774553  0.553896  0.465243  1
  Sn  Sn16  1  0.228115  0.447733  0.529966  1
  Sn  Sn17  1  0.447907  0.223954  0.467731  1
  Sn  Sn18  1  0.553795  0.776897  0.532030  1
  Sn  Sn19  1  0.350999  0.000727  0.000487  1
  Sn  Sn20  1  0.649600  0.999366  0.999873  1
  Sn  Sn21  1  0.000373  0.350027  0.001039  1
  Sn  Sn22  1  0.000373  0.650347  0.001039  1
  Sn  Sn23  1  0.649600  0.650233  0.999873  1
  Sn  Sn24  1  0.350999  0.350274  0.000487  1
  Sn  Sn25  1  0.333335  0.666667  0.148217  1
  Sn  Sn26  1  0.655741  0.327870  0.857324  1
  Sn  Sn27  1  0.334002  0.667002  0.827142  1
  Sn  Sn28  1  0.667828  0.333913  0.173876  1
  Sn  Sn29  1  0.001302  0.000651  0.499163  1
  Ru  Ru30  1  0.827226  0.171036  0.205507  1
  Ru  Ru31  1  0.174322  0.831404  0.794782  1
  Ru  Ru32  1  0.827226  0.656191  0.205507  1
  Ru  Ru33  1  0.174322  0.342917  0.794782  1
  Ru  Ru34  1  0.343253  0.171627  0.206156  1
  Ru  Ru35  1  0.655583  0.827791  0.794473  1
