# generated using pymatgen
data_V2Zn(CoSb)3
_symmetry_space_group_name_H-M   'P 1'
_cell_length_a   7.15077214
_cell_length_b   7.15113620
_cell_length_c   7.13329701
_cell_angle_alpha   99.61331942
_cell_angle_beta   99.61238749
_cell_angle_gamma   119.92712615
_symmetry_Int_Tables_number   1
_chemical_formula_structural   V2Zn(CoSb)3
_chemical_formula_sum   'V4 Zn2 Co6 Sb6'
_cell_volume   298.02014950
_cell_formula_units_Z   2
loop_
 _symmetry_equiv_pos_site_id
 _symmetry_equiv_pos_as_xyz
  1  'x, y, z'
loop_
 _atom_site_type_symbol
 _atom_site_label
 _atom_site_symmetry_multiplicity
 _atom_site_fract_x
 _atom_site_fract_y
 _atom_site_fract_z
 _atom_site_occupancy
  V  V0  1  0.001931  0.502435  0.497807  1
  V  V1  1  0.328969  0.161404  0.497899  1
  V  V2  1  0.502422  0.001902  0.997781  1
  V  V3  1  0.161423  0.328977  0.997894  1
  Zn  Zn4  1  0.836520  0.668124  0.005559  1
  Zn  Zn5  1  0.668122  0.836522  0.505559  1
  Co  Co6  1  0.274506  0.441939  0.367106  1
  Co  Co7  1  0.620564  0.137843  0.367049  1
  Co  Co8  1  0.981023  0.793787  0.389287  1
  Co  Co9  1  0.442008  0.274415  0.866985  1
  Co  Co10  1  0.137923  0.620729  0.867072  1
  Co  Co11  1  0.793544  0.980900  0.889278  1
  Sb  Sb12  1  0.256229  0.749217  0.245644  1
  Sb  Sb13  1  0.584472  0.425878  0.246817  1
  Sb  Sb14  1  0.910772  0.074485  0.257906  1
  Sb  Sb15  1  0.749180  0.256199  0.745606  1
  Sb  Sb16  1  0.425894  0.584411  0.746846  1
  Sb  Sb17  1  0.074496  0.910831  0.757903  1
