# generated using pymatgen
data_DyTmTh2(Al3Re)2
_symmetry_space_group_name_H-M   'P 1'
_cell_length_a   5.52933500
_cell_length_b   5.52933525
_cell_length_c   9.08740500
_cell_angle_alpha   90.00000000
_cell_angle_beta   90.00000000
_cell_angle_gamma   120.00001645
_symmetry_Int_Tables_number   1
_chemical_formula_structural   DyTmTh2(Al3Re)2
_chemical_formula_sum   'Dy1 Tm1 Th2 Al6 Re2'
_cell_volume   240.61143818
_cell_formula_units_Z   1
loop_
 _symmetry_equiv_pos_site_id
 _symmetry_equiv_pos_as_xyz
  1  'x, y, z'
loop_
 _atom_site_type_symbol
 _atom_site_label
 _atom_site_symmetry_multiplicity
 _atom_site_fract_x
 _atom_site_fract_y
 _atom_site_fract_z
 _atom_site_occupancy
  Dy  Dy0  1  0.666667  0.333333  0.556454  1
  Tm  Tm1  1  0.333333  0.666667  0.443368  1
  Th  Th2  1  0.666667  0.333333  0.956359  1
  Th  Th3  1  0.333333  0.666667  0.043542  1
  Al  Al4  1  0.837775  0.162225  0.256852  1
  Al  Al5  1  0.837775  0.675550  0.256852  1
  Al  Al6  1  0.324450  0.162225  0.256852  1
  Al  Al7  1  0.162213  0.837787  0.743190  1
  Al  Al8  1  0.162213  0.324425  0.743190  1
  Al  Al9  1  0.675575  0.837787  0.743190  1
  Re  Re10  1  0.000000  0.000000  0.499816  1
  Re  Re11  1  0.000000  0.000000  0.000331  1
