# generated using pymatgen
data_Tm4IrRu3O16
_symmetry_space_group_name_H-M   'P 1'
_cell_length_a   5.26112429
_cell_length_b   7.36129377
_cell_length_c   7.55374021
_cell_angle_alpha   81.09994979
_cell_angle_beta   90.12576421
_cell_angle_gamma   90.04218409
_symmetry_Int_Tables_number   1
_chemical_formula_structural   Tm4IrRu3O16
_chemical_formula_sum   'Tm4 Ir1 Ru3 O16'
_cell_volume   289.02334169
_cell_formula_units_Z   1
loop_
 _symmetry_equiv_pos_site_id
 _symmetry_equiv_pos_as_xyz
  1  'x, y, z'
loop_
 _atom_site_type_symbol
 _atom_site_label
 _atom_site_symmetry_multiplicity
 _atom_site_fract_x
 _atom_site_fract_y
 _atom_site_fract_z
 _atom_site_occupancy
  Tm  Tm0  1  0.284658  0.389637  0.350931  1
  Tm  Tm1  1  0.215640  0.889972  0.349189  1
  Tm  Tm2  1  0.781721  0.113028  0.646582  1
  Tm  Tm3  1  0.714077  0.610177  0.647553  1
  Ir  Ir4  1  0.227424  0.801437  0.838151  1
  Ru  Ru5  1  0.770030  0.198056  0.160655  1
  Ru  Ru6  1  0.729734  0.697873  0.160449  1
  Ru  Ru7  1  0.269247  0.302038  0.839533  1
  O  O8  1  0.099808  0.308110  0.064482  1
  O  O9  1  0.401269  0.807436  0.065348  1
  O  O10  1  0.624541  0.442694  0.169708  1
  O  O11  1  0.875412  0.942965  0.168874  1
  O  O12  1  0.487674  0.118929  0.315254  1
  O  O13  1  0.983779  0.174212  0.390953  1
  O  O14  1  0.012683  0.618864  0.314350  1
  O  O15  1  0.516660  0.675377  0.391359  1
  O  O16  1  0.481983  0.327073  0.608801  1
  O  O17  1  0.986007  0.381571  0.686313  1
  O  O18  1  0.020635  0.823506  0.608668  1
  O  O19  1  0.518440  0.881486  0.688272  1
  O  O20  1  0.119610  0.056588  0.828892  1
  O  O21  1  0.378032  0.556797  0.832255  1
  O  O22  1  0.598313  0.191695  0.935630  1
  O  O23  1  0.902622  0.690479  0.937799  1
