# generated using pymatgen
data_CoNi(Ru2W)2
_symmetry_space_group_name_H-M   'P 1'
_cell_length_a   5.42919500
_cell_length_b   5.36372601
_cell_length_c   4.30740700
_cell_angle_alpha   90.00000000
_cell_angle_beta   90.00000000
_cell_angle_gamma   120.40460155
_symmetry_Int_Tables_number   1
_chemical_formula_structural   CoNi(Ru2W)2
_chemical_formula_sum   'Co1 Ni1 Ru4 W2'
_cell_volume   108.18410490
_cell_formula_units_Z   1
loop_
 _symmetry_equiv_pos_site_id
 _symmetry_equiv_pos_as_xyz
  1  'x, y, z'
loop_
 _atom_site_type_symbol
 _atom_site_label
 _atom_site_symmetry_multiplicity
 _atom_site_fract_x
 _atom_site_fract_y
 _atom_site_fract_z
 _atom_site_occupancy
  Co  Co0  1  0.834248  0.668496  0.750000  1
  Ni  Ni1  1  0.165604  0.331209  0.250000  1
  Ru  Ru2  1  0.670550  0.830531  0.250000  1
  Ru  Ru3  1  0.159983  0.830531  0.250000  1
  Ru  Ru4  1  0.327180  0.167972  0.750000  1
  Ru  Ru5  1  0.840791  0.167972  0.750000  1
  W  W6  1  0.332951  0.665903  0.750000  1
  W  W7  1  0.668693  0.337385  0.250000  1
