# generated using pymatgen
data_Ba7Tc4O19
_symmetry_space_group_name_H-M   'P 1'
_cell_length_a   7.81071383
_cell_length_b   7.81071990
_cell_length_c   10.92800346
_cell_angle_alpha   81.73226702
_cell_angle_beta   81.73226240
_cell_angle_gamma   43.96785734
_symmetry_Int_Tables_number   1
_chemical_formula_structural   Ba7Tc4O19
_chemical_formula_sum   'Ba7 Tc4 O19'
_cell_volume   457.25204022
_cell_formula_units_Z   1
loop_
 _symmetry_equiv_pos_site_id
 _symmetry_equiv_pos_as_xyz
  1  'x, y, z'
loop_
 _atom_site_type_symbol
 _atom_site_label
 _atom_site_symmetry_multiplicity
 _atom_site_fract_x
 _atom_site_fract_y
 _atom_site_fract_z
 _atom_site_occupancy
  Ba  Ba0  1  0.200901  0.200901  0.407457  1
  Ba  Ba1  1  0.799099  0.799099  0.592543  1
  Ba  Ba2  1  0.421049  0.421049  0.170309  1
  Ba  Ba3  1  0.578951  0.578951  0.829691  1
  Ba  Ba4  1  0.500000  0.500000  0.500000  1
  Ba  Ba5  1  0.860551  0.860551  0.951934  1
  Ba  Ba6  1  0.139449  0.139449  0.048066  1
  Tc  Tc7  1  0.968387  0.968388  0.324387  1
  Tc  Tc8  1  0.031613  0.031612  0.675613  1
  Tc  Tc9  1  0.671584  0.671584  0.219145  1
  Tc  Tc10  1  0.328416  0.328416  0.780855  1
  O  O11  1  0.000000  0.000000  0.500000  1
  O  O12  1  0.689589  0.689589  0.380621  1
  O  O13  1  0.310411  0.310411  0.619379  1
  O  O14  1  0.046004  0.046004  0.845148  1
  O  O15  1  0.953996  0.953996  0.154852  1
  O  O16  1  0.392909  0.392909  0.922438  1
  O  O17  1  0.607091  0.607091  0.077562  1
  O  O18  1  0.830994  0.307342  0.284336  1
  O  O19  1  0.692658  0.169006  0.715665  1
  O  O20  1  0.169006  0.692658  0.715664  1
  O  O21  1  0.307342  0.830994  0.284335  1
  O  O22  1  0.648123  0.114042  0.373745  1
  O  O23  1  0.885958  0.351876  0.626255  1
  O  O24  1  0.351877  0.885958  0.626255  1
  O  O25  1  0.114042  0.648124  0.373745  1
  O  O26  1  0.986710  0.520322  0.160246  1
  O  O27  1  0.479678  0.013291  0.839754  1
  O  O28  1  0.013290  0.479678  0.839754  1
  O  O29  1  0.520322  0.986709  0.160246  1
