# generated using pymatgen
data_La3NdLuIn3Br
_symmetry_space_group_name_H-M   'P 1'
_cell_length_a   9.63878400
_cell_length_b   9.63878467
_cell_length_c   6.84301800
_cell_angle_alpha   90.00000000
_cell_angle_beta   90.00000000
_cell_angle_gamma   120.00000457
_symmetry_Int_Tables_number   1
_chemical_formula_structural   La3NdLuIn3Br
_chemical_formula_sum   'La6 Nd2 Lu2 In6 Br2'
_cell_volume   550.58302852
_cell_formula_units_Z   2
loop_
 _symmetry_equiv_pos_site_id
 _symmetry_equiv_pos_as_xyz
  1  'x, y, z'
loop_
 _atom_site_type_symbol
 _atom_site_label
 _atom_site_symmetry_multiplicity
 _atom_site_fract_x
 _atom_site_fract_y
 _atom_site_fract_z
 _atom_site_occupancy
  La  La0  1  0.732121  0.732121  0.252970  1
  La  La1  1  0.000000  0.732121  0.747030  1
  La  La2  1  0.732121  0.000000  0.747030  1
  La  La3  1  0.267879  0.267879  0.747030  1
  La  La4  1  0.000000  0.267879  0.252970  1
  La  La5  1  0.267879  0.000000  0.252970  1
  Nd  Nd6  1  0.333333  0.666667  0.000000  1
  Nd  Nd7  1  0.666667  0.333333  0.000000  1
  Lu  Lu8  1  0.333333  0.666667  0.500000  1
  Lu  Lu9  1  0.666667  0.333333  0.500000  1
  In  In10  1  0.393608  0.000000  0.746014  1
  In  In11  1  0.000000  0.606392  0.253986  1
  In  In12  1  0.606392  0.000000  0.253986  1
  In  In13  1  0.000000  0.393608  0.746014  1
  In  In14  1  0.393608  0.393608  0.253986  1
  In  In15  1  0.606392  0.606392  0.746014  1
  Br  Br16  1  0.000000  0.000000  0.500000  1
  Br  Br17  1  0.000000  0.000000  0.000000  1
