# generated using pymatgen
data_SiP3Ru4
_symmetry_space_group_name_H-M   'P 1'
_cell_length_a   3.04624200
_cell_length_b   5.62996926
_cell_length_c   6.32121215
_cell_angle_alpha   90.02984176
_cell_angle_beta   90.00000000
_cell_angle_gamma   90.00000000
_symmetry_Int_Tables_number   1
_chemical_formula_structural   SiP3Ru4
_chemical_formula_sum   'Si1 P3 Ru4'
_cell_volume   108.41034648
_cell_formula_units_Z   1
loop_
 _symmetry_equiv_pos_site_id
 _symmetry_equiv_pos_as_xyz
  1  'x, y, z'
loop_
 _atom_site_type_symbol
 _atom_site_label
 _atom_site_symmetry_multiplicity
 _atom_site_fract_x
 _atom_site_fract_y
 _atom_site_fract_z
 _atom_site_occupancy
  Si  Si0  1  0.250000  0.690226  0.056283  1
  P  P1  1  0.750000  0.317065  0.946039  1
  P  P2  1  0.250000  0.191656  0.438689  1
  P  P3  1  0.750000  0.807380  0.559042  1
  Ru  Ru4  1  0.250000  0.491331  0.707917  1
  Ru  Ru5  1  0.750000  0.500254  0.302832  1
  Ru  Ru6  1  0.250000  0.995380  0.784465  1
  Ru  Ru7  1  0.750000  0.006708  0.204732  1
