# generated using pymatgen
data_HoPa3(NiGe)4
_symmetry_space_group_name_H-M   'P 1'
_cell_length_a   4.26430100
_cell_length_b   7.02425547
_cell_length_c   7.21860689
_cell_angle_alpha   89.78816872
_cell_angle_beta   90.00000000
_cell_angle_gamma   90.00000000
_symmetry_Int_Tables_number   1
_chemical_formula_structural   HoPa3(NiGe)4
_chemical_formula_sum   'Ho1 Pa3 Ni4 Ge4'
_cell_volume   216.22134983
_cell_formula_units_Z   1
loop_
 _symmetry_equiv_pos_site_id
 _symmetry_equiv_pos_as_xyz
  1  'x, y, z'
loop_
 _atom_site_type_symbol
 _atom_site_label
 _atom_site_symmetry_multiplicity
 _atom_site_fract_x
 _atom_site_fract_y
 _atom_site_fract_z
 _atom_site_occupancy
  Ho  Ho0  1  0.250000  0.990848  0.291027  1
  Pa  Pa1  1  0.750000  0.013958  0.713252  1
  Pa  Pa2  1  0.250000  0.489926  0.208938  1
  Pa  Pa3  1  0.750000  0.515352  0.789673  1
  Ni  Ni4  1  0.750000  0.791490  0.075507  1
  Ni  Ni5  1  0.250000  0.197004  0.916597  1
  Ni  Ni6  1  0.250000  0.691112  0.584639  1
  Ni  Ni7  1  0.750000  0.296792  0.420143  1
  Ge  Ge8  1  0.250000  0.800938  0.911943  1
  Ge  Ge9  1  0.750000  0.704987  0.407666  1
  Ge  Ge10  1  0.250000  0.299835  0.589405  1
  Ge  Ge11  1  0.750000  0.207757  0.091211  1
