# generated using pymatgen
data_Tb4Ho6In8Ni3Ag
_symmetry_space_group_name_H-M   'P 1'
_cell_length_a   8.06289797
_cell_length_b   18.12257587
_cell_length_c   3.60726400
_cell_angle_alpha   90.00000000
_cell_angle_beta   90.00000000
_cell_angle_gamma   89.86768717
_symmetry_Int_Tables_number   1
_chemical_formula_structural   Tb4Ho6In8Ni3Ag
_chemical_formula_sum   'Tb4 Ho6 In8 Ni3 Ag1'
_cell_volume   527.09374242
_cell_formula_units_Z   1
loop_
 _symmetry_equiv_pos_site_id
 _symmetry_equiv_pos_as_xyz
  1  'x, y, z'
loop_
 _atom_site_type_symbol
 _atom_site_label
 _atom_site_symmetry_multiplicity
 _atom_site_fract_x
 _atom_site_fract_y
 _atom_site_fract_z
 _atom_site_occupancy
  Tb  Tb0  1  0.498589  0.502230  0.000000  1
  Tb  Tb1  1  0.000824  0.997663  0.000000  1
  Tb  Tb2  1  0.769168  0.286398  0.000000  1
  Tb  Tb3  1  0.249808  0.721415  0.000000  1
  Ho  Ho4  1  0.750881  0.777050  0.000000  1
  Ho  Ho5  1  0.224116  0.223380  0.000000  1
  Ho  Ho6  1  0.625637  0.075671  0.000000  1
  Ho  Ho7  1  0.381790  0.908918  0.000000  1
  Ho  Ho8  1  0.880320  0.590184  0.000000  1
  Ho  Ho9  1  0.121275  0.414803  0.000000  1
  In  In10  1  0.704556  0.926082  0.500000  1
  In  In11  1  0.296323  0.066619  0.500000  1
  In  In12  1  0.799447  0.436692  0.500000  1
  In  In13  1  0.200421  0.569995  0.500000  1
  In  In14  1  0.569523  0.652365  0.500000  1
  In  In15  1  0.427053  0.351354  0.500000  1
  In  In16  1  0.922451  0.149475  0.500000  1
  In  In17  1  0.069285  0.847002  0.500000  1
  Ni  Ni18  1  0.474007  0.802703  0.500000  1
  Ni  Ni19  1  0.971970  0.696250  0.500000  1
  Ni  Ni20  1  0.032364  0.306148  0.500000  1
  Ag  Ag21  1  0.530193  0.197603  0.500000  1
