# generated using pymatgen
data_ErTm2In3HgPt2
_symmetry_space_group_name_H-M   'P 1'
_cell_length_a   7.68522790
_cell_length_b   7.69250094
_cell_length_c   3.94179600
_cell_angle_alpha   90.00000000
_cell_angle_beta   90.00000000
_cell_angle_gamma   120.06830865
_symmetry_Int_Tables_number   1
_chemical_formula_structural   ErTm2In3HgPt2
_chemical_formula_sum   'Er1 Tm2 In3 Hg1 Pt2'
_cell_volume   201.67391913
_cell_formula_units_Z   1
loop_
 _symmetry_equiv_pos_site_id
 _symmetry_equiv_pos_as_xyz
  1  'x, y, z'
loop_
 _atom_site_type_symbol
 _atom_site_label
 _atom_site_symmetry_multiplicity
 _atom_site_fract_x
 _atom_site_fract_y
 _atom_site_fract_z
 _atom_site_occupancy
  Er  Er0  1  0.390762  0.411207  0.500000  1
  Tm  Tm1  1  0.589091  0.979344  0.500000  1
  Tm  Tm2  1  0.020846  0.609911  0.500000  1
  In  In3  1  0.001975  0.256791  0.000000  1
  In  In4  1  0.742490  0.744852  0.000000  1
  In  In5  1  0.254840  0.997369  0.000000  1
  Hg  Hg6  1  0.667332  0.333052  0.000000  1
  Pt  Pt7  1  0.999352  0.999816  0.500000  1
  Pt  Pt8  1  0.333314  0.667658  0.000000  1
