# generated using pymatgen
data_Dy5Mg3P12(Ir7Rh)2
_symmetry_space_group_name_H-M   'P 1'
_cell_length_a   12.80813629
_cell_length_b   12.78233132
_cell_length_c   3.98388100
_cell_angle_alpha   90.00000000
_cell_angle_beta   90.00000000
_cell_angle_gamma   119.98662276
_symmetry_Int_Tables_number   1
_chemical_formula_structural   Dy5Mg3P12(Ir7Rh)2
_chemical_formula_sum   'Dy5 Mg3 P12 Ir14 Rh2'
_cell_volume   564.92595178
_cell_formula_units_Z   1
loop_
 _symmetry_equiv_pos_site_id
 _symmetry_equiv_pos_as_xyz
  1  'x, y, z'
loop_
 _atom_site_type_symbol
 _atom_site_label
 _atom_site_symmetry_multiplicity
 _atom_site_fract_x
 _atom_site_fract_y
 _atom_site_fract_z
 _atom_site_occupancy
  Dy  Dy0  1  0.333643  0.666504  0.500000  1
  Dy  Dy1  1  0.666817  0.333252  0.500000  1
  Dy  Dy2  1  0.000193  0.809595  0.000000  1
  Dy  Dy3  1  0.189162  0.189147  0.000000  1
  Dy  Dy4  1  0.808999  0.000151  0.000000  1
  Mg  Mg5  1  0.999462  0.446038  0.500000  1
  Mg  Mg6  1  0.554397  0.554663  0.500000  1
  Mg  Mg7  1  0.446237  0.999986  0.500000  1
  P  P8  1  0.999370  0.642154  0.500000  1
  P  P9  1  0.358293  0.358461  0.500000  1
  P  P10  1  0.642835  0.000497  0.500000  1
  P  P11  1  0.516421  0.689603  0.000000  1
  P  P12  1  0.308979  0.824967  0.000000  1
  P  P13  1  0.174227  0.484420  0.000000  1
  P  P14  1  0.484628  0.172782  0.000000  1
  P  P15  1  0.688557  0.516143  0.000000  1
  P  P16  1  0.827100  0.311684  0.000000  1
  P  P17  1  0.000225  0.177729  0.500000  1
  P  P18  1  0.822387  0.823193  0.500000  1
  P  P19  1  0.177682  0.999352  0.500000  1
  Ir  Ir20  1  0.360464  0.490795  0.000000  1
  Ir  Ir21  1  0.492173  0.359534  0.000000  1
  Ir  Ir22  1  0.867987  0.509049  0.000000  1
  Ir  Ir23  1  0.640770  0.131410  0.000000  1
  Ir  Ir24  1  0.000431  0.280084  0.000000  1
  Ir  Ir25  1  0.720736  0.720893  0.000000  1
  Ir  Ir26  1  0.280119  0.000044  0.000000  1
  Ir  Ir27  1  0.625643  0.804411  0.500000  1
  Ir  Ir28  1  0.195744  0.821114  0.500000  1
  Ir  Ir29  1  0.178279  0.373126  0.500000  1
  Ir  Ir30  1  0.372073  0.178239  0.500000  1
  Ir  Ir31  1  0.805131  0.627402  0.500000  1
  Ir  Ir32  1  0.822443  0.195590  0.500000  1
  Ir  Ir33  1  0.000686  0.000346  0.500000  1
  Rh  Rh34  1  0.508182  0.868680  0.000000  1
  Rh  Rh35  1  0.129526  0.638965  0.000000  1
