# generated using pymatgen
data_Er5Lu3(BBr6)2
_symmetry_space_group_name_H-M   'P 1'
_cell_length_a   3.89944000
_cell_length_b   12.98775200
_cell_length_c   13.45035012
_cell_angle_alpha   89.92205661
_cell_angle_beta   90.00000000
_cell_angle_gamma   90.00000000
_symmetry_Int_Tables_number   1
_chemical_formula_structural   Er5Lu3(BBr6)2
_chemical_formula_sum   'Er5 Lu3 B2 Br12'
_cell_volume   681.19180871
_cell_formula_units_Z   1
loop_
 _symmetry_equiv_pos_site_id
 _symmetry_equiv_pos_as_xyz
  1  'x, y, z'
loop_
 _atom_site_type_symbol
 _atom_site_label
 _atom_site_symmetry_multiplicity
 _atom_site_fract_x
 _atom_site_fract_y
 _atom_site_fract_z
 _atom_site_occupancy
  Er  Er0  1  0.000000  0.100602  0.079915  1
  Er  Er1  1  0.500000  0.122249  0.855595  1
  Er  Er2  1  0.500000  0.876954  0.143763  1
  Er  Er3  1  0.500000  0.622378  0.643771  1
  Er  Er4  1  0.500000  0.377656  0.356244  1
  Lu  Lu5  1  0.000000  0.899996  0.920563  1
  Lu  Lu6  1  0.000000  0.599236  0.421116  1
  Lu  Lu7  1  0.000000  0.400776  0.578884  1
  B  B8  1  0.500000  0.999175  0.999354  1
  B  B9  1  0.500000  0.500096  0.500124  1
  Br  Br10  1  0.500000  0.269923  0.680628  1
  Br  Br11  1  0.500000  0.729973  0.319310  1
  Br  Br12  1  0.500000  0.769736  0.819171  1
  Br  Br13  1  0.500000  0.232504  0.182496  1
  Br  Br14  1  0.000000  0.262368  0.930935  1
  Br  Br15  1  0.000000  0.737855  0.067244  1
  Br  Br16  1  0.000000  0.482468  0.238880  1
  Br  Br17  1  0.000000  0.517800  0.761228  1
  Br  Br18  1  0.000000  0.980411  0.262035  1
  Br  Br19  1  0.000000  0.017782  0.738557  1
  Br  Br20  1  0.000000  0.238188  0.433023  1
  Br  Br21  1  0.000000  0.761875  0.567164  1
