# generated using pymatgen
data_CsK5Te2O9
_symmetry_space_group_name_H-M   'P 1'
_cell_length_a   8.36327800
_cell_length_b   9.17014700
_cell_length_c   17.21324900
_cell_angle_alpha   90.00000000
_cell_angle_beta   90.00000000
_cell_angle_gamma   90.00000000
_symmetry_Int_Tables_number   1
_chemical_formula_structural   CsK5Te2O9
_chemical_formula_sum   'Cs4 K20 Te8 O36'
_cell_volume   1320.12690377
_cell_formula_units_Z   4
loop_
 _symmetry_equiv_pos_site_id
 _symmetry_equiv_pos_as_xyz
  1  'x, y, z'
loop_
 _atom_site_type_symbol
 _atom_site_label
 _atom_site_symmetry_multiplicity
 _atom_site_fract_x
 _atom_site_fract_y
 _atom_site_fract_z
 _atom_site_occupancy
  Cs  Cs0  1  0.250000  0.748497  0.271374  1
  Cs  Cs1  1  0.250000  0.751503  0.771374  1
  Cs  Cs2  1  0.750000  0.251503  0.728626  1
  Cs  Cs3  1  0.750000  0.248497  0.228626  1
  K  K4  1  0.981444  0.016792  0.394295  1
  K  K5  1  0.981444  0.483208  0.894295  1
  K  K6  1  0.518556  0.483208  0.894295  1
  K  K7  1  0.995356  0.966228  0.101878  1
  K  K8  1  0.481444  0.983208  0.605705  1
  K  K9  1  0.750000  0.746247  0.979322  1
  K  K10  1  0.250000  0.246247  0.520678  1
  K  K11  1  0.481444  0.516792  0.105705  1
  K  K12  1  0.004644  0.466228  0.398122  1
  K  K13  1  0.504644  0.533772  0.601878  1
  K  K14  1  0.518556  0.016792  0.394295  1
  K  K15  1  0.995356  0.533772  0.601878  1
  K  K16  1  0.018556  0.983208  0.605705  1
  K  K17  1  0.250000  0.253753  0.020678  1
  K  K18  1  0.495356  0.033772  0.898122  1
  K  K19  1  0.004644  0.033772  0.898122  1
  K  K20  1  0.495356  0.466228  0.398122  1
  K  K21  1  0.750000  0.753753  0.479322  1
  K  K22  1  0.018556  0.516792  0.105705  1
  K  K23  1  0.504644  0.966228  0.101878  1
  Te  Te24  1  0.750000  0.247969  0.006905  1
  Te  Te25  1  0.750000  0.252031  0.506905  1
  Te  Te26  1  0.250000  0.297244  0.754738  1
  Te  Te27  1  0.750000  0.797244  0.745262  1
  Te  Te28  1  0.250000  0.202756  0.254738  1
  Te  Te29  1  0.250000  0.752031  0.993095  1
  Te  Te30  1  0.750000  0.702756  0.245262  1
  Te  Te31  1  0.250000  0.747969  0.493095  1
  O  O32  1  0.447484  0.756024  0.938762  1
  O  O33  1  0.250000  0.540146  0.989140  1
  O  O34  1  0.947484  0.256024  0.561238  1
  O  O35  1  0.250000  0.227706  0.855702  1
  O  O36  1  0.427834  0.084720  0.243079  1
  O  O37  1  0.552516  0.243976  0.061238  1
  O  O38  1  0.750000  0.036029  0.002439  1
  O  O39  1  0.250000  0.272294  0.355702  1
  O  O40  1  0.052516  0.756024  0.938762  1
  O  O41  1  0.750000  0.254097  0.895692  1
  O  O42  1  0.250000  0.536029  0.497561  1
  O  O43  1  0.250000  0.963971  0.997561  1
  O  O44  1  0.947484  0.243976  0.061238  1
  O  O45  1  0.072166  0.415280  0.743079  1
  O  O46  1  0.927834  0.584720  0.256921  1
  O  O47  1  0.750000  0.644039  0.814385  1
  O  O48  1  0.750000  0.463971  0.502439  1
  O  O49  1  0.250000  0.959854  0.489140  1
  O  O50  1  0.750000  0.040146  0.510860  1
  O  O51  1  0.447484  0.743976  0.438762  1
  O  O52  1  0.750000  0.727706  0.644298  1
  O  O53  1  0.572166  0.584720  0.256921  1
  O  O54  1  0.750000  0.245903  0.395692  1
  O  O55  1  0.750000  0.772294  0.144298  1
  O  O56  1  0.572166  0.915280  0.756921  1
  O  O57  1  0.750000  0.459854  0.010860  1
  O  O58  1  0.250000  0.355961  0.185615  1
  O  O59  1  0.072166  0.084720  0.243079  1
  O  O60  1  0.927834  0.915280  0.756921  1
  O  O61  1  0.250000  0.754097  0.604308  1
  O  O62  1  0.250000  0.745903  0.104308  1
  O  O63  1  0.250000  0.144039  0.685615  1
  O  O64  1  0.552516  0.256024  0.561238  1
  O  O65  1  0.052516  0.743976  0.438762  1
  O  O66  1  0.750000  0.855961  0.314385  1
  O  O67  1  0.427834  0.415280  0.743079  1
