# generated using pymatgen
data_Zr10GaGePb6
_symmetry_space_group_name_H-M   'P 1'
_cell_length_a   8.84879300
_cell_length_b   8.84879279
_cell_length_c   5.97512600
_cell_angle_alpha   90.00000000
_cell_angle_beta   90.00000000
_cell_angle_gamma   120.00000452
_symmetry_Int_Tables_number   1
_chemical_formula_structural   Zr10GaGePb6
_chemical_formula_sum   'Zr10 Ga1 Ge1 Pb6'
_cell_volume   405.17789235
_cell_formula_units_Z   1
loop_
 _symmetry_equiv_pos_site_id
 _symmetry_equiv_pos_as_xyz
  1  'x, y, z'
loop_
 _atom_site_type_symbol
 _atom_site_label
 _atom_site_symmetry_multiplicity
 _atom_site_fract_x
 _atom_site_fract_y
 _atom_site_fract_z
 _atom_site_occupancy
  Zr  Zr0  1  0.666667  0.333333  0.000000  1
  Zr  Zr1  1  0.333333  0.666667  0.000000  1
  Zr  Zr2  1  0.333333  0.666667  0.500000  1
  Zr  Zr3  1  0.666667  0.333333  0.500000  1
  Zr  Zr4  1  0.738432  0.738432  0.751275  1
  Zr  Zr5  1  0.261568  0.000000  0.751275  1
  Zr  Zr6  1  0.000000  0.261568  0.751275  1
  Zr  Zr7  1  0.261568  0.261568  0.248725  1
  Zr  Zr8  1  0.738432  0.000000  0.248725  1
  Zr  Zr9  1  0.000000  0.738432  0.248725  1
  Ga  Ga10  1  0.000000  0.000000  0.500000  1
  Ge  Ge11  1  0.000000  0.000000  0.000000  1
  Pb  Pb12  1  0.390895  0.390895  0.748610  1
  Pb  Pb13  1  0.609105  0.000000  0.748610  1
  Pb  Pb14  1  0.000000  0.609105  0.748610  1
  Pb  Pb15  1  0.609105  0.609105  0.251390  1
  Pb  Pb16  1  0.390895  0.000000  0.251390  1
  Pb  Pb17  1  0.000000  0.390895  0.251390  1
