# generated using pymatgen
data_TmGaTeO6
_symmetry_space_group_name_H-M   'P 1'
_cell_length_a   5.12278600
_cell_length_b   5.12280009
_cell_length_c   9.50795200
_cell_angle_alpha   90.00045856
_cell_angle_beta   89.99976513
_cell_angle_gamma   120.00008983
_symmetry_Int_Tables_number   1
_chemical_formula_structural   TmGaTeO6
_chemical_formula_sum   'Tm2 Ga2 Te2 O12'
_cell_volume   216.08809535
_cell_formula_units_Z   2
loop_
 _symmetry_equiv_pos_site_id
 _symmetry_equiv_pos_as_xyz
  1  'x, y, z'
loop_
 _atom_site_type_symbol
 _atom_site_label
 _atom_site_symmetry_multiplicity
 _atom_site_fract_x
 _atom_site_fract_y
 _atom_site_fract_z
 _atom_site_occupancy
  Tm  Tm0  1  0.000005  0.000001  0.999998  1
  Tm  Tm1  1  0.999995  0.999993  0.499998  1
  Ga  Ga2  1  0.333334  0.666667  0.250000  1
  Ga  Ga3  1  0.666665  0.333333  0.750000  1
  Te  Te4  1  0.666670  0.333335  0.250000  1
  Te  Te5  1  0.333333  0.666665  0.750000  1
  O  O6  1  0.645907  0.637842  0.136823  1
  O  O7  1  0.362152  0.008060  0.136821  1
  O  O8  1  0.991940  0.354094  0.136822  1
  O  O9  1  0.362154  0.354094  0.363179  1
  O  O10  1  0.991938  0.637846  0.363179  1
  O  O11  1  0.645907  0.008064  0.363179  1
  O  O12  1  0.354092  0.991936  0.636822  1
  O  O13  1  0.637845  0.645906  0.636822  1
  O  O14  1  0.008061  0.362153  0.636822  1
  O  O15  1  0.008059  0.645907  0.863180  1
  O  O16  1  0.637846  0.991941  0.863179  1
  O  O17  1  0.354091  0.362157  0.863178  1
