# generated using pymatgen
data_YbTh3(MgSi2)2
_symmetry_space_group_name_H-M   'P 1'
_cell_length_a   7.33458041
_cell_length_b   7.33458041
_cell_length_c   4.35930400
_cell_angle_alpha   90.00000000
_cell_angle_beta   90.00000000
_cell_angle_gamma   90.17348302
_symmetry_Int_Tables_number   1
_chemical_formula_structural   YbTh3(MgSi2)2
_chemical_formula_sum   'Yb1 Th3 Mg2 Si4'
_cell_volume   234.51234693
_cell_formula_units_Z   1
loop_
 _symmetry_equiv_pos_site_id
 _symmetry_equiv_pos_as_xyz
  1  'x, y, z'
loop_
 _atom_site_type_symbol
 _atom_site_label
 _atom_site_symmetry_multiplicity
 _atom_site_fract_x
 _atom_site_fract_y
 _atom_site_fract_z
 _atom_site_occupancy
  Yb  Yb0  1  0.678109  0.178109  0.500000  1
  Th  Th1  1  0.322964  0.822964  0.500000  1
  Th  Th2  1  0.822077  0.677956  0.500000  1
  Th  Th3  1  0.177956  0.322077  0.500000  1
  Mg  Mg4  1  0.501951  0.496764  0.000000  1
  Mg  Mg5  1  0.996764  0.001951  0.000000  1
  Si  Si6  1  0.884601  0.384601  0.000000  1
  Si  Si7  1  0.381807  0.115778  0.000000  1
  Si  Si8  1  0.117992  0.617992  0.000000  1
  Si  Si9  1  0.615778  0.881807  0.000000  1
