# generated using pymatgen
data_AcSm2SbO7
_symmetry_space_group_name_H-M   'P 1'
_cell_length_a   6.65259900
_cell_length_b   6.65260015
_cell_length_c   7.74525700
_cell_angle_alpha   90.00000000
_cell_angle_beta   90.00000000
_cell_angle_gamma   108.94293629
_symmetry_Int_Tables_number   1
_chemical_formula_structural   AcSm2SbO7
_chemical_formula_sum   'Ac2 Sm4 Sb2 O14'
_cell_volume   324.21817643
_cell_formula_units_Z   2
loop_
 _symmetry_equiv_pos_site_id
 _symmetry_equiv_pos_as_xyz
  1  'x, y, z'
loop_
 _atom_site_type_symbol
 _atom_site_label
 _atom_site_symmetry_multiplicity
 _atom_site_fract_x
 _atom_site_fract_y
 _atom_site_fract_z
 _atom_site_occupancy
  Ac  Ac0  1  0.500535  0.500535  0.500000  1
  Ac  Ac1  1  0.499465  0.499465  0.000000  1
  Sm  Sm2  1  0.467527  0.000317  0.249882  1
  Sm  Sm3  1  0.999683  0.532473  0.250118  1
  Sm  Sm4  1  0.532473  0.999683  0.749882  1
  Sm  Sm5  1  0.000317  0.467527  0.750118  1
  Sb  Sb6  1  0.000304  0.000304  0.500000  1
  Sb  Sb7  1  0.999696  0.999696  0.000000  1
  O  O8  1  0.314173  0.063897  0.528708  1
  O  O9  1  0.936103  0.685827  0.971292  1
  O  O10  1  0.685827  0.936103  0.028708  1
  O  O11  1  0.063897  0.314173  0.471292  1
  O  O12  1  0.936315  0.686164  0.529113  1
  O  O13  1  0.313836  0.063685  0.970887  1
  O  O14  1  0.063685  0.313836  0.029113  1
  O  O15  1  0.686164  0.936315  0.470887  1
  O  O16  1  0.639747  0.360253  0.250000  1
  O  O17  1  0.360253  0.639747  0.750000  1
  O  O18  1  0.643297  0.356703  0.750000  1
  O  O19  1  0.356703  0.643297  0.250000  1
  O  O20  1  0.064067  0.935933  0.250000  1
  O  O21  1  0.935933  0.064067  0.750000  1
