# generated using pymatgen
data_Pr4ZnPt3
_symmetry_space_group_name_H-M   'P 1'
_cell_length_a   4.62015400
_cell_length_b   5.83812647
_cell_length_c   7.52128984
_cell_angle_alpha   90.30559676
_cell_angle_beta   90.00000000
_cell_angle_gamma   90.00000000
_symmetry_Int_Tables_number   1
_chemical_formula_structural   Pr4ZnPt3
_chemical_formula_sum   'Pr4 Zn1 Pt3'
_cell_volume   202.86919154
_cell_formula_units_Z   1
loop_
 _symmetry_equiv_pos_site_id
 _symmetry_equiv_pos_as_xyz
  1  'x, y, z'
loop_
 _atom_site_type_symbol
 _atom_site_label
 _atom_site_symmetry_multiplicity
 _atom_site_fract_x
 _atom_site_fract_y
 _atom_site_fract_z
 _atom_site_occupancy
  Pr  Pr0  1  0.250000  0.361936  0.689738  1
  Pr  Pr1  1  0.250000  0.147692  0.178319  1
  Pr  Pr2  1  0.750000  0.629370  0.305320  1
  Pr  Pr3  1  0.750000  0.862494  0.828025  1
  Zn  Zn4  1  0.250000  0.870475  0.533624  1
  Pt  Pt5  1  0.250000  0.661615  0.044131  1
  Pt  Pt6  1  0.750000  0.118344  0.466077  1
  Pt  Pt7  1  0.750000  0.348074  0.954765  1
