# generated using pymatgen
data_Gd3Dy3TaO12
_symmetry_space_group_name_H-M   'P 1'
_cell_length_a   6.52488516
_cell_length_b   6.51854718
_cell_length_c   6.52227749
_cell_angle_alpha   98.63398863
_cell_angle_beta   98.73405860
_cell_angle_gamma   98.76451371
_symmetry_Int_Tables_number   1
_chemical_formula_structural   Gd3Dy3TaO12
_chemical_formula_sum   'Gd3 Dy3 Ta1 O12'
_cell_volume   266.69539824
_cell_formula_units_Z   1
loop_
 _symmetry_equiv_pos_site_id
 _symmetry_equiv_pos_as_xyz
  1  'x, y, z'
loop_
 _atom_site_type_symbol
 _atom_site_label
 _atom_site_symmetry_multiplicity
 _atom_site_fract_x
 _atom_site_fract_y
 _atom_site_fract_z
 _atom_site_occupancy
  Gd  Gd0  1  0.699891  0.863653  0.391789  1
  Gd  Gd1  1  0.391409  0.694525  0.858533  1
  Gd  Gd2  1  0.138753  0.607285  0.303748  1
  Dy  Dy3  1  0.860452  0.387471  0.699200  1
  Dy  Dy4  1  0.611170  0.299512  0.135942  1
  Dy  Dy5  1  0.303965  0.142744  0.612874  1
  Ta  Ta6  1  0.002155  0.999410  0.000852  1
  O  O7  1  0.929721  0.043842  0.698616  1
  O  O8  1  0.955857  0.301837  0.070234  1
  O  O9  1  0.587236  0.178298  0.436476  1
  O  O10  1  0.819365  0.561907  0.411071  1
  O  O11  1  0.302337  0.074920  0.959425  1
  O  O12  1  0.564358  0.409383  0.822427  1
  O  O13  1  0.436257  0.586298  0.176820  1
  O  O14  1  0.698625  0.930350  0.041155  1
  O  O15  1  0.174768  0.434258  0.587480  1
  O  O16  1  0.411859  0.824505  0.565087  1
  O  O17  1  0.037420  0.697964  0.925657  1
  O  O18  1  0.074400  0.961837  0.302613  1
