# generated using pymatgen
data_Nd2Zn20CuPt
_symmetry_space_group_name_H-M   'P 1'
_cell_length_a   8.25412499
_cell_length_b   8.28342306
_cell_length_c   8.28341499
_cell_angle_alpha   99.73667948
_cell_angle_beta   100.07786373
_cell_angle_gamma   131.21147529
_symmetry_Int_Tables_number   1
_chemical_formula_structural   Nd2Zn20CuPt
_chemical_formula_sum   'Nd2 Zn20 Cu1 Pt1'
_cell_volume   387.32885808
_cell_formula_units_Z   1
loop_
 _symmetry_equiv_pos_site_id
 _symmetry_equiv_pos_as_xyz
  1  'x, y, z'
loop_
 _atom_site_type_symbol
 _atom_site_label
 _atom_site_symmetry_multiplicity
 _atom_site_fract_x
 _atom_site_fract_y
 _atom_site_fract_z
 _atom_site_occupancy
  Nd  Nd0  1  0.252699  0.749731  0.502968  1
  Nd  Nd1  1  0.997301  0.000269  0.997032  1
  Zn  Zn2  1  0.421294  0.094083  0.914092  1
  Zn  Zn3  1  0.182395  0.508663  0.077539  1
  Zn  Zn4  1  0.492875  0.492913  0.999962  1
  Zn  Zn5  1  0.757125  0.257087  0.500038  1
  Zn  Zn6  1  0.625000  0.375000  0.750000  1
  Zn  Zn7  1  0.625000  0.875000  0.250000  1
  Zn  Zn8  1  0.182395  0.104856  0.673732  1
  Zn  Zn9  1  0.762245  0.935711  0.586292  1
  Zn  Zn10  1  0.344241  0.172306  0.414711  1
  Zn  Zn11  1  0.421294  0.507202  0.327210  1
  Zn  Zn12  1  0.905761  0.820470  0.328065  1
  Zn  Zn13  1  0.487756  0.574047  0.673468  1
  Zn  Zn14  1  0.067605  0.241336  0.422460  1
  Zn  Zn15  1  0.828706  0.655917  0.585907  1
  Zn  Zn16  1  0.067605  0.645145  0.826268  1
  Zn  Zn17  1  0.487755  0.814289  0.913708  1
  Zn  Zn18  1  0.905760  0.577694  0.085289  1
  Zn  Zn19  1  0.828707  0.242798  0.172790  1
  Zn  Zn20  1  0.344240  0.929531  0.171935  1
  Zn  Zn21  1  0.762244  0.175953  0.826533  1
  Cu  Cu22  1  0.124999  0.375000  0.749999  1
  Pt  Pt23  1  0.624999  0.375000  0.249999  1
