# generated using pymatgen
data_Zr6TiZn22As
_symmetry_space_group_name_H-M   'P 1'
_cell_length_a   8.81330920
_cell_length_b   8.81330927
_cell_length_c   8.81331000
_cell_angle_alpha   60.00000475
_cell_angle_beta   60.00000449
_cell_angle_gamma   59.99999892
_symmetry_Int_Tables_number   1
_chemical_formula_structural   Zr6TiZn22As
_chemical_formula_sum   'Zr6 Ti1 Zn22 As1'
_cell_volume   484.06322733
_cell_formula_units_Z   1
loop_
 _symmetry_equiv_pos_site_id
 _symmetry_equiv_pos_as_xyz
  1  'x, y, z'
loop_
 _atom_site_type_symbol
 _atom_site_label
 _atom_site_symmetry_multiplicity
 _atom_site_fract_x
 _atom_site_fract_y
 _atom_site_fract_z
 _atom_site_occupancy
  Zr  Zr0  1  0.712362  0.287638  0.287638  1
  Zr  Zr1  1  0.287638  0.712362  0.712362  1
  Zr  Zr2  1  0.287638  0.712362  0.287638  1
  Zr  Zr3  1  0.712362  0.287638  0.712362  1
  Zr  Zr4  1  0.287638  0.287638  0.712362  1
  Zr  Zr5  1  0.712362  0.712362  0.287638  1
  Ti  Ti6  1  0.000000  0.000000  0.000000  1
  Zn  Zn7  1  0.122634  0.122634  0.122634  1
  Zn  Zn8  1  0.877366  0.877366  0.877366  1
  Zn  Zn9  1  0.122634  0.122634  0.632100  1
  Zn  Zn10  1  0.122634  0.632100  0.122634  1
  Zn  Zn11  1  0.877366  0.877366  0.367900  1
  Zn  Zn12  1  0.877366  0.367900  0.877366  1
  Zn  Zn13  1  0.632100  0.122634  0.122634  1
  Zn  Zn14  1  0.367900  0.877366  0.877366  1
  Zn  Zn15  1  0.500000  0.000000  0.000000  1
  Zn  Zn16  1  0.000000  0.500000  0.500000  1
  Zn  Zn17  1  0.000000  0.500000  0.000000  1
  Zn  Zn18  1  0.500000  0.000000  0.500000  1
  Zn  Zn19  1  0.000000  0.000000  0.500000  1
  Zn  Zn20  1  0.500000  0.500000  0.000000  1
  Zn  Zn21  1  0.334949  0.334949  0.334949  1
  Zn  Zn22  1  0.665051  0.665051  0.665051  1
  Zn  Zn23  1  0.334949  0.334949  0.995155  1
  Zn  Zn24  1  0.334949  0.995155  0.334949  1
  Zn  Zn25  1  0.665051  0.665051  0.004845  1
  Zn  Zn26  1  0.665051  0.004845  0.665051  1
  Zn  Zn27  1  0.995155  0.334949  0.334949  1
  Zn  Zn28  1  0.004845  0.665051  0.665051  1
  As  As29  1  0.500000  0.500000  0.500000  1
