# generated using pymatgen
data_V(NiPt3)2
_symmetry_space_group_name_H-M   'P 1'
_cell_length_a   6.03499552
_cell_length_b   6.03499470
_cell_length_c   6.15676144
_cell_angle_alpha   95.76966071
_cell_angle_beta   95.76965360
_cell_angle_gamma   142.64434076
_symmetry_Int_Tables_number   1
_chemical_formula_structural   V(NiPt3)2
_chemical_formula_sum   'V1 Ni2 Pt6'
_cell_volume   129.18041844
_cell_formula_units_Z   1
loop_
 _symmetry_equiv_pos_site_id
 _symmetry_equiv_pos_as_xyz
  1  'x, y, z'
loop_
 _atom_site_type_symbol
 _atom_site_label
 _atom_site_symmetry_multiplicity
 _atom_site_fract_x
 _atom_site_fract_y
 _atom_site_fract_z
 _atom_site_occupancy
  V  V0  1  0.000000  0.000000  0.000000  1
  Ni  Ni1  1  0.336612  0.336612  0.673224  1
  Ni  Ni2  1  0.663388  0.663388  0.326776  1
  Pt  Pt3  1  0.655579  0.344421  0.000000  1
  Pt  Pt4  1  0.344421  0.655579  0.000000  1
  Pt  Pt5  1  0.009743  0.322842  0.332585  1
  Pt  Pt6  1  0.990257  0.677158  0.667415  1
  Pt  Pt7  1  0.677158  0.990257  0.667415  1
  Pt  Pt8  1  0.322842  0.009743  0.332585  1
