# generated using pymatgen
data_La7Dy13Pb16
_symmetry_space_group_name_H-M   'P 1'
_cell_length_a   8.35307370
_cell_length_b   8.42092802
_cell_length_c   15.93359986
_cell_angle_alpha   90.00992838
_cell_angle_beta   89.61843710
_cell_angle_gamma   90.18609593
_symmetry_Int_Tables_number   1
_chemical_formula_structural   La7Dy13Pb16
_chemical_formula_sum   'La7 Dy13 Pb16'
_cell_volume   1120.74871346
_cell_formula_units_Z   1
loop_
 _symmetry_equiv_pos_site_id
 _symmetry_equiv_pos_as_xyz
  1  'x, y, z'
loop_
 _atom_site_type_symbol
 _atom_site_label
 _atom_site_symmetry_multiplicity
 _atom_site_fract_x
 _atom_site_fract_y
 _atom_site_fract_z
 _atom_site_occupancy
  La  La0  1  0.521623  0.321272  0.401437  1
  La  La1  1  0.476422  0.678449  0.903183  1
  La  La2  1  0.978881  0.821811  0.596183  1
  La  La3  1  0.976525  0.823401  0.903956  1
  La  La4  1  0.479080  0.678061  0.596587  1
  La  La5  1  0.522742  0.320879  0.097582  1
  La  La6  1  0.019998  0.177605  0.403845  1
  Dy  Dy7  1  0.865109  0.657694  0.122517  1
  Dy  Dy8  1  0.362538  0.841350  0.376862  1
  Dy  Dy9  1  0.633123  0.158066  0.879179  1
  Dy  Dy10  1  0.136874  0.341291  0.623248  1
  Dy  Dy11  1  0.132875  0.341500  0.878545  1
  Dy  Dy12  1  0.636434  0.158792  0.622346  1
  Dy  Dy13  1  0.365908  0.843056  0.121544  1
  Dy  Dy14  1  0.863431  0.657595  0.375152  1
  Dy  Dy15  1  0.029448  0.176757  0.100066  1
  Dy  Dy16  1  0.699094  0.996153  0.248576  1
  Dy  Dy17  1  0.198021  0.504830  0.248515  1
  Dy  Dy18  1  0.801435  0.494286  0.750343  1
  Dy  Dy19  1  0.300926  0.004584  0.751012  1
  Pb  Pb20  1  0.059784  0.871741  0.248748  1
  Pb  Pb21  1  0.559348  0.629561  0.249179  1
  Pb  Pb22  1  0.440090  0.369910  0.751010  1
  Pb  Pb23  1  0.940002  0.129842  0.750490  1
  Pb  Pb24  1  0.838170  0.347347  0.246960  1
  Pb  Pb25  1  0.329667  0.147522  0.249372  1
  Pb  Pb26  1  0.666508  0.852769  0.749921  1
  Pb  Pb27  1  0.166034  0.649045  0.749994  1
  Pb  Pb28  1  0.795666  0.460155  0.956587  1
  Pb  Pb29  1  0.298576  0.042039  0.543776  1
  Pb  Pb30  1  0.712312  0.965596  0.045889  1
  Pb  Pb31  1  0.201295  0.540694  0.455682  1
  Pb  Pb32  1  0.202212  0.537086  0.044404  1
  Pb  Pb33  1  0.700729  0.956198  0.455559  1
  Pb  Pb34  1  0.290655  0.044211  0.958916  1
  Pb  Pb35  1  0.798465  0.458854  0.542835  1
