# generated using pymatgen
data_HgAuF7
_symmetry_space_group_name_H-M   'P 1'
_cell_length_a   10.45821700
_cell_length_b   7.31248524
_cell_length_c   8.19644826
_cell_angle_alpha   78.23571850
_cell_angle_beta   90.00000000
_cell_angle_gamma   90.00000000
_symmetry_Int_Tables_number   1
_chemical_formula_structural   HgAuF7
_chemical_formula_sum   'Hg4 Au4 F28'
_cell_volume   613.66123015
_cell_formula_units_Z   4
loop_
 _symmetry_equiv_pos_site_id
 _symmetry_equiv_pos_as_xyz
  1  'x, y, z'
loop_
 _atom_site_type_symbol
 _atom_site_label
 _atom_site_symmetry_multiplicity
 _atom_site_fract_x
 _atom_site_fract_y
 _atom_site_fract_z
 _atom_site_occupancy
  Hg  Hg0  1  0.248086  0.278900  0.905109  1
  Hg  Hg1  1  0.748086  0.721100  0.594891  1
  Hg  Hg2  1  0.751914  0.721100  0.094891  1
  Hg  Hg3  1  0.251914  0.278900  0.405109  1
  Au  Au4  1  0.560799  0.198278  0.201271  1
  Au  Au5  1  0.060799  0.801722  0.298729  1
  Au  Au6  1  0.439201  0.801722  0.798729  1
  Au  Au7  1  0.939201  0.198278  0.701271  1
  F  F8  1  0.710651  0.359399  0.144695  1
  F  F9  1  0.210651  0.640601  0.355305  1
  F  F10  1  0.289349  0.640601  0.855305  1
  F  F11  1  0.789349  0.359399  0.644695  1
  F  F12  1  0.644329  0.077322  0.406172  1
  F  F13  1  0.144329  0.922678  0.093828  1
  F  F14  1  0.355671  0.922678  0.593828  1
  F  F15  1  0.855671  0.077322  0.906172  1
  F  F16  1  0.475309  0.316938  0.992606  1
  F  F17  1  0.975309  0.683062  0.507394  1
  F  F18  1  0.524691  0.683062  0.007394  1
  F  F19  1  0.024691  0.316938  0.492606  1
  F  F20  1  0.408753  0.044766  0.258329  1
  F  F21  1  0.908753  0.955234  0.241671  1
  F  F22  1  0.591247  0.955234  0.741671  1
  F  F23  1  0.091247  0.044766  0.758329  1
  F  F24  1  0.637193  0.020537  0.081697  1
  F  F25  1  0.137193  0.979463  0.418303  1
  F  F26  1  0.362807  0.979463  0.918303  1
  F  F27  1  0.862807  0.020537  0.581697  1
  F  F28  1  0.479351  0.374941  0.319709  1
  F  F29  1  0.979351  0.625059  0.180291  1
  F  F30  1  0.520649  0.625059  0.680291  1
  F  F31  1  0.020649  0.374941  0.819709  1
  F  F32  1  0.193326  0.317796  0.147676  1
  F  F33  1  0.693326  0.682204  0.352324  1
  F  F34  1  0.806674  0.682204  0.852324  1
  F  F35  1  0.306674  0.317796  0.647676  1
