# generated using pymatgen
data_Ho15Lu5(Ga2Bi)4
_symmetry_space_group_name_H-M   'P 1'
_cell_length_a   7.95270521
_cell_length_b   7.95271321
_cell_length_c   13.29944700
_cell_angle_alpha   90.00135791
_cell_angle_beta   90.00000446
_cell_angle_gamma   89.97378981
_symmetry_Int_Tables_number   1
_chemical_formula_structural   Ho15Lu5(Ga2Bi)4
_chemical_formula_sum   'Ho15 Lu5 Ga8 Bi4'
_cell_volume   841.13120091
_cell_formula_units_Z   1
loop_
 _symmetry_equiv_pos_site_id
 _symmetry_equiv_pos_as_xyz
  1  'x, y, z'
loop_
 _atom_site_type_symbol
 _atom_site_label
 _atom_site_symmetry_multiplicity
 _atom_site_fract_x
 _atom_site_fract_y
 _atom_site_fract_z
 _atom_site_occupancy
  Ho  Ho0  1  0.653887  0.346461  0.108849  1
  Ho  Ho1  1  0.845572  0.845852  0.391544  1
  Ho  Ho2  1  0.153911  0.846273  0.890808  1
  Ho  Ho3  1  0.346578  0.346861  0.608787  1
  Ho  Ho4  1  0.346136  0.653594  0.108853  1
  Ho  Ho5  1  0.153714  0.153444  0.391210  1
  Ho  Ho6  1  0.845967  0.153594  0.890812  1
  Ho  Ho7  1  0.653557  0.346901  0.391631  1
  Ho  Ho8  1  0.346481  0.346192  0.891075  1
  Ho  Ho9  1  0.153575  0.846288  0.609025  1
  Ho  Ho10  1  0.846464  0.846179  0.108770  1
  Ho  Ho11  1  0.347186  0.653839  0.391645  1
  Ho  Ho12  1  0.653499  0.653789  0.890677  1
  Ho  Ho13  1  0.846580  0.153896  0.609028  1
  Ho  Ho14  1  0.153440  0.153743  0.108817  1
  Lu  Lu15  1  0.999464  0.500145  0.750926  1
  Lu  Lu16  1  0.999812  0.500069  0.251169  1
  Lu  Lu17  1  0.500069  0.999820  0.248923  1
  Lu  Lu18  1  0.500167  0.999414  0.748684  1
  Lu  Lu19  1  0.653285  0.652924  0.610123  1
  Ga  Ga20  1  0.852987  0.852989  0.749345  1
  Ga  Ga21  1  0.853851  0.146192  0.250037  1
  Ga  Ga22  1  0.646184  0.646186  0.249957  1
  Ga  Ga23  1  0.354655  0.646364  0.749534  1
  Ga  Ga24  1  0.146522  0.146532  0.750014  1
  Ga  Ga25  1  0.146197  0.853839  0.250040  1
  Ga  Ga26  1  0.353845  0.353858  0.249901  1
  Ga  Ga27  1  0.646367  0.354643  0.749539  1
  Bi  Bi28  1  0.999717  0.500285  0.500836  1
  Bi  Bi29  1  0.000021  0.500047  0.000661  1
  Bi  Bi30  1  0.500266  0.999764  0.499467  1
  Bi  Bi31  1  0.500042  0.000025  0.999314  1
