# generated using pymatgen
data_ErTm(NiIr)2
_symmetry_space_group_name_H-M   'P 1'
_cell_length_a   5.36700057
_cell_length_b   5.17693105
_cell_length_c   5.17693203
_cell_angle_alpha   57.99561099
_cell_angle_beta   58.77787277
_cell_angle_gamma   58.77786856
_symmetry_Int_Tables_number   1
_chemical_formula_structural   ErTm(NiIr)2
_chemical_formula_sum   'Er1 Tm1 Ni2 Ir2'
_cell_volume   98.24690259
_cell_formula_units_Z   1
loop_
 _symmetry_equiv_pos_site_id
 _symmetry_equiv_pos_as_xyz
  1  'x, y, z'
loop_
 _atom_site_type_symbol
 _atom_site_label
 _atom_site_symmetry_multiplicity
 _atom_site_fract_x
 _atom_site_fract_y
 _atom_site_fract_z
 _atom_site_occupancy
  Er  Er0  1  0.002859  0.997141  0.997141  1
  Tm  Tm1  1  0.747090  0.752912  0.752912  1
  Ni  Ni2  1  0.375070  0.874918  0.374942  1
  Ni  Ni3  1  0.375070  0.374942  0.874918  1
  Ir  Ir4  1  0.375092  0.375045  0.375045  1
  Ir  Ir5  1  0.874820  0.375045  0.375045  1
