# generated using pymatgen
data_Tb10Nd6Cd4OsPd3
_symmetry_space_group_name_H-M   'P 1'
_cell_length_a   9.85592183
_cell_length_b   9.85592180
_cell_length_c   9.85592230
_cell_angle_alpha   59.64528698
_cell_angle_beta   59.64528973
_cell_angle_gamma   59.64528295
_symmetry_Int_Tables_number   1
_chemical_formula_structural   Tb10Nd6Cd4OsPd3
_chemical_formula_sum   'Tb10 Nd6 Cd4 Os1 Pd3'
_cell_volume   671.52499274
_cell_formula_units_Z   1
loop_
 _symmetry_equiv_pos_site_id
 _symmetry_equiv_pos_as_xyz
  1  'x, y, z'
loop_
 _atom_site_type_symbol
 _atom_site_label
 _atom_site_symmetry_multiplicity
 _atom_site_fract_x
 _atom_site_fract_y
 _atom_site_fract_z
 _atom_site_occupancy
  Tb  Tb0  1  0.352875  0.352875  0.352875  1
  Tb  Tb1  1  0.347906  0.347906  0.951175  1
  Tb  Tb2  1  0.347906  0.951175  0.347906  1
  Tb  Tb3  1  0.951175  0.347906  0.347906  1
  Tb  Tb4  1  0.818652  0.186753  0.186753  1
  Tb  Tb5  1  0.185992  0.811287  0.811287  1
  Tb  Tb6  1  0.186753  0.818652  0.186753  1
  Tb  Tb7  1  0.811287  0.185992  0.811287  1
  Tb  Tb8  1  0.186753  0.186753  0.818652  1
  Tb  Tb9  1  0.811287  0.811287  0.185992  1
  Nd  Nd10  1  0.936259  0.563187  0.563187  1
  Nd  Nd11  1  0.555929  0.939193  0.939193  1
  Nd  Nd12  1  0.563187  0.936259  0.563187  1
  Nd  Nd13  1  0.939193  0.555929  0.939193  1
  Nd  Nd14  1  0.563187  0.563187  0.936259  1
  Nd  Nd15  1  0.939193  0.939193  0.555929  1
  Cd  Cd16  1  0.579073  0.579073  0.579073  1
  Cd  Cd17  1  0.579838  0.579838  0.259682  1
  Cd  Cd18  1  0.579838  0.259682  0.579838  1
  Cd  Cd19  1  0.259682  0.579838  0.579838  1
  Os  Os20  1  0.143520  0.143520  0.143520  1
  Pd  Pd21  1  0.144568  0.144568  0.571383  1
  Pd  Pd22  1  0.144568  0.571383  0.144568  1
  Pd  Pd23  1  0.571383  0.144568  0.144568  1
