# generated using pymatgen
data_Pr(CdAg2)2
_symmetry_space_group_name_H-M   'P 1'
_cell_length_a   5.88583088
_cell_length_b   5.88582726
_cell_length_c   5.88583124
_cell_angle_alpha   103.36535590
_cell_angle_beta   103.36607784
_cell_angle_gamma   122.52507645
_symmetry_Int_Tables_number   1
_chemical_formula_structural   Pr(CdAg2)2
_chemical_formula_sum   'Pr1 Cd2 Ag4'
_cell_volume   150.74657279
_cell_formula_units_Z   1
loop_
 _symmetry_equiv_pos_site_id
 _symmetry_equiv_pos_as_xyz
  1  'x, y, z'
loop_
 _atom_site_type_symbol
 _atom_site_label
 _atom_site_symmetry_multiplicity
 _atom_site_fract_x
 _atom_site_fract_y
 _atom_site_fract_z
 _atom_site_occupancy
  Pr  Pr0  1  0.000000  0.000000  0.000000  1
  Cd  Cd1  1  0.250000  0.750000  0.500000  1
  Cd  Cd2  1  0.750000  0.250000  0.500000  1
  Ag  Ag3  1  0.306427  0.306426  0.612853  1
  Ag  Ag4  1  0.693573  0.693574  0.387147  1
  Ag  Ag5  1  0.693573  0.306426  0.999999  1
  Ag  Ag6  1  0.306427  0.693574  0.000001  1
