# generated using pymatgen
data_YLu3Ga18(PtRh2)2
_symmetry_space_group_name_H-M   'P 1'
_cell_length_a   7.58173344
_cell_length_b   7.57970233
_cell_length_c   9.47899800
_cell_angle_alpha   90.00000000
_cell_angle_beta   90.00000000
_cell_angle_gamma   119.92826549
_symmetry_Int_Tables_number   1
_chemical_formula_structural   YLu3Ga18(PtRh2)2
_chemical_formula_sum   'Y1 Lu3 Ga18 Pt2 Rh4'
_cell_volume   472.09260649
_cell_formula_units_Z   1
loop_
 _symmetry_equiv_pos_site_id
 _symmetry_equiv_pos_as_xyz
  1  'x, y, z'
loop_
 _atom_site_type_symbol
 _atom_site_label
 _atom_site_symmetry_multiplicity
 _atom_site_fract_x
 _atom_site_fract_y
 _atom_site_fract_z
 _atom_site_occupancy
  Y  Y0  1  0.995826  0.672301  0.250000  1
  Lu  Lu1  1  0.004019  0.327307  0.750000  1
  Lu  Lu2  1  0.672528  0.995866  0.250000  1
  Lu  Lu3  1  0.327671  0.004339  0.750000  1
  Ga  Ga4  1  0.337134  0.550449  0.250000  1
  Ga  Ga5  1  0.663901  0.450264  0.750000  1
  Ga  Ga6  1  0.548697  0.335173  0.250000  1
  Ga  Ga7  1  0.450324  0.664340  0.750000  1
  Ga  Ga8  1  0.997577  0.337146  0.079235  1
  Ga  Ga9  1  0.002861  0.661265  0.917427  1
  Ga  Ga10  1  0.002861  0.661265  0.582573  1
  Ga  Ga11  1  0.340073  0.998966  0.420605  1
  Ga  Ga12  1  0.997577  0.337146  0.420765  1
  Ga  Ga13  1  0.661298  0.002653  0.581313  1
  Ga  Ga14  1  0.661298  0.002653  0.918687  1
  Ga  Ga15  1  0.340073  0.998966  0.079395  1
  Ga  Ga16  1  0.336035  0.336031  0.572046  1
  Ga  Ga17  1  0.661877  0.663210  0.430633  1
  Ga  Ga18  1  0.661877  0.663210  0.069367  1
  Ga  Ga19  1  0.336035  0.336031  0.927954  1
  Ga  Ga20  1  0.136495  0.137307  0.250000  1
  Ga  Ga21  1  0.862883  0.863436  0.750000  1
  Pt  Pt22  1  0.000490  0.000241  0.999473  1
  Pt  Pt23  1  0.000490  0.000241  0.500527  1
  Rh  Rh24  1  0.671186  0.329245  0.999428  1
  Rh  Rh25  1  0.328865  0.670853  0.999236  1
  Rh  Rh26  1  0.328865  0.670853  0.500764  1
  Rh  Rh27  1  0.671186  0.329245  0.500572  1
