# generated using pymatgen
data_La5Al2Ir2Ru
_symmetry_space_group_name_H-M   'P 1'
_cell_length_a   8.72448103
_cell_length_b   8.68396820
_cell_length_c   8.68312238
_cell_angle_alpha   109.42911510
_cell_angle_beta   110.01929705
_cell_angle_gamma   109.30295676
_symmetry_Int_Tables_number   1
_chemical_formula_structural   La5Al2Ir2Ru
_chemical_formula_sum   'La10 Al4 Ir4 Ru2'
_cell_volume   504.28264461
_cell_formula_units_Z   2
loop_
 _symmetry_equiv_pos_site_id
 _symmetry_equiv_pos_as_xyz
  1  'x, y, z'
loop_
 _atom_site_type_symbol
 _atom_site_label
 _atom_site_symmetry_multiplicity
 _atom_site_fract_x
 _atom_site_fract_y
 _atom_site_fract_z
 _atom_site_occupancy
  La  La0  1  0.249709  0.684726  0.441591  1
  La  La1  1  0.745190  0.811156  0.057585  1
  La  La2  1  0.438317  0.248130  0.687053  1
  La  La3  1  0.686805  0.442283  0.252149  1
  La  La4  1  0.061550  0.751249  0.813563  1
  La  La5  1  0.809847  0.058126  0.744239  1
  La  La6  1  0.212270  0.212062  0.212365  1
  La  La7  1  0.501501  0.998261  0.288897  1
  La  La8  1  0.292350  0.503284  0.001597  1
  La  La9  1  0.003825  0.290927  0.501693  1
  Al  Al10  1  0.500108  0.001993  0.907277  1
  Al  Al11  1  0.592600  0.591555  0.593365  1
  Al  Al12  1  0.905782  0.499832  0.000731  1
  Al  Al13  1  0.000605  0.906246  0.498131  1
  Ir  Ir14  1  0.251010  0.117892  0.867817  1
  Ir  Ir15  1  0.750237  0.382672  0.632658  1
  Ir  Ir16  1  0.865742  0.250559  0.115528  1
  Ir  Ir17  1  0.117711  0.867468  0.250382  1
  Ru  Ru18  1  0.633656  0.750570  0.383275  1
  Ru  Ru19  1  0.381190  0.631014  0.750107  1
