# generated using pymatgen
data_HfHg3(SeF3)2
_symmetry_space_group_name_H-M   'P 1'
_cell_length_a   7.35997200
_cell_length_b   5.35396281
_cell_length_c   12.75537090
_cell_angle_alpha   90.00960017
_cell_angle_beta   90.00000000
_cell_angle_gamma   90.00000000
_symmetry_Int_Tables_number   1
_chemical_formula_structural   HfHg3(SeF3)2
_chemical_formula_sum   'Hf2 Hg6 Se4 F12'
_cell_volume   502.62559189
_cell_formula_units_Z   2
loop_
 _symmetry_equiv_pos_site_id
 _symmetry_equiv_pos_as_xyz
  1  'x, y, z'
loop_
 _atom_site_type_symbol
 _atom_site_label
 _atom_site_symmetry_multiplicity
 _atom_site_fract_x
 _atom_site_fract_y
 _atom_site_fract_z
 _atom_site_occupancy
  Hf  Hf0  1  0.500000  0.500000  0.500000  1
  Hf  Hf1  1  0.000000  0.500000  0.000000  1
  Hg  Hg2  1  0.258481  0.001688  0.748382  1
  Hg  Hg3  1  0.758481  0.998312  0.751618  1
  Hg  Hg4  1  0.241519  0.001688  0.248382  1
  Hg  Hg5  1  0.500000  0.000000  0.000000  1
  Hg  Hg6  1  0.741519  0.998312  0.251618  1
  Hg  Hg7  1  0.000000  0.000000  0.500000  1
  Se  Se8  1  0.492551  0.746013  0.166709  1
  Se  Se9  1  0.992551  0.253987  0.333291  1
  Se  Se10  1  0.007449  0.746013  0.666709  1
  Se  Se11  1  0.507449  0.253987  0.833291  1
  F  F12  1  0.307130  0.725496  0.439522  1
  F  F13  1  0.301034  0.294556  0.566953  1
  F  F14  1  0.011676  0.294170  0.867637  1
  F  F15  1  0.198966  0.294556  0.066953  1
  F  F16  1  0.698966  0.705444  0.433047  1
  F  F17  1  0.192870  0.725496  0.939522  1
  F  F18  1  0.488324  0.294170  0.367637  1
  F  F19  1  0.807130  0.274504  0.060478  1
  F  F20  1  0.988324  0.705830  0.132363  1
  F  F21  1  0.511676  0.705830  0.632363  1
  F  F22  1  0.692870  0.274504  0.560478  1
  F  F23  1  0.801034  0.705444  0.933047  1
