# generated using pymatgen
data_Lu4Al2Ga16Ir5Pt
_symmetry_space_group_name_H-M   'P 1'
_cell_length_a   7.56965031
_cell_length_b   7.56965124
_cell_length_c   9.43058996
_cell_angle_alpha   89.92660277
_cell_angle_beta   89.92659632
_cell_angle_gamma   119.98078586
_symmetry_Int_Tables_number   1
_chemical_formula_structural   Lu4Al2Ga16Ir5Pt
_chemical_formula_sum   'Lu4 Al2 Ga16 Ir5 Pt1'
_cell_volume   468.06245913
_cell_formula_units_Z   1
loop_
 _symmetry_equiv_pos_site_id
 _symmetry_equiv_pos_as_xyz
  1  'x, y, z'
loop_
 _atom_site_type_symbol
 _atom_site_label
 _atom_site_symmetry_multiplicity
 _atom_site_fract_x
 _atom_site_fract_y
 _atom_site_fract_z
 _atom_site_occupancy
  Lu  Lu0  1  0.999680  0.669324  0.249965  1
  Lu  Lu1  1  0.000320  0.330676  0.750035  1
  Lu  Lu2  1  0.669324  0.999680  0.249965  1
  Lu  Lu3  1  0.330676  0.000320  0.750035  1
  Al  Al4  1  0.668970  0.668970  0.053931  1
  Al  Al5  1  0.331030  0.331030  0.946069  1
  Ga  Ga6  1  0.127024  0.127024  0.248607  1
  Ga  Ga7  1  0.872976  0.872976  0.751393  1
  Ga  Ga8  1  0.997665  0.334550  0.081187  1
  Ga  Ga9  1  0.002335  0.665450  0.918813  1
  Ga  Ga10  1  0.000253  0.662774  0.583886  1
  Ga  Ga11  1  0.337226  0.999747  0.416114  1
  Ga  Ga12  1  0.999747  0.337226  0.416114  1
  Ga  Ga13  1  0.662774  0.000253  0.583886  1
  Ga  Ga14  1  0.665450  0.002335  0.918813  1
  Ga  Ga15  1  0.334550  0.997665  0.081187  1
  Ga  Ga16  1  0.333428  0.333428  0.568674  1
  Ga  Ga17  1  0.666572  0.666572  0.431326  1
  Ga  Ga18  1  0.344650  0.550351  0.249614  1
  Ga  Ga19  1  0.655350  0.449649  0.750386  1
  Ga  Ga20  1  0.550351  0.344650  0.249614  1
  Ga  Ga21  1  0.449649  0.655350  0.750386  1
  Ir  Ir22  1  0.669555  0.330445  0.000000  1
  Ir  Ir23  1  0.330445  0.669555  0.000000  1
  Ir  Ir24  1  0.327487  0.672513  0.500000  1
  Ir  Ir25  1  0.672513  0.327487  0.500000  1
  Ir  Ir26  1  0.000000  0.000000  0.000000  1
  Pt  Pt27  1  0.000000  0.000000  0.500000  1
