# generated using pymatgen
data_Dy5Ho11In4(NiRh)2
_symmetry_space_group_name_H-M   'P 1'
_cell_length_a   9.58374724
_cell_length_b   9.59022916
_cell_length_c   9.58301442
_cell_angle_alpha   59.96797182
_cell_angle_beta   60.14355951
_cell_angle_gamma   59.97599821
_symmetry_Int_Tables_number   1
_chemical_formula_structural   Dy5Ho11In4(NiRh)2
_chemical_formula_sum   'Dy5 Ho11 In4 Ni2 Rh2'
_cell_volume   623.21230317
_cell_formula_units_Z   1
loop_
 _symmetry_equiv_pos_site_id
 _symmetry_equiv_pos_as_xyz
  1  'x, y, z'
loop_
 _atom_site_type_symbol
 _atom_site_label
 _atom_site_symmetry_multiplicity
 _atom_site_fract_x
 _atom_site_fract_y
 _atom_site_fract_z
 _atom_site_occupancy
  Dy  Dy0  1  0.188137  0.188401  0.813634  1
  Dy  Dy1  1  0.597779  0.600009  0.203332  1
  Dy  Dy2  1  0.438769  0.061208  0.438588  1
  Dy  Dy3  1  0.439099  0.438655  0.062418  1
  Dy  Dy4  1  0.812180  0.187153  0.812028  1
  Ho  Ho5  1  0.187365  0.812618  0.187942  1
  Ho  Ho6  1  0.439564  0.059379  0.062256  1
  Ho  Ho7  1  0.187066  0.810948  0.813406  1
  Ho  Ho8  1  0.060537  0.439609  0.060620  1
  Ho  Ho9  1  0.813699  0.811139  0.187145  1
  Ho  Ho10  1  0.203166  0.600105  0.597768  1
  Ho  Ho11  1  0.062064  0.438877  0.439210  1
  Ho  Ho12  1  0.062196  0.059308  0.439592  1
  Ho  Ho13  1  0.813630  0.188146  0.188491  1
  Ho  Ho14  1  0.598409  0.202571  0.598291  1
  Ho  Ho15  1  0.596923  0.600692  0.596645  1
  In  In16  1  0.833279  0.832420  0.832826  1
  In  In17  1  0.833126  0.832385  0.501957  1
  In  In18  1  0.502280  0.832366  0.832673  1
  In  In19  1  0.832620  0.503055  0.832439  1
  Ni  Ni20  1  0.391352  0.823364  0.391796  1
  Ni  Ni21  1  0.391913  0.393355  0.392509  1
  Rh  Rh22  1  0.823407  0.391960  0.391654  1
  Rh  Rh23  1  0.391438  0.392279  0.822782  1
