# generated using pymatgen
data_TbY7Hf12Si15As
_symmetry_space_group_name_H-M   'P 1'
_cell_length_a   7.27935758
_cell_length_b   7.29330417
_cell_length_c   13.39504904
_cell_angle_alpha   89.71460599
_cell_angle_beta   89.95947286
_cell_angle_gamma   89.92239233
_symmetry_Int_Tables_number   1
_chemical_formula_structural   TbY7Hf12Si15As
_chemical_formula_sum   'Tb1 Y7 Hf12 Si15 As1'
_cell_volume   711.14112640
_cell_formula_units_Z   1
loop_
 _symmetry_equiv_pos_site_id
 _symmetry_equiv_pos_as_xyz
  1  'x, y, z'
loop_
 _atom_site_type_symbol
 _atom_site_label
 _atom_site_symmetry_multiplicity
 _atom_site_fract_x
 _atom_site_fract_y
 _atom_site_fract_z
 _atom_site_occupancy
  Tb  Tb0  1  0.654767  0.004302  0.284238  1
  Y  Y1  1  0.995676  0.345109  0.215145  1
  Y  Y2  1  0.004905  0.656027  0.715331  1
  Y  Y3  1  0.153071  0.498933  0.466669  1
  Y  Y4  1  0.506875  0.842597  0.033824  1
  Y  Y5  1  0.844158  0.503685  0.964827  1
  Y  Y6  1  0.495893  0.154787  0.535584  1
  Y  Y7  1  0.344770  0.995876  0.785171  1
  Hf  Hf8  1  0.174415  0.175203  0.000164  1
  Hf  Hf9  1  0.826255  0.826296  0.500062  1
  Hf  Hf10  1  0.325156  0.677652  0.249785  1
  Hf  Hf11  1  0.674412  0.325440  0.750002  1
  Hf  Hf12  1  0.149656  0.995497  0.372992  1
  Hf  Hf13  1  0.850752  0.003986  0.874712  1
  Hf  Hf14  1  0.503326  0.650083  0.624801  1
  Hf  Hf15  1  0.350892  0.496317  0.875392  1
  Hf  Hf16  1  0.494821  0.348101  0.125072  1
  Hf  Hf17  1  0.653280  0.506558  0.376748  1
  Hf  Hf18  1  0.996586  0.150014  0.625583  1
  Hf  Hf19  1  0.001206  0.848156  0.124403  1
  Si  Si20  1  0.637177  0.705156  0.816571  1
  Si  Si21  1  0.203979  0.863558  0.566300  1
  Si  Si22  1  0.137133  0.794850  0.932555  1
  Si  Si23  1  0.795023  0.138214  0.067178  1
  Si  Si24  1  0.862962  0.204287  0.432763  1
  Si  Si25  1  0.295752  0.362282  0.682956  1
  Si  Si26  1  0.703061  0.635822  0.183740  1
  Si  Si27  1  0.293279  0.039149  0.179925  1
  Si  Si28  1  0.705694  0.951090  0.685698  1
  Si  Si29  1  0.451548  0.795409  0.435921  1
  Si  Si30  1  0.205035  0.548016  0.064465  1
  Si  Si31  1  0.549115  0.205111  0.935788  1
  Si  Si32  1  0.794283  0.451238  0.565117  1
  Si  Si33  1  0.049192  0.294819  0.814099  1
  Si  Si34  1  0.951919  0.705415  0.314595  1
  As  As35  1  0.363976  0.300965  0.321819  1
