# generated using pymatgen
data_BaLi2AcSi4
_symmetry_space_group_name_H-M   'P 1'
_cell_length_a   4.01991900
_cell_length_b   8.31453692
_cell_length_c   11.33039700
_cell_angle_alpha   90.03894125
_cell_angle_beta   90.00000000
_cell_angle_gamma   90.00000000
_symmetry_Int_Tables_number   1
_chemical_formula_structural   BaLi2AcSi4
_chemical_formula_sum   'Ba2 Li4 Ac2 Si8'
_cell_volume   378.70443856
_cell_formula_units_Z   2
loop_
 _symmetry_equiv_pos_site_id
 _symmetry_equiv_pos_as_xyz
  1  'x, y, z'
loop_
 _atom_site_type_symbol
 _atom_site_label
 _atom_site_symmetry_multiplicity
 _atom_site_fract_x
 _atom_site_fract_y
 _atom_site_fract_z
 _atom_site_occupancy
  Ba  Ba0  1  0.250000  0.633433  0.631197  1
  Ba  Ba1  1  0.750000  0.366567  0.368803  1
  Li  Li2  1  0.250000  0.004801  0.387670  1
  Li  Li3  1  0.750000  0.995199  0.612330  1
  Li  Li4  1  0.250000  0.497169  0.107288  1
  Li  Li5  1  0.750000  0.502831  0.892712  1
  Ac  Ac6  1  0.250000  0.126673  0.867123  1
  Ac  Ac7  1  0.750000  0.873327  0.132877  1
  Si  Si8  1  0.750000  0.272073  0.068347  1
  Si  Si9  1  0.250000  0.727927  0.931653  1
  Si  Si10  1  0.750000  0.785837  0.419005  1
  Si  Si11  1  0.250000  0.214163  0.580995  1
  Si  Si12  1  0.750000  0.826796  0.832666  1
  Si  Si13  1  0.250000  0.173204  0.167334  1
  Si  Si14  1  0.750000  0.312318  0.680395  1
  Si  Si15  1  0.250000  0.687682  0.319605  1
