# generated using pymatgen
data_CsNd(SbAu)2
_symmetry_space_group_name_H-M   'P 1'
_cell_length_a   4.69308800
_cell_length_b   4.69308899
_cell_length_c   20.43538400
_cell_angle_alpha   90.00000000
_cell_angle_beta   90.00000000
_cell_angle_gamma   120.00000709
_symmetry_Int_Tables_number   1
_chemical_formula_structural   CsNd(SbAu)2
_chemical_formula_sum   'Cs2 Nd2 Sb4 Au4'
_cell_volume   389.79017754
_cell_formula_units_Z   2
loop_
 _symmetry_equiv_pos_site_id
 _symmetry_equiv_pos_as_xyz
  1  'x, y, z'
loop_
 _atom_site_type_symbol
 _atom_site_label
 _atom_site_symmetry_multiplicity
 _atom_site_fract_x
 _atom_site_fract_y
 _atom_site_fract_z
 _atom_site_occupancy
  Cs  Cs0  1  0.000000  0.000000  0.500000  1
  Cs  Cs1  1  0.000000  0.000000  0.000000  1
  Nd  Nd2  1  0.000000  0.000000  0.250000  1
  Nd  Nd3  1  0.000000  0.000000  0.750000  1
  Sb  Sb4  1  0.333333  0.666667  0.358352  1
  Sb  Sb5  1  0.666667  0.333333  0.641648  1
  Sb  Sb6  1  0.666667  0.333333  0.858352  1
  Sb  Sb7  1  0.333333  0.666667  0.141648  1
  Au  Au8  1  0.666667  0.333333  0.334333  1
  Au  Au9  1  0.333333  0.666667  0.665667  1
  Au  Au10  1  0.333333  0.666667  0.834333  1
  Au  Au11  1  0.666667  0.333333  0.165667  1
