# generated using pymatgen
data_K3Zn(BPt3)2
_symmetry_space_group_name_H-M   'P 1'
_cell_length_a   8.35870929
_cell_length_b   8.35870935
_cell_length_c   8.35870777
_cell_angle_alpha   39.74438584
_cell_angle_beta   39.74438579
_cell_angle_gamma   39.74438674
_symmetry_Int_Tables_number   1
_chemical_formula_structural   K3Zn(BPt3)2
_chemical_formula_sum   'K3 Zn1 B2 Pt6'
_cell_volume   215.00005685
_cell_formula_units_Z   1
loop_
 _symmetry_equiv_pos_site_id
 _symmetry_equiv_pos_as_xyz
  1  'x, y, z'
loop_
 _atom_site_type_symbol
 _atom_site_label
 _atom_site_symmetry_multiplicity
 _atom_site_fract_x
 _atom_site_fract_y
 _atom_site_fract_z
 _atom_site_occupancy
  K  K0  1  0.859568  0.859568  0.859568  1
  K  K1  1  0.140432  0.140432  0.140432  1
  K  K2  1  0.000000  0.000000  0.000000  1
  Zn  Zn3  1  0.500000  0.500000  0.500000  1
  B  B4  1  0.669074  0.669074  0.669074  1
  B  B5  1  0.330926  0.330926  0.330926  1
  Pt  Pt6  1  0.437454  0.932909  0.437454  1
  Pt  Pt7  1  0.437454  0.437454  0.932909  1
  Pt  Pt8  1  0.932909  0.437454  0.437454  1
  Pt  Pt9  1  0.562546  0.067091  0.562546  1
  Pt  Pt10  1  0.562546  0.562546  0.067091  1
  Pt  Pt11  1  0.067091  0.562546  0.562546  1
