# generated using pymatgen
data_EuTmWO6
_symmetry_space_group_name_H-M   'P 1'
_cell_length_a   5.45784400
_cell_length_b   7.72880662
_cell_length_c   11.45583532
_cell_angle_alpha   75.90243209
_cell_angle_beta   90.00000000
_cell_angle_gamma   90.00000000
_symmetry_Int_Tables_number   1
_chemical_formula_structural   EuTmWO6
_chemical_formula_sum   'Eu4 Tm4 W4 O24'
_cell_volume   468.68319250
_cell_formula_units_Z   4
loop_
 _symmetry_equiv_pos_site_id
 _symmetry_equiv_pos_as_xyz
  1  'x, y, z'
loop_
 _atom_site_type_symbol
 _atom_site_label
 _atom_site_symmetry_multiplicity
 _atom_site_fract_x
 _atom_site_fract_y
 _atom_site_fract_z
 _atom_site_occupancy
  Eu  Eu0  1  0.745926  0.000000  0.750000  1
  Eu  Eu1  1  0.254074  0.000000  0.250000  1
  Eu  Eu2  1  0.682643  0.500000  0.750000  1
  Eu  Eu3  1  0.317357  0.500000  0.250000  1
  Tm  Tm4  1  0.182798  0.792759  0.579084  1
  Tm  Tm5  1  0.817202  0.792759  0.079084  1
  Tm  Tm6  1  0.182798  0.207241  0.920916  1
  Tm  Tm7  1  0.817202  0.207241  0.420916  1
  W  W8  1  0.255673  0.723956  0.887109  1
  W  W9  1  0.744327  0.723956  0.387109  1
  W  W10  1  0.255673  0.276044  0.612891  1
  W  W11  1  0.744327  0.276044  0.112891  1
  O  O12  1  0.051354  0.938980  0.900746  1
  O  O13  1  0.535722  0.839323  0.935180  1
  O  O14  1  0.948646  0.938980  0.400746  1
  O  O15  1  0.452330  0.789033  0.727890  1
  O  O16  1  0.464278  0.839323  0.435180  1
  O  O17  1  0.989107  0.717511  0.769294  1
  O  O18  1  0.547670  0.789033  0.227890  1
  O  O19  1  0.857880  0.636243  0.548072  1
  O  O20  1  0.350100  0.488715  0.888940  1
  O  O21  1  0.010893  0.717511  0.269294  1
  O  O22  1  0.350100  0.511285  0.611060  1
  O  O23  1  0.857880  0.363757  0.951928  1
  O  O24  1  0.142120  0.636243  0.048072  1
  O  O25  1  0.649900  0.488715  0.388940  1
  O  O26  1  0.989107  0.282489  0.730706  1
  O  O27  1  0.649900  0.511285  0.111060  1
  O  O28  1  0.142120  0.363757  0.451928  1
  O  O29  1  0.452330  0.210967  0.772110  1
  O  O30  1  0.010893  0.282489  0.230706  1
  O  O31  1  0.535722  0.160677  0.564820  1
  O  O32  1  0.547670  0.210967  0.272110  1
  O  O33  1  0.051354  0.061020  0.599254  1
  O  O34  1  0.464278  0.160677  0.064820  1
  O  O35  1  0.948646  0.061020  0.099254  1
