# generated using pymatgen
data_La7IrPd2
_symmetry_space_group_name_H-M   'P 1'
_cell_length_a   6.59658207
_cell_length_b   10.34433667
_cell_length_c   10.34433568
_cell_angle_alpha   120.03445124
_cell_angle_beta   90.05619321
_cell_angle_gamma   89.94380448
_symmetry_Int_Tables_number   1
_chemical_formula_structural   La7IrPd2
_chemical_formula_sum   'La14 Ir2 Pd4'
_cell_volume   611.08792683
_cell_formula_units_Z   2
loop_
 _symmetry_equiv_pos_site_id
 _symmetry_equiv_pos_as_xyz
  1  'x, y, z'
loop_
 _atom_site_type_symbol
 _atom_site_label
 _atom_site_symmetry_multiplicity
 _atom_site_fract_x
 _atom_site_fract_y
 _atom_site_fract_z
 _atom_site_occupancy
  La  La0  1  0.468284  0.336234  0.663766  1
  La  La1  1  0.956788  0.666893  0.333107  1
  La  La2  1  0.244579  0.126710  0.873290  1
  La  La3  1  0.253373  0.743790  0.871753  1
  La  La4  1  0.253373  0.128247  0.256210  1
  La  La5  1  0.742107  0.876373  0.123627  1
  La  La6  1  0.742687  0.250153  0.132421  1
  La  La7  1  0.742687  0.867579  0.749847  1
  La  La8  1  0.444555  0.537916  0.462084  1
  La  La9  1  0.445180  0.925508  0.461431  1
  La  La10  1  0.445180  0.538569  0.074492  1
  La  La11  1  0.935498  0.458939  0.541061  1
  La  La12  1  0.940153  0.078399  0.533986  1
  La  La13  1  0.940153  0.466014  0.921601  1
  Ir  Ir14  1  0.690415  0.624073  0.812799  1
  Ir  Ir15  1  0.690415  0.187201  0.375927  1
  Pd  Pd16  1  0.191448  0.811258  0.188742  1
  Pd  Pd17  1  0.192174  0.376474  0.187284  1
  Pd  Pd18  1  0.192174  0.812716  0.623526  1
  Pd  Pd19  1  0.690773  0.186956  0.813044  1
