# generated using pymatgen
data_Ta2TcB2Ru
_symmetry_space_group_name_H-M   'P 1'
_cell_length_a   3.15809700
_cell_length_b   9.05100399
_cell_length_c   15.63008005
_cell_angle_alpha   90.15298770
_cell_angle_beta   90.00000000
_cell_angle_gamma   90.00000000
_symmetry_Int_Tables_number   1
_chemical_formula_structural   Ta2TcB2Ru
_chemical_formula_sum   'Ta12 Tc6 B12 Ru6'
_cell_volume   446.76781164
_cell_formula_units_Z   6
loop_
 _symmetry_equiv_pos_site_id
 _symmetry_equiv_pos_as_xyz
  1  'x, y, z'
loop_
 _atom_site_type_symbol
 _atom_site_label
 _atom_site_symmetry_multiplicity
 _atom_site_fract_x
 _atom_site_fract_y
 _atom_site_fract_z
 _atom_site_occupancy
  Ta  Ta0  1  0.000000  0.800873  0.494216  1
  Ta  Ta1  1  0.000000  0.199127  0.505784  1
  Ta  Ta2  1  0.000000  0.304022  0.006548  1
  Ta  Ta3  1  0.000000  0.695978  0.993452  1
  Ta  Ta4  1  0.000000  0.514420  0.594849  1
  Ta  Ta5  1  0.000000  0.485580  0.405151  1
  Ta  Ta6  1  0.000000  0.015147  0.905169  1
  Ta  Ta7  1  0.000000  0.984853  0.094831  1
  Ta  Ta8  1  0.000000  0.682305  0.204509  1
  Ta  Ta9  1  0.000000  0.317695  0.795491  1
  Ta  Ta10  1  0.000000  0.184553  0.293430  1
  Ta  Ta11  1  0.000000  0.815447  0.706570  1
  Tc  Tc12  1  0.500000  0.719555  0.358286  1
  Tc  Tc13  1  0.500000  0.280445  0.641714  1
  Tc  Tc14  1  0.500000  0.217667  0.143657  1
  Tc  Tc15  1  0.500000  0.782333  0.856343  1
  Tc  Tc16  1  0.500000  0.519681  0.096360  1
  Tc  Tc17  1  0.500000  0.480319  0.903640  1
  B  B18  1  0.500000  0.604913  0.495991  1
  B  B19  1  0.500000  0.395087  0.504009  1
  B  B20  1  0.500000  0.104699  0.004525  1
  B  B21  1  0.500000  0.895301  0.995475  1
  B  B22  1  0.000000  0.610972  0.833966  1
  B  B23  1  0.000000  0.389028  0.166034  1
  B  B24  1  0.000000  0.112721  0.667671  1
  B  B25  1  0.000000  0.887279  0.332329  1
  B  B26  1  0.500000  0.714439  0.600163  1
  B  B27  1  0.500000  0.285561  0.399837  1
  B  B28  1  0.500000  0.214946  0.899654  1
  B  B29  1  0.500000  0.785054  0.100346  1
  Ru  Ru30  1  0.500000  0.019691  0.404844  1
  Ru  Ru31  1  0.500000  0.980309  0.595156  1
  Ru  Ru32  1  0.500000  0.567314  0.731464  1
  Ru  Ru33  1  0.500000  0.432686  0.268536  1
  Ru  Ru34  1  0.500000  0.066399  0.765934  1
  Ru  Ru35  1  0.500000  0.933601  0.234066  1
