# generated using pymatgen
data_Tm4Cr3Fe17P12
_symmetry_space_group_name_H-M   'P 1'
_cell_length_a   3.64728700
_cell_length_b   10.29359426
_cell_length_c   11.81826053
_cell_angle_alpha   90.03008087
_cell_angle_beta   90.00000000
_cell_angle_gamma   90.00000000
_symmetry_Int_Tables_number   1
_chemical_formula_structural   Tm4Cr3Fe17P12
_chemical_formula_sum   'Tm4 Cr3 Fe17 P12'
_cell_volume   443.70107852
_cell_formula_units_Z   1
loop_
 _symmetry_equiv_pos_site_id
 _symmetry_equiv_pos_as_xyz
  1  'x, y, z'
loop_
 _atom_site_type_symbol
 _atom_site_label
 _atom_site_symmetry_multiplicity
 _atom_site_fract_x
 _atom_site_fract_y
 _atom_site_fract_z
 _atom_site_occupancy
  Tm  Tm0  1  0.250000  0.580670  0.704365  1
  Tm  Tm1  1  0.250000  0.918942  0.205749  1
  Tm  Tm2  1  0.750000  0.419143  0.294450  1
  Tm  Tm3  1  0.750000  0.080533  0.795208  1
  Cr  Cr4  1  0.250000  0.703142  0.989817  1
  Cr  Cr5  1  0.250000  0.797060  0.489220  1
  Cr  Cr6  1  0.750000  0.296523  0.009993  1
  Fe  Fe7  1  0.750000  0.207359  0.511892  1
  Fe  Fe8  1  0.250000  0.404338  0.488978  1
  Fe  Fe9  1  0.250000  0.093838  0.991168  1
  Fe  Fe10  1  0.750000  0.594613  0.510223  1
  Fe  Fe11  1  0.750000  0.906304  0.009774  1
  Fe  Fe12  1  0.250000  0.218842  0.176175  1
  Fe  Fe13  1  0.250000  0.280487  0.675136  1
  Fe  Fe14  1  0.750000  0.781505  0.824897  1
  Fe  Fe15  1  0.750000  0.718443  0.324397  1
  Fe  Fe16  1  0.250000  0.875318  0.701734  1
  Fe  Fe17  1  0.250000  0.625033  0.201857  1
  Fe  Fe18  1  0.750000  0.123460  0.300337  1
  Fe  Fe19  1  0.750000  0.373628  0.797142  1
  Fe  Fe20  1  0.250000  0.463414  0.931407  1
  Fe  Fe21  1  0.250000  0.038253  0.432880  1
  Fe  Fe22  1  0.750000  0.536404  0.067203  1
  Fe  Fe23  1  0.750000  0.965867  0.567012  1
  P  P24  1  0.250000  0.423006  0.113183  1
  P  P25  1  0.250000  0.077179  0.613959  1
  P  P26  1  0.750000  0.576720  0.885709  1
  P  P27  1  0.750000  0.922537  0.386427  1
  P  P28  1  0.250000  0.264058  0.869312  1
  P  P29  1  0.250000  0.235966  0.370342  1
  P  P30  1  0.750000  0.735356  0.130704  1
  P  P31  1  0.750000  0.765825  0.631014  1
  P  P32  1  0.250000  0.596331  0.393657  1
  P  P33  1  0.250000  0.902720  0.893016  1
  P  P34  1  0.750000  0.399221  0.603915  1
  P  P35  1  0.750000  0.097962  0.107749  1
