# generated using pymatgen
data_TiNb5(ZnIr2)6
_symmetry_space_group_name_H-M   'P 1'
_cell_length_a   4.62257831
_cell_length_b   5.80267400
_cell_length_c   13.88252297
_cell_angle_alpha   89.99947778
_cell_angle_beta   102.15370784
_cell_angle_gamma   89.99936176
_symmetry_Int_Tables_number   1
_chemical_formula_structural   TiNb5(ZnIr2)6
_chemical_formula_sum   'Ti1 Nb5 Zn6 Ir12'
_cell_volume   364.02898433
_cell_formula_units_Z   1
loop_
 _symmetry_equiv_pos_site_id
 _symmetry_equiv_pos_as_xyz
  1  'x, y, z'
loop_
 _atom_site_type_symbol
 _atom_site_label
 _atom_site_symmetry_multiplicity
 _atom_site_fract_x
 _atom_site_fract_y
 _atom_site_fract_z
 _atom_site_occupancy
  Ti  Ti0  1  0.500505  0.499971  0.833356  1
  Nb  Nb1  1  0.006997  0.000007  0.997586  1
  Nb  Nb2  1  0.502928  0.500010  0.165512  1
  Nb  Nb3  1  0.999325  0.999972  0.333297  1
  Nb  Nb4  1  0.496589  0.500014  0.501149  1
  Nb  Nb5  1  0.993649  0.000014  0.669093  1
  Zn  Zn6  1  0.002840  0.500003  0.999055  1
  Zn  Zn7  1  0.503178  0.000033  0.164607  1
  Zn  Zn8  1  0.999350  0.499973  0.333338  1
  Zn  Zn9  1  0.496316  0.000039  0.502071  1
  Zn  Zn10  1  0.997814  0.500011  0.667580  1
  Zn  Zn11  1  0.500504  0.999935  0.833339  1
  Ir  Ir12  1  0.505125  0.250537  0.998062  1
  Ir  Ir13  1  0.505126  0.749476  0.998077  1
  Ir  Ir14  1  0.002922  0.250955  0.166356  1
  Ir  Ir15  1  0.002925  0.749076  0.166353  1
  Ir  Ir16  1  0.499366  0.248297  0.333359  1
  Ir  Ir17  1  0.499398  0.751631  0.333353  1
  Ir  Ir18  1  0.996642  0.250930  0.500300  1
  Ir  Ir19  1  0.996625  0.749103  0.500311  1
  Ir  Ir20  1  0.495449  0.250544  0.668615  1
  Ir  Ir21  1  0.495469  0.749475  0.668588  1
  Ir  Ir22  1  0.000495  0.254998  0.833319  1
  Ir  Ir23  1  0.000472  0.744997  0.833323  1
