# generated using pymatgen
data_Hf8Co3Tc4Ru
_symmetry_space_group_name_H-M   'P 1'
_cell_length_a   6.42215000
_cell_length_b   4.56212700
_cell_length_c   9.12236600
_cell_angle_alpha   90.00000000
_cell_angle_beta   89.99987474
_cell_angle_gamma   90.00000000
_symmetry_Int_Tables_number   1
_chemical_formula_structural   Hf8Co3Tc4Ru
_chemical_formula_sum   'Hf8 Co3 Tc4 Ru1'
_cell_volume   267.27313553
_cell_formula_units_Z   1
loop_
 _symmetry_equiv_pos_site_id
 _symmetry_equiv_pos_as_xyz
  1  'x, y, z'
loop_
 _atom_site_type_symbol
 _atom_site_label
 _atom_site_symmetry_multiplicity
 _atom_site_fract_x
 _atom_site_fract_y
 _atom_site_fract_z
 _atom_site_occupancy
  Hf  Hf0  1  0.000993  0.750000  0.124992  1
  Hf  Hf1  1  0.499021  0.750000  0.124993  1
  Hf  Hf2  1  0.000719  0.250000  0.375842  1
  Hf  Hf3  1  0.499295  0.250000  0.375843  1
  Hf  Hf4  1  0.500108  0.750000  0.625009  1
  Hf  Hf5  1  0.999878  0.750000  0.625010  1
  Hf  Hf6  1  0.499258  0.250000  0.874147  1
  Hf  Hf7  1  0.000729  0.250000  0.874147  1
  Co  Co8  1  0.250007  0.750000  0.376118  1
  Co  Co9  1  0.749992  0.250000  0.624995  1
  Co  Co10  1  0.249991  0.750000  0.873886  1
  Tc  Tc11  1  0.250005  0.250000  0.124986  1
  Tc  Tc12  1  0.750005  0.750000  0.377594  1
  Tc  Tc13  1  0.249995  0.250000  0.625003  1
  Tc  Tc14  1  0.749995  0.750000  0.872431  1
  Ru  Ru15  1  0.750006  0.250000  0.125004  1
