# generated using pymatgen
data_Ho3TaBi3SbO14
_symmetry_space_group_name_H-M   'P 1'
_cell_length_a   6.45216379
_cell_length_b   6.69181925
_cell_length_c   7.62538937
_cell_angle_alpha   106.65373911
_cell_angle_beta   89.39232472
_cell_angle_gamma   98.36606561
_symmetry_Int_Tables_number   1
_chemical_formula_structural   Ho3TaBi3SbO14
_chemical_formula_sum   'Ho3 Ta1 Bi3 Sb1 O14'
_cell_volume   311.90453143
_cell_formula_units_Z   1
loop_
 _symmetry_equiv_pos_site_id
 _symmetry_equiv_pos_as_xyz
  1  'x, y, z'
loop_
 _atom_site_type_symbol
 _atom_site_label
 _atom_site_symmetry_multiplicity
 _atom_site_fract_x
 _atom_site_fract_y
 _atom_site_fract_z
 _atom_site_occupancy
  Ho  Ho0  1  0.546622  0.994822  0.751118  1
  Ho  Ho1  1  0.457003  0.003494  0.252097  1
  Ho  Ho2  1  0.256967  0.532189  0.882515  1
  Ta  Ta3  1  0.003812  0.007978  0.502572  1
  Bi  Bi4  1  0.745337  0.480385  0.117310  1
  Bi  Bi5  1  0.726513  0.458994  0.612166  1
  Bi  Bi6  1  0.262047  0.537139  0.389188  1
  Sb  Sb7  1  0.004648  0.000864  0.999540  1
  O  O8  1  0.440159  0.652491  0.166295  1
  O  O9  1  0.541364  0.342661  0.822610  1
  O  O10  1  0.295982  0.932101  0.951784  1
  O  O11  1  0.707828  0.042600  0.047764  1
  O  O12  1  0.289556  0.926131  0.515843  1
  O  O13  1  0.711758  0.077802  0.486306  1
  O  O14  1  0.527384  0.353279  0.346690  1
  O  O15  1  0.457607  0.645495  0.661469  1
  O  O16  1  0.939010  0.681147  0.954600  1
  O  O17  1  0.084345  0.312343  0.035650  1
  O  O18  1  0.094997  0.311468  0.624646  1
  O  O19  1  0.902188  0.701517  0.378966  1
  O  O20  1  0.905807  0.947856  0.736652  1
  O  O21  1  0.099068  0.057243  0.264221  1
