# generated using pymatgen
data_Sm8Hf7Zr5Sn16
_symmetry_space_group_name_H-M   'P 1'
_cell_length_a   7.81727155
_cell_length_b   7.85481697
_cell_length_c   14.73963614
_cell_angle_alpha   89.99291052
_cell_angle_beta   89.95543222
_cell_angle_gamma   89.94330987
_symmetry_Int_Tables_number   1
_chemical_formula_structural   Sm8Hf7Zr5Sn16
_chemical_formula_sum   'Sm8 Hf7 Zr5 Sn16'
_cell_volume   905.06065155
_cell_formula_units_Z   1
loop_
 _symmetry_equiv_pos_site_id
 _symmetry_equiv_pos_as_xyz
  1  'x, y, z'
loop_
 _atom_site_type_symbol
 _atom_site_label
 _atom_site_symmetry_multiplicity
 _atom_site_fract_x
 _atom_site_fract_y
 _atom_site_fract_z
 _atom_site_occupancy
  Sm  Sm0  1  0.511023  0.323856  0.907635  1
  Sm  Sm1  1  0.011175  0.176151  0.592153  1
  Sm  Sm2  1  0.488818  0.675993  0.408100  1
  Sm  Sm3  1  0.988979  0.823765  0.092040  1
  Sm  Sm4  1  0.488414  0.676118  0.092057  1
  Sm  Sm5  1  0.988569  0.823879  0.408043  1
  Sm  Sm6  1  0.511490  0.324060  0.592172  1
  Sm  Sm7  1  0.011273  0.175773  0.907809  1
  Hf  Hf8  1  0.153359  0.338834  0.369574  1
  Hf  Hf9  1  0.346535  0.838754  0.630602  1
  Hf  Hf10  1  0.846612  0.661255  0.869080  1
  Hf  Hf11  1  0.167168  0.511945  0.749780  1
  Hf  Hf12  1  0.667010  0.987820  0.749951  1
  Hf  Hf13  1  0.833163  0.488516  0.250064  1
  Hf  Hf14  1  0.332305  0.011784  0.250352  1
  Zr  Zr15  1  0.346270  0.838597  0.869679  1
  Zr  Zr16  1  0.846577  0.661405  0.630366  1
  Zr  Zr17  1  0.653690  0.161251  0.370248  1
  Zr  Zr18  1  0.153600  0.338412  0.130673  1
  Zr  Zr19  1  0.654084  0.161516  0.129802  1
  Sn  Sn20  1  0.315623  0.042279  0.043613  1
  Sn  Sn21  1  0.816803  0.457329  0.456059  1
  Sn  Sn22  1  0.683253  0.957273  0.544111  1
  Sn  Sn23  1  0.182834  0.542634  0.955949  1
  Sn  Sn24  1  0.685083  0.956469  0.955831  1
  Sn  Sn25  1  0.185262  0.542972  0.543531  1
  Sn  Sn26  1  0.314762  0.043007  0.456598  1
  Sn  Sn27  1  0.815821  0.458587  0.042991  1
  Sn  Sn28  1  0.539938  0.617432  0.749900  1
  Sn  Sn29  1  0.039899  0.882604  0.749958  1
  Sn  Sn30  1  0.459939  0.382961  0.250485  1
  Sn  Sn31  1  0.960415  0.117200  0.250498  1
  Sn  Sn32  1  0.314974  0.155050  0.749639  1
  Sn  Sn33  1  0.814876  0.344886  0.750310  1
  Sn  Sn34  1  0.685164  0.844487  0.250033  1
  Sn  Sn35  1  0.185241  0.655145  0.250313  1
