# generated using pymatgen
data_Ho3Sc2Co16(P4Ru)3
_symmetry_space_group_name_H-M   'P 1'
_cell_length_a   11.96093800
_cell_length_b   11.96100955
_cell_length_c   3.67315400
_cell_angle_alpha   90.00000000
_cell_angle_beta   90.00000000
_cell_angle_gamma   120.00019284
_symmetry_Int_Tables_number   1
_chemical_formula_structural   Ho3Sc2Co16(P4Ru)3
_chemical_formula_sum   'Ho3 Sc2 Co16 P12 Ru3'
_cell_volume   455.09493406
_cell_formula_units_Z   1
loop_
 _symmetry_equiv_pos_site_id
 _symmetry_equiv_pos_as_xyz
  1  'x, y, z'
loop_
 _atom_site_type_symbol
 _atom_site_label
 _atom_site_symmetry_multiplicity
 _atom_site_fract_x
 _atom_site_fract_y
 _atom_site_fract_z
 _atom_site_occupancy
  Ho  Ho0  1  0.667264  0.333765  0.000000  1
  Ho  Ho1  1  0.332736  0.666502  0.000000  1
  Ho  Ho2  1  0.000000  0.181965  0.500000  1
  Sc  Sc3  1  0.816899  0.816573  0.500000  1
  Sc  Sc4  1  0.183101  0.999674  0.500000  1
  Co  Co5  1  0.873647  0.356549  0.500000  1
  Co  Co6  1  0.644929  0.519181  0.500000  1
  Co  Co7  1  0.481810  0.125971  0.500000  1
  Co  Co8  1  0.355071  0.874251  0.500000  1
  Co  Co9  1  0.518190  0.644161  0.500000  1
  Co  Co10  1  0.126353  0.482902  0.500000  1
  Co  Co11  1  0.803798  0.177599  0.000000  1
  Co  Co12  1  0.821691  0.628926  0.000000  1
  Co  Co13  1  0.373213  0.193458  0.000000  1
  Co  Co14  1  0.178309  0.807237  0.000000  1
  Co  Co15  1  0.626787  0.820247  0.000000  1
  Co  Co16  1  0.196202  0.373804  0.000000  1
  Co  Co17  1  0.282492  0.280475  0.500000  1
  Co  Co18  1  0.717508  0.997983  0.500000  1
  Co  Co19  1  0.000000  0.720631  0.500000  1
  Co  Co20  1  0.000000  0.998497  0.000000  1
  P  P21  1  0.685878  0.164116  0.500000  1
  P  P22  1  0.835579  0.522485  0.500000  1
  P  P23  1  0.479855  0.314432  0.500000  1
  P  P24  1  0.164421  0.686907  0.500000  1
  P  P25  1  0.520145  0.834577  0.500000  1
  P  P26  1  0.314122  0.478238  0.500000  1
  P  P27  1  0.179076  0.175107  0.000000  1
  P  P28  1  0.820924  0.996031  0.000000  1
  P  P29  1  0.000000  0.823348  0.000000  1
  P  P30  1  0.640955  0.641062  0.000000  1
  P  P31  1  0.359045  0.000107  0.000000  1
  P  P32  1  0.000000  0.362201  0.000000  1
  Ru  Ru33  1  0.448090  0.447512  0.000000  1
  Ru  Ru34  1  0.551910  0.999422  0.000000  1
  Ru  Ru35  1  0.000000  0.554100  0.000000  1
