# generated using pymatgen
data_Li4Pr4Bi3Pb
_symmetry_space_group_name_H-M   'P 1'
_cell_length_a   4.84469900
_cell_length_b   7.56079483
_cell_length_c   8.49827800
_cell_angle_alpha   89.90762402
_cell_angle_beta   90.00000000
_cell_angle_gamma   90.00000000
_symmetry_Int_Tables_number   1
_chemical_formula_structural   Li4Pr4Bi3Pb
_chemical_formula_sum   'Li4 Pr4 Bi3 Pb1'
_cell_volume   311.28960760
_cell_formula_units_Z   1
loop_
 _symmetry_equiv_pos_site_id
 _symmetry_equiv_pos_as_xyz
  1  'x, y, z'
loop_
 _atom_site_type_symbol
 _atom_site_label
 _atom_site_symmetry_multiplicity
 _atom_site_fract_x
 _atom_site_fract_y
 _atom_site_fract_z
 _atom_site_occupancy
  Li  Li0  1  0.250000  0.193298  0.917380  1
  Li  Li1  1  0.250000  0.688937  0.580578  1
  Li  Li2  1  0.750000  0.808415  0.080214  1
  Li  Li3  1  0.750000  0.308130  0.422068  1
  Pr  Pr4  1  0.250000  0.006785  0.277697  1
  Pr  Pr5  1  0.250000  0.503669  0.227229  1
  Pr  Pr6  1  0.750000  0.997700  0.721817  1
  Pr  Pr7  1  0.750000  0.492331  0.773498  1
  Bi  Bi8  1  0.250000  0.766206  0.912225  1
  Bi  Bi9  1  0.750000  0.734192  0.411995  1
  Bi  Bi10  1  0.750000  0.234130  0.088175  1
  Pb  Pb11  1  0.250000  0.266205  0.587121  1
