# generated using pymatgen
data_PrNd2Er5(CdIr)2
_symmetry_space_group_name_H-M   'P 1'
_cell_length_a   9.71422024
_cell_length_b   9.70892307
_cell_length_c   9.70892145
_cell_angle_alpha   60.03610057
_cell_angle_beta   59.98194506
_cell_angle_gamma   59.98194638
_symmetry_Int_Tables_number   1
_chemical_formula_structural   PrNd2Er5(CdIr)2
_chemical_formula_sum   'Pr2 Nd4 Er10 Cd4 Ir4'
_cell_volume   647.49245160
_cell_formula_units_Z   2
loop_
 _symmetry_equiv_pos_site_id
 _symmetry_equiv_pos_as_xyz
  1  'x, y, z'
loop_
 _atom_site_type_symbol
 _atom_site_label
 _atom_site_symmetry_multiplicity
 _atom_site_fract_x
 _atom_site_fract_y
 _atom_site_fract_z
 _atom_site_occupancy
  Pr  Pr0  1  0.941159  0.558841  0.558841  1
  Pr  Pr1  1  0.558841  0.941159  0.941159  1
  Nd  Nd2  1  0.557947  0.942053  0.557947  1
  Nd  Nd3  1  0.942053  0.557947  0.942053  1
  Nd  Nd4  1  0.557947  0.557947  0.942053  1
  Nd  Nd5  1  0.942053  0.942053  0.557947  1
  Er  Er6  1  0.347381  0.346910  0.346910  1
  Er  Er7  1  0.346910  0.347381  0.958798  1
  Er  Er8  1  0.346910  0.958798  0.347381  1
  Er  Er9  1  0.958798  0.346910  0.346910  1
  Er  Er10  1  0.812641  0.187359  0.187359  1
  Er  Er11  1  0.187359  0.812641  0.812641  1
  Er  Er12  1  0.187200  0.812800  0.187200  1
  Er  Er13  1  0.812800  0.187200  0.812800  1
  Er  Er14  1  0.187200  0.187200  0.812800  1
  Er  Er15  1  0.812800  0.812800  0.187200  1
  Cd  Cd16  1  0.578899  0.579689  0.579689  1
  Cd  Cd17  1  0.579689  0.578899  0.261723  1
  Cd  Cd18  1  0.579689  0.261723  0.578899  1
  Cd  Cd19  1  0.261723  0.579689  0.579689  1
  Ir  Ir20  1  0.140590  0.141506  0.141506  1
  Ir  Ir21  1  0.141506  0.140590  0.576397  1
  Ir  Ir22  1  0.141506  0.576397  0.140590  1
  Ir  Ir23  1  0.576397  0.141506  0.141506  1
