# generated using pymatgen
data_Hf10In8Fe2PtRh
_symmetry_space_group_name_H-M   'P 1'
_cell_length_a   3.30975300
_cell_length_b   7.64104661
_cell_length_c   17.44787267
_cell_angle_alpha   89.99782723
_cell_angle_beta   90.00000000
_cell_angle_gamma   90.00000000
_symmetry_Int_Tables_number   1
_chemical_formula_structural   Hf10In8Fe2PtRh
_chemical_formula_sum   'Hf10 In8 Fe2 Pt1 Rh1'
_cell_volume   441.25629715
_cell_formula_units_Z   1
loop_
 _symmetry_equiv_pos_site_id
 _symmetry_equiv_pos_as_xyz
  1  'x, y, z'
loop_
 _atom_site_type_symbol
 _atom_site_label
 _atom_site_symmetry_multiplicity
 _atom_site_fract_x
 _atom_site_fract_y
 _atom_site_fract_z
 _atom_site_occupancy
  Hf  Hf0  1  0.000000  0.279889  0.219636  1
  Hf  Hf1  1  0.000000  0.636374  0.085585  1
  Hf  Hf2  1  0.000000  0.746085  0.272409  1
  Hf  Hf3  1  0.000000  0.858539  0.578665  1
  Hf  Hf4  1  0.000000  0.256930  0.728186  1
  Hf  Hf5  1  0.000000  0.717168  0.781502  1
  Hf  Hf6  1  0.000000  0.140195  0.419712  1
  Hf  Hf7  1  0.000000  0.000091  0.999938  1
  Hf  Hf8  1  0.000000  0.363588  0.914451  1
  Hf  Hf9  1  0.000000  0.500666  0.500054  1
  In  In10  1  0.500000  0.801644  0.430110  1
  In  In11  1  0.500000  0.695129  0.934893  1
  In  In12  1  0.500000  0.058141  0.851472  1
  In  In13  1  0.500000  0.557289  0.650083  1
  In  In14  1  0.500000  0.198786  0.568027  1
  In  In15  1  0.500000  0.943436  0.149674  1
  In  In16  1  0.500000  0.440499  0.349550  1
  In  In17  1  0.500000  0.304811  0.065470  1
  Fe  Fe18  1  0.500000  0.452580  0.807216  1
  Fe  Fe19  1  0.500000  0.547245  0.192317  1
  Pt  Pt20  1  0.500000  0.950139  0.695032  1
  Rh  Rh21  1  0.500000  0.050775  0.306018  1
