# generated using pymatgen
data_P2H4O7
_symmetry_space_group_name_H-M   'P 1'
_cell_length_a   5.22205880
_cell_length_b   4.69420337
_cell_length_c   7.42363087
_cell_angle_alpha   62.58336184
_cell_angle_beta   78.61878460
_cell_angle_gamma   88.36571737
_symmetry_Int_Tables_number   1
_chemical_formula_structural   P2H4O7
_chemical_formula_sum   'P2 H4 O7'
_cell_volume   157.95552127
_cell_formula_units_Z   1
loop_
 _symmetry_equiv_pos_site_id
 _symmetry_equiv_pos_as_xyz
  1  'x, y, z'
loop_
 _atom_site_type_symbol
 _atom_site_label
 _atom_site_symmetry_multiplicity
 _atom_site_fract_x
 _atom_site_fract_y
 _atom_site_fract_z
 _atom_site_occupancy
  P  P0  1  0.088331  0.279517  0.950980  1
  P  P1  1  0.701942  0.964175  0.359875  1
  H  H2  1  0.764448  0.363314  0.452118  1
  H  H3  1  0.363116  0.227500  0.209722  1
  H  H4  1  0.861421  0.532334  0.683813  1
  H  H5  1  0.237535  0.828537  0.938280  1
  O  O6  1  0.955883  0.542596  0.789217  1
  O  O7  1  0.711881  0.610971  0.507400  1
  O  O8  1  0.417623  0.042755  0.338949  1
  O  O9  1  0.841703  0.174742  0.423411  1
  O  O10  1  0.863702  0.024188  0.133888  1
  O  O11  1  0.244720  0.446340  0.031497  1
  O  O12  1  0.250882  0.074269  0.862431  1
