# generated using pymatgen
data_Er20Zn3Os2Pd3
_symmetry_space_group_name_H-M   'P 1'
_cell_length_a   9.35796000
_cell_length_b   9.35795992
_cell_length_c   9.34865000
_cell_angle_alpha   90.00000000
_cell_angle_beta   90.00000000
_cell_angle_gamma   120.00000027
_symmetry_Int_Tables_number   1
_chemical_formula_structural   Er20Zn3Os2Pd3
_chemical_formula_sum   'Er20 Zn3 Os2 Pd3'
_cell_volume   708.99291735
_cell_formula_units_Z   1
loop_
 _symmetry_equiv_pos_site_id
 _symmetry_equiv_pos_as_xyz
  1  'x, y, z'
loop_
 _atom_site_type_symbol
 _atom_site_label
 _atom_site_symmetry_multiplicity
 _atom_site_fract_x
 _atom_site_fract_y
 _atom_site_fract_z
 _atom_site_occupancy
  Er  Er0  1  0.000000  0.000000  0.474113  1
  Er  Er1  1  0.000000  0.000000  0.025887  1
  Er  Er2  1  0.207685  0.792315  0.443129  1
  Er  Er3  1  0.207685  0.415371  0.443129  1
  Er  Er4  1  0.584629  0.792315  0.443129  1
  Er  Er5  1  0.793538  0.206462  0.557560  1
  Er  Er6  1  0.793538  0.587077  0.557560  1
  Er  Er7  1  0.412923  0.206462  0.557560  1
  Er  Er8  1  0.793538  0.206462  0.942440  1
  Er  Er9  1  0.793538  0.587077  0.942440  1
  Er  Er10  1  0.412923  0.206462  0.942440  1
  Er  Er11  1  0.207685  0.792315  0.056871  1
  Er  Er12  1  0.207685  0.415371  0.056871  1
  Er  Er13  1  0.584629  0.792315  0.056871  1
  Er  Er14  1  0.540607  0.459393  0.250000  1
  Er  Er15  1  0.540607  0.081213  0.250000  1
  Er  Er16  1  0.918787  0.459393  0.250000  1
  Er  Er17  1  0.459256  0.540744  0.750000  1
  Er  Er18  1  0.459256  0.918510  0.750000  1
  Er  Er19  1  0.081490  0.540744  0.750000  1
  Zn  Zn20  1  0.109767  0.890233  0.750000  1
  Zn  Zn21  1  0.109767  0.219533  0.750000  1
  Zn  Zn22  1  0.780467  0.890233  0.750000  1
  Os  Os23  1  0.333333  0.666667  0.250000  1
  Os  Os24  1  0.666667  0.333333  0.750000  1
  Pd  Pd25  1  0.875746  0.124254  0.250000  1
  Pd  Pd26  1  0.875746  0.751494  0.250000  1
  Pd  Pd27  1  0.248506  0.124254  0.250000  1
