# generated using pymatgen
data_TbHo9(In2Rh)4
_symmetry_space_group_name_H-M   'P 1'
_cell_length_a   7.99197669
_cell_length_b   18.32919557
_cell_length_c   3.61544400
_cell_angle_alpha   90.00000000
_cell_angle_beta   90.00000000
_cell_angle_gamma   90.04748771
_symmetry_Int_Tables_number   1
_chemical_formula_structural   TbHo9(In2Rh)4
_chemical_formula_sum   'Tb1 Ho9 In8 Rh4'
_cell_volume   529.61356899
_cell_formula_units_Z   1
loop_
 _symmetry_equiv_pos_site_id
 _symmetry_equiv_pos_as_xyz
  1  'x, y, z'
loop_
 _atom_site_type_symbol
 _atom_site_label
 _atom_site_symmetry_multiplicity
 _atom_site_fract_x
 _atom_site_fract_y
 _atom_site_fract_z
 _atom_site_occupancy
  Tb  Tb0  1  0.500000  0.500000  0.000000  1
  Ho  Ho1  1  0.000000  0.000000  0.000000  1
  Ho  Ho2  1  0.758078  0.278178  0.000000  1
  Ho  Ho3  1  0.241922  0.721822  0.000000  1
  Ho  Ho4  1  0.741786  0.778261  0.000000  1
  Ho  Ho5  1  0.258214  0.221739  0.000000  1
  Ho  Ho6  1  0.623495  0.088692  0.000000  1
  Ho  Ho7  1  0.376505  0.911308  0.000000  1
  Ho  Ho8  1  0.876349  0.588760  0.000000  1
  Ho  Ho9  1  0.123651  0.411240  0.000000  1
  In  In10  1  0.702566  0.931812  0.500000  1
  In  In11  1  0.297434  0.068188  0.500000  1
  In  In12  1  0.798164  0.431498  0.500000  1
  In  In13  1  0.201836  0.568502  0.500000  1
  In  In14  1  0.561257  0.650511  0.500000  1
  In  In15  1  0.438743  0.349489  0.500000  1
  In  In16  1  0.938788  0.150079  0.500000  1
  In  In17  1  0.061212  0.849921  0.500000  1
  Rh  Rh18  1  0.534543  0.195069  0.500000  1
  Rh  Rh19  1  0.465457  0.804931  0.500000  1
  Rh  Rh20  1  0.965550  0.695080  0.500000  1
  Rh  Rh21  1  0.034450  0.304920  0.500000  1
