# generated using pymatgen
data_Lu12Mn3Pb2
_symmetry_space_group_name_H-M   'P 1'
_cell_length_a   8.25261153
_cell_length_b   8.25261209
_cell_length_c   8.25261133
_cell_angle_alpha   109.10512038
_cell_angle_beta   109.10512287
_cell_angle_gamma   110.20592254
_symmetry_Int_Tables_number   1
_chemical_formula_structural   Lu12Mn3Pb2
_chemical_formula_sum   'Lu12 Mn3 Pb2'
_cell_volume   432.61215233
_cell_formula_units_Z   1
loop_
 _symmetry_equiv_pos_site_id
 _symmetry_equiv_pos_as_xyz
  1  'x, y, z'
loop_
 _atom_site_type_symbol
 _atom_site_label
 _atom_site_symmetry_multiplicity
 _atom_site_fract_x
 _atom_site_fract_y
 _atom_site_fract_z
 _atom_site_occupancy
  Lu  Lu0  1  0.306599  0.306599  0.613199  1
  Lu  Lu1  1  0.693401  0.693401  0.386801  1
  Lu  Lu2  1  0.693401  0.306599  0.000000  1
  Lu  Lu3  1  0.306599  0.693401  0.000000  1
  Lu  Lu4  1  0.197450  0.433324  0.235874  1
  Lu  Lu5  1  0.802550  0.566676  0.764126  1
  Lu  Lu6  1  0.197450  0.961573  0.764126  1
  Lu  Lu7  1  0.961573  0.197450  0.764126  1
  Lu  Lu8  1  0.802550  0.038427  0.235874  1
  Lu  Lu9  1  0.038427  0.802550  0.235874  1
  Lu  Lu10  1  0.433324  0.197450  0.235874  1
  Lu  Lu11  1  0.566676  0.802550  0.764126  1
  Mn  Mn12  1  0.387283  0.387283  0.000000  1
  Mn  Mn13  1  0.612717  0.612717  0.000000  1
  Mn  Mn14  1  0.000000  0.000000  0.000000  1
  Pb  Pb15  1  0.000000  0.500000  0.500000  1
  Pb  Pb16  1  0.500000  0.000000  0.500000  1
