# generated using pymatgen
data_Dy3Er2Tm5(CoBi2)2
_symmetry_space_group_name_H-M   'P 1'
_cell_length_a   7.90677503
_cell_length_b   8.86368900
_cell_length_c   12.35045568
_cell_angle_alpha   90.00000000
_cell_angle_beta   89.85579919
_cell_angle_gamma   90.00000000
_symmetry_Int_Tables_number   1
_chemical_formula_structural   Dy3Er2Tm5(CoBi2)2
_chemical_formula_sum   'Dy6 Er4 Tm10 Co4 Bi8'
_cell_volume   865.55665113
_cell_formula_units_Z   2
loop_
 _symmetry_equiv_pos_site_id
 _symmetry_equiv_pos_as_xyz
  1  'x, y, z'
loop_
 _atom_site_type_symbol
 _atom_site_label
 _atom_site_symmetry_multiplicity
 _atom_site_fract_x
 _atom_site_fract_y
 _atom_site_fract_z
 _atom_site_occupancy
  Dy  Dy0  1  0.153760  0.250000  0.799530  1
  Dy  Dy1  1  0.846240  0.750000  0.200470  1
  Dy  Dy2  1  0.118471  0.750000  0.812749  1
  Dy  Dy3  1  0.881529  0.250000  0.187251  1
  Dy  Dy4  1  0.619386  0.250000  0.687410  1
  Dy  Dy5  1  0.380614  0.750000  0.312590  1
  Er  Er6  1  0.554888  0.750000  0.997368  1
  Er  Er7  1  0.445112  0.250000  0.002632  1
  Er  Er8  1  0.055396  0.250000  0.502672  1
  Er  Er9  1  0.944604  0.750000  0.497328  1
  Tm  Tm10  1  0.652467  0.750000  0.698446  1
  Tm  Tm11  1  0.347533  0.250000  0.301554  1
  Tm  Tm12  1  0.826406  0.463273  0.936347  1
  Tm  Tm13  1  0.173594  0.536727  0.063653  1
  Tm  Tm14  1  0.327077  0.537275  0.563637  1
  Tm  Tm15  1  0.173594  0.963273  0.063653  1
  Tm  Tm16  1  0.672923  0.462725  0.436363  1
  Tm  Tm17  1  0.826406  0.036727  0.936347  1
  Tm  Tm18  1  0.672923  0.037275  0.436363  1
  Tm  Tm19  1  0.327077  0.962725  0.563637  1
  Co  Co20  1  0.936359  0.750000  0.993021  1
  Co  Co21  1  0.063641  0.250000  0.006979  1
  Co  Co22  1  0.436344  0.250000  0.507258  1
  Co  Co23  1  0.563656  0.750000  0.492742  1
  Bi  Bi24  1  0.930883  0.007190  0.672485  1
  Bi  Bi25  1  0.069117  0.992810  0.327515  1
  Bi  Bi26  1  0.433056  0.991286  0.827269  1
  Bi  Bi27  1  0.069117  0.507190  0.327515  1
  Bi  Bi28  1  0.566944  0.008714  0.172731  1
  Bi  Bi29  1  0.930883  0.492810  0.672485  1
  Bi  Bi30  1  0.566944  0.491286  0.172731  1
  Bi  Bi31  1  0.433056  0.508714  0.827269  1
