# generated using pymatgen
data_La2YRuI3
_symmetry_space_group_name_H-M   'P 1'
_cell_length_a   4.33652500
_cell_length_b   9.48278539
_cell_length_c   12.48719746
_cell_angle_alpha   88.14863051
_cell_angle_beta   90.00000000
_cell_angle_gamma   90.00000000
_symmetry_Int_Tables_number   1
_chemical_formula_structural   La2YRuI3
_chemical_formula_sum   'La4 Y2 Ru2 I6'
_cell_volume   513.23467878
_cell_formula_units_Z   2
loop_
 _symmetry_equiv_pos_site_id
 _symmetry_equiv_pos_as_xyz
  1  'x, y, z'
loop_
 _atom_site_type_symbol
 _atom_site_label
 _atom_site_symmetry_multiplicity
 _atom_site_fract_x
 _atom_site_fract_y
 _atom_site_fract_z
 _atom_site_occupancy
  La  La0  1  0.750000  0.120568  0.670996  1
  La  La1  1  0.250000  0.879432  0.329004  1
  La  La2  1  0.750000  0.100667  0.102063  1
  La  La3  1  0.250000  0.899333  0.897937  1
  Y  Y4  1  0.250000  0.312460  0.879670  1
  Y  Y5  1  0.750000  0.687540  0.120330  1
  Ru  Ru6  1  0.750000  0.116281  0.870226  1
  Ru  Ru7  1  0.250000  0.883719  0.129774  1
  I  I8  1  0.750000  0.136019  0.380767  1
  I  I9  1  0.250000  0.863981  0.619233  1
  I  I10  1  0.250000  0.378279  0.629580  1
  I  I11  1  0.750000  0.621721  0.370420  1
  I  I12  1  0.750000  0.597113  0.873464  1
  I  I13  1  0.250000  0.402887  0.126536  1
