# generated using pymatgen
data_SrMn3HgO8
_symmetry_space_group_name_H-M   'P 1'
_cell_length_a   6.46994095
_cell_length_b   6.46994181
_cell_length_c   5.08541841
_cell_angle_alpha   73.74395325
_cell_angle_beta   73.74394925
_cell_angle_gamma   55.02396675
_symmetry_Int_Tables_number   1
_chemical_formula_structural   SrMn3HgO8
_chemical_formula_sum   'Sr1 Mn3 Hg1 O8'
_cell_volume   165.51315186
_cell_formula_units_Z   1
loop_
 _symmetry_equiv_pos_site_id
 _symmetry_equiv_pos_as_xyz
  1  'x, y, z'
loop_
 _atom_site_type_symbol
 _atom_site_label
 _atom_site_symmetry_multiplicity
 _atom_site_fract_x
 _atom_site_fract_y
 _atom_site_fract_z
 _atom_site_occupancy
  Sr  Sr0  1  0.276299  0.276299  0.666983  1
  Mn  Mn1  1  0.999558  0.999558  0.496797  1
  Mn  Mn2  1  0.743805  0.257549  0.001256  1
  Mn  Mn3  1  0.257549  0.743805  0.001256  1
  Hg  Hg4  1  0.719898  0.719898  0.338905  1
  O  O5  1  0.402440  0.402440  0.965070  1
  O  O6  1  0.602478  0.602478  0.044233  1
  O  O7  1  0.908893  0.908893  0.895255  1
  O  O8  1  0.093230  0.093230  0.102610  1
  O  O9  1  0.319197  0.871176  0.613663  1
  O  O10  1  0.871176  0.319197  0.613663  1
  O  O11  1  0.119822  0.685653  0.380154  1
  O  O12  1  0.685653  0.119822  0.380154  1
