# generated using pymatgen
data_Ce(PSe3)2
_symmetry_space_group_name_H-M   'P 1'
_cell_length_a   7.35244400
_cell_length_b   7.35244400
_cell_length_c   10.28440400
_cell_angle_alpha   90.00000000
_cell_angle_beta   90.00000000
_cell_angle_gamma   90.00000000
_symmetry_Int_Tables_number   1
_chemical_formula_structural   Ce(PSe3)2
_chemical_formula_sum   'Ce2 P4 Se12'
_cell_volume   555.95876225
_cell_formula_units_Z   2
loop_
 _symmetry_equiv_pos_site_id
 _symmetry_equiv_pos_as_xyz
  1  'x, y, z'
loop_
 _atom_site_type_symbol
 _atom_site_label
 _atom_site_symmetry_multiplicity
 _atom_site_fract_x
 _atom_site_fract_y
 _atom_site_fract_z
 _atom_site_occupancy
  Ce  Ce0  1  0.000000  0.000000  0.750000  1
  Ce  Ce1  1  0.000000  0.000000  0.250000  1
  P  P2  1  0.647191  0.056364  0.000000  1
  P  P3  1  0.352809  0.943636  0.000000  1
  P  P4  1  0.056364  0.352809  0.500000  1
  P  P5  1  0.943636  0.647191  0.500000  1
  Se  Se6  1  0.213970  0.321686  0.679724  1
  Se  Se7  1  0.678314  0.213970  0.179724  1
  Se  Se8  1  0.171402  0.185283  0.000000  1
  Se  Se9  1  0.814717  0.171402  0.500000  1
  Se  Se10  1  0.185283  0.828598  0.500000  1
  Se  Se11  1  0.828598  0.814717  0.000000  1
  Se  Se12  1  0.213970  0.321686  0.320276  1
  Se  Se13  1  0.678314  0.213970  0.820276  1
  Se  Se14  1  0.321686  0.786030  0.820276  1
  Se  Se15  1  0.786030  0.678314  0.320276  1
  Se  Se16  1  0.786030  0.678314  0.679724  1
  Se  Se17  1  0.321686  0.786030  0.179724  1
