# generated using pymatgen
data_Nb6CdTcS12
_symmetry_space_group_name_H-M   'P 1'
_cell_length_a   5.82907100
_cell_length_b   5.82907163
_cell_length_c   12.81410100
_cell_angle_alpha   90.00000000
_cell_angle_beta   90.00000000
_cell_angle_gamma   120.00000213
_symmetry_Int_Tables_number   1
_chemical_formula_structural   Nb6CdTcS12
_chemical_formula_sum   'Nb6 Cd1 Tc1 S12'
_cell_volume   377.06611136
_cell_formula_units_Z   1
loop_
 _symmetry_equiv_pos_site_id
 _symmetry_equiv_pos_as_xyz
  1  'x, y, z'
loop_
 _atom_site_type_symbol
 _atom_site_label
 _atom_site_symmetry_multiplicity
 _atom_site_fract_x
 _atom_site_fract_y
 _atom_site_fract_z
 _atom_site_occupancy
  Nb  Nb0  1  0.000000  0.000000  0.516588  1
  Nb  Nb1  1  0.000000  0.000000  0.983412  1
  Nb  Nb2  1  0.333333  0.666667  0.982594  1
  Nb  Nb3  1  0.666667  0.333333  0.987175  1
  Nb  Nb4  1  0.666667  0.333333  0.512825  1
  Nb  Nb5  1  0.333333  0.666667  0.517406  1
  Cd  Cd6  1  0.333333  0.666667  0.250000  1
  Tc  Tc7  1  0.666667  0.333333  0.750000  1
  S  S8  1  0.331086  0.327134  0.391938  1
  S  S9  1  0.672866  0.003953  0.391938  1
  S  S10  1  0.996047  0.668914  0.391938  1
  S  S11  1  0.336436  0.333512  0.637334  1
  S  S12  1  0.997076  0.663564  0.637334  1
  S  S13  1  0.666488  0.002924  0.637334  1
  S  S14  1  0.666488  0.663564  0.862666  1
  S  S15  1  0.336436  0.002924  0.862666  1
  S  S16  1  0.997076  0.333512  0.862666  1
  S  S17  1  0.672866  0.668914  0.108062  1
  S  S18  1  0.996047  0.327134  0.108062  1
  S  S19  1  0.331086  0.003953  0.108062  1
