# generated using pymatgen
data_Li6Al5GePt12
_symmetry_space_group_name_H-M   'P 1'
_cell_length_a   4.06863705
_cell_length_b   6.66185505
_cell_length_c   12.20205305
_cell_angle_alpha   89.99986478
_cell_angle_beta   90.01064792
_cell_angle_gamma   90.01461297
_symmetry_Int_Tables_number   1
_chemical_formula_structural   Li6Al5GePt12
_chemical_formula_sum   'Li6 Al5 Ge1 Pt12'
_cell_volume   330.73260850
_cell_formula_units_Z   1
loop_
 _symmetry_equiv_pos_site_id
 _symmetry_equiv_pos_as_xyz
  1  'x, y, z'
loop_
 _atom_site_type_symbol
 _atom_site_label
 _atom_site_symmetry_multiplicity
 _atom_site_fract_x
 _atom_site_fract_y
 _atom_site_fract_z
 _atom_site_occupancy
  Li  Li0  1  0.999999  0.000008  0.999995  1
  Li  Li1  1  0.499871  0.499991  0.167080  1
  Li  Li2  1  0.999819  0.000007  0.333572  1
  Li  Li3  1  0.499999  0.499993  0.499994  1
  Li  Li4  1  0.000176  0.000010  0.666436  1
  Li  Li5  1  0.500135  0.499992  0.832923  1
  Al  Al6  1  0.499872  0.000004  0.167234  1
  Al  Al7  1  0.999873  0.499997  0.333902  1
  Al  Al8  1  0.500001  0.000003  0.499992  1
  Al  Al9  1  0.000128  0.499997  0.666105  1
  Al  Al10  1  0.500129  0.000004  0.832770  1
  Ge  Ge11  1  0.999996  0.500004  0.999990  1
  Pt  Pt12  1  0.500062  0.247239  0.000008  1
  Pt  Pt13  1  0.499941  0.752760  0.000007  1
  Pt  Pt14  1  0.999913  0.249277  0.167278  1
  Pt  Pt15  1  0.999871  0.750725  0.167277  1
  Pt  Pt16  1  0.499838  0.250315  0.333477  1
  Pt  Pt17  1  0.499942  0.749687  0.333476  1
  Pt  Pt18  1  0.000009  0.249538  0.500008  1
  Pt  Pt19  1  0.999992  0.750463  0.500006  1
  Pt  Pt20  1  0.500057  0.250305  0.666515  1
  Pt  Pt21  1  0.500162  0.749690  0.666514  1
  Pt  Pt22  1  0.000128  0.249279  0.832719  1
  Pt  Pt23  1  0.000086  0.750722  0.832719  1
