# generated using pymatgen
data_Pr3ErIn4
_symmetry_space_group_name_H-M   'P 1'
_cell_length_a   6.74896043
_cell_length_b   6.74896039
_cell_length_c   10.20401600
_cell_angle_alpha   90.00000000
_cell_angle_beta   90.00000000
_cell_angle_gamma   98.09846684
_symmetry_Int_Tables_number   1
_chemical_formula_structural   Pr3ErIn4
_chemical_formula_sum   'Pr6 Er2 In8'
_cell_volume   460.14225681
_cell_formula_units_Z   2
loop_
 _symmetry_equiv_pos_site_id
 _symmetry_equiv_pos_as_xyz
  1  'x, y, z'
loop_
 _atom_site_type_symbol
 _atom_site_label
 _atom_site_symmetry_multiplicity
 _atom_site_fract_x
 _atom_site_fract_y
 _atom_site_fract_z
 _atom_site_occupancy
  Pr  Pr0  1  0.541630  0.541630  0.250000  1
  Pr  Pr1  1  0.458370  0.458370  0.750000  1
  Pr  Pr2  1  0.244037  0.755963  0.500000  1
  Pr  Pr3  1  0.244037  0.755963  0.000000  1
  Pr  Pr4  1  0.755963  0.244037  0.500000  1
  Pr  Pr5  1  0.755963  0.244037  0.000000  1
  Er  Er6  1  0.976909  0.976909  0.250000  1
  Er  Er7  1  0.023091  0.023091  0.750000  1
  In  In8  1  0.249777  0.249777  0.026198  1
  In  In9  1  0.750223  0.750223  0.973802  1
  In  In10  1  0.249777  0.249777  0.473802  1
  In  In11  1  0.750223  0.750223  0.526198  1
  In  In12  1  0.476655  0.030423  0.250000  1
  In  In13  1  0.969577  0.523345  0.750000  1
  In  In14  1  0.523345  0.969577  0.750000  1
  In  In15  1  0.030423  0.476655  0.250000  1
