# generated using pymatgen
data_Tm8AgPb3Au8
_symmetry_space_group_name_H-M   'P 1'
_cell_length_a   8.04122200
_cell_length_b   8.04122200
_cell_length_c   7.22094800
_cell_angle_alpha   90.00000000
_cell_angle_beta   90.00000000
_cell_angle_gamma   90.00000000
_symmetry_Int_Tables_number   1
_chemical_formula_structural   Tm8AgPb3Au8
_chemical_formula_sum   'Tm8 Ag1 Pb3 Au8'
_cell_volume   466.91553291
_cell_formula_units_Z   1
loop_
 _symmetry_equiv_pos_site_id
 _symmetry_equiv_pos_as_xyz
  1  'x, y, z'
loop_
 _atom_site_type_symbol
 _atom_site_label
 _atom_site_symmetry_multiplicity
 _atom_site_fract_x
 _atom_site_fract_y
 _atom_site_fract_z
 _atom_site_occupancy
  Tm  Tm0  1  0.686367  0.324909  0.497331  1
  Tm  Tm1  1  0.313633  0.675091  0.497331  1
  Tm  Tm2  1  0.175091  0.186367  0.002669  1
  Tm  Tm3  1  0.824909  0.813633  0.002669  1
  Tm  Tm4  1  0.849406  0.837766  0.497309  1
  Tm  Tm5  1  0.150594  0.162234  0.497309  1
  Tm  Tm6  1  0.337766  0.650594  0.002691  1
  Tm  Tm7  1  0.662234  0.349406  0.002691  1
  Ag  Ag8  1  0.000000  0.500000  0.250000  1
  Pb  Pb9  1  0.500000  0.000000  0.250000  1
  Pb  Pb10  1  0.000000  0.500000  0.750000  1
  Pb  Pb11  1  0.500000  0.000000  0.750000  1
  Au  Au12  1  0.874647  0.131831  0.225618  1
  Au  Au13  1  0.125353  0.868169  0.225618  1
  Au  Au14  1  0.374675  0.371147  0.724643  1
  Au  Au15  1  0.625325  0.628853  0.724643  1
  Au  Au16  1  0.128853  0.874675  0.775357  1
  Au  Au17  1  0.871147  0.125325  0.775357  1
  Au  Au18  1  0.631831  0.625353  0.274382  1
  Au  Au19  1  0.368169  0.374647  0.274382  1
