# generated using pymatgen
data_Th2Co12GeP6
_symmetry_space_group_name_H-M   'P 1'
_cell_length_a   9.16850900
_cell_length_b   9.16850764
_cell_length_c   3.65910400
_cell_angle_alpha   90.00000000
_cell_angle_beta   90.00000000
_cell_angle_gamma   119.99999410
_symmetry_Int_Tables_number   1
_chemical_formula_structural   Th2Co12GeP6
_chemical_formula_sum   'Th2 Co12 Ge1 P6'
_cell_volume   266.38071328
_cell_formula_units_Z   1
loop_
 _symmetry_equiv_pos_site_id
 _symmetry_equiv_pos_as_xyz
  1  'x, y, z'
loop_
 _atom_site_type_symbol
 _atom_site_label
 _atom_site_symmetry_multiplicity
 _atom_site_fract_x
 _atom_site_fract_y
 _atom_site_fract_z
 _atom_site_occupancy
  Th  Th0  1  0.000000  0.000000  0.000000  1
  Th  Th1  1  0.333333  0.666667  0.500000  1
  Co  Co2  1  0.103312  0.396473  0.000000  1
  Co  Co3  1  0.603527  0.706837  0.000000  1
  Co  Co4  1  0.293163  0.896688  0.000000  1
  Co  Co5  1  0.050260  0.771060  0.500000  1
  Co  Co6  1  0.228940  0.279200  0.500000  1
  Co  Co7  1  0.720800  0.949740  0.500000  1
  Co  Co8  1  0.823638  0.619100  0.000000  1
  Co  Co9  1  0.380900  0.204539  0.000000  1
  Co  Co10  1  0.795461  0.176362  0.000000  1
  Co  Co11  1  0.914987  0.447172  0.500000  1
  Co  Co12  1  0.552828  0.467815  0.500000  1
  Co  Co13  1  0.532185  0.085013  0.500000  1
  Ge  Ge14  1  0.666667  0.333333  0.000000  1
  P  P15  1  0.768486  0.728500  0.500000  1
  P  P16  1  0.271500  0.039985  0.500000  1
  P  P17  1  0.960015  0.231514  0.500000  1
  P  P18  1  0.065173  0.627811  0.000000  1
  P  P19  1  0.372189  0.437362  0.000000  1
  P  P20  1  0.562638  0.934827  0.000000  1
