# generated using pymatgen
data_PrY2P4Pd7
_symmetry_space_group_name_H-M   'P 1'
_cell_length_a   7.97375835
_cell_length_b   7.97375896
_cell_length_c   9.51764269
_cell_angle_alpha   55.88214093
_cell_angle_beta   55.88213871
_cell_angle_gamma   29.28824993
_symmetry_Int_Tables_number   1
_chemical_formula_structural   PrY2P4Pd7
_chemical_formula_sum   'Pr1 Y2 P4 Pd7'
_cell_volume   241.21312580
_cell_formula_units_Z   1
loop_
 _symmetry_equiv_pos_site_id
 _symmetry_equiv_pos_as_xyz
  1  'x, y, z'
loop_
 _atom_site_type_symbol
 _atom_site_label
 _atom_site_symmetry_multiplicity
 _atom_site_fract_x
 _atom_site_fract_y
 _atom_site_fract_z
 _atom_site_occupancy
  Pr  Pr0  1  0.000000  0.000000  0.000000  1
  Y  Y1  1  0.679417  0.679417  0.323671  1
  Y  Y2  1  0.320583  0.320583  0.676329  1
  P  P3  1  0.337074  0.337074  0.260109  1
  P  P4  1  0.662926  0.662926  0.739891  1
  P  P5  1  0.893152  0.893152  0.816467  1
  P  P6  1  0.106848  0.106848  0.183533  1
  Pd  Pd7  1  0.304701  0.304701  0.030761  1
  Pd  Pd8  1  0.695299  0.695299  0.969239  1
  Pd  Pd9  1  0.509482  0.509482  0.712904  1
  Pd  Pd10  1  0.830295  0.830295  0.425012  1
  Pd  Pd11  1  0.490518  0.490518  0.287096  1
  Pd  Pd12  1  0.169705  0.169705  0.574988  1
  Pd  Pd13  1  0.000000  0.000000  0.500000  1
