# generated using pymatgen
data_Yb5SmEr2(Si3Pd)4
_symmetry_space_group_name_H-M   'P 1'
_cell_length_a   8.24742206
_cell_length_b   8.24742178
_cell_length_c   8.11751500
_cell_angle_alpha   90.00000000
_cell_angle_beta   90.00000000
_cell_angle_gamma   120.20881269
_symmetry_Int_Tables_number   1
_chemical_formula_structural   Yb5SmEr2(Si3Pd)4
_chemical_formula_sum   'Yb5 Sm1 Er2 Si12 Pd4'
_cell_volume   477.16929662
_cell_formula_units_Z   1
loop_
 _symmetry_equiv_pos_site_id
 _symmetry_equiv_pos_as_xyz
  1  'x, y, z'
loop_
 _atom_site_type_symbol
 _atom_site_label
 _atom_site_symmetry_multiplicity
 _atom_site_fract_x
 _atom_site_fract_y
 _atom_site_fract_z
 _atom_site_occupancy
  Yb  Yb0  1  0.503896  0.007352  0.250000  1
  Yb  Yb1  1  0.495633  0.992261  0.750000  1
  Yb  Yb2  1  0.992648  0.496104  0.250000  1
  Yb  Yb3  1  0.007739  0.504367  0.750000  1
  Yb  Yb4  1  0.503844  0.496156  0.250000  1
  Sm  Sm5  1  0.999785  0.000215  0.250000  1
  Er  Er6  1  0.496227  0.503773  0.750000  1
  Er  Er7  1  0.000044  0.999956  0.750000  1
  Si  Si8  1  0.165224  0.328908  0.997322  1
  Si  Si9  1  0.834980  0.671132  0.994997  1
  Si  Si10  1  0.671092  0.834776  0.997322  1
  Si  Si11  1  0.834980  0.671132  0.505003  1
  Si  Si12  1  0.328868  0.165020  0.994997  1
  Si  Si13  1  0.165224  0.328908  0.502678  1
  Si  Si14  1  0.164394  0.835606  0.999215  1
  Si  Si15  1  0.328868  0.165020  0.505003  1
  Si  Si16  1  0.835549  0.164451  0.994707  1
  Si  Si17  1  0.671092  0.834776  0.502678  1
  Si  Si18  1  0.835549  0.164451  0.505293  1
  Si  Si19  1  0.164394  0.835606  0.500785  1
  Pd  Pd20  1  0.333694  0.666306  0.006936  1
  Pd  Pd21  1  0.666290  0.333710  0.985932  1
  Pd  Pd22  1  0.666290  0.333710  0.514068  1
  Pd  Pd23  1  0.333694  0.666306  0.493064  1
