# generated using pymatgen
data_Th3Ga2GeRh3
_symmetry_space_group_name_H-M   'P 1'
_cell_length_a   7.28500757
_cell_length_b   7.29329683
_cell_length_c   4.04721000
_cell_angle_alpha   90.00000000
_cell_angle_beta   90.00000000
_cell_angle_gamma   120.03764665
_symmetry_Int_Tables_number   1
_chemical_formula_structural   Th3Ga2GeRh3
_chemical_formula_sum   'Th3 Ga2 Ge1 Rh3'
_cell_volume   186.15529444
_cell_formula_units_Z   1
loop_
 _symmetry_equiv_pos_site_id
 _symmetry_equiv_pos_as_xyz
  1  'x, y, z'
loop_
 _atom_site_type_symbol
 _atom_site_label
 _atom_site_symmetry_multiplicity
 _atom_site_fract_x
 _atom_site_fract_y
 _atom_site_fract_z
 _atom_site_occupancy
  Th  Th0  1  0.000000  0.411869  0.500000  1
  Th  Th1  1  0.588443  0.587873  0.500000  1
  Th  Th2  1  0.411557  0.999429  0.500000  1
  Ga  Ga3  1  0.242168  0.243765  0.000000  1
  Ga  Ga4  1  0.757832  0.001598  0.000000  1
  Ge  Ge5  1  0.000000  0.757283  0.000000  1
  Rh  Rh6  1  0.331614  0.666108  0.000000  1
  Rh  Rh7  1  0.668386  0.334492  0.000000  1
  Rh  Rh8  1  0.000000  0.997583  0.500000  1
