# generated using pymatgen
data_Er12Ni4HgRu
_symmetry_space_group_name_H-M   'P 1'
_cell_length_a   8.18657212
_cell_length_b   8.18657142
_cell_length_c   8.18657303
_cell_angle_alpha   110.93646954
_cell_angle_beta   110.11395200
_cell_angle_gamma   107.38428886
_symmetry_Int_Tables_number   1
_chemical_formula_structural   Er12Ni4HgRu
_chemical_formula_sum   'Er12 Ni4 Hg1 Ru1'
_cell_volume   421.92059493
_cell_formula_units_Z   1
loop_
 _symmetry_equiv_pos_site_id
 _symmetry_equiv_pos_as_xyz
  1  'x, y, z'
loop_
 _atom_site_type_symbol
 _atom_site_label
 _atom_site_symmetry_multiplicity
 _atom_site_fract_x
 _atom_site_fract_y
 _atom_site_fract_z
 _atom_site_occupancy
  Er  Er0  1  0.323352  0.127476  0.804123  1
  Er  Er1  1  0.676648  0.480772  0.804123  1
  Er  Er2  1  0.415181  0.725709  0.689472  1
  Er  Er3  1  0.584819  0.274291  0.310528  1
  Er  Er4  1  0.963762  0.274291  0.689472  1
  Er  Er5  1  0.036238  0.725709  0.310528  1
  Er  Er6  1  0.323352  0.519228  0.195877  1
  Er  Er7  1  0.676648  0.872524  0.195877  1
  Er  Er8  1  0.179111  0.780091  0.959202  1
  Er  Er9  1  0.820889  0.780091  0.600981  1
  Er  Er10  1  0.179111  0.219909  0.399019  1
  Er  Er11  1  0.820889  0.219909  0.040798  1
  Ni  Ni12  1  0.880669  0.880669  0.000000  1
  Ni  Ni13  1  0.119331  0.119331  0.000000  1
  Ni  Ni14  1  0.643010  0.500000  0.143010  1
  Ni  Ni15  1  0.356990  0.500000  0.856990  1
  Hg  Hg16  1  0.500000  0.000000  0.500000  1
  Ru  Ru17  1  0.000000  0.500000  0.500000  1
