# generated using pymatgen
data_La2Mg3Zn3Si2Ge
_symmetry_space_group_name_H-M   'P 1'
_cell_length_a   7.95436162
_cell_length_b   7.95787710
_cell_length_c   4.15615600
_cell_angle_alpha   90.00000000
_cell_angle_beta   90.00000000
_cell_angle_gamma   120.01460250
_symmetry_Int_Tables_number   1
_chemical_formula_structural   La2Mg3Zn3Si2Ge
_chemical_formula_sum   'La2 Mg3 Zn3 Si2 Ge1'
_cell_volume   227.80387539
_cell_formula_units_Z   1
loop_
 _symmetry_equiv_pos_site_id
 _symmetry_equiv_pos_as_xyz
  1  'x, y, z'
loop_
 _atom_site_type_symbol
 _atom_site_label
 _atom_site_symmetry_multiplicity
 _atom_site_fract_x
 _atom_site_fract_y
 _atom_site_fract_z
 _atom_site_occupancy
  La  La0  1  0.664960  0.333172  0.000000  1
  La  La1  1  0.335040  0.668213  0.000000  1
  Mg  Mg2  1  0.717766  0.998619  0.500000  1
  Mg  Mg3  1  0.000000  0.722654  0.500000  1
  Mg  Mg4  1  0.282234  0.280854  0.500000  1
  Zn  Zn5  1  0.195337  0.999844  0.000000  1
  Zn  Zn6  1  0.804663  0.804506  0.000000  1
  Zn  Zn7  1  0.000000  0.189469  0.000000  1
  Si  Si8  1  0.381827  0.000085  0.500000  1
  Si  Si9  1  0.618173  0.618258  0.500000  1
  Ge  Ge10  1  0.000000  0.384324  0.500000  1
