# generated using pymatgen
data_AlV12Ga4Cu3N4
_symmetry_space_group_name_H-M   'P 1'
_cell_length_a   6.55550925
_cell_length_b   6.55883880
_cell_length_c   6.55674688
_cell_angle_alpha   90.04964645
_cell_angle_beta   90.15712726
_cell_angle_gamma   90.14625543
_symmetry_Int_Tables_number   1
_chemical_formula_structural   AlV12Ga4Cu3N4
_chemical_formula_sum   'Al1 V12 Ga4 Cu3 N4'
_cell_volume   281.91526765
_cell_formula_units_Z   1
loop_
 _symmetry_equiv_pos_site_id
 _symmetry_equiv_pos_as_xyz
  1  'x, y, z'
loop_
 _atom_site_type_symbol
 _atom_site_label
 _atom_site_symmetry_multiplicity
 _atom_site_fract_x
 _atom_site_fract_y
 _atom_site_fract_z
 _atom_site_occupancy
  Al  Al0  1  0.571062  0.417691  0.934264  1
  V  V1  1  0.788783  0.959888  0.377124  1
  V  V2  1  0.710851  0.039221  0.873297  1
  V  V3  1  0.211068  0.459316  0.125386  1
  V  V4  1  0.289724  0.540486  0.626149  1
  V  V5  1  0.960136  0.376606  0.788570  1
  V  V6  1  0.039137  0.873482  0.710298  1
  V  V7  1  0.459257  0.126159  0.211547  1
  V  V8  1  0.540396  0.625216  0.289393  1
  V  V9  1  0.377522  0.788613  0.960168  1
  V  V10  1  0.872542  0.710643  0.038745  1
  V  V11  1  0.125799  0.211099  0.459411  1
  V  V12  1  0.625760  0.289684  0.540730  1
  Ga  Ga13  1  0.677764  0.677331  0.678353  1
  Ga  Ga14  1  0.418480  0.934915  0.570620  1
  Ga  Ga15  1  0.934852  0.570525  0.418367  1
  Ga  Ga16  1  0.072994  0.073052  0.072978  1
  Cu  Cu17  1  0.179229  0.821879  0.318280  1
  Cu  Cu18  1  0.319226  0.179961  0.822327  1
  Cu  Cu19  1  0.821096  0.318555  0.178370  1
  N  N20  1  0.878859  0.125307  0.624122  1
  N  N21  1  0.624258  0.879114  0.125952  1
  N  N22  1  0.125145  0.624777  0.878786  1
  N  N23  1  0.376057  0.376475  0.376759  1
