# generated using pymatgen
data_Tb3Er7(AlSb2)2
_symmetry_space_group_name_H-M   'P 1'
_cell_length_a   8.86188978
_cell_length_b   8.84926216
_cell_length_c   6.36777500
_cell_angle_alpha   90.00000000
_cell_angle_beta   90.00000000
_cell_angle_gamma   120.05000473
_symmetry_Int_Tables_number   1
_chemical_formula_structural   Tb3Er7(AlSb2)2
_chemical_formula_sum   'Tb3 Er7 Al2 Sb4'
_cell_volume   432.24770232
_cell_formula_units_Z   1
loop_
 _symmetry_equiv_pos_site_id
 _symmetry_equiv_pos_as_xyz
  1  'x, y, z'
loop_
 _atom_site_type_symbol
 _atom_site_label
 _atom_site_symmetry_multiplicity
 _atom_site_fract_x
 _atom_site_fract_y
 _atom_site_fract_z
 _atom_site_occupancy
  Tb  Tb0  1  0.008725  0.766277  0.750000  1
  Tb  Tb1  1  0.008738  0.242327  0.250000  1
  Tb  Tb2  1  0.755446  0.756707  0.250000  1
  Er  Er3  1  0.755065  0.998875  0.750000  1
  Er  Er4  1  0.242102  0.232545  0.750000  1
  Er  Er5  1  0.242552  0.009828  0.250000  1
  Er  Er6  1  0.335839  0.667924  0.500078  1
  Er  Er7  1  0.655591  0.327784  0.999922  1
  Er  Er8  1  0.655591  0.327784  0.500078  1
  Er  Er9  1  0.335839  0.667924  0.999922  1
  Al  Al10  1  0.398649  0.997499  0.750000  1
  Al  Al11  1  0.398006  0.400527  0.250000  1
  Sb  Sb12  1  0.999348  0.606752  0.250000  1
  Sb  Sb13  1  0.998682  0.391615  0.750000  1
  Sb  Sb14  1  0.605110  0.604708  0.750000  1
  Sb  Sb15  1  0.604718  0.000924  0.250000  1
