# generated using pymatgen
data_CaTbCe2(Zn4Ru)2
_symmetry_space_group_name_H-M   'P 1'
_cell_length_a   7.19537700
_cell_length_b   7.19537700
_cell_length_c   5.14780900
_cell_angle_alpha   90.00000000
_cell_angle_beta   90.00000000
_cell_angle_gamma   90.00000000
_symmetry_Int_Tables_number   1
_chemical_formula_structural   CaTbCe2(Zn4Ru)2
_chemical_formula_sum   'Ca1 Tb1 Ce2 Zn8 Ru2'
_cell_volume   266.51983276
_cell_formula_units_Z   1
loop_
 _symmetry_equiv_pos_site_id
 _symmetry_equiv_pos_as_xyz
  1  'x, y, z'
loop_
 _atom_site_type_symbol
 _atom_site_label
 _atom_site_symmetry_multiplicity
 _atom_site_fract_x
 _atom_site_fract_y
 _atom_site_fract_z
 _atom_site_occupancy
  Ca  Ca0  1  0.000000  0.500000  0.774328  1
  Tb  Tb1  1  0.500000  0.000000  0.223268  1
  Ce  Ce2  1  0.000000  0.000000  0.997563  1
  Ce  Ce3  1  0.500000  0.500000  0.997563  1
  Zn  Zn4  1  0.186466  0.686466  0.290754  1
  Zn  Zn5  1  0.813534  0.686466  0.290754  1
  Zn  Zn6  1  0.813534  0.313534  0.290754  1
  Zn  Zn7  1  0.315399  0.184601  0.711425  1
  Zn  Zn8  1  0.186466  0.313534  0.290754  1
  Zn  Zn9  1  0.684601  0.184601  0.711425  1
  Zn  Zn10  1  0.684601  0.815399  0.711425  1
  Zn  Zn11  1  0.315399  0.815399  0.711425  1
  Ru  Ru12  1  0.500000  0.500000  0.499281  1
  Ru  Ru13  1  0.000000  0.000000  0.499281  1
