# generated using pymatgen
data_BeNb2Co2P
_symmetry_space_group_name_H-M   'P 1'
_cell_length_a   3.54862100
_cell_length_b   6.08786400
_cell_length_c   6.94207200
_cell_angle_alpha   90.00000000
_cell_angle_beta   90.00000000
_cell_angle_gamma   90.00000000
_symmetry_Int_Tables_number   1
_chemical_formula_structural   BeNb2Co2P
_chemical_formula_sum   'Be2 Nb4 Co4 P2'
_cell_volume   149.97320542
_cell_formula_units_Z   2
loop_
 _symmetry_equiv_pos_site_id
 _symmetry_equiv_pos_as_xyz
  1  'x, y, z'
loop_
 _atom_site_type_symbol
 _atom_site_label
 _atom_site_symmetry_multiplicity
 _atom_site_fract_x
 _atom_site_fract_y
 _atom_site_fract_z
 _atom_site_occupancy
  Be  Be0  1  0.250000  0.776149  0.378000  1
  Be  Be1  1  0.250000  0.276149  0.122000  1
  Nb  Nb2  1  0.250000  0.027141  0.825559  1
  Nb  Nb3  1  0.250000  0.527141  0.674441  1
  Nb  Nb4  1  0.750000  0.983093  0.185724  1
  Nb  Nb5  1  0.750000  0.483093  0.314276  1
  Co  Co6  1  0.250000  0.138397  0.436937  1
  Co  Co7  1  0.250000  0.638397  0.063063  1
  Co  Co8  1  0.750000  0.853097  0.562680  1
  Co  Co9  1  0.750000  0.353097  0.937320  1
  P  P10  1  0.750000  0.222123  0.612776  1
  P  P11  1  0.750000  0.722123  0.887224  1
