# generated using pymatgen
data_Ce4TlIr3PdPb
_symmetry_space_group_name_H-M   'P 1'
_cell_length_a   7.87761801
_cell_length_b   7.87382408
_cell_length_c   3.69478600
_cell_angle_alpha   90.00000000
_cell_angle_beta   90.00000000
_cell_angle_gamma   89.42972574
_symmetry_Int_Tables_number   1
_chemical_formula_structural   Ce4TlIr3PdPb
_chemical_formula_sum   'Ce4 Tl1 Ir3 Pd1 Pb1'
_cell_volume   229.16505955
_cell_formula_units_Z   1
loop_
 _symmetry_equiv_pos_site_id
 _symmetry_equiv_pos_as_xyz
  1  'x, y, z'
loop_
 _atom_site_type_symbol
 _atom_site_label
 _atom_site_symmetry_multiplicity
 _atom_site_fract_x
 _atom_site_fract_y
 _atom_site_fract_z
 _atom_site_occupancy
  Ce  Ce0  1  0.658883  0.158604  0.500000  1
  Ce  Ce1  1  0.181884  0.334123  0.500000  1
  Ce  Ce2  1  0.834517  0.682174  0.500000  1
  Ce  Ce3  1  0.326466  0.826742  0.500000  1
  Tl  Tl4  1  0.000488  0.006107  0.000000  1
  Ir  Ir5  1  0.366931  0.131036  0.000000  1
  Ir  Ir6  1  0.126062  0.626567  0.000000  1
  Ir  Ir7  1  0.631411  0.867054  0.000000  1
  Pd  Pd8  1  0.867376  0.366995  0.000000  1
  Pb  Pb9  1  0.505982  0.500598  0.000000  1
