# generated using pymatgen
data_Sr4Rh6O18F
_symmetry_space_group_name_H-M   'P 1'
_cell_length_a   8.01468564
_cell_length_b   8.01489947
_cell_length_c   8.01393803
_cell_angle_alpha   109.47241617
_cell_angle_beta   109.45908889
_cell_angle_gamma   109.48455411
_symmetry_Int_Tables_number   1
_chemical_formula_structural   Sr4Rh6O18F
_chemical_formula_sum   'Sr4 Rh6 O18 F1'
_cell_volume   396.27419835
_cell_formula_units_Z   1
loop_
 _symmetry_equiv_pos_site_id
 _symmetry_equiv_pos_as_xyz
  1  'x, y, z'
loop_
 _atom_site_type_symbol
 _atom_site_label
 _atom_site_symmetry_multiplicity
 _atom_site_fract_x
 _atom_site_fract_y
 _atom_site_fract_z
 _atom_site_occupancy
  Sr  Sr0  1  0.999956  0.000034  0.331052  1
  Sr  Sr1  1  0.668963  0.668883  0.668923  1
  Sr  Sr2  1  0.999952  0.331036  0.999921  1
  Sr  Sr3  1  0.331144  0.000068  0.000155  1
  Rh  Rh4  1  0.499998  0.661619  0.161655  1
  Rh  Rh5  1  0.338291  0.838297  0.500013  1
  Rh  Rh6  1  0.838376  0.500031  0.338344  1
  Rh  Rh7  1  0.499962  0.338318  0.838306  1
  Rh  Rh8  1  0.161676  0.500044  0.661664  1
  Rh  Rh9  1  0.661653  0.161640  0.499993  1
  O  O10  1  0.648800  0.957169  0.265997  1
  O  O11  1  0.382635  0.733858  0.691016  1
  O  O12  1  0.691566  0.308922  0.042808  1
  O  O13  1  0.691170  0.382778  0.733992  1
  O  O14  1  0.042844  0.691615  0.308929  1
  O  O15  1  0.266156  0.648792  0.957205  1
  O  O16  1  0.308914  0.042798  0.691601  1
  O  O17  1  0.957235  0.266130  0.648828  1
  O  O18  1  0.733946  0.691129  0.382675  1
  O  O19  1  0.351189  0.617310  0.308399  1
  O  O20  1  0.617268  0.308436  0.351191  1
  O  O21  1  0.308418  0.351246  0.617357  1
  O  O22  1  0.640024  0.639974  0.999982  1
  O  O23  1  0.639922  0.999952  0.640020  1
  O  O24  1  0.000009  0.360063  0.360014  1
  O  O25  1  0.359934  0.999924  0.360004  1
  O  O26  1  0.000009  0.639979  0.639972  1
  O  O27  1  0.359994  0.359955  0.999997  1
  F  F28  1  0.999997  0.999999  0.999989  1
