# generated using pymatgen
data_Th4IrPd10Pt
_symmetry_space_group_name_H-M   'P 1'
_cell_length_a   5.98527637
_cell_length_b   5.94017974
_cell_length_c   9.77890527
_cell_angle_alpha   90.17645069
_cell_angle_beta   88.91651163
_cell_angle_gamma   120.06442444
_symmetry_Int_Tables_number   1
_chemical_formula_structural   Th4IrPd10Pt
_chemical_formula_sum   'Th4 Ir1 Pd10 Pt1'
_cell_volume   300.83810909
_cell_formula_units_Z   1
loop_
 _symmetry_equiv_pos_site_id
 _symmetry_equiv_pos_as_xyz
  1  'x, y, z'
loop_
 _atom_site_type_symbol
 _atom_site_label
 _atom_site_symmetry_multiplicity
 _atom_site_fract_x
 _atom_site_fract_y
 _atom_site_fract_z
 _atom_site_occupancy
  Th  Th0  1  0.000000  0.000000  0.500000  1
  Th  Th1  1  0.000000  0.000000  0.000000  1
  Th  Th2  1  0.324817  0.661882  0.254853  1
  Th  Th3  1  0.675183  0.338118  0.745147  1
  Ir  Ir4  1  0.000000  0.500000  0.500000  1
  Pd  Pd5  1  0.500000  0.500000  0.500000  1
  Pd  Pd6  1  0.500000  0.000000  0.500000  1
  Pd  Pd7  1  0.500000  0.000000  0.000000  1
  Pd  Pd8  1  0.000000  0.500000  0.000000  1
  Pd  Pd9  1  0.820484  0.648038  0.249062  1
  Pd  Pd10  1  0.347716  0.173529  0.247299  1
  Pd  Pd11  1  0.820818  0.171568  0.249544  1
  Pd  Pd12  1  0.179516  0.351962  0.750938  1
  Pd  Pd13  1  0.652284  0.826471  0.752701  1
  Pd  Pd14  1  0.179182  0.828432  0.750456  1
  Pt  Pt15  1  0.500000  0.500000  0.000000  1
