# generated using pymatgen
data_Sr3Ca6GdV7O28
_symmetry_space_group_name_H-M   'P 1'
_cell_length_a   11.15874272
_cell_length_b   11.15874186
_cell_length_c   14.39278502
_cell_angle_alpha   67.45379378
_cell_angle_beta   67.45379449
_cell_angle_gamma   60.00745127
_symmetry_Int_Tables_number   1
_chemical_formula_structural   Sr3Ca6GdV7O28
_chemical_formula_sum   'Sr6 Ca12 Gd2 V14 O56'
_cell_volume   1391.73447028
_cell_formula_units_Z   2
loop_
 _symmetry_equiv_pos_site_id
 _symmetry_equiv_pos_as_xyz
  1  'x, y, z'
loop_
 _atom_site_type_symbol
 _atom_site_label
 _atom_site_symmetry_multiplicity
 _atom_site_fract_x
 _atom_site_fract_y
 _atom_site_fract_z
 _atom_site_occupancy
  Sr  Sr0  1  0.554968  0.467714  0.021591  1
  Sr  Sr1  1  0.954068  0.055242  0.020427  1
  Sr  Sr2  1  0.970450  0.453077  0.018249  1
  Sr  Sr3  1  0.055242  0.954068  0.520427  1
  Sr  Sr4  1  0.453077  0.970450  0.518249  1
  Sr  Sr5  1  0.467714  0.554968  0.521591  1
  Ca  Ca6  1  0.501946  0.005082  0.999056  1
  Ca  Ca7  1  0.566625  0.075834  0.201990  1
  Ca  Ca8  1  0.570063  0.660338  0.200372  1
  Ca  Ca9  1  0.157143  0.065336  0.201255  1
  Ca  Ca10  1  0.660338  0.570063  0.700372  1
  Ca  Ca11  1  0.065336  0.157143  0.701255  1
  Ca  Ca12  1  0.075834  0.566625  0.701990  1
  Ca  Ca13  1  0.005082  0.501946  0.499056  1
  Ca  Ca14  1  0.944977  0.849891  0.295873  1
  Ca  Ca15  1  0.350219  0.414035  0.295815  1
  Ca  Ca16  1  0.849891  0.944977  0.795873  1
  Ca  Ca17  1  0.414035  0.350219  0.795815  1
  Gd  Gd18  1  0.909537  0.444177  0.296905  1
  Gd  Gd19  1  0.444177  0.909537  0.796905  1
  V  V20  1  0.769704  0.268196  0.195356  1
  V  V21  1  0.691531  0.221496  0.896295  1
  V  V22  1  0.719254  0.693003  0.896272  1
  V  V23  1  0.193115  0.187999  0.896344  1
  V  V24  1  0.780815  0.308286  0.594221  1
  V  V25  1  0.807822  0.815633  0.598286  1
  V  V26  1  0.693003  0.719254  0.396272  1
  V  V27  1  0.316475  0.277453  0.598231  1
  V  V28  1  0.187999  0.193115  0.396344  1
  V  V29  1  0.221496  0.691531  0.396295  1
  V  V30  1  0.815633  0.807822  0.098286  1
  V  V31  1  0.277453  0.316475  0.098231  1
  V  V32  1  0.308286  0.780815  0.094221  1
  V  V33  1  0.268196  0.769704  0.695356  1
  O  O34  1  0.600544  0.270339  0.230378  1
  O  O35  1  0.774241  0.401113  0.230970  1
  O  O36  1  0.902230  0.099513  0.229411  1
  O  O37  1  0.665527  0.183309  0.029680  1
  O  O38  1  0.683232  0.620181  0.028638  1
  O  O39  1  0.813339  0.313879  0.060070  1
  O  O40  1  0.617521  0.141537  0.864380  1
  O  O41  1  0.634863  0.879402  0.865708  1
  O  O42  1  0.642108  0.645533  0.839482  1
  O  O43  1  0.603984  0.405028  0.855106  1
  O  O44  1  0.121527  0.165871  0.028847  1
  O  O45  1  0.873641  0.151301  0.843178  1
  O  O46  1  0.901965  0.638212  0.854279  1
  O  O47  1  0.604442  0.398292  0.658859  1
  O  O48  1  0.133421  0.369232  0.842042  1
  O  O49  1  0.621203  0.885980  0.643062  1
  O  O50  1  0.146398  0.093324  0.854855  1
  O  O51  1  0.379941  0.111062  0.864651  1
  O  O52  1  0.854016  0.124862  0.638345  1
  O  O53  1  0.898862  0.839954  0.660356  1
  O  O54  1  0.620181  0.683232  0.528638  1
  O  O55  1  0.875922  0.371507  0.621618  1
  O  O56  1  0.869545  0.629664  0.627136  1
  O  O57  1  0.130247  0.371443  0.628245  1
  O  O58  1  0.790486  0.361612  0.462114  1
  O  O59  1  0.860823  0.878876  0.467701  1
  O  O60  1  0.645533  0.642108  0.339482  1
  O  O61  1  0.343025  0.097389  0.662285  1
  O  O62  1  0.638212  0.901965  0.354279  1
  O  O63  1  0.384728  0.352194  0.639539  1
  O  O64  1  0.165871  0.121527  0.528847  1
  O  O65  1  0.183309  0.665527  0.529680  1
  O  O66  1  0.879402  0.634863  0.365708  1
  O  O67  1  0.111062  0.379941  0.364651  1
  O  O68  1  0.141537  0.617521  0.364380  1
  O  O69  1  0.377217  0.289493  0.467627  1
  O  O70  1  0.151301  0.873641  0.343178  1
  O  O71  1  0.093324  0.146398  0.354855  1
  O  O72  1  0.629664  0.869545  0.127136  1
  O  O73  1  0.839954  0.898862  0.160356  1
  O  O74  1  0.369232  0.133421  0.342042  1
  O  O75  1  0.885980  0.621203  0.143062  1
  O  O76  1  0.405028  0.603984  0.355106  1
  O  O77  1  0.097389  0.343025  0.162285  1
  O  O78  1  0.124862  0.854016  0.138345  1
  O  O79  1  0.878876  0.860823  0.967701  1
  O  O80  1  0.352194  0.384728  0.139539  1
  O  O81  1  0.398292  0.604442  0.158859  1
  O  O82  1  0.371443  0.130247  0.128245  1
  O  O83  1  0.371507  0.875922  0.121618  1
  O  O84  1  0.289493  0.377217  0.967627  1
  O  O85  1  0.361612  0.790486  0.962114  1
  O  O86  1  0.099513  0.902230  0.729411  1
  O  O87  1  0.270339  0.600544  0.730378  1
  O  O88  1  0.401113  0.774241  0.730970  1
  O  O89  1  0.313879  0.813339  0.560070  1
