# generated using pymatgen
data_Ce2InNi9
_symmetry_space_group_name_H-M   'P 1'
_cell_length_a   4.92603900
_cell_length_b   4.92603846
_cell_length_c   16.16592300
_cell_angle_alpha   90.00000000
_cell_angle_beta   90.00000000
_cell_angle_gamma   120.00001035
_symmetry_Int_Tables_number   1
_chemical_formula_structural   Ce2InNi9
_chemical_formula_sum   'Ce4 In2 Ni18'
_cell_volume   339.72439686
_cell_formula_units_Z   2
loop_
 _symmetry_equiv_pos_site_id
 _symmetry_equiv_pos_as_xyz
  1  'x, y, z'
loop_
 _atom_site_type_symbol
 _atom_site_label
 _atom_site_symmetry_multiplicity
 _atom_site_fract_x
 _atom_site_fract_y
 _atom_site_fract_z
 _atom_site_occupancy
  Ce  Ce0  1  0.666667  0.333333  0.538925  1
  Ce  Ce1  1  0.333333  0.666667  0.038925  1
  Ce  Ce2  1  0.333333  0.666667  0.259945  1
  Ce  Ce3  1  0.666667  0.333333  0.759945  1
  In  In4  1  0.333333  0.666667  0.457789  1
  In  In5  1  0.666667  0.333333  0.957789  1
  Ni  Ni6  1  0.833039  0.166961  0.374618  1
  Ni  Ni7  1  0.166961  0.833039  0.874618  1
  Ni  Ni8  1  0.832147  0.664295  0.124789  1
  Ni  Ni9  1  0.167853  0.335705  0.624789  1
  Ni  Ni10  1  0.000000  0.000000  0.498391  1
  Ni  Ni11  1  0.666079  0.833039  0.874618  1
  Ni  Ni12  1  0.833039  0.666079  0.374618  1
  Ni  Ni13  1  0.166961  0.333921  0.874618  1
  Ni  Ni14  1  0.335705  0.167853  0.124789  1
  Ni  Ni15  1  0.666667  0.333333  0.249081  1
  Ni  Ni16  1  0.832147  0.167853  0.124789  1
  Ni  Ni17  1  0.000000  0.000000  0.747649  1
  Ni  Ni18  1  0.664295  0.832147  0.624789  1
  Ni  Ni19  1  0.333921  0.166961  0.374618  1
  Ni  Ni20  1  0.000000  0.000000  0.998391  1
  Ni  Ni21  1  0.167853  0.832147  0.624789  1
  Ni  Ni22  1  0.333333  0.666667  0.749081  1
  Ni  Ni23  1  0.000000  0.000000  0.247649  1
