# generated using pymatgen
data_Hf18ZnRe8Pt
_symmetry_space_group_name_H-M   'P 1'
_cell_length_a   8.66102100
_cell_length_b   8.66101970
_cell_length_c   8.57997100
_cell_angle_alpha   90.00000000
_cell_angle_beta   90.00000000
_cell_angle_gamma   120.00000113
_symmetry_Int_Tables_number   1
_chemical_formula_structural   Hf18ZnRe8Pt
_chemical_formula_sum   'Hf18 Zn1 Re8 Pt1'
_cell_volume   557.38408598
_cell_formula_units_Z   1
loop_
 _symmetry_equiv_pos_site_id
 _symmetry_equiv_pos_as_xyz
  1  'x, y, z'
loop_
 _atom_site_type_symbol
 _atom_site_label
 _atom_site_symmetry_multiplicity
 _atom_site_fract_x
 _atom_site_fract_y
 _atom_site_fract_z
 _atom_site_occupancy
  Hf  Hf0  1  0.194190  0.805810  0.447846  1
  Hf  Hf1  1  0.194190  0.388379  0.447846  1
  Hf  Hf2  1  0.611621  0.805810  0.447846  1
  Hf  Hf3  1  0.806700  0.193300  0.549875  1
  Hf  Hf4  1  0.806700  0.613400  0.549875  1
  Hf  Hf5  1  0.386600  0.193300  0.549875  1
  Hf  Hf6  1  0.806700  0.193300  0.950125  1
  Hf  Hf7  1  0.806700  0.613400  0.950125  1
  Hf  Hf8  1  0.386600  0.193300  0.950125  1
  Hf  Hf9  1  0.194190  0.805810  0.052154  1
  Hf  Hf10  1  0.194190  0.388379  0.052154  1
  Hf  Hf11  1  0.611621  0.805810  0.052154  1
  Hf  Hf12  1  0.541740  0.458260  0.250000  1
  Hf  Hf13  1  0.541740  0.083480  0.250000  1
  Hf  Hf14  1  0.916520  0.458260  0.250000  1
  Hf  Hf15  1  0.458615  0.541385  0.750000  1
  Hf  Hf16  1  0.458615  0.917230  0.750000  1
  Hf  Hf17  1  0.082770  0.541385  0.750000  1
  Zn  Zn18  1  0.666667  0.333333  0.750000  1
  Re  Re19  1  0.889335  0.110665  0.250000  1
  Re  Re20  1  0.889335  0.778671  0.250000  1
  Re  Re21  1  0.221329  0.110665  0.250000  1
  Re  Re22  1  0.110011  0.889989  0.750000  1
  Re  Re23  1  0.110011  0.220023  0.750000  1
  Re  Re24  1  0.779977  0.889989  0.750000  1
  Re  Re25  1  0.000000  0.000000  0.499158  1
  Re  Re26  1  0.000000  0.000000  0.000842  1
  Pt  Pt27  1  0.333333  0.666667  0.250000  1
