# generated using pymatgen
data_Dy4Y(OsO6)2
_symmetry_space_group_name_H-M   'P 1'
_cell_length_a   6.89527185
_cell_length_b   6.89527170
_cell_length_c   7.50668904
_cell_angle_alpha   73.97756164
_cell_angle_beta   73.97756338
_cell_angle_gamma   48.45460131
_symmetry_Int_Tables_number   1
_chemical_formula_structural   Dy4Y(OsO6)2
_chemical_formula_sum   'Dy4 Y1 Os2 O12'
_cell_volume   254.58850545
_cell_formula_units_Z   1
loop_
 _symmetry_equiv_pos_site_id
 _symmetry_equiv_pos_as_xyz
  1  'x, y, z'
loop_
 _atom_site_type_symbol
 _atom_site_label
 _atom_site_symmetry_multiplicity
 _atom_site_fract_x
 _atom_site_fract_y
 _atom_site_fract_z
 _atom_site_occupancy
  Dy  Dy0  1  0.301217  0.301217  0.357924  1
  Dy  Dy1  1  0.698783  0.698783  0.642076  1
  Dy  Dy2  1  0.311815  0.311815  0.829193  1
  Dy  Dy3  1  0.688185  0.688185  0.170807  1
  Y  Y4  1  0.000000  0.000000  0.500000  1
  Os  Os5  1  0.780224  0.219776  0.000000  1
  Os  Os6  1  0.219776  0.780224  0.000000  1
  O  O7  1  0.913144  0.418939  0.914650  1
  O  O8  1  0.418939  0.913144  0.914650  1
  O  O9  1  0.086856  0.581061  0.085350  1
  O  O10  1  0.581061  0.086856  0.085350  1
  O  O11  1  0.098529  0.594867  0.573251  1
  O  O12  1  0.594867  0.098529  0.573251  1
  O  O13  1  0.901471  0.405133  0.426749  1
  O  O14  1  0.405133  0.901471  0.426749  1
  O  O15  1  0.999151  0.999151  0.797253  1
  O  O16  1  0.000849  0.000849  0.202747  1
  O  O17  1  0.501019  0.501019  0.825819  1
  O  O18  1  0.498981  0.498981  0.174181  1
