# generated using pymatgen
data_Pr6SnHg9
_symmetry_space_group_name_H-M   'P 1'
_cell_length_a   6.55309389
_cell_length_b   6.55309435
_cell_length_c   10.76391980
_cell_angle_alpha   91.26206303
_cell_angle_beta   91.26206250
_cell_angle_gamma   104.81777917
_symmetry_Int_Tables_number   1
_chemical_formula_structural   Pr6SnHg9
_chemical_formula_sum   'Pr6 Sn1 Hg9'
_cell_volume   446.57203037
_cell_formula_units_Z   1
loop_
 _symmetry_equiv_pos_site_id
 _symmetry_equiv_pos_as_xyz
  1  'x, y, z'
loop_
 _atom_site_type_symbol
 _atom_site_label
 _atom_site_symmetry_multiplicity
 _atom_site_fract_x
 _atom_site_fract_y
 _atom_site_fract_z
 _atom_site_occupancy
  Pr  Pr0  1  0.606370  0.606370  0.248427  1
  Pr  Pr1  1  0.392016  0.392016  0.755954  1
  Pr  Pr2  1  0.204838  0.804500  0.495894  1
  Pr  Pr3  1  0.204215  0.796575  0.997732  1
  Pr  Pr4  1  0.804500  0.204838  0.495894  1
  Pr  Pr5  1  0.796575  0.204215  0.997732  1
  Sn  Sn6  1  0.684528  0.684528  0.544277  1
  Hg  Hg7  1  0.002467  0.002467  0.242709  1
  Hg  Hg8  1  0.998757  0.998757  0.751159  1
  Hg  Hg9  1  0.301301  0.301301  0.037098  1
  Hg  Hg10  1  0.693344  0.693344  0.968149  1
  Hg  Hg11  1  0.309332  0.309332  0.462724  1
  Hg  Hg12  1  0.488263  0.061645  0.248426  1
  Hg  Hg13  1  0.938126  0.513724  0.752700  1
  Hg  Hg14  1  0.513724  0.938126  0.752700  1
  Hg  Hg15  1  0.061645  0.488263  0.248426  1
