# generated using pymatgen
data_Ba6ErSc(Ir2O9)2
_symmetry_space_group_name_H-M   'P 1'
_cell_length_a   5.88974500
_cell_length_b   5.88974406
_cell_length_c   14.54490700
_cell_angle_alpha   90.00000000
_cell_angle_beta   90.00000000
_cell_angle_gamma   119.99999964
_symmetry_Int_Tables_number   1
_chemical_formula_structural   Ba6ErSc(Ir2O9)2
_chemical_formula_sum   'Ba6 Er1 Sc1 Ir4 O18'
_cell_volume   436.95277047
_cell_formula_units_Z   1
loop_
 _symmetry_equiv_pos_site_id
 _symmetry_equiv_pos_as_xyz
  1  'x, y, z'
loop_
 _atom_site_type_symbol
 _atom_site_label
 _atom_site_symmetry_multiplicity
 _atom_site_fract_x
 _atom_site_fract_y
 _atom_site_fract_z
 _atom_site_occupancy
  Ba  Ba0  1  0.666667  0.333333  0.412795  1
  Ba  Ba1  1  0.333333  0.666667  0.587205  1
  Ba  Ba2  1  0.333333  0.666667  0.908255  1
  Ba  Ba3  1  0.000000  0.000000  0.254016  1
  Ba  Ba4  1  0.666667  0.333333  0.091745  1
  Ba  Ba5  1  0.000000  0.000000  0.745984  1
  Er  Er6  1  0.000000  0.000000  0.000000  1
  Sc  Sc7  1  0.000000  0.000000  0.500000  1
  Ir  Ir8  1  0.333333  0.666667  0.165979  1
  Ir  Ir9  1  0.666667  0.333333  0.834021  1
  Ir  Ir10  1  0.333333  0.666667  0.340313  1
  Ir  Ir11  1  0.666667  0.333333  0.659687  1
  O  O12  1  0.828346  0.656692  0.581812  1
  O  O13  1  0.824419  0.175581  0.913042  1
  O  O14  1  0.656692  0.828346  0.418188  1
  O  O15  1  0.508659  0.491341  0.746860  1
  O  O16  1  0.171654  0.343308  0.418188  1
  O  O17  1  0.343308  0.171654  0.581812  1
  O  O18  1  0.508659  0.017317  0.746860  1
  O  O19  1  0.175581  0.351161  0.086958  1
  O  O20  1  0.491341  0.982683  0.253140  1
  O  O21  1  0.648839  0.824419  0.086958  1
  O  O22  1  0.171654  0.828346  0.418188  1
  O  O23  1  0.351161  0.175581  0.913042  1
  O  O24  1  0.017317  0.508659  0.253140  1
  O  O25  1  0.491341  0.508659  0.253140  1
  O  O26  1  0.982683  0.491341  0.746860  1
  O  O27  1  0.824419  0.648839  0.913042  1
  O  O28  1  0.828346  0.171654  0.581812  1
  O  O29  1  0.175581  0.824419  0.086958  1
