# generated using pymatgen
data_Tb6Al13Os7W3
_symmetry_space_group_name_H-M   'P 1'
_cell_length_a   9.02929188
_cell_length_b   9.02929195
_cell_length_c   9.02929269
_cell_angle_alpha   59.45872364
_cell_angle_beta   59.45872292
_cell_angle_gamma   59.45871265
_symmetry_Int_Tables_number   1
_chemical_formula_structural   Tb6Al13Os7W3
_chemical_formula_sum   'Tb6 Al13 Os7 W3'
_cell_volume   514.12100943
_cell_formula_units_Z   1
loop_
 _symmetry_equiv_pos_site_id
 _symmetry_equiv_pos_as_xyz
  1  'x, y, z'
loop_
 _atom_site_type_symbol
 _atom_site_label
 _atom_site_symmetry_multiplicity
 _atom_site_fract_x
 _atom_site_fract_y
 _atom_site_fract_z
 _atom_site_occupancy
  Tb  Tb0  1  0.708549  0.708549  0.284288  1
  Tb  Tb1  1  0.295013  0.706959  0.295013  1
  Tb  Tb2  1  0.706959  0.295013  0.295013  1
  Tb  Tb3  1  0.295013  0.295013  0.706959  1
  Tb  Tb4  1  0.708549  0.284288  0.708549  1
  Tb  Tb5  1  0.284288  0.708549  0.708549  1
  Al  Al6  1  0.880137  0.880137  0.880137  1
  Al  Al7  1  0.121951  0.121951  0.639664  1
  Al  Al8  1  0.121951  0.639664  0.121951  1
  Al  Al9  1  0.639664  0.121951  0.121951  1
  Al  Al10  1  0.121613  0.121613  0.121613  1
  Al  Al11  1  0.668782  0.668782  0.995632  1
  Al  Al12  1  0.668782  0.995632  0.668782  1
  Al  Al13  1  0.995632  0.668782  0.668782  1
  Al  Al14  1  0.663659  0.663659  0.663659  1
  Al  Al15  1  0.330681  0.330681  0.010324  1
  Al  Al16  1  0.330681  0.010324  0.330681  1
  Al  Al17  1  0.010324  0.330681  0.330681  1
  Al  Al18  1  0.331377  0.331377  0.331377  1
  Os  Os19  1  0.004903  0.004903  0.004903  1
  Os  Os20  1  0.996874  0.996874  0.495719  1
  Os  Os21  1  0.505128  0.993804  0.505128  1
  Os  Os22  1  0.993804  0.505128  0.505128  1
  Os  Os23  1  0.505128  0.505128  0.993804  1
  Os  Os24  1  0.996874  0.495719  0.996874  1
  Os  Os25  1  0.495719  0.996874  0.996874  1
  W  W26  1  0.877130  0.877130  0.363707  1
  W  W27  1  0.877130  0.363707  0.877130  1
  W  W28  1  0.363707  0.877130  0.877130  1
