# generated using pymatgen
data_Ho4Lu4Re(TcB8)3
_symmetry_space_group_name_H-M   'P 1'
_cell_length_a   3.64026100
_cell_length_b   9.09061480
_cell_length_c   11.46739900
_cell_angle_alpha   90.02360573
_cell_angle_beta   90.00000000
_cell_angle_gamma   90.00000000
_symmetry_Int_Tables_number   1
_chemical_formula_structural   Ho4Lu4Re(TcB8)3
_chemical_formula_sum   'Ho4 Lu4 Re1 Tc3 B24'
_cell_volume   379.48154982
_cell_formula_units_Z   1
loop_
 _symmetry_equiv_pos_site_id
 _symmetry_equiv_pos_as_xyz
  1  'x, y, z'
loop_
 _atom_site_type_symbol
 _atom_site_label
 _atom_site_symmetry_multiplicity
 _atom_site_fract_x
 _atom_site_fract_y
 _atom_site_fract_z
 _atom_site_occupancy
  Ho  Ho0  1  0.000000  0.323290  0.414171  1
  Ho  Ho1  1  0.000000  0.676962  0.585732  1
  Ho  Ho2  1  0.000000  0.823055  0.086048  1
  Ho  Ho3  1  0.000000  0.177273  0.914316  1
  Lu  Lu4  1  0.000000  0.942788  0.369421  1
  Lu  Lu5  1  0.000000  0.057845  0.629669  1
  Lu  Lu6  1  0.000000  0.442652  0.130628  1
  Lu  Lu7  1  0.000000  0.556209  0.869911  1
  Re  Re8  1  0.000000  0.860856  0.819866  1
  Tc  Tc9  1  0.000000  0.639236  0.319788  1
  Tc  Tc10  1  0.000000  0.360855  0.680132  1
  Tc  Tc11  1  0.000000  0.139206  0.180257  1
  B  B12  1  0.500000  0.553604  0.432846  1
  B  B13  1  0.500000  0.446665  0.567211  1
  B  B14  1  0.500000  0.053506  0.067315  1
  B  B15  1  0.500000  0.946672  0.933035  1
  B  B16  1  0.500000  0.750555  0.418487  1
  B  B17  1  0.500000  0.249803  0.581405  1
  B  B18  1  0.500000  0.250370  0.081556  1
  B  B19  1  0.500000  0.749108  0.918728  1
  B  B20  1  0.500000  0.792581  0.264967  1
  B  B21  1  0.500000  0.207474  0.734820  1
  B  B22  1  0.500000  0.292541  0.235121  1
  B  B23  1  0.500000  0.707014  0.765024  1
  B  B24  1  0.500000  0.629694  0.184707  1
  B  B25  1  0.500000  0.370055  0.815292  1
  B  B26  1  0.500000  0.129792  0.315355  1
  B  B27  1  0.500000  0.870413  0.684434  1
  B  B28  1  0.500000  0.981261  0.212284  1
  B  B29  1  0.500000  0.019127  0.787506  1
  B  B30  1  0.500000  0.481257  0.287768  1
  B  B31  1  0.500000  0.518613  0.712384  1
  B  B32  1  0.500000  0.597931  0.027404  1
  B  B33  1  0.500000  0.401409  0.972853  1
  B  B34  1  0.500000  0.098387  0.472433  1
  B  B35  1  0.500000  0.901944  0.527126  1
