# generated using pymatgen
data_Sc6Zn17SiPt6
_symmetry_space_group_name_H-M   'P 1'
_cell_length_a   8.84580042
_cell_length_b   8.84580059
_cell_length_c   8.84580100
_cell_angle_alpha   60.00000220
_cell_angle_beta   60.00000156
_cell_angle_gamma   59.99999952
_symmetry_Int_Tables_number   1
_chemical_formula_structural   Sc6Zn17SiPt6
_chemical_formula_sum   'Sc6 Zn17 Si1 Pt6'
_cell_volume   489.43661853
_cell_formula_units_Z   1
loop_
 _symmetry_equiv_pos_site_id
 _symmetry_equiv_pos_as_xyz
  1  'x, y, z'
loop_
 _atom_site_type_symbol
 _atom_site_label
 _atom_site_symmetry_multiplicity
 _atom_site_fract_x
 _atom_site_fract_y
 _atom_site_fract_z
 _atom_site_occupancy
  Sc  Sc0  1  0.717847  0.282153  0.282153  1
  Sc  Sc1  1  0.282153  0.717847  0.717847  1
  Sc  Sc2  1  0.282153  0.717847  0.282153  1
  Sc  Sc3  1  0.717847  0.282153  0.717847  1
  Sc  Sc4  1  0.282153  0.282153  0.717847  1
  Sc  Sc5  1  0.717847  0.717847  0.282153  1
  Zn  Zn6  1  0.123132  0.123132  0.123132  1
  Zn  Zn7  1  0.876868  0.876868  0.876868  1
  Zn  Zn8  1  0.123132  0.123132  0.630604  1
  Zn  Zn9  1  0.123132  0.630604  0.123132  1
  Zn  Zn10  1  0.876868  0.876868  0.369396  1
  Zn  Zn11  1  0.876868  0.369396  0.876868  1
  Zn  Zn12  1  0.630604  0.123132  0.123132  1
  Zn  Zn13  1  0.369396  0.876868  0.876868  1
  Zn  Zn14  1  0.341191  0.341191  0.341191  1
  Zn  Zn15  1  0.658809  0.658809  0.658809  1
  Zn  Zn16  1  0.341191  0.341191  0.976430  1
  Zn  Zn17  1  0.341191  0.976430  0.341191  1
  Zn  Zn18  1  0.658809  0.658809  0.023570  1
  Zn  Zn19  1  0.658809  0.023570  0.658809  1
  Zn  Zn20  1  0.976430  0.341191  0.341191  1
  Zn  Zn21  1  0.023570  0.658809  0.658809  1
  Zn  Zn22  1  0.000000  0.000000  0.000000  1
  Si  Si23  1  0.500000  0.500000  0.500000  1
  Pt  Pt24  1  0.500000  0.000000  0.000000  1
  Pt  Pt25  1  0.000000  0.500000  0.500000  1
  Pt  Pt26  1  0.000000  0.500000  0.000000  1
  Pt  Pt27  1  0.500000  0.000000  0.500000  1
  Pt  Pt28  1  0.000000  0.000000  0.500000  1
  Pt  Pt29  1  0.500000  0.500000  0.000000  1
