# generated using pymatgen
data_Nd3(Sn2Ir)2
_symmetry_space_group_name_H-M   'P 1'
_cell_length_a   7.64259000
_cell_length_b   7.64258992
_cell_length_c   4.32072600
_cell_angle_alpha   90.00000000
_cell_angle_beta   90.00000000
_cell_angle_gamma   120.00000034
_symmetry_Int_Tables_number   1
_chemical_formula_structural   Nd3(Sn2Ir)2
_chemical_formula_sum   'Nd3 Sn4 Ir2'
_cell_volume   218.55888957
_cell_formula_units_Z   1
loop_
 _symmetry_equiv_pos_site_id
 _symmetry_equiv_pos_as_xyz
  1  'x, y, z'
loop_
 _atom_site_type_symbol
 _atom_site_label
 _atom_site_symmetry_multiplicity
 _atom_site_fract_x
 _atom_site_fract_y
 _atom_site_fract_z
 _atom_site_occupancy
  Nd  Nd0  1  0.604506  0.019467  0.000000  1
  Nd  Nd1  1  0.980533  0.585038  0.000000  1
  Nd  Nd2  1  0.414962  0.395494  0.000000  1
  Sn  Sn3  1  0.333333  0.666667  0.500000  1
  Sn  Sn4  1  0.253853  0.019713  0.500000  1
  Sn  Sn5  1  0.980287  0.234140  0.500000  1
  Sn  Sn6  1  0.765860  0.746147  0.500000  1
  Ir  Ir7  1  0.666667  0.333333  0.500000  1
  Ir  Ir8  1  0.000000  0.000000  0.000000  1
