# generated using pymatgen
data_RbHfPS5
_symmetry_space_group_name_H-M   'P 1'
_cell_length_a   10.17115009
_cell_length_b   10.17115006
_cell_length_c   16.20522376
_cell_angle_alpha   59.55338495
_cell_angle_beta   59.55338542
_cell_angle_gamma   42.93300494
_symmetry_Int_Tables_number   1
_chemical_formula_structural   RbHfPS5
_chemical_formula_sum   'Rb4 Hf4 P4 S20'
_cell_volume   957.78742305
_cell_formula_units_Z   4
loop_
 _symmetry_equiv_pos_site_id
 _symmetry_equiv_pos_as_xyz
  1  'x, y, z'
loop_
 _atom_site_type_symbol
 _atom_site_label
 _atom_site_symmetry_multiplicity
 _atom_site_fract_x
 _atom_site_fract_y
 _atom_site_fract_z
 _atom_site_occupancy
  Rb  Rb0  1  0.664500  0.664500  0.135495  1
  Rb  Rb1  1  0.705317  0.705317  0.642000  1
  Rb  Rb2  1  0.294683  0.294683  0.358000  1
  Rb  Rb3  1  0.335500  0.335500  0.864505  1
  Hf  Hf4  1  0.727957  0.272043  0.000000  1
  Hf  Hf5  1  0.272043  0.727957  0.000000  1
  Hf  Hf6  1  0.774602  0.225398  0.500000  1
  Hf  Hf7  1  0.225398  0.774602  0.500000  1
  P  P8  1  0.331164  0.331164  0.595877  1
  P  P9  1  0.077022  0.077022  0.099172  1
  P  P10  1  0.922978  0.922978  0.900828  1
  P  P11  1  0.668836  0.668836  0.404123  1
  S  S12  1  0.175047  0.175047  0.111486  1
  S  S13  1  0.577070  0.129042  0.655202  1
  S  S14  1  0.129042  0.577070  0.655202  1
  S  S15  1  0.975533  0.975533  0.410546  1
  S  S16  1  0.436895  0.436895  0.448316  1
  S  S17  1  0.110309  0.110309  0.950872  1
  S  S18  1  0.775408  0.226730  0.155374  1
  S  S19  1  0.226730  0.775408  0.155374  1
  S  S20  1  0.607484  0.607484  0.906720  1
  S  S21  1  0.221676  0.221676  0.608298  1
  S  S22  1  0.778324  0.778324  0.391702  1
  S  S23  1  0.392516  0.392516  0.093280  1
  S  S24  1  0.224592  0.773270  0.844626  1
  S  S25  1  0.773270  0.224592  0.844626  1
  S  S26  1  0.889691  0.889691  0.049128  1
  S  S27  1  0.563105  0.563105  0.551684  1
  S  S28  1  0.024467  0.024467  0.589454  1
  S  S29  1  0.870958  0.422930  0.344798  1
  S  S30  1  0.422930  0.870958  0.344798  1
  S  S31  1  0.824953  0.824953  0.888514  1
