# generated using pymatgen
data_LuFe3P3Rh2
_symmetry_space_group_name_H-M   'P 1'
_cell_length_a   3.74263700
_cell_length_b   10.28579800
_cell_length_c   12.14773300
_cell_angle_alpha   90.00000000
_cell_angle_beta   90.00000000
_cell_angle_gamma   90.00000000
_symmetry_Int_Tables_number   1
_chemical_formula_structural   LuFe3P3Rh2
_chemical_formula_sum   'Lu4 Fe12 P12 Rh8'
_cell_volume   467.63922881
_cell_formula_units_Z   4
loop_
 _symmetry_equiv_pos_site_id
 _symmetry_equiv_pos_as_xyz
  1  'x, y, z'
loop_
 _atom_site_type_symbol
 _atom_site_label
 _atom_site_symmetry_multiplicity
 _atom_site_fract_x
 _atom_site_fract_y
 _atom_site_fract_z
 _atom_site_occupancy
  Lu  Lu0  1  0.250000  0.580532  0.711663  1
  Lu  Lu1  1  0.250000  0.919468  0.211663  1
  Lu  Lu2  1  0.750000  0.419468  0.288337  1
  Lu  Lu3  1  0.750000  0.080532  0.788337  1
  Fe  Fe4  1  0.250000  0.224422  0.171225  1
  Fe  Fe5  1  0.250000  0.275578  0.671225  1
  Fe  Fe6  1  0.750000  0.775578  0.828775  1
  Fe  Fe7  1  0.750000  0.724422  0.328775  1
  Fe  Fe8  1  0.250000  0.877649  0.697615  1
  Fe  Fe9  1  0.250000  0.622351  0.197615  1
  Fe  Fe10  1  0.750000  0.122351  0.302385  1
  Fe  Fe11  1  0.750000  0.377649  0.802385  1
  Fe  Fe12  1  0.250000  0.459198  0.934860  1
  Fe  Fe13  1  0.250000  0.040802  0.434860  1
  Fe  Fe14  1  0.750000  0.540802  0.065140  1
  Fe  Fe15  1  0.750000  0.959198  0.565140  1
  P  P16  1  0.250000  0.429232  0.113628  1
  P  P17  1  0.250000  0.070768  0.613628  1
  P  P18  1  0.750000  0.570768  0.886372  1
  P  P19  1  0.750000  0.929232  0.386372  1
  P  P20  1  0.250000  0.272050  0.852706  1
  P  P21  1  0.250000  0.227950  0.352706  1
  P  P22  1  0.750000  0.727950  0.147294  1
  P  P23  1  0.750000  0.772050  0.647294  1
  P  P24  1  0.250000  0.604674  0.377268  1
  P  P25  1  0.250000  0.895326  0.877268  1
  P  P26  1  0.750000  0.395326  0.622732  1
  P  P27  1  0.750000  0.104674  0.122732  1
  Rh  Rh28  1  0.250000  0.707933  0.985246  1
  Rh  Rh29  1  0.250000  0.792067  0.485246  1
  Rh  Rh30  1  0.750000  0.292067  0.014754  1
  Rh  Rh31  1  0.750000  0.207933  0.514754  1
  Rh  Rh32  1  0.250000  0.405177  0.477174  1
  Rh  Rh33  1  0.250000  0.094823  0.977174  1
  Rh  Rh34  1  0.750000  0.594823  0.522826  1
  Rh  Rh35  1  0.750000  0.905177  0.022826  1
