# generated using pymatgen
data_Tb6YCo6CuSn22
_symmetry_space_group_name_H-M   'P 1'
_cell_length_a   9.67799710
_cell_length_b   9.67799573
_cell_length_c   9.92037513
_cell_angle_alpha   89.98394082
_cell_angle_beta   90.01606234
_cell_angle_gamma   119.99627766
_symmetry_Int_Tables_number   1
_chemical_formula_structural   Tb6YCo6CuSn22
_chemical_formula_sum   'Tb6 Y1 Co6 Cu1 Sn22'
_cell_volume   804.72205854
_cell_formula_units_Z   1
loop_
 _symmetry_equiv_pos_site_id
 _symmetry_equiv_pos_as_xyz
  1  'x, y, z'
loop_
 _atom_site_type_symbol
 _atom_site_label
 _atom_site_symmetry_multiplicity
 _atom_site_fract_x
 _atom_site_fract_y
 _atom_site_fract_z
 _atom_site_occupancy
  Tb  Tb0  1  0.999999  0.000001  0.000028  1
  Tb  Tb1  1  0.521035  0.478965  0.693780  1
  Tb  Tb2  1  0.478967  0.957935  0.306141  1
  Tb  Tb3  1  0.521029  0.042056  0.693857  1
  Tb  Tb4  1  0.042065  0.521033  0.306141  1
  Tb  Tb5  1  0.957944  0.478971  0.693857  1
  Y  Y6  1  0.478881  0.521119  0.306346  1
  Co  Co7  1  0.832167  0.167833  0.196949  1
  Co  Co8  1  0.167853  0.832147  0.803072  1
  Co  Co9  1  0.832320  0.664328  0.196925  1
  Co  Co10  1  0.167802  0.335734  0.803074  1
  Co  Co11  1  0.335672  0.167680  0.196925  1
  Co  Co12  1  0.664266  0.832198  0.803074  1
  Cu  Cu13  1  0.999996  0.000004  0.500001  1
  Sn  Sn14  1  0.345944  0.000064  0.999975  1
  Sn  Sn15  1  0.654065  0.999972  0.000037  1
  Sn  Sn16  1  0.000028  0.345935  0.000037  1
  Sn  Sn17  1  0.999936  0.654056  0.999975  1
  Sn  Sn18  1  0.654144  0.654079  0.000012  1
  Sn  Sn19  1  0.345921  0.345856  0.000012  1
  Sn  Sn20  1  0.333329  0.666671  0.816851  1
  Sn  Sn21  1  0.666677  0.333323  0.183194  1
  Sn  Sn22  1  0.784278  0.215722  0.453428  1
  Sn  Sn23  1  0.215709  0.784291  0.546569  1
  Sn  Sn24  1  0.784098  0.568612  0.453354  1
  Sn  Sn25  1  0.215714  0.431333  0.546506  1
  Sn  Sn26  1  0.431388  0.215902  0.453354  1
  Sn  Sn27  1  0.568667  0.784286  0.546506  1
  Sn  Sn28  1  0.333438  0.666562  0.117237  1
  Sn  Sn29  1  0.666657  0.333343  0.882863  1
  Sn  Sn30  1  0.110819  0.889181  0.283376  1
  Sn  Sn31  1  0.889179  0.110821  0.716643  1
  Sn  Sn32  1  0.110918  0.221640  0.283357  1
  Sn  Sn33  1  0.889144  0.778410  0.716594  1
  Sn  Sn34  1  0.778360  0.889082  0.283357  1
  Sn  Sn35  1  0.221590  0.110856  0.716594  1
