# generated using pymatgen
data_Li2YbHoAu2
_symmetry_space_group_name_H-M   'P 1'
_cell_length_a   4.23098600
_cell_length_b   7.16029300
_cell_length_c   8.57470700
_cell_angle_alpha   90.00000000
_cell_angle_beta   90.00000000
_cell_angle_gamma   90.00000000
_symmetry_Int_Tables_number   1
_chemical_formula_structural   Li2YbHoAu2
_chemical_formula_sum   'Li4 Yb2 Ho2 Au4'
_cell_volume   259.77160122
_cell_formula_units_Z   2
loop_
 _symmetry_equiv_pos_site_id
 _symmetry_equiv_pos_as_xyz
  1  'x, y, z'
loop_
 _atom_site_type_symbol
 _atom_site_label
 _atom_site_symmetry_multiplicity
 _atom_site_fract_x
 _atom_site_fract_y
 _atom_site_fract_z
 _atom_site_occupancy
  Li  Li0  1  0.250000  0.128898  0.941530  1
  Li  Li1  1  0.250000  0.628898  0.558470  1
  Li  Li2  1  0.750000  0.872146  0.062004  1
  Li  Li3  1  0.750000  0.372146  0.437996  1
  Yb  Yb4  1  0.750000  0.953724  0.681823  1
  Yb  Yb5  1  0.750000  0.453724  0.818177  1
  Ho  Ho6  1  0.250000  0.045114  0.319024  1
  Ho  Ho7  1  0.250000  0.545114  0.180976  1
  Au  Au8  1  0.250000  0.248983  0.617528  1
  Au  Au9  1  0.250000  0.748983  0.882472  1
  Au  Au10  1  0.750000  0.751139  0.369991  1
  Au  Au11  1  0.750000  0.251139  0.130009  1
