# generated using pymatgen
data_Tm2Co3Si7Ru9
_symmetry_space_group_name_H-M   'P 1'
_cell_length_a   9.49420100
_cell_length_b   9.49420053
_cell_length_c   3.82623000
_cell_angle_alpha   90.00000000
_cell_angle_beta   90.00000000
_cell_angle_gamma   119.99999816
_symmetry_Int_Tables_number   1
_chemical_formula_structural   Tm2Co3Si7Ru9
_chemical_formula_sum   'Tm2 Co3 Si7 Ru9'
_cell_volume   298.68852242
_cell_formula_units_Z   1
loop_
 _symmetry_equiv_pos_site_id
 _symmetry_equiv_pos_as_xyz
  1  'x, y, z'
loop_
 _atom_site_type_symbol
 _atom_site_label
 _atom_site_symmetry_multiplicity
 _atom_site_fract_x
 _atom_site_fract_y
 _atom_site_fract_z
 _atom_site_occupancy
  Tm  Tm0  1  0.666667  0.333333  0.000000  1
  Tm  Tm1  1  0.000000  0.000000  0.500000  1
  Co  Co2  1  0.481167  0.937463  0.000000  1
  Co  Co3  1  0.062537  0.543705  0.000000  1
  Co  Co4  1  0.456295  0.518833  0.000000  1
  Si  Si5  1  0.333333  0.666667  0.000000  1
  Si  Si6  1  0.441667  0.058324  0.500000  1
  Si  Si7  1  0.941676  0.383343  0.500000  1
  Si  Si8  1  0.616657  0.558333  0.500000  1
  Si  Si9  1  0.732282  0.958167  0.000000  1
  Si  Si10  1  0.041833  0.774114  0.000000  1
  Si  Si11  1  0.225886  0.267718  0.000000  1
  Ru  Ru12  1  0.761079  0.724098  0.000000  1
  Ru  Ru13  1  0.275902  0.036980  0.000000  1
  Ru  Ru14  1  0.963020  0.238921  0.000000  1
  Ru  Ru15  1  0.713279  0.101977  0.500000  1
  Ru  Ru16  1  0.898023  0.611302  0.500000  1
  Ru  Ru17  1  0.388698  0.286721  0.500000  1
  Ru  Ru18  1  0.536965  0.764254  0.500000  1
  Ru  Ru19  1  0.235746  0.772712  0.500000  1
  Ru  Ru20  1  0.227288  0.463035  0.500000  1
