# generated using pymatgen
data_ThU2Co3Sb4
_symmetry_space_group_name_H-M   'P 1'
_cell_length_a   8.14864491
_cell_length_b   8.14020555
_cell_length_c   8.13492975
_cell_angle_alpha   109.20607708
_cell_angle_beta   109.56313654
_cell_angle_gamma   109.58929790
_symmetry_Int_Tables_number   1
_chemical_formula_structural   ThU2Co3Sb4
_chemical_formula_sum   'Th2 U4 Co6 Sb8'
_cell_volume   415.66492435
_cell_formula_units_Z   2
loop_
 _symmetry_equiv_pos_site_id
 _symmetry_equiv_pos_as_xyz
  1  'x, y, z'
loop_
 _atom_site_type_symbol
 _atom_site_label
 _atom_site_symmetry_multiplicity
 _atom_site_fract_x
 _atom_site_fract_y
 _atom_site_fract_z
 _atom_site_occupancy
  Th  Th0  1  0.875972  0.126181  0.751449  1
  Th  Th1  1  0.124028  0.750208  0.875476  1
  U  U2  1  0.375164  0.248927  0.625481  1
  U  U3  1  0.751358  0.876498  0.125526  1
  U  U4  1  0.248642  0.625140  0.374168  1
  U  U5  1  0.624836  0.373763  0.250317  1
  Co  Co6  1  0.131619  0.885471  0.267803  1
  Co  Co7  1  0.620027  0.734348  0.363743  1
  Co  Co8  1  0.868381  0.253852  0.136184  1
  Co  Co9  1  0.275111  0.143361  0.879643  1
  Co  Co10  1  0.724889  0.368250  0.604532  1
  Co  Co11  1  0.379973  0.614321  0.743716  1
  Sb  Sb12  1  0.000251  0.336288  0.499860  1
  Sb  Sb13  1  0.832296  0.501415  0.001402  1
  Sb  Sb14  1  0.499853  0.996481  0.835410  1
  Sb  Sb15  1  0.659363  0.661537  0.660191  1
  Sb  Sb16  1  0.167704  0.169120  0.169106  1
  Sb  Sb17  1  0.340637  0.502174  0.000828  1
  Sb  Sb18  1  0.500147  0.996627  0.335557  1
  Sb  Sb19  1  0.999749  0.836038  0.499609  1
