# generated using pymatgen
data_SmLuFe3P7Ru9
_symmetry_space_group_name_H-M   'P 1'
_cell_length_a   3.86411200
_cell_length_b   9.31391922
_cell_length_c   9.31729248
_cell_angle_alpha   119.98609940
_cell_angle_beta   90.00000000
_cell_angle_gamma   90.00000000
_symmetry_Int_Tables_number   1
_chemical_formula_structural   SmLuFe3P7Ru9
_chemical_formula_sum   'Sm1 Lu1 Fe3 P7 Ru9'
_cell_volume   290.44462819
_cell_formula_units_Z   1
loop_
 _symmetry_equiv_pos_site_id
 _symmetry_equiv_pos_as_xyz
  1  'x, y, z'
loop_
 _atom_site_type_symbol
 _atom_site_label
 _atom_site_symmetry_multiplicity
 _atom_site_fract_x
 _atom_site_fract_y
 _atom_site_fract_z
 _atom_site_occupancy
  Sm  Sm0  1  0.000000  0.666623  0.333268  1
  Lu  Lu1  1  0.500000  0.333337  0.666686  1
  Fe  Fe2  1  0.000000  0.890477  0.732258  1
  Fe  Fe3  1  0.000000  0.267558  0.158251  1
  Fe  Fe4  1  0.000000  0.841936  0.109493  1
  P  P5  1  0.000000  0.109292  0.694012  1
  P  P6  1  0.000000  0.306197  0.415491  1
  P  P7  1  0.000000  0.584384  0.890700  1
  P  P8  1  0.500000  0.721202  0.605942  1
  P  P9  1  0.500000  0.393969  0.115119  1
  P  P10  1  0.500000  0.884832  0.278770  1
  P  P11  1  0.000000  0.999918  0.999845  1
  Ru  Ru12  1  0.000000  0.358023  0.936969  1
  Ru  Ru13  1  0.000000  0.063173  0.421299  1
  Ru  Ru14  1  0.000000  0.578811  0.641906  1
  Ru  Ru15  1  0.500000  0.951011  0.563096  1
  Ru  Ru16  1  0.500000  0.436721  0.387768  1
  Ru  Ru17  1  0.500000  0.612232  0.048930  1
  Ru  Ru18  1  0.500000  0.115721  0.912272  1
  Ru  Ru19  1  0.500000  0.087740  0.203563  1
  Ru  Ru20  1  0.500000  0.796845  0.884362  1
