# generated using pymatgen
data_Pr5NdSn2(GeRh2)2
_symmetry_space_group_name_H-M   'P 1'
_cell_length_a   5.80490702
_cell_length_b   8.42228202
_cell_length_c   13.73216700
_cell_angle_alpha   90.00000000
_cell_angle_beta   90.00000000
_cell_angle_gamma   89.99135701
_symmetry_Int_Tables_number   1
_chemical_formula_structural   Pr5NdSn2(GeRh2)2
_chemical_formula_sum   'Pr10 Nd2 Sn4 Ge4 Rh8'
_cell_volume   671.37338215
_cell_formula_units_Z   2
loop_
 _symmetry_equiv_pos_site_id
 _symmetry_equiv_pos_as_xyz
  1  'x, y, z'
loop_
 _atom_site_type_symbol
 _atom_site_label
 _atom_site_symmetry_multiplicity
 _atom_site_fract_x
 _atom_site_fract_y
 _atom_site_fract_z
 _atom_site_occupancy
  Pr  Pr0  1  0.643467  0.249811  0.250000  1
  Pr  Pr1  1  0.356533  0.750189  0.750000  1
  Pr  Pr2  1  0.156129  0.394106  0.101482  1
  Pr  Pr3  1  0.843871  0.605894  0.898518  1
  Pr  Pr4  1  0.843871  0.605894  0.601482  1
  Pr  Pr5  1  0.843969  0.894040  0.398481  1
  Pr  Pr6  1  0.156129  0.394106  0.398518  1
  Pr  Pr7  1  0.156031  0.105960  0.601519  1
  Pr  Pr8  1  0.156031  0.105960  0.898481  1
  Pr  Pr9  1  0.843969  0.894040  0.101519  1
  Nd  Nd10  1  0.356871  0.749962  0.250000  1
  Nd  Nd11  1  0.643129  0.250038  0.750000  1
  Sn  Sn12  1  0.658554  0.250006  0.999836  1
  Sn  Sn13  1  0.341446  0.749994  0.000164  1
  Sn  Sn14  1  0.341446  0.749994  0.499836  1
  Sn  Sn15  1  0.658554  0.250006  0.500164  1
  Ge  Ge16  1  0.142651  0.104377  0.250000  1
  Ge  Ge17  1  0.857349  0.895623  0.750000  1
  Ge  Ge18  1  0.857599  0.605103  0.250000  1
  Ge  Ge19  1  0.142401  0.394897  0.750000  1
  Rh  Rh20  1  0.373691  0.038337  0.097444  1
  Rh  Rh21  1  0.626309  0.961663  0.902556  1
  Rh  Rh22  1  0.626309  0.961663  0.597444  1
  Rh  Rh23  1  0.626035  0.538726  0.402542  1
  Rh  Rh24  1  0.373691  0.038337  0.402556  1
  Rh  Rh25  1  0.373965  0.461274  0.597458  1
  Rh  Rh26  1  0.373965  0.461274  0.902542  1
  Rh  Rh27  1  0.626035  0.538726  0.097458  1
