# generated using pymatgen
data_Er4Fe5Si10Rh
_symmetry_space_group_name_H-M   'P 1'
_cell_length_a   7.99763960
_cell_length_b   7.99763788
_cell_length_c   7.99763838
_cell_angle_alpha   140.49415715
_cell_angle_beta   108.30464439
_cell_angle_gamma   85.08779444
_symmetry_Int_Tables_number   1
_chemical_formula_structural   Er4Fe5Si10Rh
_chemical_formula_sum   'Er4 Fe5 Si10 Rh1'
_cell_volume   298.37848913
_cell_formula_units_Z   1
loop_
 _symmetry_equiv_pos_site_id
 _symmetry_equiv_pos_as_xyz
  1  'x, y, z'
loop_
 _atom_site_type_symbol
 _atom_site_label
 _atom_site_symmetry_multiplicity
 _atom_site_fract_x
 _atom_site_fract_y
 _atom_site_fract_z
 _atom_site_occupancy
  Er  Er0  1  0.631604  0.867743  0.776779  1
  Er  Er1  1  0.368396  0.145175  0.236139  1
  Er  Er2  1  0.090964  0.354825  0.723221  1
  Er  Er3  1  0.909036  0.632257  0.263861  1
  Fe  Fe4  1  0.233882  0.643718  0.589439  1
  Fe  Fe5  1  0.766118  0.355557  0.409836  1
  Fe  Fe6  1  0.054278  0.144443  0.910561  1
  Fe  Fe7  1  0.945722  0.856282  0.090164  1
  Fe  Fe8  1  0.500000  0.750000  0.250000  1
  Si  Si9  1  0.285595  0.035595  0.750000  1
  Si  Si10  1  0.711387  0.961387  0.250000  1
  Si  Si11  1  0.714405  0.464405  0.750000  1
  Si  Si12  1  0.288613  0.538613  0.250000  1
  Si  Si13  1  0.422402  0.610019  0.838419  1
  Si  Si14  1  0.577598  0.416016  0.187616  1
  Si  Si15  1  0.771601  0.083984  0.661581  1
  Si  Si16  1  0.228399  0.889981  0.312384  1
  Si  Si17  1  0.000000  0.750000  0.750000  1
  Si  Si18  1  0.000000  0.250000  0.250000  1
  Rh  Rh19  1  0.500000  0.250000  0.750000  1
