# generated using pymatgen
data_Tm16MgCd3(IrPt)2
_symmetry_space_group_name_H-M   'P 1'
_cell_length_a   9.59470498
_cell_length_b   9.59470405
_cell_length_c   9.56839824
_cell_angle_alpha   59.42141244
_cell_angle_beta   59.42141305
_cell_angle_gamma   59.71587976
_symmetry_Int_Tables_number   1
_chemical_formula_structural   Tm16MgCd3(IrPt)2
_chemical_formula_sum   'Tm16 Mg1 Cd3 Ir2 Pt2'
_cell_volume   616.03998396
_cell_formula_units_Z   1
loop_
 _symmetry_equiv_pos_site_id
 _symmetry_equiv_pos_as_xyz
  1  'x, y, z'
loop_
 _atom_site_type_symbol
 _atom_site_label
 _atom_site_symmetry_multiplicity
 _atom_site_fract_x
 _atom_site_fract_y
 _atom_site_fract_z
 _atom_site_occupancy
  Tm  Tm0  1  0.600470  0.600470  0.597306  1
  Tm  Tm1  1  0.600011  0.600011  0.203922  1
  Tm  Tm2  1  0.605191  0.197037  0.599683  1
  Tm  Tm3  1  0.197037  0.605191  0.599683  1
  Tm  Tm4  1  0.055852  0.441424  0.440046  1
  Tm  Tm5  1  0.438213  0.058989  0.063999  1
  Tm  Tm6  1  0.441424  0.055852  0.440046  1
  Tm  Tm7  1  0.058989  0.438213  0.063999  1
  Tm  Tm8  1  0.441149  0.441149  0.057897  1
  Tm  Tm9  1  0.062585  0.062585  0.436457  1
  Tm  Tm10  1  0.187525  0.816841  0.812755  1
  Tm  Tm11  1  0.815407  0.186848  0.186564  1
  Tm  Tm12  1  0.816841  0.187525  0.812755  1
  Tm  Tm13  1  0.186848  0.815407  0.186564  1
  Tm  Tm14  1  0.814400  0.814400  0.187825  1
  Tm  Tm15  1  0.186657  0.186657  0.813135  1
  Mg  Mg16  1  0.826006  0.826006  0.826610  1
  Cd  Cd17  1  0.831753  0.831753  0.503534  1
  Cd  Cd18  1  0.831093  0.504147  0.831918  1
  Cd  Cd19  1  0.504147  0.831093  0.831918  1
  Ir  Ir20  1  0.391206  0.823653  0.393296  1
  Ir  Ir21  1  0.823653  0.391206  0.393296  1
  Pt  Pt22  1  0.391451  0.391451  0.394930  1
  Pt  Pt23  1  0.392093  0.392093  0.821856  1
