# generated using pymatgen
data_Th2Zn17Cu5
_symmetry_space_group_name_H-M   'P 1'
_cell_length_a   8.15394745
_cell_length_b   8.14623959
_cell_length_c   8.16990452
_cell_angle_alpha   99.84765425
_cell_angle_beta   99.90270498
_cell_angle_gamma   131.07138719
_symmetry_Int_Tables_number   1
_chemical_formula_structural   Th2Zn17Cu5
_chemical_formula_sum   'Th2 Zn17 Cu5'
_cell_volume   372.38834988
_cell_formula_units_Z   1
loop_
 _symmetry_equiv_pos_site_id
 _symmetry_equiv_pos_as_xyz
  1  'x, y, z'
loop_
 _atom_site_type_symbol
 _atom_site_label
 _atom_site_symmetry_multiplicity
 _atom_site_fract_x
 _atom_site_fract_y
 _atom_site_fract_z
 _atom_site_occupancy
  Th  Th0  1  0.248940  0.749695  0.500158  1
  Th  Th1  1  0.998628  0.996160  0.999372  1
  Zn  Zn2  1  0.427326  0.511566  0.324700  1
  Zn  Zn3  1  0.487054  0.571087  0.673336  1
  Zn  Zn4  1  0.434503  0.108527  0.919394  1
  Zn  Zn5  1  0.763908  0.183320  0.828083  1
  Zn  Zn6  1  0.487967  0.813943  0.916813  1
  Zn  Zn7  1  0.506534  0.500936  0.001135  1
  Zn  Zn8  1  0.761566  0.936683  0.583248  1
  Zn  Zn9  1  0.749303  0.249462  0.499335  1
  Zn  Zn10  1  0.062779  0.647319  0.830050  1
  Zn  Zn11  1  0.354089  0.180087  0.417319  1
  Zn  Zn12  1  0.821623  0.647082  0.583038  1
  Zn  Zn13  1  0.898560  0.810069  0.321227  1
  Zn  Zn14  1  0.185235  0.101691  0.673657  1
  Zn  Zn15  1  0.062271  0.236176  0.416057  1
  Zn  Zn16  1  0.345754  0.931985  0.173256  1
  Zn  Zn17  1  0.820721  0.240348  0.174083  1
  Zn  Zn18  1  0.184022  0.513133  0.083342  1
  Cu  Cu19  1  0.899224  0.569937  0.082938  1
  Cu  Cu20  1  0.624979  0.874527  0.248904  1
  Cu  Cu21  1  0.125720  0.375072  0.750524  1
  Cu  Cu22  1  0.624702  0.374979  0.249866  1
  Cu  Cu23  1  0.624595  0.376215  0.750163  1
