# generated using pymatgen
data_HfZrNb6O12
_symmetry_space_group_name_H-M   'P 1'
_cell_length_a   6.83970790
_cell_length_b   6.83970859
_cell_length_c   6.83970841
_cell_angle_alpha   74.07347137
_cell_angle_beta   74.07345616
_cell_angle_gamma   74.07345812
_symmetry_Int_Tables_number   1
_chemical_formula_structural   HfZrNb6O12
_chemical_formula_sum   'Hf1 Zr1 Nb6 O12'
_cell_volume   288.93902776
_cell_formula_units_Z   1
loop_
 _symmetry_equiv_pos_site_id
 _symmetry_equiv_pos_as_xyz
  1  'x, y, z'
loop_
 _atom_site_type_symbol
 _atom_site_label
 _atom_site_symmetry_multiplicity
 _atom_site_fract_x
 _atom_site_fract_y
 _atom_site_fract_z
 _atom_site_occupancy
  Hf  Hf0  1  0.273964  0.273964  0.273964  1
  Zr  Zr1  1  0.724858  0.724858  0.724858  1
  Nb  Nb2  1  0.945813  0.110337  0.712089  1
  Nb  Nb3  1  0.712089  0.945813  0.110337  1
  Nb  Nb4  1  0.110337  0.712089  0.945813  1
  Nb  Nb5  1  0.055742  0.888194  0.287480  1
  Nb  Nb6  1  0.287480  0.055742  0.888194  1
  Nb  Nb7  1  0.888194  0.287480  0.055742  1
  O  O8  1  0.171001  0.584835  0.249491  1
  O  O9  1  0.249491  0.171001  0.584835  1
  O  O10  1  0.584835  0.249491  0.171001  1
  O  O11  1  0.830780  0.411575  0.750758  1
  O  O12  1  0.750758  0.830780  0.411575  1
  O  O13  1  0.411575  0.750758  0.830780  1
  O  O14  1  0.645981  0.034761  0.805087  1
  O  O15  1  0.805087  0.645981  0.034761  1
  O  O16  1  0.969010  0.195202  0.353042  1
  O  O17  1  0.195202  0.353042  0.969010  1
  O  O18  1  0.353042  0.969010  0.195202  1
  O  O19  1  0.034761  0.805087  0.645981  1
