# generated using pymatgen
data_Li3DyNi9As7Ru
_symmetry_space_group_name_H-M   'P 1'
_cell_length_a   9.45802181
_cell_length_b   9.47049509
_cell_length_c   3.81555000
_cell_angle_alpha   90.00000000
_cell_angle_beta   90.00000000
_cell_angle_gamma   120.25152982
_symmetry_Int_Tables_number   1
_chemical_formula_structural   Li3DyNi9As7Ru
_chemical_formula_sum   'Li3 Dy1 Ni9 As7 Ru1'
_cell_volume   295.22588378
_cell_formula_units_Z   1
loop_
 _symmetry_equiv_pos_site_id
 _symmetry_equiv_pos_as_xyz
  1  'x, y, z'
loop_
 _atom_site_type_symbol
 _atom_site_label
 _atom_site_symmetry_multiplicity
 _atom_site_fract_x
 _atom_site_fract_y
 _atom_site_fract_z
 _atom_site_occupancy
  Li  Li0  1  0.445105  0.221811  0.500000  1
  Li  Li1  1  0.782126  0.228411  0.500000  1
  Li  Li2  1  0.998525  0.001759  0.500000  1
  Dy  Dy3  1  0.337064  0.668710  0.000000  1
  Ni  Ni4  1  0.278695  0.376536  0.500000  1
  Ni  Ni5  1  0.622182  0.902046  0.500000  1
  Ni  Ni6  1  0.101029  0.722725  0.500000  1
  Ni  Ni7  1  0.499266  0.451059  0.000000  1
  Ni  Ni8  1  0.550347  0.052728  0.000000  1
  Ni  Ni9  1  0.953335  0.498038  0.000000  1
  Ni  Ni10  1  0.721750  0.761007  0.000000  1
  Ni  Ni11  1  0.238164  0.956628  0.000000  1
  Ni  Ni12  1  0.044390  0.282795  0.000000  1
  As  As13  1  0.962029  0.753101  0.000000  1
  As  As14  1  0.240691  0.205745  0.000000  1
  As  As15  1  0.791628  0.034041  0.000000  1
  As  As16  1  0.668952  0.339156  0.000000  1
  As  As17  1  0.548700  0.622157  0.500000  1
  As  As18  1  0.379481  0.926132  0.500000  1
  As  As19  1  0.078247  0.456885  0.500000  1
  Ru  Ru20  1  0.758297  0.538528  0.500000  1
