# generated using pymatgen
data_LiCe6NbAs10
_symmetry_space_group_name_H-M   'P 1'
_cell_length_a   8.72849000
_cell_length_b   8.72849030
_cell_length_c   5.88350800
_cell_angle_alpha   90.00000000
_cell_angle_beta   90.00000000
_cell_angle_gamma   119.99999128
_symmetry_Int_Tables_number   1
_chemical_formula_structural   LiCe6NbAs10
_chemical_formula_sum   'Li1 Ce6 Nb1 As10'
_cell_volume   388.19082852
_cell_formula_units_Z   1
loop_
 _symmetry_equiv_pos_site_id
 _symmetry_equiv_pos_as_xyz
  1  'x, y, z'
loop_
 _atom_site_type_symbol
 _atom_site_label
 _atom_site_symmetry_multiplicity
 _atom_site_fract_x
 _atom_site_fract_y
 _atom_site_fract_z
 _atom_site_occupancy
  Li  Li0  1  0.000000  0.000000  0.000000  1
  Ce  Ce1  1  0.621234  0.000000  0.248976  1
  Ce  Ce2  1  0.378766  0.000000  0.751024  1
  Ce  Ce3  1  0.000000  0.621234  0.248976  1
  Ce  Ce4  1  0.000000  0.378766  0.751024  1
  Ce  Ce5  1  0.378766  0.378766  0.248976  1
  Ce  Ce6  1  0.621234  0.621234  0.751024  1
  Nb  Nb7  1  0.000000  0.000000  0.500000  1
  As  As8  1  0.257574  0.000000  0.250439  1
  As  As9  1  0.742426  0.000000  0.749561  1
  As  As10  1  0.000000  0.257574  0.250439  1
  As  As11  1  0.000000  0.742426  0.749561  1
  As  As12  1  0.742426  0.742426  0.250439  1
  As  As13  1  0.257574  0.257574  0.749561  1
  As  As14  1  0.333333  0.666667  0.000000  1
  As  As15  1  0.666667  0.333333  0.000000  1
  As  As16  1  0.666667  0.333333  0.500000  1
  As  As17  1  0.333333  0.666667  0.500000  1
