# generated using pymatgen
data_DyYHo2(Al8Pt3)3
_symmetry_space_group_name_H-M   'P 1'
_cell_length_a   7.52174422
_cell_length_b   7.54242180
_cell_length_c   13.16394641
_cell_angle_alpha   84.57617714
_cell_angle_beta   79.11671088
_cell_angle_gamma   59.97333988
_symmetry_Int_Tables_number   1
_chemical_formula_structural   DyYHo2(Al8Pt3)3
_chemical_formula_sum   'Dy1 Y1 Ho2 Al24 Pt9'
_cell_volume   634.96089651
_cell_formula_units_Z   1
loop_
 _symmetry_equiv_pos_site_id
 _symmetry_equiv_pos_as_xyz
  1  'x, y, z'
loop_
 _atom_site_type_symbol
 _atom_site_label
 _atom_site_symmetry_multiplicity
 _atom_site_fract_x
 _atom_site_fract_y
 _atom_site_fract_z
 _atom_site_occupancy
  Dy  Dy0  1  0.266027  0.501437  0.192317  1
  Y  Y1  1  0.393410  0.168413  0.807933  1
  Ho  Ho2  1  0.606579  0.831546  0.192187  1
  Ho  Ho3  1  0.734073  0.498566  0.807522  1
  Al  Al4  1  0.684546  0.833519  0.944475  1
  Al  Al5  1  0.315631  0.166093  0.055690  1
  Al  Al6  1  0.146706  0.832456  0.561463  1
  Al  Al7  1  0.853284  0.167549  0.438570  1
  Al  Al8  1  0.479670  0.166839  0.558653  1
  Al  Al9  1  0.520357  0.833147  0.441282  1
  Al  Al10  1  0.217192  0.165156  0.329945  1
  Al  Al11  1  0.782964  0.834585  0.670057  1
  Al  Al12  1  0.437823  0.506341  0.670123  1
  Al  Al13  1  0.562278  0.493843  0.329871  1
  Al  Al14  1  0.109457  0.160060  0.669247  1
  Al  Al15  1  0.890252  0.840041  0.330757  1
  Al  Al16  1  0.353258  0.499297  0.944466  1
  Al  Al17  1  0.646925  0.500918  0.055469  1
  Al  Al18  1  0.015020  0.167840  0.952993  1
  Al  Al19  1  0.984624  0.832300  0.047021  1
  Al  Al20  1  0.186733  0.499013  0.441300  1
  Al  Al21  1  0.813238  0.500995  0.558759  1
  Al  Al22  1  0.734501  0.163708  0.183451  1
  Al  Al23  1  0.265637  0.835869  0.816547  1
  Al  Al24  1  0.061465  0.631611  0.815366  1
  Al  Al25  1  0.938106  0.368665  0.184634  1
  Al  Al26  1  0.855328  0.041714  0.815998  1
  Al  Al27  1  0.144936  0.958484  0.184008  1
  Pt  Pt28  1  0.119812  0.491968  0.638811  1
  Pt  Pt29  1  0.879862  0.508275  0.361138  1
  Pt  Pt30  1  0.657098  0.171351  0.999971  1
  Pt  Pt31  1  0.342943  0.828607  0.000037  1
  Pt  Pt32  1  0.537813  0.166548  0.361164  1
  Pt  Pt33  1  0.462310  0.833123  0.638809  1
  Pt  Pt34  1  0.778748  0.175331  0.637303  1
  Pt  Pt35  1  0.221419  0.824777  0.362662  1
  Pt  Pt36  1  0.999977  0.500017  0.000002  1
