# generated using pymatgen
data_Ce2As3PPd2
_symmetry_space_group_name_H-M   'P 1'
_cell_length_a   3.98709600
_cell_length_b   3.98709600
_cell_length_c   9.96833500
_cell_angle_alpha   90.00000000
_cell_angle_beta   90.00000000
_cell_angle_gamma   90.00000000
_symmetry_Int_Tables_number   1
_chemical_formula_structural   Ce2As3PPd2
_chemical_formula_sum   'Ce2 As3 P1 Pd2'
_cell_volume   158.46596870
_cell_formula_units_Z   1
loop_
 _symmetry_equiv_pos_site_id
 _symmetry_equiv_pos_as_xyz
  1  'x, y, z'
loop_
 _atom_site_type_symbol
 _atom_site_label
 _atom_site_symmetry_multiplicity
 _atom_site_fract_x
 _atom_site_fract_y
 _atom_site_fract_z
 _atom_site_occupancy
  Ce  Ce0  1  0.000000  0.500000  0.257670  1
  Ce  Ce1  1  0.500000  0.000000  0.739053  1
  As  As2  1  0.000000  0.000000  0.498906  1
  As  As3  1  0.500000  0.500000  0.498906  1
  As  As4  1  0.000000  0.500000  0.827305  1
  P  P5  1  0.500000  0.000000  0.164481  1
  Pd  Pd6  1  0.000000  0.000000  0.006839  1
  Pd  Pd7  1  0.500000  0.500000  0.006839  1
