# generated using pymatgen
data_Dy12TmLuRh6
_symmetry_space_group_name_H-M   'P 1'
_cell_length_a   9.78905900
_cell_length_b   9.78905858
_cell_length_c   6.16067700
_cell_angle_alpha   90.00000000
_cell_angle_beta   90.00000000
_cell_angle_gamma   120.00000480
_symmetry_Int_Tables_number   1
_chemical_formula_structural   Dy12TmLuRh6
_chemical_formula_sum   'Dy12 Tm1 Lu1 Rh6'
_cell_volume   511.25895012
_cell_formula_units_Z   1
loop_
 _symmetry_equiv_pos_site_id
 _symmetry_equiv_pos_as_xyz
  1  'x, y, z'
loop_
 _atom_site_type_symbol
 _atom_site_label
 _atom_site_symmetry_multiplicity
 _atom_site_fract_x
 _atom_site_fract_y
 _atom_site_fract_z
 _atom_site_occupancy
  Dy  Dy0  1  0.876203  0.752406  0.740992  1
  Dy  Dy1  1  0.247594  0.123797  0.740992  1
  Dy  Dy2  1  0.876203  0.123797  0.740992  1
  Dy  Dy3  1  0.123950  0.247900  0.240918  1
  Dy  Dy4  1  0.752100  0.876050  0.240918  1
  Dy  Dy5  1  0.123950  0.876050  0.240918  1
  Dy  Dy6  1  0.458936  0.917873  0.547100  1
  Dy  Dy7  1  0.082127  0.541064  0.547100  1
  Dy  Dy8  1  0.458936  0.541064  0.547100  1
  Dy  Dy9  1  0.540881  0.081760  0.047138  1
  Dy  Dy10  1  0.918240  0.459119  0.047138  1
  Dy  Dy11  1  0.540881  0.459119  0.047138  1
  Tm  Tm12  1  0.666667  0.333333  0.534244  1
  Lu  Lu13  1  0.333333  0.666667  0.033419  1
  Rh  Rh14  1  0.190785  0.381569  0.814414  1
  Rh  Rh15  1  0.618431  0.809215  0.814414  1
  Rh  Rh16  1  0.190785  0.809215  0.814414  1
  Rh  Rh17  1  0.809420  0.618842  0.314030  1
  Rh  Rh18  1  0.381158  0.190580  0.314030  1
  Rh  Rh19  1  0.809420  0.190580  0.314030  1
