# generated using pymatgen
data_Er4Ir7Ru
_symmetry_space_group_name_H-M   'P 1'
_cell_length_a   5.32897369
_cell_length_b   5.32897350
_cell_length_c   8.69432700
_cell_angle_alpha   90.00000000
_cell_angle_beta   90.00000000
_cell_angle_gamma   119.77044282
_symmetry_Int_Tables_number   1
_chemical_formula_structural   Er4Ir7Ru
_chemical_formula_sum   'Er4 Ir7 Ru1'
_cell_volume   214.31555602
_cell_formula_units_Z   1
loop_
 _symmetry_equiv_pos_site_id
 _symmetry_equiv_pos_as_xyz
  1  'x, y, z'
loop_
 _atom_site_type_symbol
 _atom_site_label
 _atom_site_symmetry_multiplicity
 _atom_site_fract_x
 _atom_site_fract_y
 _atom_site_fract_z
 _atom_site_occupancy
  Er  Er0  1  0.333316  0.666684  0.433450  1
  Er  Er1  1  0.666624  0.333376  0.567532  1
  Er  Er2  1  0.666624  0.333376  0.932468  1
  Er  Er3  1  0.333316  0.666684  0.066550  1
  Ir  Ir4  1  0.169423  0.339251  0.750000  1
  Ir  Ir5  1  0.170370  0.829630  0.750000  1
  Ir  Ir6  1  0.341410  0.168616  0.250000  1
  Ir  Ir7  1  0.831384  0.658590  0.250000  1
  Ir  Ir8  1  0.660749  0.830577  0.750000  1
  Ir  Ir9  1  0.998546  0.001454  0.000914  1
  Ir  Ir10  1  0.998546  0.001454  0.499086  1
  Ru  Ru11  1  0.829691  0.170309  0.250000  1
