# generated using pymatgen
data_CsBi3F10
_symmetry_space_group_name_H-M   'P 1'
_cell_length_a   8.65093930
_cell_length_b   8.65093916
_cell_length_c   8.65093900
_cell_angle_alpha   59.99999679
_cell_angle_beta   59.99999733
_cell_angle_gamma   59.99999768
_symmetry_Int_Tables_number   1
_chemical_formula_structural   CsBi3F10
_chemical_formula_sum   'Cs2 Bi6 F20'
_cell_volume   457.79890298
_cell_formula_units_Z   2
loop_
 _symmetry_equiv_pos_site_id
 _symmetry_equiv_pos_as_xyz
  1  'x, y, z'
loop_
 _atom_site_type_symbol
 _atom_site_label
 _atom_site_symmetry_multiplicity
 _atom_site_fract_x
 _atom_site_fract_y
 _atom_site_fract_z
 _atom_site_occupancy
  Cs  Cs0  1  0.250000  0.250000  0.250000  1
  Cs  Cs1  1  0.750000  0.750000  0.750000  1
  Bi  Bi2  1  0.759149  0.240851  0.240851  1
  Bi  Bi3  1  0.240851  0.759149  0.759149  1
  Bi  Bi4  1  0.240851  0.759149  0.240851  1
  Bi  Bi5  1  0.759149  0.240851  0.759149  1
  Bi  Bi6  1  0.240851  0.240851  0.759149  1
  Bi  Bi7  1  0.759149  0.759149  0.240851  1
  F  F8  1  0.827192  0.500000  0.500000  1
  F  F9  1  0.172808  0.500000  0.500000  1
  F  F10  1  0.500000  0.827192  0.172808  1
  F  F11  1  0.500000  0.172808  0.827192  1
  F  F12  1  0.500000  0.827192  0.500000  1
  F  F13  1  0.172808  0.500000  0.827192  1
  F  F14  1  0.500000  0.172808  0.500000  1
  F  F15  1  0.827192  0.500000  0.172808  1
  F  F16  1  0.500000  0.500000  0.827192  1
  F  F17  1  0.500000  0.500000  0.172808  1
  F  F18  1  0.172808  0.827192  0.500000  1
  F  F19  1  0.827192  0.172808  0.500000  1
  F  F20  1  0.110383  0.110383  0.110383  1
  F  F21  1  0.889617  0.889617  0.889617  1
  F  F22  1  0.110383  0.110383  0.668849  1
  F  F23  1  0.110383  0.668849  0.110383  1
  F  F24  1  0.889617  0.889617  0.331151  1
  F  F25  1  0.889617  0.331151  0.889617  1
  F  F26  1  0.668849  0.110383  0.110383  1
  F  F27  1  0.331151  0.889617  0.889617  1
