# generated using pymatgen
data_Hf8TaNi2Ru
_symmetry_space_group_name_H-M   'P 1'
_cell_length_a   8.65985279
_cell_length_b   8.65704390
_cell_length_c   8.62598600
_cell_angle_alpha   60.11475080
_cell_angle_beta   60.12527775
_cell_angle_gamma   60.08102657
_symmetry_Int_Tables_number   1
_chemical_formula_structural   Hf8TaNi2Ru
_chemical_formula_sum   'Hf16 Ta2 Ni4 Ru2'
_cell_volume   458.37984400
_cell_formula_units_Z   2
loop_
 _symmetry_equiv_pos_site_id
 _symmetry_equiv_pos_as_xyz
  1  'x, y, z'
loop_
 _atom_site_type_symbol
 _atom_site_label
 _atom_site_symmetry_multiplicity
 _atom_site_fract_x
 _atom_site_fract_y
 _atom_site_fract_z
 _atom_site_occupancy
  Hf  Hf0  1  0.692840  0.103022  0.102080  1
  Hf  Hf1  1  0.102966  0.692953  0.102049  1
  Hf  Hf2  1  0.102654  0.102591  0.692692  1
  Hf  Hf3  1  0.102649  0.102591  0.102050  1
  Hf  Hf4  1  0.314898  0.314835  0.685124  1
  Hf  Hf5  1  0.685445  0.685426  0.314567  1
  Hf  Hf6  1  0.315473  0.683028  0.314968  1
  Hf  Hf7  1  0.683112  0.315427  0.686491  1
  Hf  Hf8  1  0.683122  0.315429  0.314969  1
  Hf  Hf9  1  0.315472  0.683020  0.686536  1
  Hf  Hf10  1  0.952813  0.952695  0.547260  1
  Hf  Hf11  1  0.546066  0.546078  0.953919  1
  Hf  Hf12  1  0.948335  0.550742  0.949674  1
  Hf  Hf13  1  0.550735  0.948248  0.551301  1
  Hf  Hf14  1  0.550747  0.948250  0.949693  1
  Hf  Hf15  1  0.948344  0.550724  0.551230  1
  Ta  Ta16  1  0.005006  0.333974  0.330498  1
  Ta  Ta17  1  0.333984  0.005040  0.330478  1
  Ni  Ni18  1  0.324267  0.889030  0.893332  1
  Ni  Ni19  1  0.889000  0.324293  0.893338  1
  Ni  Ni20  1  0.891035  0.891399  0.324295  1
  Ni  Ni21  1  0.891147  0.891282  0.893377  1
  Ru  Ru22  1  0.334944  0.334962  0.993069  1
  Ru  Ru23  1  0.334941  0.334957  0.337004  1
