# generated using pymatgen
data_LiRhS4
_symmetry_space_group_name_H-M   'P 1'
_cell_length_a   5.74776600
_cell_length_b   5.78243259
_cell_length_c   5.90565512
_cell_angle_alpha   88.73755754
_cell_angle_beta   90.00000000
_cell_angle_gamma   90.00000000
_symmetry_Int_Tables_number   1
_chemical_formula_structural   LiRhS4
_chemical_formula_sum   'Li2 Rh2 S8'
_cell_volume   196.23311949
_cell_formula_units_Z   2
loop_
 _symmetry_equiv_pos_site_id
 _symmetry_equiv_pos_as_xyz
  1  'x, y, z'
loop_
 _atom_site_type_symbol
 _atom_site_label
 _atom_site_symmetry_multiplicity
 _atom_site_fract_x
 _atom_site_fract_y
 _atom_site_fract_z
 _atom_site_occupancy
  Li  Li0  1  0.500000  0.000000  0.500000  1
  Li  Li1  1  0.000000  0.500000  0.500000  1
  Rh  Rh2  1  0.500000  0.500000  0.000000  1
  Rh  Rh3  1  0.000000  0.000000  0.000000  1
  S  S4  1  0.889606  0.612688  0.904214  1
  S  S5  1  0.389606  0.887312  0.095786  1
  S  S6  1  0.095425  0.101035  0.610445  1
  S  S7  1  0.595425  0.398965  0.389555  1
  S  S8  1  0.110394  0.387312  0.095786  1
  S  S9  1  0.610394  0.112688  0.904214  1
  S  S10  1  0.904575  0.898965  0.389555  1
  S  S11  1  0.404575  0.601035  0.610445  1
