# generated using pymatgen
data_Ce5Pr15Si15Ru
_symmetry_space_group_name_H-M   'P 1'
_cell_length_a   7.91393560
_cell_length_b   7.91906000
_cell_length_c   15.26152600
_cell_angle_alpha   90.23028175
_cell_angle_beta   89.96359075
_cell_angle_gamma   90.16056480
_symmetry_Int_Tables_number   1
_chemical_formula_structural   Ce5Pr15Si15Ru
_chemical_formula_sum   'Ce5 Pr15 Si15 Ru1'
_cell_volume   956.44237330
_cell_formula_units_Z   1
loop_
 _symmetry_equiv_pos_site_id
 _symmetry_equiv_pos_as_xyz
  1  'x, y, z'
loop_
 _atom_site_type_symbol
 _atom_site_label
 _atom_site_symmetry_multiplicity
 _atom_site_fract_x
 _atom_site_fract_y
 _atom_site_fract_z
 _atom_site_occupancy
  Ce  Ce0  1  0.308106  0.306434  0.998928  1
  Ce  Ce1  1  0.195796  0.810315  0.251664  1
  Ce  Ce2  1  0.851823  0.190463  0.743077  1
  Ce  Ce3  1  0.692914  0.688206  0.499013  1
  Ce  Ce4  1  0.379035  0.003277  0.442538  1
  Pr  Pr5  1  0.494667  0.880673  0.696430  1
  Pr  Pr6  1  0.511362  0.120088  0.197866  1
  Pr  Pr7  1  0.881263  0.489686  0.302631  1
  Pr  Pr8  1  0.121930  0.521536  0.803621  1
  Pr  Pr9  1  0.621697  0.994676  0.943503  1
  Pr  Pr10  1  0.002144  0.383800  0.548393  1
  Pr  Pr11  1  0.994846  0.621774  0.055214  1
  Pr  Pr12  1  0.128091  0.979751  0.880975  1
  Pr  Pr13  1  0.519170  0.627314  0.127581  1
  Pr  Pr14  1  0.473563  0.360822  0.629351  1
  Pr  Pr15  1  0.629453  0.509596  0.872137  1
  Pr  Pr16  1  0.375378  0.486870  0.372912  1
  Pr  Pr17  1  0.874528  0.018100  0.376550  1
  Pr  Pr18  1  0.986329  0.125363  0.124101  1
  Pr  Pr19  1  0.019438  0.870858  0.622390  1
  Si  Si20  1  0.336472  0.691762  0.953229  1
  Si  Si21  1  0.662222  0.302421  0.451666  1
  Si  Si22  1  0.696094  0.331109  0.048634  1
  Si  Si23  1  0.312297  0.673416  0.547635  1
  Si  Si24  1  0.810156  0.829690  0.203068  1
  Si  Si25  1  0.173281  0.193874  0.299744  1
  Si  Si26  1  0.828670  0.804176  0.798230  1
  Si  Si27  1  0.293603  0.921340  0.061368  1
  Si  Si28  1  0.579869  0.790079  0.310475  1
  Si  Si29  1  0.409324  0.208731  0.811343  1
  Si  Si30  1  0.778721  0.581117  0.688469  1
  Si  Si31  1  0.214103  0.421141  0.190310  1
  Si  Si32  1  0.699606  0.070524  0.556819  1
  Si  Si33  1  0.921686  0.289067  0.941684  1
  Si  Si34  1  0.081745  0.715265  0.439403  1
  Ru  Ru35  1  0.140617  0.186687  0.709048  1
