# generated using pymatgen
data_Gd3Zn5Pt4
_symmetry_space_group_name_H-M   'P 1'
_cell_length_a   4.08549200
_cell_length_b   6.87612338
_cell_length_c   8.31186200
_cell_angle_alpha   91.20608693
_cell_angle_beta   90.00000000
_cell_angle_gamma   90.00000000
_symmetry_Int_Tables_number   1
_chemical_formula_structural   Gd3Zn5Pt4
_chemical_formula_sum   'Gd3 Zn5 Pt4'
_cell_volume   233.44798101
_cell_formula_units_Z   1
loop_
 _symmetry_equiv_pos_site_id
 _symmetry_equiv_pos_as_xyz
  1  'x, y, z'
loop_
 _atom_site_type_symbol
 _atom_site_label
 _atom_site_symmetry_multiplicity
 _atom_site_fract_x
 _atom_site_fract_y
 _atom_site_fract_z
 _atom_site_occupancy
  Gd  Gd0  1  0.250000  0.046662  0.326083  1
  Gd  Gd1  1  0.250000  0.537054  0.162669  1
  Gd  Gd2  1  0.750000  0.963368  0.691005  1
  Zn  Zn3  1  0.750000  0.456057  0.824990  1
  Zn  Zn4  1  0.250000  0.133686  0.938056  1
  Zn  Zn5  1  0.250000  0.637400  0.554107  1
  Zn  Zn6  1  0.750000  0.858366  0.055045  1
  Zn  Zn7  1  0.750000  0.369217  0.449145  1
  Pt  Pt8  1  0.250000  0.275178  0.643182  1
  Pt  Pt9  1  0.250000  0.737149  0.865057  1
  Pt  Pt10  1  0.750000  0.745555  0.365818  1
  Pt  Pt11  1  0.750000  0.240310  0.124848  1
