# generated using pymatgen
data_SrYb5Th2(Si3Pd)4
_symmetry_space_group_name_H-M   'P 1'
_cell_length_a   8.28680300
_cell_length_b   8.27656869
_cell_length_c   8.37079900
_cell_angle_alpha   90.00000000
_cell_angle_beta   90.00000000
_cell_angle_gamma   120.04098083
_symmetry_Int_Tables_number   1
_chemical_formula_structural   SrYb5Th2(Si3Pd)4
_chemical_formula_sum   'Sr1 Yb5 Th2 Si12 Pd4'
_cell_volume   496.99886141
_cell_formula_units_Z   1
loop_
 _symmetry_equiv_pos_site_id
 _symmetry_equiv_pos_as_xyz
  1  'x, y, z'
loop_
 _atom_site_type_symbol
 _atom_site_label
 _atom_site_symmetry_multiplicity
 _atom_site_fract_x
 _atom_site_fract_y
 _atom_site_fract_z
 _atom_site_occupancy
  Sr  Sr0  1  0.500547  0.001093  0.250000  1
  Yb  Yb1  1  0.499622  0.500393  0.750000  1
  Yb  Yb2  1  0.500247  0.499770  0.250000  1
  Yb  Yb3  1  0.000770  0.500392  0.750000  1
  Yb  Yb4  1  0.999523  0.499770  0.250000  1
  Yb  Yb5  1  0.499554  0.999108  0.750000  1
  Th  Th6  1  0.999922  0.999845  0.750000  1
  Th  Th7  1  0.999995  0.999991  0.250000  1
  Si  Si8  1  0.836373  0.166150  0.995702  1
  Si  Si9  1  0.163621  0.833845  0.996289  1
  Si  Si10  1  0.329778  0.166150  0.995702  1
  Si  Si11  1  0.163621  0.833845  0.503711  1
  Si  Si12  1  0.670223  0.833845  0.996289  1
  Si  Si13  1  0.836373  0.166150  0.504298  1
  Si  Si14  1  0.834687  0.669374  0.999485  1
  Si  Si15  1  0.670223  0.833845  0.503711  1
  Si  Si16  1  0.165253  0.330508  0.999787  1
  Si  Si17  1  0.329778  0.166150  0.504298  1
  Si  Si18  1  0.165253  0.330508  0.500213  1
  Si  Si19  1  0.834687  0.669374  0.500515  1
  Pd  Pd20  1  0.667657  0.335314  0.991619  1
  Pd  Pd21  1  0.332316  0.664630  0.993213  1
  Pd  Pd22  1  0.332316  0.664630  0.506787  1
  Pd  Pd23  1  0.667657  0.335314  0.508381  1
