# generated using pymatgen
data_HfRe23TcMo4
_symmetry_space_group_name_H-M   'P 1'
_cell_length_a   8.38507689
_cell_length_b   8.38507687
_cell_length_c   8.38293147
_cell_angle_alpha   109.50181191
_cell_angle_beta   109.50181024
_cell_angle_gamma   109.50055096
_symmetry_Int_Tables_number   1
_chemical_formula_structural   HfRe23TcMo4
_chemical_formula_sum   'Hf1 Re23 Tc1 Mo4'
_cell_volume   453.21268045
_cell_formula_units_Z   1
loop_
 _symmetry_equiv_pos_site_id
 _symmetry_equiv_pos_as_xyz
  1  'x, y, z'
loop_
 _atom_site_type_symbol
 _atom_site_label
 _atom_site_symmetry_multiplicity
 _atom_site_fract_x
 _atom_site_fract_y
 _atom_site_fract_z
 _atom_site_occupancy
  Hf  Hf0  1  0.999779  0.999779  0.999633  1
  Re  Re1  1  0.401944  0.685473  0.000994  1
  Re  Re2  1  0.685473  0.401944  0.000994  1
  Re  Re3  1  0.598648  0.282458  0.599088  1
  Re  Re4  1  0.401291  0.001486  0.685533  1
  Re  Re5  1  0.001486  0.401291  0.685533  1
  Re  Re6  1  0.282458  0.598648  0.599088  1
  Re  Re7  1  0.718002  0.314965  0.315599  1
  Re  Re8  1  0.314965  0.718002  0.315599  1
  Re  Re9  1  0.685817  0.000635  0.401939  1
  Re  Re10  1  0.000635  0.685817  0.401939  1
  Re  Re11  1  0.598924  0.598924  0.282748  1
  Re  Re12  1  0.804526  0.804526  0.180382  1
  Re  Re13  1  0.377361  0.195334  0.000692  1
  Re  Re14  1  0.195334  0.377361  0.000692  1
  Re  Re15  1  0.622080  0.816933  0.622311  1
  Re  Re16  1  0.377594  0.000649  0.195221  1
  Re  Re17  1  0.000649  0.377594  0.195221  1
  Re  Re18  1  0.816933  0.622080  0.622311  1
  Re  Re19  1  0.181417  0.804898  0.805102  1
  Re  Re20  1  0.804898  0.181417  0.805102  1
  Re  Re21  1  0.195107  0.000779  0.376873  1
  Re  Re22  1  0.000779  0.195107  0.376873  1
  Re  Re23  1  0.620898  0.620898  0.815930  1
  Tc  Tc24  1  0.315122  0.315122  0.716967  1
  Mo  Mo25  1  0.999254  0.999254  0.635336  1
  Mo  Mo26  1  0.635016  0.999091  0.998627  1
  Mo  Mo27  1  0.999091  0.635016  0.998627  1
  Mo  Mo28  1  0.364521  0.364521  0.365044  1
