# generated using pymatgen
data_YbCe3Os8
_symmetry_space_group_name_H-M   'P 1'
_cell_length_a   5.34417200
_cell_length_b   5.34417088
_cell_length_c   8.88703000
_cell_angle_alpha   90.00000000
_cell_angle_beta   90.00000000
_cell_angle_gamma   119.99999454
_symmetry_Int_Tables_number   1
_chemical_formula_structural   YbCe3Os8
_chemical_formula_sum   'Yb1 Ce3 Os8'
_cell_volume   219.81031340
_cell_formula_units_Z   1
loop_
 _symmetry_equiv_pos_site_id
 _symmetry_equiv_pos_as_xyz
  1  'x, y, z'
loop_
 _atom_site_type_symbol
 _atom_site_label
 _atom_site_symmetry_multiplicity
 _atom_site_fract_x
 _atom_site_fract_y
 _atom_site_fract_z
 _atom_site_occupancy
  Yb  Yb0  1  0.333333  0.666667  0.066309  1
  Ce  Ce1  1  0.333333  0.666667  0.425555  1
  Ce  Ce2  1  0.666667  0.333333  0.570224  1
  Ce  Ce3  1  0.666667  0.333333  0.933232  1
  Os  Os4  1  0.000000  0.000000  0.500862  1
  Os  Os5  1  0.000000  0.000000  0.002585  1
  Os  Os6  1  0.829071  0.170929  0.248488  1
  Os  Os7  1  0.829071  0.658141  0.248488  1
  Os  Os8  1  0.341859  0.170929  0.248488  1
  Os  Os9  1  0.171350  0.828650  0.751923  1
  Os  Os10  1  0.171350  0.342700  0.751923  1
  Os  Os11  1  0.657300  0.828650  0.751923  1
