# generated using pymatgen
data_Dy3YMn4(CuO5)4
_symmetry_space_group_name_H-M   'P 1'
_cell_length_a   5.65783400
_cell_length_b   7.52705408
_cell_length_c   8.47612010
_cell_angle_alpha   90.01715587
_cell_angle_beta   90.00000000
_cell_angle_gamma   90.00000000
_symmetry_Int_Tables_number   1
_chemical_formula_structural   Dy3YMn4(CuO5)4
_chemical_formula_sum   'Dy3 Y1 Mn4 Cu4 O20'
_cell_volume   360.97100595
_cell_formula_units_Z   1
loop_
 _symmetry_equiv_pos_site_id
 _symmetry_equiv_pos_as_xyz
  1  'x, y, z'
loop_
 _atom_site_type_symbol
 _atom_site_label
 _atom_site_symmetry_multiplicity
 _atom_site_fract_x
 _atom_site_fract_y
 _atom_site_fract_z
 _atom_site_occupancy
  Dy  Dy0  1  0.500000  0.351828  0.325899  1
  Dy  Dy1  1  0.500000  0.648168  0.674100  1
  Dy  Dy2  1  0.500000  0.148324  0.825869  1
  Y  Y3  1  0.500000  0.851670  0.174132  1
  Mn  Mn4  1  0.240567  0.000006  0.500031  1
  Mn  Mn5  1  0.759433  0.000006  0.500031  1
  Mn  Mn6  1  0.759430  0.499982  0.000002  1
  Mn  Mn7  1  0.240570  0.499982  0.000002  1
  Cu  Cu8  1  0.000000  0.072002  0.150300  1
  Cu  Cu9  1  0.000000  0.928016  0.849682  1
  Cu  Cu10  1  0.000000  0.428133  0.650290  1
  Cu  Cu11  1  0.000000  0.571889  0.349707  1
  O  O12  1  0.227294  0.000200  0.999835  1
  O  O13  1  0.772706  0.000200  0.999835  1
  O  O14  1  0.772568  0.499995  0.500004  1
  O  O15  1  0.227432  0.499995  0.500004  1
  O  O16  1  0.000000  0.347730  0.062678  1
  O  O17  1  0.000000  0.652271  0.937319  1
  O  O18  1  0.000000  0.152292  0.562680  1
  O  O19  1  0.000000  0.847726  0.437321  1
  O  O20  1  0.257997  0.096436  0.287099  1
  O  O21  1  0.741827  0.903745  0.712955  1
  O  O22  1  0.258173  0.903745  0.712955  1
  O  O23  1  0.741910  0.403753  0.787019  1
  O  O24  1  0.742003  0.096436  0.287099  1
  O  O25  1  0.257826  0.595937  0.213010  1
  O  O26  1  0.742174  0.595937  0.213010  1
  O  O27  1  0.258090  0.403753  0.787019  1
  O  O28  1  0.500000  0.335341  0.052054  1
  O  O29  1  0.500000  0.664492  0.947731  1
  O  O30  1  0.500000  0.164668  0.552049  1
  O  O31  1  0.500000  0.835343  0.448276  1
