# generated using pymatgen
data_Gd8Ho12Si15Se
_symmetry_space_group_name_H-M   'P 1'
_cell_length_a   7.51830990
_cell_length_b   7.68908734
_cell_length_c   14.65318600
_cell_angle_alpha   89.70981969
_cell_angle_beta   86.76104463
_cell_angle_gamma   90.00840120
_symmetry_Int_Tables_number   1
_chemical_formula_structural   Gd8Ho12Si15Se
_chemical_formula_sum   'Gd8 Ho12 Si15 Se1'
_cell_volume   845.72109435
_cell_formula_units_Z   1
loop_
 _symmetry_equiv_pos_site_id
 _symmetry_equiv_pos_as_xyz
  1  'x, y, z'
loop_
 _atom_site_type_symbol
 _atom_site_label
 _atom_site_symmetry_multiplicity
 _atom_site_fract_x
 _atom_site_fract_y
 _atom_site_fract_z
 _atom_site_occupancy
  Gd  Gd0  1  0.020575  0.183146  0.099356  1
  Gd  Gd1  1  0.980316  0.819603  0.899322  1
  Gd  Gd2  1  0.480389  0.682804  0.899993  1
  Gd  Gd3  1  0.000324  0.823773  0.600528  1
  Gd  Gd4  1  0.520099  0.318352  0.099499  1
  Gd  Gd5  1  0.991968  0.172860  0.398334  1
  Gd  Gd6  1  0.501591  0.312077  0.399060  1
  Gd  Gd7  1  0.510012  0.685146  0.600949  1
  Ho  Ho8  1  0.171255  0.509281  0.752251  1
  Ho  Ho9  1  0.827697  0.492088  0.254121  1
  Ho  Ho10  1  0.327093  0.006519  0.253018  1
  Ho  Ho11  1  0.672623  0.992804  0.747801  1
  Ho  Ho12  1  0.358645  0.161865  0.621121  1
  Ho  Ho13  1  0.643492  0.833353  0.380034  1
  Ho  Ho14  1  0.142520  0.666033  0.380791  1
  Ho  Ho15  1  0.672912  0.821643  0.122070  1
  Ho  Ho16  1  0.852765  0.334302  0.618712  1
  Ho  Ho17  1  0.326511  0.178006  0.876774  1
  Ho  Ho18  1  0.827121  0.323284  0.876835  1
  Ho  Ho19  1  0.172530  0.677645  0.122407  1
  Si  Si20  1  0.045299  0.112947  0.749336  1
  Si  Si21  1  0.954111  0.887643  0.248472  1
  Si  Si22  1  0.453050  0.610013  0.249788  1
  Si  Si23  1  0.544872  0.390633  0.748829  1
  Si  Si24  1  0.288411  0.871973  0.750821  1
  Si  Si25  1  0.713143  0.125051  0.247812  1
  Si  Si26  1  0.213231  0.374058  0.249143  1
  Si  Si27  1  0.788417  0.627948  0.750751  1
  Si  Si28  1  0.792040  0.533313  0.456210  1
  Si  Si29  1  0.295872  0.964158  0.457797  1
  Si  Si30  1  0.853252  0.530168  0.039990  1
  Si  Si31  1  0.700080  0.036336  0.543386  1
  Si  Si32  1  0.147231  0.472256  0.958604  1
  Si  Si33  1  0.646029  0.030220  0.958771  1
  Si  Si34  1  0.353402  0.971240  0.040699  1
  Se  Se35  1  0.211125  0.467455  0.546615  1
