# generated using pymatgen
data_Ca2Ni7As4
_symmetry_space_group_name_H-M   'P 1'
_cell_length_a   3.82084100
_cell_length_b   9.54185600
_cell_length_c   10.66179200
_cell_angle_alpha   90.00000000
_cell_angle_beta   90.00000000
_cell_angle_gamma   90.00000000
_symmetry_Int_Tables_number   1
_chemical_formula_structural   Ca2Ni7As4
_chemical_formula_sum   'Ca4 Ni14 As8'
_cell_volume   388.70670244
_cell_formula_units_Z   2
loop_
 _symmetry_equiv_pos_site_id
 _symmetry_equiv_pos_as_xyz
  1  'x, y, z'
loop_
 _atom_site_type_symbol
 _atom_site_label
 _atom_site_symmetry_multiplicity
 _atom_site_fract_x
 _atom_site_fract_y
 _atom_site_fract_z
 _atom_site_occupancy
  Ca  Ca0  1  0.000000  0.558747  0.003220  1
  Ca  Ca1  1  0.500001  0.059598  0.283886  1
  Ca  Ca2  1  0.500001  0.441253  0.503221  1
  Ca  Ca3  1  0.000000  0.940403  0.783886  1
  Ni  Ni4  1  0.500001  0.306373  0.066993  1
  Ni  Ni5  1  0.000000  0.899340  0.077856  1
  Ni  Ni6  1  0.500001  0.727800  0.171292  1
  Ni  Ni7  1  0.000000  0.318564  0.262486  1
  Ni  Ni8  1  0.000000  0.581698  0.315339  1
  Ni  Ni9  1  0.500001  0.735990  0.404514  1
  Ni  Ni10  1  0.000000  0.944922  0.480908  1
  Ni  Ni11  1  0.000000  0.693627  0.566993  1
  Ni  Ni12  1  0.500001  0.100660  0.577855  1
  Ni  Ni13  1  0.000000  0.272200  0.671292  1
  Ni  Ni14  1  0.500001  0.681437  0.762486  1
  Ni  Ni15  1  0.500001  0.418302  0.815339  1
  Ni  Ni16  1  0.000000  0.264010  0.904514  1
  Ni  Ni17  1  0.500001  0.055079  0.980908  1
  As  As18  1  0.000000  0.153426  0.094002  1
  As  As19  1  0.500001  0.477124  0.219557  1
  As  As20  1  0.000000  0.820079  0.288041  1
  As  As21  1  0.000000  0.193068  0.463109  1
  As  As22  1  0.500001  0.846574  0.594001  1
  As  As23  1  0.000000  0.522876  0.719557  1
  As  As24  1  0.500001  0.179922  0.788040  1
  As  As25  1  0.500001  0.806933  0.963110  1
