# generated using pymatgen
data_Tb4Y3Ho(ReC2)4
_symmetry_space_group_name_H-M   'P 1'
_cell_length_a   5.13198600
_cell_length_b   6.60138909
_cell_length_c   9.89811014
_cell_angle_alpha   89.98077716
_cell_angle_beta   90.00000000
_cell_angle_gamma   90.00000000
_symmetry_Int_Tables_number   1
_chemical_formula_structural   Tb4Y3Ho(ReC2)4
_chemical_formula_sum   'Tb4 Y3 Ho1 Re4 C8'
_cell_volume   335.33049639
_cell_formula_units_Z   1
loop_
 _symmetry_equiv_pos_site_id
 _symmetry_equiv_pos_as_xyz
  1  'x, y, z'
loop_
 _atom_site_type_symbol
 _atom_site_label
 _atom_site_symmetry_multiplicity
 _atom_site_fract_x
 _atom_site_fract_y
 _atom_site_fract_z
 _atom_site_occupancy
  Tb  Tb0  1  0.750000  0.467066  0.784987  1
  Tb  Tb1  1  0.250000  0.032723  0.284156  1
  Tb  Tb2  1  0.750000  0.967393  0.715456  1
  Tb  Tb3  1  0.250000  0.532712  0.214843  1
  Y  Y4  1  0.750000  0.820595  0.056023  1
  Y  Y5  1  0.250000  0.679192  0.556468  1
  Y  Y6  1  0.750000  0.320509  0.443707  1
  Ho  Ho7  1  0.250000  0.178049  0.943515  1
  Re  Re8  1  0.750000  0.278337  0.134517  1
  Re  Re9  1  0.250000  0.221577  0.635430  1
  Re  Re10  1  0.750000  0.778532  0.364647  1
  Re  Re11  1  0.250000  0.721699  0.865362  1
  C  C12  1  0.750000  0.177311  0.951768  1
  C  C13  1  0.250000  0.824087  0.047778  1
  C  C14  1  0.750000  0.677942  0.547546  1
  C  C15  1  0.250000  0.322044  0.452574  1
  C  C16  1  0.750000  0.045708  0.259088  1
  C  C17  1  0.250000  0.453925  0.760348  1
  C  C18  1  0.750000  0.545604  0.240373  1
  C  C19  1  0.250000  0.954994  0.741413  1
