# generated using pymatgen
data_Tb2CePa(InRh2)2
_symmetry_space_group_name_H-M   'P 1'
_cell_length_a   7.69349541
_cell_length_b   7.69349532
_cell_length_c   3.66443600
_cell_angle_alpha   90.00000000
_cell_angle_beta   90.00000000
_cell_angle_gamma   94.44005067
_symmetry_Int_Tables_number   1
_chemical_formula_structural   Tb2CePa(InRh2)2
_chemical_formula_sum   'Tb2 Ce1 Pa1 In2 Rh4'
_cell_volume   216.24655864
_cell_formula_units_Z   1
loop_
 _symmetry_equiv_pos_site_id
 _symmetry_equiv_pos_as_xyz
  1  'x, y, z'
loop_
 _atom_site_type_symbol
 _atom_site_label
 _atom_site_symmetry_multiplicity
 _atom_site_fract_x
 _atom_site_fract_y
 _atom_site_fract_z
 _atom_site_occupancy
  Tb  Tb0  1  0.168787  0.331379  0.500000  1
  Tb  Tb1  1  0.831379  0.668787  0.500000  1
  Ce  Ce2  1  0.325254  0.825254  0.500000  1
  Pa  Pa3  1  0.664446  0.164446  0.500000  1
  In  In4  1  0.003401  0.000793  0.000000  1
  In  In5  1  0.500793  0.503401  0.000000  1
  Rh  Rh6  1  0.136909  0.636909  0.000000  1
  Rh  Rh7  1  0.850302  0.350302  0.000000  1
  Rh  Rh8  1  0.635148  0.883581  0.000000  1
  Rh  Rh9  1  0.383581  0.135148  0.000000  1
