# generated using pymatgen
data_Dy2Fe2P6Ir3Ru5
_symmetry_space_group_name_H-M   'P 1'
_cell_length_a   3.88788100
_cell_length_b   10.68733100
_cell_length_c   12.29964400
_cell_angle_alpha   90.00000000
_cell_angle_beta   90.00000000
_cell_angle_gamma   90.00000000
_symmetry_Int_Tables_number   1
_chemical_formula_structural   Dy2Fe2P6Ir3Ru5
_chemical_formula_sum   'Dy4 Fe4 P12 Ir6 Ru10'
_cell_volume   511.06338279
_cell_formula_units_Z   2
loop_
 _symmetry_equiv_pos_site_id
 _symmetry_equiv_pos_as_xyz
  1  'x, y, z'
loop_
 _atom_site_type_symbol
 _atom_site_label
 _atom_site_symmetry_multiplicity
 _atom_site_fract_x
 _atom_site_fract_y
 _atom_site_fract_z
 _atom_site_occupancy
  Dy  Dy0  1  0.250000  0.581517  0.707042  1
  Dy  Dy1  1  0.250000  0.918483  0.207042  1
  Dy  Dy2  1  0.750000  0.416413  0.291991  1
  Dy  Dy3  1  0.750000  0.083587  0.791991  1
  Fe  Fe4  1  0.250000  0.461591  0.936775  1
  Fe  Fe5  1  0.250000  0.038409  0.436775  1
  Fe  Fe6  1  0.750000  0.541203  0.064842  1
  Fe  Fe7  1  0.750000  0.958797  0.564842  1
  P  P8  1  0.250000  0.425275  0.108481  1
  P  P9  1  0.250000  0.074725  0.608481  1
  P  P10  1  0.750000  0.570629  0.893095  1
  P  P11  1  0.750000  0.929371  0.393095  1
  P  P12  1  0.250000  0.268840  0.869975  1
  P  P13  1  0.250000  0.231160  0.369975  1
  P  P14  1  0.750000  0.732952  0.127470  1
  P  P15  1  0.750000  0.767048  0.627470  1
  P  P16  1  0.250000  0.595956  0.395847  1
  P  P17  1  0.250000  0.904044  0.895847  1
  P  P18  1  0.750000  0.397879  0.605446  1
  P  P19  1  0.750000  0.102121  0.105446  1
  Ir  Ir20  1  0.750000  0.765056  0.820737  1
  Ir  Ir21  1  0.750000  0.734944  0.320737  1
  Ir  Ir22  1  0.250000  0.886778  0.703183  1
  Ir  Ir23  1  0.250000  0.613222  0.203183  1
  Ir  Ir24  1  0.750000  0.114070  0.298275  1
  Ir  Ir25  1  0.750000  0.385930  0.798275  1
  Ru  Ru26  1  0.250000  0.706894  0.984577  1
  Ru  Ru27  1  0.250000  0.793106  0.484577  1
  Ru  Ru28  1  0.750000  0.295808  0.015075  1
  Ru  Ru29  1  0.750000  0.204192  0.515075  1
  Ru  Ru30  1  0.250000  0.402627  0.486648  1
  Ru  Ru31  1  0.250000  0.097373  0.986648  1
  Ru  Ru32  1  0.750000  0.594972  0.512699  1
  Ru  Ru33  1  0.750000  0.905028  0.012699  1
  Ru  Ru34  1  0.250000  0.230858  0.177844  1
  Ru  Ru35  1  0.250000  0.269142  0.677844  1
