# generated using pymatgen
data_YbHo3MnFe3B16
_symmetry_space_group_name_H-M   'P 1'
_cell_length_a   3.35900400
_cell_length_b   5.88361341
_cell_length_c   11.38383837
_cell_angle_alpha   89.92287146
_cell_angle_beta   90.00000000
_cell_angle_gamma   90.00000000
_symmetry_Int_Tables_number   1
_chemical_formula_structural   YbHo3MnFe3B16
_chemical_formula_sum   'Yb1 Ho3 Mn1 Fe3 B16'
_cell_volume   224.97951585
_cell_formula_units_Z   1
loop_
 _symmetry_equiv_pos_site_id
 _symmetry_equiv_pos_as_xyz
  1  'x, y, z'
loop_
 _atom_site_type_symbol
 _atom_site_label
 _atom_site_symmetry_multiplicity
 _atom_site_fract_x
 _atom_site_fract_y
 _atom_site_fract_z
 _atom_site_occupancy
  Yb  Yb0  1  0.000000  0.374363  0.151670  1
  Ho  Ho1  1  0.000000  0.126646  0.648965  1
  Ho  Ho2  1  0.000000  0.872884  0.349368  1
  Ho  Ho3  1  0.000000  0.626858  0.849155  1
  Mn  Mn4  1  0.000000  0.129190  0.914701  1
  Fe  Fe5  1  0.000000  0.871648  0.084915  1
  Fe  Fe6  1  0.000000  0.633867  0.587576  1
  Fe  Fe7  1  0.000000  0.364967  0.412557  1
  B  B8  1  0.500000  0.363138  0.968672  1
  B  B9  1  0.500000  0.638306  0.032998  1
  B  B10  1  0.500000  0.860494  0.531612  1
  B  B11  1  0.500000  0.138638  0.468065  1
  B  B12  1  0.500000  0.475845  0.689852  1
  B  B13  1  0.500000  0.524427  0.309674  1
  B  B14  1  0.500000  0.974643  0.808729  1
  B  B15  1  0.500000  0.023039  0.190866  1
  B  B16  1  0.500000  0.284157  0.815591  1
  B  B17  1  0.500000  0.718547  0.183202  1
  B  B18  1  0.500000  0.781217  0.683406  1
  B  B19  1  0.500000  0.218965  0.316263  1
  B  B20  1  0.500000  0.388389  0.545869  1
  B  B21  1  0.500000  0.610841  0.453617  1
  B  B22  1  0.500000  0.886681  0.954992  1
  B  B23  1  0.500000  0.112249  0.047687  1
