# generated using pymatgen
data_Tb17Y3(Bi2Rh)4
_symmetry_space_group_name_H-M   'P 1'
_cell_length_a   8.07886213
_cell_length_b   9.01357400
_cell_length_c   12.53250420
_cell_angle_alpha   90.00000000
_cell_angle_beta   89.97940165
_cell_angle_gamma   90.00000000
_symmetry_Int_Tables_number   1
_chemical_formula_structural   Tb17Y3(Bi2Rh)4
_chemical_formula_sum   'Tb17 Y3 Bi8 Rh4'
_cell_volume   912.60964886
_cell_formula_units_Z   1
loop_
 _symmetry_equiv_pos_site_id
 _symmetry_equiv_pos_as_xyz
  1  'x, y, z'
loop_
 _atom_site_type_symbol
 _atom_site_label
 _atom_site_symmetry_multiplicity
 _atom_site_fract_x
 _atom_site_fract_y
 _atom_site_fract_z
 _atom_site_occupancy
  Tb  Tb0  1  0.657755  0.750000  0.294376  1
  Tb  Tb1  1  0.375783  0.750000  0.694582  1
  Tb  Tb2  1  0.624234  0.250000  0.305365  1
  Tb  Tb3  1  0.875757  0.250000  0.805381  1
  Tb  Tb4  1  0.124338  0.750000  0.194633  1
  Tb  Tb5  1  0.955086  0.750000  0.501198  1
  Tb  Tb6  1  0.045030  0.250000  0.498747  1
  Tb  Tb7  1  0.454939  0.250000  0.998803  1
  Tb  Tb8  1  0.544947  0.750000  0.001205  1
  Tb  Tb9  1  0.678596  0.039802  0.565720  1
  Tb  Tb10  1  0.321364  0.960475  0.434327  1
  Tb  Tb11  1  0.178644  0.960329  0.934354  1
  Tb  Tb12  1  0.321364  0.539525  0.434327  1
  Tb  Tb13  1  0.821423  0.039680  0.065634  1
  Tb  Tb14  1  0.678596  0.460198  0.565720  1
  Tb  Tb15  1  0.821423  0.460320  0.065634  1
  Tb  Tb16  1  0.178644  0.539671  0.934354  1
  Y  Y17  1  0.842052  0.750000  0.793937  1
  Y  Y18  1  0.158022  0.250000  0.206095  1
  Y  Y19  1  0.342001  0.250000  0.706138  1
  Bi  Bi20  1  0.570520  0.491620  0.826282  1
  Bi  Bi21  1  0.429308  0.508202  0.173655  1
  Bi  Bi22  1  0.070517  0.508407  0.673708  1
  Bi  Bi23  1  0.429308  0.991798  0.173655  1
  Bi  Bi24  1  0.929665  0.491499  0.326310  1
  Bi  Bi25  1  0.570520  0.008380  0.826282  1
  Bi  Bi26  1  0.929665  0.008501  0.326310  1
  Bi  Bi27  1  0.070517  0.991593  0.673708  1
  Rh  Rh28  1  0.568906  0.750000  0.510155  1
  Rh  Rh29  1  0.431122  0.250000  0.489407  1
  Rh  Rh30  1  0.068758  0.250000  0.989393  1
  Rh  Rh31  1  0.931197  0.750000  0.010607  1
