# generated using pymatgen
data_Nd3CdPt2(RhO7)2
_symmetry_space_group_name_H-M   'P 1'
_cell_length_a   7.24719976
_cell_length_b   7.27787372
_cell_length_c   7.27787200
_cell_angle_alpha   61.86103713
_cell_angle_beta   61.78825480
_cell_angle_gamma   61.78825884
_symmetry_Int_Tables_number   1
_chemical_formula_structural   Nd3CdPt2(RhO7)2
_chemical_formula_sum   'Nd3 Cd1 Pt2 Rh2 O14'
_cell_volume   282.45289873
_cell_formula_units_Z   1
loop_
 _symmetry_equiv_pos_site_id
 _symmetry_equiv_pos_as_xyz
  1  'x, y, z'
loop_
 _atom_site_type_symbol
 _atom_site_label
 _atom_site_symmetry_multiplicity
 _atom_site_fract_x
 _atom_site_fract_y
 _atom_site_fract_z
 _atom_site_occupancy
  Nd  Nd0  1  0.625000  0.625000  0.125000  1
  Nd  Nd1  1  0.625000  0.125000  0.625000  1
  Nd  Nd2  1  0.125000  0.625000  0.625000  1
  Cd  Cd3  1  0.625000  0.625000  0.625000  1
  Pt  Pt4  1  0.625000  0.125000  0.125000  1
  Pt  Pt5  1  0.125000  0.125000  0.125000  1
  Rh  Rh6  1  0.125000  0.125000  0.625000  1
  Rh  Rh7  1  0.125000  0.625000  0.125000  1
  O  O8  1  0.503162  0.501903  0.501903  1
  O  O9  1  0.746838  0.748097  0.748097  1
  O  O10  1  0.451597  0.045883  0.452703  1
  O  O11  1  0.208754  0.792308  0.211945  1
  O  O12  1  0.451597  0.452703  0.045883  1
  O  O13  1  0.053563  0.448644  0.448644  1
  O  O14  1  0.460565  0.036672  0.036672  1
  O  O15  1  0.041246  0.038055  0.457692  1
  O  O16  1  0.041246  0.457692  0.038055  1
  O  O17  1  0.789435  0.213328  0.213328  1
  O  O18  1  0.196437  0.801356  0.801356  1
  O  O19  1  0.798403  0.204117  0.797297  1
  O  O20  1  0.208754  0.211945  0.792308  1
  O  O21  1  0.798403  0.797297  0.204117  1
