# generated using pymatgen
data_Nd3Sm5(Dy3Si4)4
_symmetry_space_group_name_H-M   'P 1'
_cell_length_a   7.72471914
_cell_length_b   7.72617859
_cell_length_c   14.29154900
_cell_angle_alpha   89.98478278
_cell_angle_beta   89.94066981
_cell_angle_gamma   90.04432328
_symmetry_Int_Tables_number   1
_chemical_formula_structural   Nd3Sm5(Dy3Si4)4
_chemical_formula_sum   'Nd3 Sm5 Dy12 Si16'
_cell_volume   852.95548238
_cell_formula_units_Z   1
loop_
 _symmetry_equiv_pos_site_id
 _symmetry_equiv_pos_as_xyz
  1  'x, y, z'
loop_
 _atom_site_type_symbol
 _atom_site_label
 _atom_site_symmetry_multiplicity
 _atom_site_fract_x
 _atom_site_fract_y
 _atom_site_fract_z
 _atom_site_occupancy
  Nd  Nd0  1  0.509096  0.140459  0.207242  1
  Nd  Nd1  1  0.490852  0.858378  0.708630  1
  Nd  Nd2  1  0.358407  0.008140  0.457809  1
  Sm  Sm3  1  0.992397  0.640128  0.041479  1
  Sm  Sm4  1  0.007270  0.360837  0.543174  1
  Sm  Sm5  1  0.639793  0.993254  0.957403  1
  Sm  Sm6  1  0.138709  0.508139  0.793086  1
  Sm  Sm7  1  0.861159  0.491497  0.292319  1
  Dy  Dy8  1  0.362181  0.489865  0.375358  1
  Dy  Dy9  1  0.862178  0.008146  0.374520  1
  Dy  Dy10  1  0.990503  0.136810  0.124621  1
  Dy  Dy11  1  0.009053  0.862190  0.626003  1
  Dy  Dy12  1  0.637591  0.510213  0.875667  1
  Dy  Dy13  1  0.491318  0.362216  0.624733  1
  Dy  Dy14  1  0.509632  0.637885  0.123763  1
  Dy  Dy15  1  0.137357  0.992604  0.874902  1
  Dy  Dy16  1  0.683126  0.682592  0.500415  1
  Dy  Dy17  1  0.816254  0.183314  0.750437  1
  Dy  Dy18  1  0.183441  0.816112  0.249765  1
  Dy  Dy19  1  0.316897  0.317335  0.000112  1
  Si  Si20  1  0.062936  0.706864  0.438729  1
  Si  Si21  1  0.936257  0.292672  0.938461  1
  Si  Si22  1  0.711189  0.066067  0.561247  1
  Si  Si23  1  0.207260  0.437163  0.188187  1
  Si  Si24  1  0.792579  0.563602  0.689088  1
  Si  Si25  1  0.434384  0.211056  0.811612  1
  Si  Si26  1  0.566623  0.787760  0.311012  1
  Si  Si27  1  0.290668  0.934768  0.060648  1
  Si  Si28  1  0.846993  0.797068  0.812171  1
  Si  Si29  1  0.152279  0.204043  0.309689  1
  Si  Si30  1  0.799382  0.842494  0.189306  1
  Si  Si31  1  0.295056  0.652041  0.560554  1
  Si  Si32  1  0.704056  0.346208  0.059583  1
  Si  Si33  1  0.656726  0.298075  0.439627  1
  Si  Si34  1  0.344852  0.703398  0.938793  1
  Si  Si35  1  0.201545  0.156605  0.689855  1
