# generated using pymatgen
data_Tb4Dy3Y5Co5Sb
_symmetry_space_group_name_H-M   'P 1'
_cell_length_a   8.31903318
_cell_length_b   8.32690433
_cell_length_c   8.31903274
_cell_angle_alpha   110.79382221
_cell_angle_beta   110.58586169
_cell_angle_gamma   107.02388700
_symmetry_Int_Tables_number   1
_chemical_formula_structural   Tb4Dy3Y5Co5Sb
_chemical_formula_sum   'Tb4 Dy3 Y5 Co5 Sb1'
_cell_volume   443.22073089
_cell_formula_units_Z   1
loop_
 _symmetry_equiv_pos_site_id
 _symmetry_equiv_pos_as_xyz
  1  'x, y, z'
loop_
 _atom_site_type_symbol
 _atom_site_label
 _atom_site_symmetry_multiplicity
 _atom_site_fract_x
 _atom_site_fract_y
 _atom_site_fract_z
 _atom_site_occupancy
  Tb  Tb0  1  0.600376  0.794339  0.807091  1
  Tb  Tb1  1  0.399207  0.205954  0.193121  1
  Tb  Tb2  1  0.987249  0.794339  0.193962  1
  Tb  Tb3  1  0.012832  0.205954  0.806748  1
  Dy  Dy4  1  0.312492  0.620531  0.308041  1
  Dy  Dy5  1  0.687431  0.995931  0.308500  1
  Dy  Dy6  1  0.312562  0.004336  0.691774  1
  Y  Y7  1  0.814093  0.708006  0.521861  1
  Y  Y8  1  0.185585  0.292159  0.478116  1
  Y  Y9  1  0.186145  0.708006  0.893912  1
  Y  Y10  1  0.814043  0.292159  0.106573  1
  Y  Y11  1  0.687387  0.380981  0.693594  1
  Co  Co12  1  0.622853  0.998534  0.622152  1
  Co  Co13  1  0.376382  0.998534  0.375682  1
  Co  Co14  1  0.112561  0.612832  0.500271  1
  Co  Co15  1  0.888838  0.388100  0.499261  1
  Co  Co16  1  0.999901  0.999469  0.999568  1
  Sb  Sb17  1  0.500062  0.499836  0.999774  1
