# generated using pymatgen
data_Y2Er8(InSb)3
_symmetry_space_group_name_H-M   'P 1'
_cell_length_a   8.91748409
_cell_length_b   8.90175196
_cell_length_c   6.51233400
_cell_angle_alpha   90.00000000
_cell_angle_beta   90.00000000
_cell_angle_gamma   120.07510005
_symmetry_Int_Tables_number   1
_chemical_formula_structural   Y2Er8(InSb)3
_chemical_formula_sum   'Y2 Er8 In3 Sb3'
_cell_volume   447.35879151
_cell_formula_units_Z   1
loop_
 _symmetry_equiv_pos_site_id
 _symmetry_equiv_pos_as_xyz
  1  'x, y, z'
loop_
 _atom_site_type_symbol
 _atom_site_label
 _atom_site_symmetry_multiplicity
 _atom_site_fract_x
 _atom_site_fract_y
 _atom_site_fract_z
 _atom_site_occupancy
  Y  Y0  1  0.002632  0.763497  0.750000  1
  Y  Y1  1  0.761896  0.000030  0.750000  1
  Er  Er2  1  0.003656  0.238895  0.250000  1
  Er  Er3  1  0.764333  0.760880  0.250000  1
  Er  Er4  1  0.239591  0.236353  0.750000  1
  Er  Er5  1  0.237530  0.000379  0.250000  1
  Er  Er6  1  0.330492  0.665941  0.498880  1
  Er  Er7  1  0.664584  0.333778  0.000713  1
  Er  Er8  1  0.664584  0.333778  0.499287  1
  Er  Er9  1  0.330492  0.665941  0.001120  1
  In  In10  1  0.397496  0.000381  0.750000  1
  In  In11  1  0.395221  0.397705  0.250000  1
  In  In12  1  0.997827  0.602452  0.250000  1
  Sb  Sb13  1  0.997293  0.391786  0.750000  1
  Sb  Sb14  1  0.605254  0.608106  0.750000  1
  Sb  Sb15  1  0.607116  0.000099  0.250000  1
