# generated using pymatgen
data_Dy4IrPd3Pb2
_symmetry_space_group_name_H-M   'P 1'
_cell_length_a   7.89278689
_cell_length_b   7.89278689
_cell_length_c   3.63632900
_cell_angle_alpha   90.00000000
_cell_angle_beta   90.00000000
_cell_angle_gamma   89.90200000
_symmetry_Int_Tables_number   1
_chemical_formula_structural   Dy4IrPd3Pb2
_chemical_formula_sum   'Dy4 Ir1 Pd3 Pb2'
_cell_volume   226.52872850
_cell_formula_units_Z   1
loop_
 _symmetry_equiv_pos_site_id
 _symmetry_equiv_pos_as_xyz
  1  'x, y, z'
loop_
 _atom_site_type_symbol
 _atom_site_label
 _atom_site_symmetry_multiplicity
 _atom_site_fract_x
 _atom_site_fract_y
 _atom_site_fract_z
 _atom_site_occupancy
  Dy  Dy0  1  0.655905  0.174823  0.500000  1
  Dy  Dy1  1  0.180732  0.319268  0.500000  1
  Dy  Dy2  1  0.832049  0.667951  0.500000  1
  Dy  Dy3  1  0.325177  0.844095  0.500000  1
  Ir  Ir4  1  0.377963  0.122037  0.000000  1
  Pd  Pd5  1  0.126700  0.624758  0.000000  1
  Pd  Pd6  1  0.631314  0.868686  0.000000  1
  Pd  Pd7  1  0.875242  0.373300  0.000000  1
  Pb  Pb8  1  0.995963  0.001045  0.000000  1
  Pb  Pb9  1  0.498955  0.504037  0.000000  1
