# generated using pymatgen
data_Pr4Hg2Pd3Rh
_symmetry_space_group_name_H-M   'P 1'
_cell_length_a   7.83604628
_cell_length_b   7.83604706
_cell_length_c   3.94437700
_cell_angle_alpha   90.00000000
_cell_angle_beta   90.00000000
_cell_angle_gamma   89.83903004
_symmetry_Int_Tables_number   1
_chemical_formula_structural   Pr4Hg2Pd3Rh
_chemical_formula_sum   'Pr4 Hg2 Pd3 Rh1'
_cell_volume   242.19809994
_cell_formula_units_Z   1
loop_
 _symmetry_equiv_pos_site_id
 _symmetry_equiv_pos_as_xyz
  1  'x, y, z'
loop_
 _atom_site_type_symbol
 _atom_site_label
 _atom_site_symmetry_multiplicity
 _atom_site_fract_x
 _atom_site_fract_y
 _atom_site_fract_z
 _atom_site_occupancy
  Pr  Pr0  1  0.323824  0.834249  0.500000  1
  Pr  Pr1  1  0.826563  0.673437  0.500000  1
  Pr  Pr2  1  0.182157  0.317843  0.500000  1
  Pr  Pr3  1  0.665751  0.176176  0.500000  1
  Hg  Hg4  1  0.000511  0.000385  0.000000  1
  Hg  Hg5  1  0.499615  0.499489  0.000000  1
  Pd  Pd6  1  0.873855  0.372263  0.000000  1
  Pd  Pd7  1  0.127737  0.626145  0.000000  1
  Pd  Pd8  1  0.628265  0.871735  0.000000  1
  Rh  Rh9  1  0.371722  0.128278  0.000000  1
