# generated using pymatgen
data_NaSr(SmB12)2
_symmetry_space_group_name_H-M   'P 1'
_cell_length_a   7.17990479
_cell_length_b   7.17990512
_cell_length_c   5.87089600
_cell_angle_alpha   90.00000000
_cell_angle_beta   90.00000000
_cell_angle_gamma   109.36594342
_symmetry_Int_Tables_number   1
_chemical_formula_structural   NaSr(SmB12)2
_chemical_formula_sum   'Na1 Sr1 Sm2 B24'
_cell_volume   285.52676389
_cell_formula_units_Z   1
loop_
 _symmetry_equiv_pos_site_id
 _symmetry_equiv_pos_as_xyz
  1  'x, y, z'
loop_
 _atom_site_type_symbol
 _atom_site_label
 _atom_site_symmetry_multiplicity
 _atom_site_fract_x
 _atom_site_fract_y
 _atom_site_fract_z
 _atom_site_occupancy
  Na  Na0  1  0.748744  0.251256  0.500000  1
  Sr  Sr1  1  0.998316  0.001684  0.000000  1
  Sm  Sm2  1  0.501181  0.498819  0.000000  1
  Sm  Sm3  1  0.251302  0.748698  0.500000  1
  B  B4  1  0.175896  0.325996  0.648706  1
  B  B5  1  0.925357  0.574200  0.149964  1
  B  B6  1  0.674004  0.824104  0.648706  1
  B  B7  1  0.425800  0.074643  0.149964  1
  B  B8  1  0.175896  0.325996  0.351294  1
  B  B9  1  0.925357  0.574200  0.850036  1
  B  B10  1  0.674004  0.824104  0.351294  1
  B  B11  1  0.425800  0.074643  0.850036  1
  B  B12  1  0.400951  0.398942  0.500000  1
  B  B13  1  0.149369  0.650041  0.000000  1
  B  B14  1  0.898267  0.899659  0.500000  1
  B  B15  1  0.649312  0.149054  0.000000  1
  B  B16  1  0.325861  0.175743  0.648810  1
  B  B17  1  0.075246  0.426296  0.149918  1
  B  B18  1  0.824257  0.674139  0.648810  1
  B  B19  1  0.573704  0.924754  0.149918  1
  B  B20  1  0.100341  0.101733  0.500000  1
  B  B21  1  0.850946  0.350688  0.000000  1
  B  B22  1  0.601058  0.599049  0.500000  1
  B  B23  1  0.349959  0.850631  0.000000  1
  B  B24  1  0.325861  0.175743  0.351190  1
  B  B25  1  0.075246  0.426296  0.850082  1
  B  B26  1  0.824257  0.674139  0.351190  1
  B  B27  1  0.573704  0.924754  0.850082  1
