# generated using pymatgen
data_Li3Nd3CdSn4
_symmetry_space_group_name_H-M   'P 1'
_cell_length_a   8.84381262
_cell_length_b   8.92029769
_cell_length_c   8.92029948
_cell_angle_alpha   149.30900916
_cell_angle_beta   130.96760685
_cell_angle_gamma   59.04575403
_symmetry_Int_Tables_number   1
_chemical_formula_structural   Li3Nd3CdSn4
_chemical_formula_sum   'Li3 Nd3 Cd1 Sn4'
_cell_volume   268.97048526
_cell_formula_units_Z   1
loop_
 _symmetry_equiv_pos_site_id
 _symmetry_equiv_pos_as_xyz
  1  'x, y, z'
loop_
 _atom_site_type_symbol
 _atom_site_label
 _atom_site_symmetry_multiplicity
 _atom_site_fract_x
 _atom_site_fract_y
 _atom_site_fract_z
 _atom_site_occupancy
  Li  Li0  1  0.361618  0.673112  0.688506  1
  Li  Li1  1  0.021317  0.329522  0.691796  1
  Li  Li2  1  0.989444  0.671590  0.317853  1
  Nd  Nd3  1  0.360776  0.872802  0.487974  1
  Nd  Nd4  1  0.625590  0.126190  0.499399  1
  Nd  Nd5  1  0.997522  0.997984  0.999539  1
  Cd  Cd6  1  0.635978  0.327628  0.308350  1
  Sn  Sn7  1  0.202706  0.213030  0.989676  1
  Sn  Sn8  1  0.805230  0.782287  0.022944  1
  Sn  Sn9  1  0.698496  0.505040  0.193455  1
  Sn  Sn10  1  0.301324  0.500815  0.800508  1
