# generated using pymatgen
data_Ca10AlReN10
_symmetry_space_group_name_H-M   'P 1'
_cell_length_a   6.90356652
_cell_length_b   6.90356555
_cell_length_c   8.79404251
_cell_angle_alpha   81.33981072
_cell_angle_beta   81.33981336
_cell_angle_gamma   60.22578964
_symmetry_Int_Tables_number   1
_chemical_formula_structural   Ca10AlReN10
_chemical_formula_sum   'Ca10 Al1 Re1 N10'
_cell_volume   358.23556166
_cell_formula_units_Z   1
loop_
 _symmetry_equiv_pos_site_id
 _symmetry_equiv_pos_as_xyz
  1  'x, y, z'
loop_
 _atom_site_type_symbol
 _atom_site_label
 _atom_site_symmetry_multiplicity
 _atom_site_fract_x
 _atom_site_fract_y
 _atom_site_fract_z
 _atom_site_occupancy
  Ca  Ca0  1  0.888256  0.359057  0.833459  1
  Ca  Ca1  1  0.877878  0.877878  0.816135  1
  Ca  Ca2  1  0.734924  0.734924  0.544011  1
  Ca  Ca3  1  0.738855  0.257648  0.523464  1
  Ca  Ca4  1  0.616750  0.139995  0.133650  1
  Ca  Ca5  1  0.359057  0.888256  0.833459  1
  Ca  Ca6  1  0.257648  0.738855  0.523464  1
  Ca  Ca7  1  0.243153  0.243153  0.507740  1
  Ca  Ca8  1  0.141417  0.141417  0.160355  1
  Ca  Ca9  1  0.139995  0.616750  0.133650  1
  Al  Al10  1  0.369595  0.369595  0.771140  1
  Re  Re11  1  0.633027  0.633027  0.227593  1
  N  N12  1  0.904877  0.474229  0.316866  1
  N  N13  1  0.991123  0.991123  0.030670  1
  N  N14  1  0.682312  0.682312  0.020540  1
  N  N15  1  0.538787  0.538787  0.696803  1
  N  N16  1  0.474229  0.904877  0.316866  1
  N  N17  1  0.544725  0.081085  0.668247  1
  N  N18  1  0.475165  0.475165  0.286810  1
  N  N19  1  0.307969  0.307969  0.984502  1
  N  N20  1  0.061459  0.061459  0.648135  1
  N  N21  1  0.081085  0.544725  0.668247  1
