# generated using pymatgen
data_NdY3Sb10
_symmetry_space_group_name_H-M   'P 1'
_cell_length_a   4.28070400
_cell_length_b   13.34097477
_cell_length_c   14.86894201
_cell_angle_alpha   77.81464277
_cell_angle_beta   90.00000000
_cell_angle_gamma   90.00000000
_symmetry_Int_Tables_number   1
_chemical_formula_structural   NdY3Sb10
_chemical_formula_sum   'Nd2 Y6 Sb20'
_cell_volume   830.01551042
_cell_formula_units_Z   2
loop_
 _symmetry_equiv_pos_site_id
 _symmetry_equiv_pos_as_xyz
  1  'x, y, z'
loop_
 _atom_site_type_symbol
 _atom_site_label
 _atom_site_symmetry_multiplicity
 _atom_site_fract_x
 _atom_site_fract_y
 _atom_site_fract_z
 _atom_site_occupancy
  Nd  Nd0  1  0.250000  0.950799  0.360174  1
  Nd  Nd1  1  0.750000  0.049201  0.639826  1
  Y  Y2  1  0.250000  0.399920  0.772791  1
  Y  Y3  1  0.750000  0.600080  0.227209  1
  Y  Y4  1  0.250000  0.663553  0.856039  1
  Y  Y5  1  0.750000  0.336447  0.143961  1
  Y  Y6  1  0.250000  0.667684  0.576895  1
  Y  Y7  1  0.750000  0.332316  0.423105  1
  Sb  Sb8  1  0.250000  0.147246  0.781981  1
  Sb  Sb9  1  0.750000  0.852754  0.218019  1
  Sb  Sb10  1  0.250000  0.147579  0.477963  1
  Sb  Sb11  1  0.750000  0.852421  0.522037  1
  Sb  Sb12  1  0.250000  0.152939  0.175671  1
  Sb  Sb13  1  0.750000  0.847061  0.824329  1
  Sb  Sb14  1  0.250000  0.420479  0.976612  1
  Sb  Sb15  1  0.750000  0.579521  0.023388  1
  Sb  Sb16  1  0.750000  0.032745  0.894814  1
  Sb  Sb17  1  0.250000  0.967255  0.105186  1
  Sb  Sb18  1  0.750000  0.141473  0.322998  1
  Sb  Sb19  1  0.250000  0.858527  0.677002  1
  Sb  Sb20  1  0.750000  0.283471  0.938434  1
  Sb  Sb21  1  0.250000  0.716529  0.061566  1
  Sb  Sb22  1  0.750000  0.295351  0.648800  1
  Sb  Sb23  1  0.250000  0.704649  0.351200  1
  Sb  Sb24  1  0.750000  0.578742  0.734788  1
  Sb  Sb25  1  0.250000  0.421258  0.265212  1
  Sb  Sb26  1  0.750000  0.574180  0.444182  1
  Sb  Sb27  1  0.250000  0.425820  0.555818  1
