# generated using pymatgen
data_Sr3Ga2SiGe
_symmetry_space_group_name_H-M   'P 1'
_cell_length_a   10.09320345
_cell_length_b   10.09320422
_cell_length_c   4.21422847
_cell_angle_alpha   102.02230185
_cell_angle_beta   102.02229530
_cell_angle_gamma   143.21669829
_symmetry_Int_Tables_number   1
_chemical_formula_structural   Sr3Ga2SiGe
_chemical_formula_sum   'Sr3 Ga2 Si1 Ge1'
_cell_volume   193.08804874
_cell_formula_units_Z   1
loop_
 _symmetry_equiv_pos_site_id
 _symmetry_equiv_pos_as_xyz
  1  'x, y, z'
loop_
 _atom_site_type_symbol
 _atom_site_label
 _atom_site_symmetry_multiplicity
 _atom_site_fract_x
 _atom_site_fract_y
 _atom_site_fract_z
 _atom_site_occupancy
  Sr  Sr0  1  0.816228  0.183772  0.000000  1
  Sr  Sr1  1  0.183170  0.816830  0.000000  1
  Sr  Sr2  1  0.000504  0.999496  0.500000  1
  Ga  Ga3  1  0.566246  0.433753  0.500000  1
  Ga  Ga4  1  0.435658  0.564341  0.500000  1
  Si  Si5  1  0.638758  0.361242  0.000000  1
  Ge  Ge6  1  0.359435  0.640565  0.000000  1
