# generated using pymatgen
data_RbAlZnAs2
_symmetry_space_group_name_H-M   'P 1'
_cell_length_a   8.07528391
_cell_length_b   8.07528435
_cell_length_c   8.07528421
_cell_angle_alpha   150.32182671
_cell_angle_beta   150.32183337
_cell_angle_gamma   42.46920514
_symmetry_Int_Tables_number   1
_chemical_formula_structural   RbAlZnAs2
_chemical_formula_sum   'Rb1 Al1 Zn1 As2'
_cell_volume   128.77609975
_cell_formula_units_Z   1
loop_
 _symmetry_equiv_pos_site_id
 _symmetry_equiv_pos_as_xyz
  1  'x, y, z'
loop_
 _atom_site_type_symbol
 _atom_site_label
 _atom_site_symmetry_multiplicity
 _atom_site_fract_x
 _atom_site_fract_y
 _atom_site_fract_z
 _atom_site_occupancy
  Rb  Rb0  1  0.000000  0.000000  0.000000  1
  Al  Al1  1  0.250000  0.750000  0.500000  1
  Zn  Zn2  1  0.750000  0.250000  0.500000  1
  As  As3  1  0.350559  0.350559  0.000000  1
  As  As4  1  0.649441  0.649441  0.000000  1
