# generated using pymatgen
data_PrY11Fe2I17
_symmetry_space_group_name_H-M   'P 1'
_cell_length_a   9.74728425
_cell_length_b   11.74334867
_cell_length_c   11.71250977
_cell_angle_alpha   93.52823867
_cell_angle_beta   104.66964944
_cell_angle_gamma   114.36112624
_symmetry_Int_Tables_number   1
_chemical_formula_structural   PrY11Fe2I17
_chemical_formula_sum   'Pr1 Y11 Fe2 I17'
_cell_volume   1160.34964926
_cell_formula_units_Z   1
loop_
 _symmetry_equiv_pos_site_id
 _symmetry_equiv_pos_as_xyz
  1  'x, y, z'
loop_
 _atom_site_type_symbol
 _atom_site_label
 _atom_site_symmetry_multiplicity
 _atom_site_fract_x
 _atom_site_fract_y
 _atom_site_fract_z
 _atom_site_occupancy
  Pr  Pr0  1  0.854503  0.713040  0.846914  1
  Y  Y1  1  0.051671  0.500604  0.321058  1
  Y  Y2  1  0.990957  0.810550  0.583779  1
  Y  Y3  1  0.653292  0.241529  0.282059  1
  Y  Y4  1  0.006887  0.191853  0.410057  1
  Y  Y5  1  0.220250  0.670157  0.986315  1
  Y  Y6  1  0.258207  0.981535  0.889830  1
  Y  Y7  1  0.338623  0.757826  0.720116  1
  Y  Y8  1  0.945916  0.492543  0.677397  1
  Y  Y9  1  0.746862  0.024452  0.111977  1
  Y  Y10  1  0.144656  0.288024  0.154369  1
  Y  Y11  1  0.782797  0.327820  0.018904  1
  Fe  Fe12  1  0.100778  0.737404  0.785961  1
  Fe  Fe13  1  0.896155  0.262174  0.214879  1
  I  I14  1  0.783043  0.529065  0.418600  1
  I  I15  1  0.642584  0.409677  0.759170  1
  I  I16  1  0.844970  0.895844  0.326476  1
  I  I17  1  0.329781  0.214049  0.368914  1
  I  I18  1  0.156439  0.104124  0.673045  1
  I  I19  1  0.585659  0.051021  0.841966  1
  I  I20  1  0.757765  0.187132  0.539916  1
  I  I21  1  0.546790  0.711428  0.954154  1
  I  I22  1  0.358377  0.582277  0.238498  1
  I  I23  1  0.217969  0.472634  0.584393  1
  I  I24  1  0.058954  0.368865  0.896248  1
  I  I25  1  0.448657  0.289823  0.045077  1
  I  I26  1  0.004713  0.004588  0.001234  1
  I  I27  1  0.243053  0.812218  0.462247  1
  I  I28  1  0.411534  0.945875  0.156282  1
  I  I29  1  0.670753  0.789906  0.622928  1
  I  I30  1  0.947402  0.631964  0.107240  1
