# generated using pymatgen
data_NbI29
_symmetry_space_group_name_H-M   'P 1'
_cell_length_a   12.11383006
_cell_length_b   14.54738519
_cell_length_c   17.49222400
_cell_angle_alpha   46.82660592
_cell_angle_beta   56.29537274
_cell_angle_gamma   62.84875093
_symmetry_Int_Tables_number   1
_chemical_formula_structural   NbI29
_chemical_formula_sum   'Nb1 I29'
_cell_volume   1855.19745426
_cell_formula_units_Z   1
loop_
 _symmetry_equiv_pos_site_id
 _symmetry_equiv_pos_as_xyz
  1  'x, y, z'
loop_
 _atom_site_type_symbol
 _atom_site_label
 _atom_site_symmetry_multiplicity
 _atom_site_fract_x
 _atom_site_fract_y
 _atom_site_fract_z
 _atom_site_occupancy
  Nb  Nb0  1  0.000000  0.000000  0.000000  1
  I  I1  1  0.500000  0.000000  0.000000  1
  I  I2  1  0.109358  0.209998  0.169466  1
  I  I3  1  0.708066  0.445785  0.386441  1
  I  I4  1  0.291934  0.554215  0.613559  1
  I  I5  1  0.581784  0.103381  0.245700  1
  I  I6  1  0.890642  0.790002  0.830534  1
  I  I7  1  0.329418  0.326741  0.401787  1
  I  I8  1  0.670582  0.673259  0.598213  1
  I  I9  1  0.418216  0.896619  0.754300  1
  I  I10  1  0.204259  0.138532  0.841048  1
  I  I11  1  0.557123  0.792909  0.985218  1
  I  I12  1  0.850283  0.193615  0.030650  1
  I  I13  1  0.106957  0.889191  0.161508  1
  I  I14  1  0.418762  0.573136  0.210074  1
  I  I15  1  0.893043  0.110809  0.838492  1
  I  I16  1  0.854072  0.153683  0.333238  1
  I  I17  1  0.149717  0.806385  0.969350  1
  I  I18  1  0.905478  0.746157  0.391798  1
  I  I19  1  0.442877  0.207091  0.014782  1
  I  I20  1  0.795741  0.861468  0.158952  1
  I  I21  1  0.509404  0.295696  0.605274  1
  I  I22  1  0.670881  0.974938  0.584397  1
  I  I23  1  0.930661  0.549598  0.178000  1
  I  I24  1  0.069339  0.450402  0.822000  1
  I  I25  1  0.329119  0.025062  0.415603  1
  I  I26  1  0.490596  0.704304  0.394726  1
  I  I27  1  0.094522  0.253843  0.608202  1
  I  I28  1  0.145928  0.846317  0.666762  1
  I  I29  1  0.581238  0.426864  0.789926  1
