# generated using pymatgen
data_PmPrSi3Au
_symmetry_space_group_name_H-M   'P 1'
_cell_length_a   5.94104229
_cell_length_b   5.94432031
_cell_length_c   5.94432100
_cell_angle_alpha   138.69508382
_cell_angle_beta   105.40641093
_cell_angle_gamma   89.04115233
_symmetry_Int_Tables_number   1
_chemical_formula_structural   PmPrSi3Au
_chemical_formula_sum   'Pm1 Pr1 Si3 Au1'
_cell_volume   127.95341237
_cell_formula_units_Z   1
loop_
 _symmetry_equiv_pos_site_id
 _symmetry_equiv_pos_as_xyz
  1  'x, y, z'
loop_
 _atom_site_type_symbol
 _atom_site_label
 _atom_site_symmetry_multiplicity
 _atom_site_fract_x
 _atom_site_fract_y
 _atom_site_fract_z
 _atom_site_occupancy
  Pm  Pm0  1  0.001895  0.002252  0.999644  1
  Pr  Pr1  1  0.497443  0.497875  0.999568  1
  Si  Si2  1  0.082982  0.749392  0.333588  1
  Si  Si3  1  0.921575  0.250423  0.671152  1
  Si  Si4  1  0.410339  0.749025  0.661313  1
  Au  Au5  1  0.585764  0.251031  0.334734  1
