# generated using pymatgen
data_DyLuPa2(Al3Rh)6
_symmetry_space_group_name_H-M   'P 1'
_cell_length_a   7.58856605
_cell_length_b   7.59431266
_cell_length_c   9.36710300
_cell_angle_alpha   90.00000000
_cell_angle_beta   90.00000000
_cell_angle_gamma   119.64344315
_symmetry_Int_Tables_number   1
_chemical_formula_structural   DyLuPa2(Al3Rh)6
_chemical_formula_sum   'Dy1 Lu1 Pa2 Al18 Rh6'
_cell_volume   469.17332411
_cell_formula_units_Z   1
loop_
 _symmetry_equiv_pos_site_id
 _symmetry_equiv_pos_as_xyz
  1  'x, y, z'
loop_
 _atom_site_type_symbol
 _atom_site_label
 _atom_site_symmetry_multiplicity
 _atom_site_fract_x
 _atom_site_fract_y
 _atom_site_fract_z
 _atom_site_occupancy
  Dy  Dy0  1  0.669932  0.993565  0.250000  1
  Lu  Lu1  1  0.329644  0.006467  0.750000  1
  Pa  Pa2  1  0.996998  0.670717  0.250000  1
  Pa  Pa3  1  0.003031  0.329228  0.750000  1
  Al  Al4  1  0.130175  0.126220  0.250000  1
  Al  Al5  1  0.870863  0.874215  0.750000  1
  Al  Al6  1  0.000404  0.331976  0.077463  1
  Al  Al7  1  0.000631  0.668991  0.921581  1
  Al  Al8  1  0.000631  0.668991  0.578419  1
  Al  Al9  1  0.337660  0.002485  0.425990  1
  Al  Al10  1  0.000404  0.331976  0.422537  1
  Al  Al11  1  0.661304  0.997414  0.575825  1
  Al  Al12  1  0.661304  0.997414  0.924175  1
  Al  Al13  1  0.337660  0.002485  0.074010  1
  Al  Al14  1  0.334786  0.332518  0.553792  1
  Al  Al15  1  0.665254  0.666767  0.447332  1
  Al  Al16  1  0.665254  0.666767  0.052668  1
  Al  Al17  1  0.334786  0.332518  0.946208  1
  Al  Al18  1  0.340198  0.548683  0.250000  1
  Al  Al19  1  0.659085  0.450130  0.750000  1
  Al  Al20  1  0.549255  0.341183  0.250000  1
  Al  Al21  1  0.450171  0.658968  0.750000  1
  Rh  Rh22  1  0.674971  0.329121  0.999369  1
  Rh  Rh23  1  0.324754  0.670855  0.000027  1
  Rh  Rh24  1  0.324754  0.670855  0.499973  1
  Rh  Rh25  1  0.674971  0.329121  0.500631  1
  Rh  Rh26  1  0.000559  0.000186  0.999560  1
  Rh  Rh27  1  0.000559  0.000186  0.500440  1
