# generated using pymatgen
data_HoFe2PC
_symmetry_space_group_name_H-M   'P 1'
_cell_length_a   5.47759566
_cell_length_b   5.47759584
_cell_length_c   6.65746400
_cell_angle_alpha   90.00000000
_cell_angle_beta   90.00000000
_cell_angle_gamma   141.15869034
_symmetry_Int_Tables_number   1
_chemical_formula_structural   HoFe2PC
_chemical_formula_sum   'Ho2 Fe4 P2 C2'
_cell_volume   125.27689267
_cell_formula_units_Z   2
loop_
 _symmetry_equiv_pos_site_id
 _symmetry_equiv_pos_as_xyz
  1  'x, y, z'
loop_
 _atom_site_type_symbol
 _atom_site_label
 _atom_site_symmetry_multiplicity
 _atom_site_fract_x
 _atom_site_fract_y
 _atom_site_fract_z
 _atom_site_occupancy
  Ho  Ho0  1  0.547886  0.452114  0.250000  1
  Ho  Ho1  1  0.452114  0.547886  0.750000  1
  Fe  Fe2  1  0.832744  0.167256  0.057341  1
  Fe  Fe3  1  0.167256  0.832744  0.942659  1
  Fe  Fe4  1  0.167256  0.832744  0.557341  1
  Fe  Fe5  1  0.832744  0.167256  0.442659  1
  P  P6  1  0.269560  0.730440  0.250000  1
  P  P7  1  0.730440  0.269560  0.750000  1
  C  C8  1  0.000000  0.000000  0.000000  1
  C  C9  1  0.000000  0.000000  0.500000  1
