# generated using pymatgen
data_YErGa(Co2P)6
_symmetry_space_group_name_H-M   'P 1'
_cell_length_a   9.08983700
_cell_length_b   9.08983733
_cell_length_c   3.58112500
_cell_angle_alpha   90.00000000
_cell_angle_beta   90.00000000
_cell_angle_gamma   119.99998790
_symmetry_Int_Tables_number   1
_chemical_formula_structural   YErGa(Co2P)6
_chemical_formula_sum   'Y1 Er1 Ga1 Co12 P6'
_cell_volume   256.24911348
_cell_formula_units_Z   1
loop_
 _symmetry_equiv_pos_site_id
 _symmetry_equiv_pos_as_xyz
  1  'x, y, z'
loop_
 _atom_site_type_symbol
 _atom_site_label
 _atom_site_symmetry_multiplicity
 _atom_site_fract_x
 _atom_site_fract_y
 _atom_site_fract_z
 _atom_site_occupancy
  Y  Y0  1  0.666667  0.333333  0.500000  1
  Er  Er1  1  0.333333  0.666667  0.000000  1
  Ga  Ga2  1  0.000000  0.000000  0.000000  1
  Co  Co3  1  0.129219  0.837728  0.000000  1
  Co  Co4  1  0.385748  0.439878  0.500000  1
  Co  Co5  1  0.708510  0.870781  0.000000  1
  Co  Co6  1  0.560122  0.945870  0.500000  1
  Co  Co7  1  0.255819  0.114500  0.500000  1
  Co  Co8  1  0.858680  0.744181  0.500000  1
  Co  Co9  1  0.885500  0.141320  0.500000  1
  Co  Co10  1  0.940586  0.378339  0.000000  1
  Co  Co11  1  0.621661  0.562247  0.000000  1
  Co  Co12  1  0.437753  0.059414  0.000000  1
  Co  Co13  1  0.054130  0.614252  0.500000  1
  Co  Co14  1  0.162272  0.291490  0.000000  1
  P  P15  1  0.597211  0.708446  0.500000  1
  P  P16  1  0.709006  0.112259  0.000000  1
  P  P17  1  0.887741  0.596747  0.000000  1
  P  P18  1  0.403253  0.290994  0.000000  1
  P  P19  1  0.291554  0.888765  0.500000  1
  P  P20  1  0.111235  0.402789  0.500000  1
