# generated using pymatgen
data_TbDy7Re2(B12Ir)2
_symmetry_space_group_name_H-M   'P 1'
_cell_length_a   3.67652900
_cell_length_b   9.17630399
_cell_length_c   11.56163101
_cell_angle_alpha   90.34319926
_cell_angle_beta   90.00000000
_cell_angle_gamma   90.00000000
_symmetry_Int_Tables_number   1
_chemical_formula_structural   TbDy7Re2(B12Ir)2
_chemical_formula_sum   'Tb1 Dy7 Re2 B24 Ir2'
_cell_volume   390.04714351
_cell_formula_units_Z   1
loop_
 _symmetry_equiv_pos_site_id
 _symmetry_equiv_pos_as_xyz
  1  'x, y, z'
loop_
 _atom_site_type_symbol
 _atom_site_label
 _atom_site_symmetry_multiplicity
 _atom_site_fract_x
 _atom_site_fract_y
 _atom_site_fract_z
 _atom_site_occupancy
  Tb  Tb0  1  0.000000  0.317957  0.409782  1
  Dy  Dy1  1  0.000000  0.682313  0.590318  1
  Dy  Dy2  1  0.000000  0.826939  0.082390  1
  Dy  Dy3  1  0.000000  0.173045  0.917585  1
  Dy  Dy4  1  0.000000  0.946138  0.372276  1
  Dy  Dy5  1  0.000000  0.053731  0.627759  1
  Dy  Dy6  1  0.000000  0.441828  0.125722  1
  Dy  Dy7  1  0.000000  0.558199  0.874249  1
  Re  Re8  1  0.000000  0.138257  0.179414  1
  Re  Re9  1  0.000000  0.861586  0.820436  1
  B  B10  1  0.500000  0.554300  0.433680  1
  B  B11  1  0.500000  0.445946  0.566460  1
  B  B12  1  0.500000  0.053291  0.067339  1
  B  B13  1  0.500000  0.946680  0.932629  1
  B  B14  1  0.500000  0.748953  0.421180  1
  B  B15  1  0.500000  0.251017  0.579056  1
  B  B16  1  0.500000  0.247298  0.080651  1
  B  B17  1  0.500000  0.752700  0.919296  1
  B  B18  1  0.500000  0.790731  0.266413  1
  B  B19  1  0.500000  0.209279  0.733625  1
  B  B20  1  0.500000  0.291930  0.233697  1
  B  B21  1  0.500000  0.707956  0.766117  1
  B  B22  1  0.500000  0.632192  0.184301  1
  B  B23  1  0.500000  0.367850  0.815695  1
  B  B24  1  0.500000  0.131918  0.314241  1
  B  B25  1  0.500000  0.867906  0.685641  1
  B  B26  1  0.500000  0.983427  0.212960  1
  B  B27  1  0.500000  0.016503  0.787019  1
  B  B28  1  0.500000  0.483241  0.287100  1
  B  B29  1  0.500000  0.517004  0.712826  1
  B  B30  1  0.500000  0.608583  0.030409  1
  B  B31  1  0.500000  0.391437  0.969572  1
  B  B32  1  0.500000  0.108816  0.470423  1
  B  B33  1  0.500000  0.890860  0.529666  1
  Ir  Ir34  1  0.000000  0.636873  0.322249  1
  Ir  Ir35  1  0.000000  0.363316  0.677824  1
