# generated using pymatgen
data_RbBe2I5
_symmetry_space_group_name_H-M   'P 1'
_cell_length_a   12.47868953
_cell_length_b   12.47869008
_cell_length_c   12.47868900
_cell_angle_alpha   60.00000021
_cell_angle_beta   59.99999875
_cell_angle_gamma   60.00000216
_symmetry_Int_Tables_number   1
_chemical_formula_structural   RbBe2I5
_chemical_formula_sum   'Rb4 Be8 I20'
_cell_volume   1374.01649121
_cell_formula_units_Z   4
loop_
 _symmetry_equiv_pos_site_id
 _symmetry_equiv_pos_as_xyz
  1  'x, y, z'
loop_
 _atom_site_type_symbol
 _atom_site_label
 _atom_site_symmetry_multiplicity
 _atom_site_fract_x
 _atom_site_fract_y
 _atom_site_fract_z
 _atom_site_occupancy
  Rb  Rb0  1  0.125000  0.625000  0.625000  1
  Rb  Rb1  1  0.625000  0.125000  0.625000  1
  Rb  Rb2  1  0.625000  0.625000  0.125000  1
  Rb  Rb3  1  0.625000  0.625000  0.625000  1
  Be  Be4  1  0.015590  0.328136  0.328136  1
  Be  Be5  1  0.328136  0.015590  0.328136  1
  Be  Be6  1  0.328136  0.328136  0.015590  1
  Be  Be7  1  0.328136  0.328136  0.328136  1
  Be  Be8  1  0.234410  0.921864  0.921864  1
  Be  Be9  1  0.921864  0.234410  0.921864  1
  Be  Be10  1  0.921864  0.921864  0.234410  1
  Be  Be11  1  0.921864  0.921864  0.921864  1
  I  I12  1  0.089415  0.089415  0.410585  1
  I  I13  1  0.410585  0.410585  0.089415  1
  I  I14  1  0.089415  0.410585  0.089415  1
  I  I15  1  0.410585  0.089415  0.410585  1
  I  I16  1  0.410585  0.089415  0.089415  1
  I  I17  1  0.089415  0.410585  0.410585  1
  I  I18  1  0.160585  0.160585  0.839415  1
  I  I19  1  0.839415  0.839415  0.160585  1
  I  I20  1  0.160585  0.839415  0.160585  1
  I  I21  1  0.839415  0.160585  0.839415  1
  I  I22  1  0.839415  0.160585  0.160585  1
  I  I23  1  0.160585  0.839415  0.839415  1
  I  I24  1  0.779017  0.406994  0.406994  1
  I  I25  1  0.406994  0.779017  0.406994  1
  I  I26  1  0.406994  0.406994  0.779017  1
  I  I27  1  0.406994  0.406994  0.406994  1
  I  I28  1  0.470983  0.843006  0.843006  1
  I  I29  1  0.843006  0.470983  0.843006  1
  I  I30  1  0.843006  0.843006  0.470983  1
  I  I31  1  0.843006  0.843006  0.843006  1
