# generated using pymatgen
data_Ho5TmNiI10
_symmetry_space_group_name_H-M   'P 1'
_cell_length_a   7.67576972
_cell_length_b   9.64236153
_cell_length_c   9.65772104
_cell_angle_alpha   107.03606110
_cell_angle_beta   96.89382323
_cell_angle_gamma   104.53521003
_symmetry_Int_Tables_number   1
_chemical_formula_structural   Ho5TmNiI10
_chemical_formula_sum   'Ho5 Tm1 Ni1 I10'
_cell_volume   646.92459667
_cell_formula_units_Z   1
loop_
 _symmetry_equiv_pos_site_id
 _symmetry_equiv_pos_as_xyz
  1  'x, y, z'
loop_
 _atom_site_type_symbol
 _atom_site_label
 _atom_site_symmetry_multiplicity
 _atom_site_fract_x
 _atom_site_fract_y
 _atom_site_fract_z
 _atom_site_occupancy
  Ho  Ho0  1  0.338295  0.119766  0.160313  1
  Ho  Ho1  1  0.661998  0.880304  0.839021  1
  Ho  Ho2  1  0.968963  0.277865  0.082360  1
  Ho  Ho3  1  0.031325  0.721537  0.916557  1
  Ho  Ho4  1  0.888309  0.959798  0.234774  1
  Tm  Tm5  1  0.110804  0.039555  0.766633  1
  Ni  Ni6  1  0.000255  0.999820  0.999622  1
  I  I7  1  0.350663  0.450353  0.272401  1
  I  I8  1  0.648760  0.549681  0.727866  1
  I  I9  1  0.773885  0.256089  0.344150  1
  I  I10  1  0.226046  0.745179  0.655584  1
  I  I11  1  0.544869  0.184925  0.906513  1
  I  I12  1  0.454626  0.815018  0.093350  1
  I  I13  1  0.743654  0.913297  0.537747  1
  I  I14  1  0.257395  0.087671  0.463603  1
  I  I15  1  0.914624  0.627300  0.180479  1
  I  I16  1  0.085530  0.371843  0.819027  1
