# generated using pymatgen
data_MgMn28
_symmetry_space_group_name_H-M   'P 1'
_cell_length_a   7.51843864
_cell_length_b   7.51843822
_cell_length_c   7.51843900
_cell_angle_alpha   109.47122003
_cell_angle_beta   109.47121892
_cell_angle_gamma   109.47122346
_symmetry_Int_Tables_number   1
_chemical_formula_structural   MgMn28
_chemical_formula_sum   'Mg1 Mn28'
_cell_volume   327.16066487
_cell_formula_units_Z   1
loop_
 _symmetry_equiv_pos_site_id
 _symmetry_equiv_pos_as_xyz
  1  'x, y, z'
loop_
 _atom_site_type_symbol
 _atom_site_label
 _atom_site_symmetry_multiplicity
 _atom_site_fract_x
 _atom_site_fract_y
 _atom_site_fract_z
 _atom_site_occupancy
  Mg  Mg0  1  0.000000  0.000000  0.000000  1
  Mn  Mn1  1  0.631138  0.000000  0.000000  1
  Mn  Mn2  1  0.000000  0.631138  0.000000  1
  Mn  Mn3  1  0.000000  0.000000  0.631138  1
  Mn  Mn4  1  0.368862  0.368862  0.368862  1
  Mn  Mn5  1  0.389412  0.676148  0.000000  1
  Mn  Mn6  1  0.713264  0.323852  0.323852  1
  Mn  Mn7  1  0.389412  0.000000  0.676148  1
  Mn  Mn8  1  0.676148  0.389412  0.000000  1
  Mn  Mn9  1  0.000000  0.389412  0.676148  1
  Mn  Mn10  1  0.323852  0.713264  0.323852  1
  Mn  Mn11  1  0.323852  0.323852  0.713264  1
  Mn  Mn12  1  0.000000  0.676148  0.389412  1
  Mn  Mn13  1  0.676148  0.000000  0.389412  1
  Mn  Mn14  1  0.610588  0.610588  0.286736  1
  Mn  Mn15  1  0.286736  0.610588  0.610588  1
  Mn  Mn16  1  0.610588  0.286736  0.610588  1
  Mn  Mn17  1  0.374500  0.196513  0.000000  1
  Mn  Mn18  1  0.177988  0.803487  0.803487  1
  Mn  Mn19  1  0.374500  0.000000  0.196513  1
  Mn  Mn20  1  0.196513  0.374500  0.000000  1
  Mn  Mn21  1  0.000000  0.374500  0.196513  1
  Mn  Mn22  1  0.803487  0.177988  0.803487  1
  Mn  Mn23  1  0.803487  0.803487  0.177988  1
  Mn  Mn24  1  0.000000  0.196513  0.374500  1
  Mn  Mn25  1  0.196513  0.000000  0.374500  1
  Mn  Mn26  1  0.625500  0.625500  0.822012  1
  Mn  Mn27  1  0.822012  0.625500  0.625500  1
  Mn  Mn28  1  0.625500  0.822012  0.625500  1
