# generated using pymatgen
data_Yb5YPa2(Pt2Pb)4
_symmetry_space_group_name_H-M   'P 1'
_cell_length_a   7.91757128
_cell_length_b   7.91757104
_cell_length_c   7.31033700
_cell_angle_alpha   90.00000000
_cell_angle_beta   90.00000000
_cell_angle_gamma   92.63222513
_symmetry_Int_Tables_number   1
_chemical_formula_structural   Yb5YPa2(Pt2Pb)4
_chemical_formula_sum   'Yb5 Y1 Pa2 Pt8 Pb4'
_cell_volume   457.78639520
_cell_formula_units_Z   1
loop_
 _symmetry_equiv_pos_site_id
 _symmetry_equiv_pos_as_xyz
  1  'x, y, z'
loop_
 _atom_site_type_symbol
 _atom_site_label
 _atom_site_symmetry_multiplicity
 _atom_site_fract_x
 _atom_site_fract_y
 _atom_site_fract_z
 _atom_site_occupancy
  Yb  Yb0  1  0.663573  0.664801  0.000000  1
  Yb  Yb1  1  0.335199  0.336427  0.000000  1
  Yb  Yb2  1  0.166766  0.833234  0.500000  1
  Yb  Yb3  1  0.831935  0.168065  0.000000  1
  Yb  Yb4  1  0.169354  0.830646  0.000000  1
  Y  Y5  1  0.832404  0.167596  0.500000  1
  Pa  Pa6  1  0.326887  0.328489  0.500000  1
  Pa  Pa7  1  0.671511  0.673113  0.500000  1
  Pt  Pt8  1  0.866896  0.866491  0.739380  1
  Pt  Pt9  1  0.133509  0.133104  0.739380  1
  Pt  Pt10  1  0.625921  0.374079  0.729462  1
  Pt  Pt11  1  0.625921  0.374079  0.270538  1
  Pt  Pt12  1  0.376621  0.623379  0.271036  1
  Pt  Pt13  1  0.133509  0.133104  0.260620  1
  Pt  Pt14  1  0.866896  0.866491  0.260620  1
  Pt  Pt15  1  0.376621  0.623379  0.728964  1
  Pb  Pb16  1  0.497106  0.998867  0.758316  1
  Pb  Pb17  1  0.497106  0.998867  0.241684  1
  Pb  Pb18  1  0.001133  0.502894  0.758316  1
  Pb  Pb19  1  0.001133  0.502894  0.241684  1
