# generated using pymatgen
data_Pr10Sn20IrPd7
_symmetry_space_group_name_H-M   'P 1'
_cell_length_a   14.32866502
_cell_length_b   14.34883102
_cell_length_c   4.68642700
_cell_angle_alpha   90.00000000
_cell_angle_beta   90.00000000
_cell_angle_gamma   90.00622156
_symmetry_Int_Tables_number   1
_chemical_formula_structural   Pr10Sn20IrPd7
_chemical_formula_sum   'Pr10 Sn20 Ir1 Pd7'
_cell_volume   963.52747883
_cell_formula_units_Z   1
loop_
 _symmetry_equiv_pos_site_id
 _symmetry_equiv_pos_as_xyz
  1  'x, y, z'
loop_
 _atom_site_type_symbol
 _atom_site_label
 _atom_site_symmetry_multiplicity
 _atom_site_fract_x
 _atom_site_fract_y
 _atom_site_fract_z
 _atom_site_occupancy
  Pr  Pr0  1  0.500264  0.498718  0.000000  1
  Pr  Pr1  1  0.999488  0.996049  0.000000  1
  Pr  Pr2  1  0.680296  0.179900  0.500000  1
  Pr  Pr3  1  0.319681  0.819023  0.500000  1
  Pr  Pr4  1  0.179740  0.320685  0.500000  1
  Pr  Pr5  1  0.822877  0.681807  0.500000  1
  Pr  Pr6  1  0.892385  0.393520  0.500000  1
  Pr  Pr7  1  0.105114  0.610805  0.500000  1
  Pr  Pr8  1  0.391618  0.108099  0.500000  1
  Pr  Pr9  1  0.609278  0.892102  0.500000  1
  Sn  Sn10  1  0.568837  0.068674  0.000000  1
  Sn  Sn11  1  0.430080  0.931229  0.000000  1
  Sn  Sn12  1  0.069142  0.432799  0.000000  1
  Sn  Sn13  1  0.931002  0.572108  0.000000  1
  Sn  Sn14  1  0.653109  0.700830  0.000000  1
  Sn  Sn15  1  0.347616  0.298538  0.000000  1
  Sn  Sn16  1  0.151443  0.797027  0.000000  1
  Sn  Sn17  1  0.848257  0.200518  0.000000  1
  Sn  Sn18  1  0.299302  0.652560  0.000000  1
  Sn  Sn19  1  0.701507  0.347065  0.000000  1
  Sn  Sn20  1  0.200204  0.151897  0.000000  1
  Sn  Sn21  1  0.800886  0.847278  0.000000  1
  Sn  Sn22  1  0.663010  0.501400  0.500000  1
  Sn  Sn23  1  0.336776  0.499892  0.500000  1
  Sn  Sn24  1  0.161498  0.996703  0.500000  1
  Sn  Sn25  1  0.837177  0.999773  0.500000  1
  Sn  Sn26  1  0.499828  0.662246  0.500000  1
  Sn  Sn27  1  0.501154  0.337582  0.500000  1
  Sn  Sn28  1  0.001275  0.162159  0.500000  1
  Sn  Sn29  1  0.996531  0.836942  0.500000  1
  Ir  Ir30  1  0.967771  0.756915  0.000000  1
  Pd  Pd31  1  0.744929  0.530937  0.000000  1
  Pd  Pd32  1  0.255976  0.467794  0.000000  1
  Pd  Pd33  1  0.243359  0.967942  0.000000  1
  Pd  Pd34  1  0.755549  0.031521  0.000000  1
  Pd  Pd35  1  0.469175  0.745387  0.000000  1
  Pd  Pd36  1  0.532180  0.255103  0.000000  1
  Pd  Pd37  1  0.031686  0.246473  0.000000  1
