# generated using pymatgen
data_ScPa3SnBi4
_symmetry_space_group_name_H-M   'P 1'
_cell_length_a   9.49119400
_cell_length_b   9.49119390
_cell_length_c   6.34645600
_cell_angle_alpha   90.00000000
_cell_angle_beta   90.00000000
_cell_angle_gamma   120.00000035
_symmetry_Int_Tables_number   1
_chemical_formula_structural   ScPa3SnBi4
_chemical_formula_sum   'Sc2 Pa6 Sn2 Bi8'
_cell_volume   495.11216815
_cell_formula_units_Z   2
loop_
 _symmetry_equiv_pos_site_id
 _symmetry_equiv_pos_as_xyz
  1  'x, y, z'
loop_
 _atom_site_type_symbol
 _atom_site_label
 _atom_site_symmetry_multiplicity
 _atom_site_fract_x
 _atom_site_fract_y
 _atom_site_fract_z
 _atom_site_occupancy
  Sc  Sc0  1  0.000000  0.000000  0.000000  1
  Sc  Sc1  1  0.000000  0.000000  0.500000  1
  Pa  Pa2  1  0.000000  0.609770  0.250000  1
  Pa  Pa3  1  0.390230  0.390230  0.250000  1
  Pa  Pa4  1  0.390230  0.000000  0.750000  1
  Pa  Pa5  1  0.609770  0.609770  0.750000  1
  Pa  Pa6  1  0.609770  0.000000  0.250000  1
  Pa  Pa7  1  0.000000  0.390230  0.750000  1
  Sn  Sn8  1  0.333333  0.666667  0.500000  1
  Sn  Sn9  1  0.666667  0.333333  0.000000  1
  Bi  Bi10  1  0.000000  0.269441  0.250000  1
  Bi  Bi11  1  0.333333  0.666667  0.000000  1
  Bi  Bi12  1  0.269441  0.269441  0.750000  1
  Bi  Bi13  1  0.730559  0.000000  0.750000  1
  Bi  Bi14  1  0.000000  0.730559  0.750000  1
  Bi  Bi15  1  0.730559  0.730559  0.250000  1
  Bi  Bi16  1  0.269441  0.000000  0.250000  1
  Bi  Bi17  1  0.666667  0.333333  0.500000  1
