# generated using pymatgen
data_NdDy4Mg2P12Ir17
_symmetry_space_group_name_H-M   'P 1'
_cell_length_a   12.68445301
_cell_length_b   12.85208780
_cell_length_c   3.98882500
_cell_angle_alpha   90.00000000
_cell_angle_beta   90.00000000
_cell_angle_gamma   119.57313519
_symmetry_Int_Tables_number   1
_chemical_formula_structural   NdDy4Mg2P12Ir17
_chemical_formula_sum   'Nd1 Dy4 Mg2 P12 Ir17'
_cell_volume   565.55270037
_cell_formula_units_Z   1
loop_
 _symmetry_equiv_pos_site_id
 _symmetry_equiv_pos_as_xyz
  1  'x, y, z'
loop_
 _atom_site_type_symbol
 _atom_site_label
 _atom_site_symmetry_multiplicity
 _atom_site_fract_x
 _atom_site_fract_y
 _atom_site_fract_z
 _atom_site_occupancy
  Nd  Nd0  1  0.003133  0.813044  0.000000  1
  Dy  Dy1  1  0.332345  0.663294  0.500000  1
  Dy  Dy2  1  0.669059  0.336369  0.500000  1
  Dy  Dy3  1  0.189880  0.187141  0.000000  1
  Dy  Dy4  1  0.809202  0.000274  0.000000  1
  Mg  Mg5  1  0.996912  0.441331  0.500000  1
  Mg  Mg6  1  0.553157  0.557242  0.500000  1
  P  P7  1  0.002038  0.639223  0.500000  1
  P  P8  1  0.360612  0.357137  0.500000  1
  P  P9  1  0.642660  0.000315  0.500000  1
  P  P10  1  0.513331  0.686249  0.000000  1
  P  P11  1  0.307426  0.822509  0.000000  1
  P  P12  1  0.168075  0.480445  0.000000  1
  P  P13  1  0.485384  0.177572  0.000000  1
  P  P14  1  0.686938  0.519411  0.000000  1
  P  P15  1  0.827732  0.313613  0.000000  1
  P  P16  1  0.998719  0.176033  0.500000  1
  P  P17  1  0.821572  0.824897  0.500000  1
  P  P18  1  0.181549  0.001987  0.500000  1
  Ir  Ir19  1  0.504175  0.866243  0.000000  1
  Ir  Ir20  1  0.127322  0.638520  0.000000  1
  Ir  Ir21  1  0.357110  0.493106  0.000000  1
  Ir  Ir22  1  0.487737  0.360868  0.000000  1
  Ir  Ir23  1  0.864415  0.506911  0.000000  1
  Ir  Ir24  1  0.638986  0.134143  0.000000  1
  Ir  Ir25  1  0.462779  0.000827  0.500000  1
  Ir  Ir26  1  0.996314  0.278653  0.000000  1
  Ir  Ir27  1  0.716223  0.722019  0.000000  1
  Ir  Ir28  1  0.290148  0.001331  0.000000  1
  Ir  Ir29  1  0.621905  0.807695  0.500000  1
  Ir  Ir30  1  0.206520  0.825540  0.500000  1
  Ir  Ir31  1  0.177170  0.366714  0.500000  1
  Ir  Ir32  1  0.378153  0.176171  0.500000  1
  Ir  Ir33  1  0.804348  0.628635  0.500000  1
  Ir  Ir34  1  0.815628  0.192960  0.500000  1
  Ir  Ir35  1  0.001343  0.001575  0.500000  1
