# generated using pymatgen
data_Li4ScPaS6
_symmetry_space_group_name_H-M   'P 1'
_cell_length_a   6.55862074
_cell_length_b   6.55862363
_cell_length_c   6.45121594
_cell_angle_alpha   99.74345476
_cell_angle_beta   99.74321368
_cell_angle_gamma   120.02116781
_symmetry_Int_Tables_number   1
_chemical_formula_structural   Li4ScPaS6
_chemical_formula_sum   'Li4 Sc1 Pa1 S6'
_cell_volume   226.08196527
_cell_formula_units_Z   1
loop_
 _symmetry_equiv_pos_site_id
 _symmetry_equiv_pos_as_xyz
  1  'x, y, z'
loop_
 _atom_site_type_symbol
 _atom_site_label
 _atom_site_symmetry_multiplicity
 _atom_site_fract_x
 _atom_site_fract_y
 _atom_site_fract_z
 _atom_site_occupancy
  Li  Li0  1  0.501589  0.498411  0.000000  1
  Li  Li1  1  0.994627  0.005372  0.500000  1
  Li  Li2  1  0.667961  0.332038  0.500001  1
  Li  Li3  1  0.334183  0.665817  0.500000  1
  Sc  Sc4  1  0.833517  0.166484  0.000001  1
  Pa  Pa5  1  0.166716  0.833285  0.000000  1
  S  S6  1  0.922463  0.575605  0.244114  1
  S  S7  1  0.586667  0.927276  0.244295  1
  S  S8  1  0.235685  0.240528  0.247700  1
  S  S9  1  0.759471  0.764316  0.752301  1
  S  S10  1  0.072726  0.413334  0.755706  1
  S  S11  1  0.424395  0.077536  0.755888  1
