# generated using pymatgen
data_TmLu5(AuO7)2
_symmetry_space_group_name_H-M   'P 1'
_cell_length_a   6.37237506
_cell_length_b   6.37237631
_cell_length_c   7.29109814
_cell_angle_alpha   90.01843620
_cell_angle_beta   89.98156081
_cell_angle_gamma   108.63220898
_symmetry_Int_Tables_number   1
_chemical_formula_structural   TmLu5(AuO7)2
_chemical_formula_sum   'Tm1 Lu5 Au2 O14'
_cell_volume   280.55346974
_cell_formula_units_Z   1
loop_
 _symmetry_equiv_pos_site_id
 _symmetry_equiv_pos_as_xyz
  1  'x, y, z'
loop_
 _atom_site_type_symbol
 _atom_site_label
 _atom_site_symmetry_multiplicity
 _atom_site_fract_x
 _atom_site_fract_y
 _atom_site_fract_z
 _atom_site_occupancy
  Tm  Tm0  1  0.496067  0.496067  0.000000  1
  Lu  Lu1  1  0.001923  0.471396  0.748043  1
  Lu  Lu2  1  0.998139  0.528529  0.249109  1
  Lu  Lu3  1  0.528529  0.998139  0.750891  1
  Lu  Lu4  1  0.471396  0.001923  0.251957  1
  Lu  Lu5  1  0.504677  0.504677  0.500000  1
  Au  Au6  1  0.999271  0.999271  0.500000  1
  Au  Au7  1  0.000667  0.000667  0.000000  1
  O  O8  1  0.640052  0.359944  0.748381  1
  O  O9  1  0.359944  0.640052  0.251619  1
  O  O10  1  0.915273  0.084682  0.749994  1
  O  O11  1  0.084682  0.915273  0.250006  1
  O  O12  1  0.913405  0.663603  0.523811  1
  O  O13  1  0.085398  0.336408  0.023735  1
  O  O14  1  0.336408  0.085398  0.976265  1
  O  O15  1  0.663603  0.913405  0.476189  1
  O  O16  1  0.366352  0.633702  0.748232  1
  O  O17  1  0.633702  0.366352  0.251768  1
  O  O18  1  0.917828  0.665780  0.973957  1
  O  O19  1  0.082897  0.334008  0.473889  1
  O  O20  1  0.334008  0.082897  0.526111  1
  O  O21  1  0.665780  0.917828  0.026043  1
