# generated using pymatgen
data_Er2Lu3ReOsC7
_symmetry_space_group_name_H-M   'P 1'
_cell_length_a   8.11904611
_cell_length_b   8.13215000
_cell_length_c   3.41027400
_cell_angle_alpha   90.00000000
_cell_angle_beta   90.00000000
_cell_angle_gamma   121.64234519
_symmetry_Int_Tables_number   1
_chemical_formula_structural   Er2Lu3ReOsC7
_chemical_formula_sum   'Er2 Lu3 Re1 Os1 C7'
_cell_volume   191.69130649
_cell_formula_units_Z   1
loop_
 _symmetry_equiv_pos_site_id
 _symmetry_equiv_pos_as_xyz
  1  'x, y, z'
loop_
 _atom_site_type_symbol
 _atom_site_label
 _atom_site_symmetry_multiplicity
 _atom_site_fract_x
 _atom_site_fract_y
 _atom_site_fract_z
 _atom_site_occupancy
  Er  Er0  1  0.335962  0.076262  0.500000  1
  Er  Er1  1  0.499882  0.501184  0.000000  1
  Lu  Lu2  1  0.661067  0.919965  0.500000  1
  Lu  Lu3  1  0.079072  0.340538  0.500000  1
  Lu  Lu4  1  0.921922  0.660250  0.500000  1
  Re  Re5  1  0.716662  0.283262  0.000000  1
  Os  Os6  1  0.286046  0.714333  0.000000  1
  C  C7  1  0.169063  0.173011  0.000000  1
  C  C8  1  0.829358  0.827910  0.000000  1
  C  C9  1  0.999734  0.000300  0.000000  1
  C  C10  1  0.371089  0.629285  0.500000  1
  C  C11  1  0.625586  0.375822  0.500000  1
  C  C12  1  0.503236  0.998627  0.000000  1
  C  C13  1  0.001322  0.499253  0.000000  1
