# generated using pymatgen
data_Dy2Sc2Al17GaIr6
_symmetry_space_group_name_H-M   'P 1'
_cell_length_a   7.51168186
_cell_length_b   7.51168141
_cell_length_c   9.40606100
_cell_angle_alpha   90.00000000
_cell_angle_beta   90.00000000
_cell_angle_gamma   119.44179156
_symmetry_Int_Tables_number   1
_chemical_formula_structural   Dy2Sc2Al17GaIr6
_chemical_formula_sum   'Dy2 Sc2 Al17 Ga1 Ir6'
_cell_volume   462.19819288
_cell_formula_units_Z   1
loop_
 _symmetry_equiv_pos_site_id
 _symmetry_equiv_pos_as_xyz
  1  'x, y, z'
loop_
 _atom_site_type_symbol
 _atom_site_label
 _atom_site_symmetry_multiplicity
 _atom_site_fract_x
 _atom_site_fract_y
 _atom_site_fract_z
 _atom_site_occupancy
  Dy  Dy0  1  0.993470  0.675366  0.250000  1
  Dy  Dy1  1  0.675366  0.993470  0.250000  1
  Sc  Sc2  1  0.003728  0.326166  0.750000  1
  Sc  Sc3  1  0.326166  0.003728  0.750000  1
  Al  Al4  1  0.876071  0.876071  0.750000  1
  Al  Al5  1  0.002426  0.335944  0.068619  1
  Al  Al6  1  0.002236  0.664061  0.918457  1
  Al  Al7  1  0.002236  0.664061  0.581543  1
  Al  Al8  1  0.335944  0.002426  0.431381  1
  Al  Al9  1  0.002426  0.335944  0.431381  1
  Al  Al10  1  0.664061  0.002236  0.581543  1
  Al  Al11  1  0.664061  0.002236  0.918457  1
  Al  Al12  1  0.335944  0.002426  0.068619  1
  Al  Al13  1  0.330012  0.330012  0.563894  1
  Al  Al14  1  0.665083  0.665083  0.454328  1
  Al  Al15  1  0.665083  0.665083  0.045672  1
  Al  Al16  1  0.330012  0.330012  0.936106  1
  Al  Al17  1  0.338479  0.548688  0.250000  1
  Al  Al18  1  0.659616  0.443802  0.750000  1
  Al  Al19  1  0.548688  0.338479  0.250000  1
  Al  Al20  1  0.443802  0.659616  0.750000  1
  Ga  Ga21  1  0.137097  0.137097  0.250000  1
  Ir  Ir22  1  0.671636  0.327743  0.999134  1
  Ir  Ir23  1  0.327743  0.671636  0.999134  1
  Ir  Ir24  1  0.327743  0.671636  0.500866  1
  Ir  Ir25  1  0.671636  0.327743  0.500866  1
  Ir  Ir26  1  0.999618  0.999618  0.996650  1
  Ir  Ir27  1  0.999618  0.999618  0.503350  1
