# generated using pymatgen
data_Tb5Tm(SnIr)6
_symmetry_space_group_name_H-M   'P 1'
_cell_length_a   7.47006760
_cell_length_b   7.46885171
_cell_length_c   7.96197200
_cell_angle_alpha   90.00000000
_cell_angle_beta   90.00000000
_cell_angle_gamma   119.67208954
_symmetry_Int_Tables_number   1
_chemical_formula_structural   Tb5Tm(SnIr)6
_chemical_formula_sum   'Tb5 Tm1 Sn6 Ir6'
_cell_volume   385.97146514
_cell_formula_units_Z   1
loop_
 _symmetry_equiv_pos_site_id
 _symmetry_equiv_pos_as_xyz
  1  'x, y, z'
loop_
 _atom_site_type_symbol
 _atom_site_label
 _atom_site_symmetry_multiplicity
 _atom_site_fract_x
 _atom_site_fract_y
 _atom_site_fract_z
 _atom_site_occupancy
  Tb  Tb0  1  0.406841  0.001114  0.250000  1
  Tb  Tb1  1  0.593943  0.592313  0.250000  1
  Tb  Tb2  1  0.997147  0.404894  0.250000  1
  Tb  Tb3  1  0.001862  0.406883  0.750000  1
  Tb  Tb4  1  0.404824  0.997598  0.750000  1
  Tm  Tm5  1  0.596130  0.597578  0.750000  1
  Sn  Sn6  1  0.258046  0.257830  0.502199  1
  Sn  Sn7  1  0.258046  0.257830  0.997801  1
  Sn  Sn8  1  0.741445  0.999937  0.999837  1
  Sn  Sn9  1  0.999650  0.741343  0.499949  1
  Sn  Sn10  1  0.741445  0.999937  0.500163  1
  Sn  Sn11  1  0.999650  0.741343  0.000051  1
  Ir  Ir12  1  0.665777  0.335913  0.505784  1
  Ir  Ir13  1  0.665777  0.335913  0.994216  1
  Ir  Ir14  1  0.335782  0.665790  0.999796  1
  Ir  Ir15  1  0.335782  0.665790  0.500204  1
  Ir  Ir16  1  0.997755  0.997691  0.750000  1
  Ir  Ir17  1  0.000092  0.000300  0.250000  1
