# generated using pymatgen
data_Er4Si10PdPt5
_symmetry_space_group_name_H-M   'P 1'
_cell_length_a   8.13269536
_cell_length_b   8.13269469
_cell_length_c   8.13269464
_cell_angle_alpha   136.64350014
_cell_angle_beta   104.18968887
_cell_angle_gamma   91.59136498
_symmetry_Int_Tables_number   1
_chemical_formula_structural   Er4Si10PdPt5
_chemical_formula_sum   'Er4 Si10 Pd1 Pt5'
_cell_volume   340.44176243
_cell_formula_units_Z   1
loop_
 _symmetry_equiv_pos_site_id
 _symmetry_equiv_pos_as_xyz
  1  'x, y, z'
loop_
 _atom_site_type_symbol
 _atom_site_label
 _atom_site_symmetry_multiplicity
 _atom_site_fract_x
 _atom_site_fract_y
 _atom_site_fract_z
 _atom_site_occupancy
  Er  Er0  1  0.101487  0.869925  0.229518  1
  Er  Er1  1  0.898513  0.128031  0.768438  1
  Er  Er2  1  0.640407  0.371969  0.270482  1
  Er  Er3  1  0.359593  0.630075  0.731562  1
  Si  Si4  1  0.000000  0.750000  0.750000  1
  Si  Si5  1  0.000000  0.250000  0.250000  1
  Si  Si6  1  0.271351  0.021351  0.750000  1
  Si  Si7  1  0.728649  0.478649  0.750000  1
  Si  Si8  1  0.729037  0.979037  0.250000  1
  Si  Si9  1  0.270963  0.520963  0.250000  1
  Si  Si10  1  0.764216  0.613358  0.151224  1
  Si  Si11  1  0.235784  0.387008  0.849142  1
  Si  Si12  1  0.462134  0.112992  0.348776  1
  Si  Si13  1  0.537866  0.886642  0.650858  1
  Pd  Pd14  1  0.500000  0.750000  0.250000  1
  Pt  Pt15  1  0.500000  0.250000  0.750000  1
  Pt  Pt16  1  0.022755  0.636869  0.385475  1
  Pt  Pt17  1  0.977245  0.362720  0.614115  1
  Pt  Pt18  1  0.251395  0.137280  0.114525  1
  Pt  Pt19  1  0.748605  0.863131  0.885885  1
