# generated using pymatgen
data_Er8FeReCl8
_symmetry_space_group_name_H-M   'P 1'
_cell_length_a   8.51065437
_cell_length_b   8.51065511
_cell_length_c   6.39183077
_cell_angle_alpha   89.67351810
_cell_angle_beta   89.67351950
_cell_angle_gamma   89.41581056
_symmetry_Int_Tables_number   1
_chemical_formula_structural   Er8FeReCl8
_chemical_formula_sum   'Er8 Fe1 Re1 Cl8'
_cell_volume   462.92931034
_cell_formula_units_Z   1
loop_
 _symmetry_equiv_pos_site_id
 _symmetry_equiv_pos_as_xyz
  1  'x, y, z'
loop_
 _atom_site_type_symbol
 _atom_site_label
 _atom_site_symmetry_multiplicity
 _atom_site_fract_x
 _atom_site_fract_y
 _atom_site_fract_z
 _atom_site_occupancy
  Er  Er0  1  0.255582  0.896773  0.009580  1
  Er  Er1  1  0.742456  0.103888  0.985656  1
  Er  Er2  1  0.103227  0.744418  0.490420  1
  Er  Er3  1  0.896112  0.257544  0.514344  1
  Er  Er4  1  0.744677  0.897711  0.510773  1
  Er  Er5  1  0.255101  0.101548  0.493961  1
  Er  Er6  1  0.102289  0.255323  0.989227  1
  Er  Er7  1  0.898452  0.744899  0.006039  1
  Fe  Fe8  1  0.006749  0.993251  0.750000  1
  Re  Re9  1  0.993122  0.006878  0.250000  1
  Cl  Cl10  1  0.420628  0.819085  0.404791  1
  Cl  Cl11  1  0.579967  0.180813  0.596822  1
  Cl  Cl12  1  0.180915  0.579372  0.095209  1
  Cl  Cl13  1  0.819187  0.420033  0.903178  1
  Cl  Cl14  1  0.417161  0.189168  0.096292  1
  Cl  Cl15  1  0.584104  0.810560  0.902796  1
  Cl  Cl16  1  0.810832  0.582839  0.403708  1
  Cl  Cl17  1  0.189440  0.415896  0.597204  1
