# generated using pymatgen
data_Sc4In2B4(IrRh)5
_symmetry_space_group_name_H-M   'P 1'
_cell_length_a   9.55799488
_cell_length_b   9.53694089
_cell_length_c   3.12918000
_cell_angle_alpha   90.00000000
_cell_angle_beta   90.00000000
_cell_angle_gamma   90.04938957
_symmetry_Int_Tables_number   1
_chemical_formula_structural   Sc4In2B4(IrRh)5
_chemical_formula_sum   'Sc4 In2 B4 Ir5 Rh5'
_cell_volume   285.23726860
_cell_formula_units_Z   1
loop_
 _symmetry_equiv_pos_site_id
 _symmetry_equiv_pos_as_xyz
  1  'x, y, z'
loop_
 _atom_site_type_symbol
 _atom_site_label
 _atom_site_symmetry_multiplicity
 _atom_site_fract_x
 _atom_site_fract_y
 _atom_site_fract_z
 _atom_site_occupancy
  Sc  Sc0  1  0.824824  0.323500  0.000000  1
  Sc  Sc1  1  0.323590  0.175147  0.000000  1
  Sc  Sc2  1  0.676149  0.824436  0.000000  1
  Sc  Sc3  1  0.175718  0.675950  0.000000  1
  In  In4  1  0.999212  0.997513  0.000000  1
  In  In5  1  0.500213  0.500196  0.000000  1
  B  B6  1  0.622896  0.122135  0.000000  1
  B  B7  1  0.122031  0.377179  0.000000  1
  B  B8  1  0.877911  0.621337  0.000000  1
  B  B9  1  0.377237  0.878405  0.000000  1
  Ir  Ir10  1  0.071537  0.224437  0.500000  1
  Ir  Ir11  1  0.224990  0.928552  0.500000  1
  Ir  Ir12  1  0.775497  0.072596  0.500000  1
  Ir  Ir13  1  0.500646  0.999867  0.500000  1
  Ir  Ir14  1  0.999770  0.501014  0.500000  1
  Rh  Rh15  1  0.928050  0.775844  0.500000  1
  Rh  Rh16  1  0.428676  0.723542  0.500000  1
  Rh  Rh17  1  0.570835  0.276830  0.500000  1
  Rh  Rh18  1  0.724113  0.572445  0.500000  1
  Rh  Rh19  1  0.276107  0.429073  0.500000  1
