# generated using pymatgen
data_Li2USe3
_symmetry_space_group_name_H-M   'P 1'
_cell_length_a   6.95866701
_cell_length_b   6.95866635
_cell_length_c   6.86347443
_cell_angle_alpha   80.28167712
_cell_angle_beta   80.28167297
_cell_angle_gamma   120.00935692
_symmetry_Int_Tables_number   1
_chemical_formula_structural   Li2USe3
_chemical_formula_sum   'Li4 U2 Se6'
_cell_volume   270.89414650
_cell_formula_units_Z   2
loop_
 _symmetry_equiv_pos_site_id
 _symmetry_equiv_pos_as_xyz
  1  'x, y, z'
loop_
 _atom_site_type_symbol
 _atom_site_label
 _atom_site_symmetry_multiplicity
 _atom_site_fract_x
 _atom_site_fract_y
 _atom_site_fract_z
 _atom_site_occupancy
  Li  Li0  1  0.000000  0.000000  0.000000  1
  Li  Li1  1  0.500000  0.500000  0.500000  1
  Li  Li2  1  0.834536  0.165464  0.500000  1
  Li  Li3  1  0.165464  0.834536  0.500000  1
  U  U4  1  0.666754  0.333246  0.000000  1
  U  U5  1  0.333246  0.666754  0.000000  1
  Se  Se6  1  0.254003  0.254003  0.253386  1
  Se  Se7  1  0.421076  0.083563  0.749510  1
  Se  Se8  1  0.083563  0.421076  0.749510  1
  Se  Se9  1  0.745997  0.745997  0.746614  1
  Se  Se10  1  0.578924  0.916437  0.250490  1
  Se  Se11  1  0.916437  0.578924  0.250490  1
