# generated using pymatgen
data_Ca3U5Re(TcB8)3
_symmetry_space_group_name_H-M   'P 1'
_cell_length_a   3.64830600
_cell_length_b   9.28516605
_cell_length_c   11.40136405
_cell_angle_alpha   90.02172210
_cell_angle_beta   90.00000000
_cell_angle_gamma   90.00000000
_symmetry_Int_Tables_number   1
_chemical_formula_structural   Ca3U5Re(TcB8)3
_chemical_formula_sum   'Ca3 U5 Re1 Tc3 B24'
_cell_volume   386.22262786
_cell_formula_units_Z   1
loop_
 _symmetry_equiv_pos_site_id
 _symmetry_equiv_pos_as_xyz
  1  'x, y, z'
loop_
 _atom_site_type_symbol
 _atom_site_label
 _atom_site_symmetry_multiplicity
 _atom_site_fract_x
 _atom_site_fract_y
 _atom_site_fract_z
 _atom_site_occupancy
  Ca  Ca0  1  0.000000  0.338976  0.408259  1
  Ca  Ca1  1  0.000000  0.660806  0.589937  1
  Ca  Ca2  1  0.000000  0.836511  0.093123  1
  U  U3  1  0.000000  0.162760  0.908425  1
  U  U4  1  0.000000  0.955037  0.395156  1
  U  U5  1  0.000000  0.043194  0.602863  1
  U  U6  1  0.000000  0.458474  0.105545  1
  U  U7  1  0.000000  0.544191  0.896422  1
  Re  Re8  1  0.000000  0.858572  0.819251  1
  Tc  Tc9  1  0.000000  0.647356  0.317073  1
  Tc  Tc10  1  0.000000  0.349329  0.687318  1
  Tc  Tc11  1  0.000000  0.146913  0.176701  1
  B  B12  1  0.500000  0.552626  0.431147  1
  B  B13  1  0.500000  0.446072  0.570911  1
  B  B14  1  0.500000  0.053901  0.067801  1
  B  B15  1  0.500000  0.950092  0.930237  1
  B  B16  1  0.500000  0.743544  0.421905  1
  B  B17  1  0.500000  0.255769  0.578633  1
  B  B18  1  0.500000  0.243042  0.076290  1
  B  B19  1  0.500000  0.756365  0.921725  1
  B  B20  1  0.500000  0.802177  0.274518  1
  B  B21  1  0.500000  0.196091  0.727471  1
  B  B22  1  0.500000  0.302307  0.225136  1
  B  B23  1  0.500000  0.698837  0.774835  1
  B  B24  1  0.500000  0.643114  0.188955  1
  B  B25  1  0.500000  0.354178  0.812856  1
  B  B26  1  0.500000  0.143554  0.310043  1
  B  B27  1  0.500000  0.857145  0.688596  1
  B  B28  1  0.500000  0.990605  0.218921  1
  B  B29  1  0.500000  0.013294  0.781711  1
  B  B30  1  0.500000  0.490020  0.280881  1
  B  B31  1  0.500000  0.509503  0.719799  1
  B  B32  1  0.500000  0.638341  0.037912  1
  B  B33  1  0.500000  0.357090  0.960902  1
  B  B34  1  0.500000  0.137240  0.461030  1
  B  B35  1  0.500000  0.862971  0.537715  1
