# generated using pymatgen
data_Ti4Mn24Sb
_symmetry_space_group_name_H-M   'P 1'
_cell_length_a   7.62005546
_cell_length_b   7.62005516
_cell_length_c   7.62005500
_cell_angle_alpha   109.47122551
_cell_angle_beta   109.47122474
_cell_angle_gamma   109.47121355
_symmetry_Int_Tables_number   1
_chemical_formula_structural   Ti4Mn24Sb
_chemical_formula_sum   'Ti4 Mn24 Sb1'
_cell_volume   340.60612422
_cell_formula_units_Z   1
loop_
 _symmetry_equiv_pos_site_id
 _symmetry_equiv_pos_as_xyz
  1  'x, y, z'
loop_
 _atom_site_type_symbol
 _atom_site_label
 _atom_site_symmetry_multiplicity
 _atom_site_fract_x
 _atom_site_fract_y
 _atom_site_fract_z
 _atom_site_occupancy
  Ti  Ti0  1  0.621756  0.000000  0.000000  1
  Ti  Ti1  1  0.000000  0.621756  0.000000  1
  Ti  Ti2  1  0.000000  0.000000  0.621756  1
  Ti  Ti3  1  0.378244  0.378244  0.378244  1
  Mn  Mn4  1  0.388347  0.671272  0.000000  1
  Mn  Mn5  1  0.717076  0.328728  0.328728  1
  Mn  Mn6  1  0.388347  0.000000  0.671272  1
  Mn  Mn7  1  0.671272  0.388347  0.000000  1
  Mn  Mn8  1  0.000000  0.388347  0.671272  1
  Mn  Mn9  1  0.328728  0.717076  0.328728  1
  Mn  Mn10  1  0.328728  0.328728  0.717076  1
  Mn  Mn11  1  0.000000  0.671272  0.388347  1
  Mn  Mn12  1  0.671272  0.000000  0.388347  1
  Mn  Mn13  1  0.611653  0.611653  0.282924  1
  Mn  Mn14  1  0.282924  0.611653  0.611653  1
  Mn  Mn15  1  0.611653  0.282924  0.611653  1
  Mn  Mn16  1  0.376715  0.196445  0.000000  1
  Mn  Mn17  1  0.180270  0.803555  0.803555  1
  Mn  Mn18  1  0.376715  0.000000  0.196445  1
  Mn  Mn19  1  0.196445  0.376715  0.000000  1
  Mn  Mn20  1  0.000000  0.376715  0.196445  1
  Mn  Mn21  1  0.803555  0.180270  0.803555  1
  Mn  Mn22  1  0.803555  0.803555  0.180270  1
  Mn  Mn23  1  0.000000  0.196445  0.376715  1
  Mn  Mn24  1  0.196445  0.000000  0.376715  1
  Mn  Mn25  1  0.623285  0.623285  0.819730  1
  Mn  Mn26  1  0.819730  0.623285  0.623285  1
  Mn  Mn27  1  0.623285  0.819730  0.623285  1
  Sb  Sb28  1  0.000000  0.000000  0.000000  1
