# generated using pymatgen
data_Ho3Lu9(Si3Rh)4
_symmetry_space_group_name_H-M   'P 1'
_cell_length_a   4.19268400
_cell_length_b   10.50497927
_cell_length_c   12.15062274
_cell_angle_alpha   90.09266396
_cell_angle_beta   90.00000000
_cell_angle_gamma   90.00000000
_symmetry_Int_Tables_number   1
_chemical_formula_structural   Ho3Lu9(Si3Rh)4
_chemical_formula_sum   'Ho3 Lu9 Si12 Rh4'
_cell_volume   535.16203891
_cell_formula_units_Z   1
loop_
 _symmetry_equiv_pos_site_id
 _symmetry_equiv_pos_as_xyz
  1  'x, y, z'
loop_
 _atom_site_type_symbol
 _atom_site_label
 _atom_site_symmetry_multiplicity
 _atom_site_fract_x
 _atom_site_fract_y
 _atom_site_fract_z
 _atom_site_occupancy
  Ho  Ho0  1  0.250000  0.840297  0.301220  1
  Ho  Ho1  1  0.750000  0.340917  0.198754  1
  Ho  Ho2  1  0.750000  0.159345  0.698823  1
  Lu  Lu3  1  0.250000  0.878472  0.020355  1
  Lu  Lu4  1  0.250000  0.620793  0.521843  1
  Lu  Lu5  1  0.750000  0.120301  0.979012  1
  Lu  Lu6  1  0.750000  0.379665  0.479326  1
  Lu  Lu7  1  0.250000  0.919678  0.604020  1
  Lu  Lu8  1  0.250000  0.579661  0.102951  1
  Lu  Lu9  1  0.750000  0.080250  0.396274  1
  Lu  Lu10  1  0.750000  0.420366  0.895897  1
  Lu  Lu11  1  0.250000  0.660299  0.800549  1
  Si  Si12  1  0.250000  0.013254  0.822839  1
  Si  Si13  1  0.250000  0.487179  0.322827  1
  Si  Si14  1  0.750000  0.986300  0.177195  1
  Si  Si15  1  0.750000  0.514527  0.678213  1
  Si  Si16  1  0.250000  0.248986  0.841582  1
  Si  Si17  1  0.250000  0.250882  0.341137  1
  Si  Si18  1  0.750000  0.750421  0.157819  1
  Si  Si19  1  0.750000  0.748784  0.659708  1
  Si  Si20  1  0.250000  0.198287  0.541466  1
  Si  Si21  1  0.250000  0.302031  0.041041  1
  Si  Si22  1  0.750000  0.801954  0.459204  1
  Si  Si23  1  0.750000  0.696859  0.956687  1
  Rh  Rh24  1  0.250000  0.392540  0.680688  1
  Rh  Rh25  1  0.250000  0.108994  0.178193  1
  Rh  Rh26  1  0.750000  0.609328  0.321013  1
  Rh  Rh27  1  0.750000  0.889637  0.821363  1
