# generated using pymatgen
data_Er6Si5GeRu4
_symmetry_space_group_name_H-M   'P 1'
_cell_length_a   5.71493390
_cell_length_b   5.71493354
_cell_length_c   13.74874500
_cell_angle_alpha   90.00000000
_cell_angle_beta   90.00000000
_cell_angle_gamma   137.29936748
_symmetry_Int_Tables_number   1
_chemical_formula_structural   Er6Si5GeRu4
_chemical_formula_sum   'Er6 Si5 Ge1 Ru4'
_cell_volume   304.52475839
_cell_formula_units_Z   1
loop_
 _symmetry_equiv_pos_site_id
 _symmetry_equiv_pos_as_xyz
  1  'x, y, z'
loop_
 _atom_site_type_symbol
 _atom_site_label
 _atom_site_symmetry_multiplicity
 _atom_site_fract_x
 _atom_site_fract_y
 _atom_site_fract_z
 _atom_site_occupancy
  Er  Er0  1  0.924271  0.075729  0.385204  1
  Er  Er1  1  0.075071  0.924929  0.612079  1
  Er  Er2  1  0.924271  0.075729  0.114796  1
  Er  Er3  1  0.075071  0.924929  0.887921  1
  Er  Er4  1  0.643480  0.356520  0.250000  1
  Er  Er5  1  0.355134  0.644866  0.750000  1
  Si  Si6  1  0.617635  0.382365  0.460783  1
  Si  Si7  1  0.384134  0.615866  0.537808  1
  Si  Si8  1  0.617635  0.382365  0.039217  1
  Si  Si9  1  0.384134  0.615866  0.962192  1
  Si  Si10  1  0.331057  0.668943  0.250000  1
  Ge  Ge11  1  0.662662  0.337338  0.750000  1
  Ru  Ru12  1  0.788991  0.211009  0.920737  1
  Ru  Ru13  1  0.213732  0.786268  0.082344  1
  Ru  Ru14  1  0.788991  0.211009  0.579263  1
  Ru  Ru15  1  0.213732  0.786268  0.417656  1
