# generated using pymatgen
data_Lu6Ti3Al13Ir7
_symmetry_space_group_name_H-M   'P 1'
_cell_length_a   8.92480113
_cell_length_b   8.92479975
_cell_length_c   8.92479994
_cell_angle_alpha   59.65333324
_cell_angle_beta   59.65334212
_cell_angle_gamma   59.65333479
_symmetry_Int_Tables_number   1
_chemical_formula_structural   Lu6Ti3Al13Ir7
_chemical_formula_sum   'Lu6 Ti3 Al13 Ir7'
_cell_volume   498.70781906
_cell_formula_units_Z   1
loop_
 _symmetry_equiv_pos_site_id
 _symmetry_equiv_pos_as_xyz
  1  'x, y, z'
loop_
 _atom_site_type_symbol
 _atom_site_label
 _atom_site_symmetry_multiplicity
 _atom_site_fract_x
 _atom_site_fract_y
 _atom_site_fract_z
 _atom_site_occupancy
  Lu  Lu0  1  0.707897  0.707897  0.285710  1
  Lu  Lu1  1  0.296374  0.705232  0.296374  1
  Lu  Lu2  1  0.705232  0.296374  0.296374  1
  Lu  Lu3  1  0.296374  0.296374  0.705232  1
  Lu  Lu4  1  0.707897  0.285710  0.707897  1
  Lu  Lu5  1  0.285710  0.707897  0.707897  1
  Ti  Ti6  1  0.878626  0.878626  0.359345  1
  Ti  Ti7  1  0.878626  0.359345  0.878626  1
  Ti  Ti8  1  0.359345  0.878626  0.878626  1
  Al  Al9  1  0.881069  0.881069  0.881069  1
  Al  Al10  1  0.121987  0.121987  0.642088  1
  Al  Al11  1  0.121987  0.642088  0.121987  1
  Al  Al12  1  0.642088  0.121987  0.121987  1
  Al  Al13  1  0.119981  0.119981  0.119981  1
  Al  Al14  1  0.669375  0.669375  0.991107  1
  Al  Al15  1  0.669375  0.991107  0.669375  1
  Al  Al16  1  0.991107  0.669375  0.669375  1
  Al  Al17  1  0.667392  0.667392  0.667392  1
  Al  Al18  1  0.330028  0.330028  0.011650  1
  Al  Al19  1  0.330028  0.011650  0.330028  1
  Al  Al20  1  0.011650  0.330028  0.330028  1
  Al  Al21  1  0.331271  0.331271  0.331271  1
  Ir  Ir22  1  0.001756  0.001756  0.001756  1
  Ir  Ir23  1  0.998892  0.998892  0.498979  1
  Ir  Ir24  1  0.500942  0.996174  0.500942  1
  Ir  Ir25  1  0.996174  0.500942  0.500942  1
  Ir  Ir26  1  0.500942  0.500942  0.996174  1
  Ir  Ir27  1  0.998892  0.498979  0.998892  1
  Ir  Ir28  1  0.498979  0.998892  0.998892  1
