# generated using pymatgen
data_Tb3Yb12Dy5Sn16
_symmetry_space_group_name_H-M   'P 1'
_cell_length_a   7.85209909
_cell_length_b   8.45048407
_cell_length_c   16.08090709
_cell_angle_alpha   89.99379195
_cell_angle_beta   90.01071069
_cell_angle_gamma   89.98682088
_symmetry_Int_Tables_number   1
_chemical_formula_structural   Tb3Yb12Dy5Sn16
_chemical_formula_sum   'Tb3 Yb12 Dy5 Sn16'
_cell_volume   1067.03307095
_cell_formula_units_Z   1
loop_
 _symmetry_equiv_pos_site_id
 _symmetry_equiv_pos_as_xyz
  1  'x, y, z'
loop_
 _atom_site_type_symbol
 _atom_site_label
 _atom_site_symmetry_multiplicity
 _atom_site_fract_x
 _atom_site_fract_y
 _atom_site_fract_z
 _atom_site_occupancy
  Tb  Tb0  1  0.672798  0.166033  0.621970  1
  Tb  Tb1  1  0.172806  0.333949  0.878015  1
  Tb  Tb2  1  0.327184  0.833926  0.122010  1
  Yb  Yb3  1  0.504965  0.688660  0.592752  1
  Yb  Yb4  1  0.004945  0.811329  0.907241  1
  Yb  Yb5  1  0.495068  0.311344  0.092766  1
  Yb  Yb6  1  0.995030  0.188703  0.407241  1
  Yb  Yb7  1  0.494972  0.311336  0.407214  1
  Yb  Yb8  1  0.994915  0.188699  0.092776  1
  Yb  Yb9  1  0.505080  0.688696  0.907230  1
  Yb  Yb10  1  0.005048  0.811280  0.592736  1
  Yb  Yb11  1  0.835401  0.512348  0.750009  1
  Yb  Yb12  1  0.335408  0.987666  0.749992  1
  Yb  Yb13  1  0.164522  0.487706  0.250042  1
  Yb  Yb14  1  0.664626  0.012262  0.250022  1
  Dy  Dy15  1  0.827179  0.665950  0.377979  1
  Dy  Dy16  1  0.327127  0.834064  0.378001  1
  Dy  Dy17  1  0.827144  0.665891  0.122007  1
  Dy  Dy18  1  0.672877  0.165869  0.878033  1
  Dy  Dy19  1  0.172865  0.334138  0.621958  1
  Sn  Sn20  1  0.671621  0.964100  0.459038  1
  Sn  Sn21  1  0.171356  0.535661  0.040871  1
  Sn  Sn22  1  0.328668  0.035651  0.959123  1
  Sn  Sn23  1  0.828636  0.464575  0.540682  1
  Sn  Sn24  1  0.328008  0.035588  0.540697  1
  Sn  Sn25  1  0.828006  0.464390  0.959303  1
  Sn  Sn26  1  0.671980  0.964399  0.040700  1
  Sn  Sn27  1  0.171678  0.535723  0.459231  1
  Sn  Sn28  1  0.471604  0.374997  0.749958  1
  Sn  Sn29  1  0.971610  0.125025  0.750054  1
  Sn  Sn30  1  0.528623  0.625080  0.250082  1
  Sn  Sn31  1  0.028170  0.874768  0.250136  1
  Sn  Sn32  1  0.717754  0.873215  0.750094  1
  Sn  Sn33  1  0.217751  0.626793  0.749914  1
  Sn  Sn34  1  0.282248  0.126797  0.250109  1
  Sn  Sn35  1  0.782328  0.373392  0.250014  1
