# generated using pymatgen
data_Dy10Y6Zn4Co3Ni
_symmetry_space_group_name_H-M   'P 1'
_cell_length_a   9.34966066
_cell_length_b   9.37717236
_cell_length_c   9.37717200
_cell_angle_alpha   60.00000126
_cell_angle_beta   59.90261518
_cell_angle_gamma   59.90261428
_symmetry_Int_Tables_number   1
_chemical_formula_structural   Dy10Y6Zn4Co3Ni
_chemical_formula_sum   'Dy10 Y6 Zn4 Co3 Ni1'
_cell_volume   580.47536453
_cell_formula_units_Z   1
loop_
 _symmetry_equiv_pos_site_id
 _symmetry_equiv_pos_as_xyz
  1  'x, y, z'
loop_
 _atom_site_type_symbol
 _atom_site_label
 _atom_site_symmetry_multiplicity
 _atom_site_fract_x
 _atom_site_fract_y
 _atom_site_fract_z
 _atom_site_occupancy
  Dy  Dy0  1  0.599184  0.601880  0.601880  1
  Dy  Dy1  1  0.599184  0.601880  0.197054  1
  Dy  Dy2  1  0.599184  0.197054  0.601880  1
  Dy  Dy3  1  0.201301  0.599566  0.599566  1
  Dy  Dy4  1  0.061857  0.441337  0.441337  1
  Dy  Dy5  1  0.440151  0.059416  0.059416  1
  Dy  Dy6  1  0.440151  0.059416  0.441017  1
  Dy  Dy7  1  0.061857  0.441337  0.055470  1
  Dy  Dy8  1  0.440151  0.441017  0.059416  1
  Dy  Dy9  1  0.061857  0.055470  0.441337  1
  Y  Y10  1  0.187152  0.812325  0.812325  1
  Y  Y11  1  0.810573  0.187984  0.187984  1
  Y  Y12  1  0.810573  0.187984  0.813460  1
  Y  Y13  1  0.187152  0.812325  0.188200  1
  Y  Y14  1  0.810573  0.813460  0.187984  1
  Y  Y15  1  0.187152  0.188200  0.812325  1
  Zn  Zn16  1  0.827695  0.827338  0.827338  1
  Zn  Zn17  1  0.827695  0.827338  0.517626  1
  Zn  Zn18  1  0.827695  0.517626  0.827338  1
  Zn  Zn19  1  0.516292  0.827903  0.827903  1
  Co  Co20  1  0.393561  0.391789  0.391789  1
  Co  Co21  1  0.393561  0.391789  0.822861  1
  Co  Co22  1  0.393561  0.822861  0.391789  1
  Ni  Ni23  1  0.821888  0.392704  0.392704  1
