# generated using pymatgen
data_Dy2Zn(BIr2)3
_symmetry_space_group_name_H-M   'P 1'
_cell_length_a   5.53243949
_cell_length_b   5.53138435
_cell_length_c   13.23292100
_cell_angle_alpha   90.00000000
_cell_angle_beta   89.99997929
_cell_angle_gamma   120.01605733
_symmetry_Int_Tables_number   1
_chemical_formula_structural   Dy2Zn(BIr2)3
_chemical_formula_sum   'Dy4 Zn2 B6 Ir12'
_cell_volume   350.64412561
_cell_formula_units_Z   2
loop_
 _symmetry_equiv_pos_site_id
 _symmetry_equiv_pos_as_xyz
  1  'x, y, z'
loop_
 _atom_site_type_symbol
 _atom_site_label
 _atom_site_symmetry_multiplicity
 _atom_site_fract_x
 _atom_site_fract_y
 _atom_site_fract_z
 _atom_site_occupancy
  Dy  Dy0  1  0.000000  0.000000  0.259256  1
  Dy  Dy1  1  0.000000  0.000000  0.499993  1
  Dy  Dy2  1  0.000000  0.000000  0.000086  1
  Dy  Dy3  1  0.000000  0.000000  0.740654  1
  Zn  Zn4  1  0.333339  0.666706  0.000083  1
  Zn  Zn5  1  0.666661  0.333294  0.000083  1
  B  B6  1  0.666683  0.333374  0.733329  1
  B  B7  1  0.333317  0.666626  0.733329  1
  B  B8  1  0.333338  0.666643  0.266469  1
  B  B9  1  0.666658  0.333329  0.499978  1
  B  B10  1  0.666661  0.333357  0.266469  1
  B  B11  1  0.333342  0.666670  0.499978  1
  Ir  Ir12  1  0.500000  0.000001  0.613698  1
  Ir  Ir13  1  0.500000  0.000000  0.839743  1
  Ir  Ir14  1  0.500000  0.500000  0.839776  1
  Ir  Ir15  1  0.500000  0.500000  0.386353  1
  Ir  Ir16  1  0.000000  0.500000  0.613701  1
  Ir  Ir17  1  0.000000  0.500000  0.160277  1
  Ir  Ir18  1  0.000000  0.500000  0.839763  1
  Ir  Ir19  1  0.500000  0.500000  0.160262  1
  Ir  Ir20  1  0.500000  0.000000  0.386367  1
  Ir  Ir21  1  0.500000  0.000000  0.160285  1
  Ir  Ir22  1  0.500000  0.500000  0.613707  1
  Ir  Ir23  1  0.000000  0.500000  0.386363  1
