# generated using pymatgen
data_Dy5YAl24Co5Ru3
_symmetry_space_group_name_H-M   'P 1'
_cell_length_a   8.70190900
_cell_length_b   8.70191068
_cell_length_c   9.40731200
_cell_angle_alpha   89.99919611
_cell_angle_beta   90.00082897
_cell_angle_gamma   120.00342657
_symmetry_Int_Tables_number   1
_chemical_formula_structural   Dy5YAl24Co5Ru3
_chemical_formula_sum   'Dy5 Y1 Al24 Co5 Ru3'
_cell_volume   616.89370976
_cell_formula_units_Z   1
loop_
 _symmetry_equiv_pos_site_id
 _symmetry_equiv_pos_as_xyz
  1  'x, y, z'
loop_
 _atom_site_type_symbol
 _atom_site_label
 _atom_site_symmetry_multiplicity
 _atom_site_fract_x
 _atom_site_fract_y
 _atom_site_fract_z
 _atom_site_occupancy
  Dy  Dy0  1  0.194307  0.388595  0.252372  1
  Dy  Dy1  1  0.611406  0.805693  0.252372  1
  Dy  Dy2  1  0.805683  0.194318  0.747626  1
  Dy  Dy3  1  0.805686  0.611368  0.747625  1
  Dy  Dy4  1  0.388631  0.194314  0.747625  1
  Y  Y5  1  0.194310  0.805690  0.252395  1
  Al  Al6  1  0.560562  0.439439  0.256395  1
  Al  Al7  1  0.560586  0.121136  0.256388  1
  Al  Al8  1  0.878862  0.439414  0.256386  1
  Al  Al9  1  0.439438  0.560561  0.743608  1
  Al  Al10  1  0.439435  0.878873  0.743608  1
  Al  Al11  1  0.121128  0.560566  0.743610  1
  Al  Al12  1  0.324747  0.162390  0.425289  1
  Al  Al13  1  0.837633  0.162366  0.425268  1
  Al  Al14  1  0.837610  0.675254  0.425289  1
  Al  Al15  1  0.675265  0.837634  0.574728  1
  Al  Al16  1  0.162365  0.837636  0.574752  1
  Al  Al17  1  0.162366  0.324735  0.574729  1
  Al  Al18  1  0.679532  0.839769  0.922429  1
  Al  Al19  1  0.160235  0.839765  0.922408  1
  Al  Al20  1  0.160231  0.320468  0.922429  1
  Al  Al21  1  0.320477  0.160251  0.077553  1
  Al  Al22  1  0.839764  0.160235  0.077571  1
  Al  Al23  1  0.839749  0.679523  0.077553  1
  Al  Al24  1  0.666665  0.333333  0.518446  1
  Al  Al25  1  0.333347  0.666656  0.481576  1
  Al  Al26  1  0.333340  0.666659  0.016919  1
  Al  Al27  1  0.666671  0.333329  0.983060  1
  Al  Al28  1  0.999952  0.000047  0.249926  1
  Al  Al29  1  0.999999  0.000002  0.750073  1
  Co  Co30  1  0.000001  0.999999  0.499994  1
  Co  Co31  1  0.000005  0.999995  0.000011  1
  Co  Co32  1  0.500001  0.499999  0.500002  1
  Co  Co33  1  0.500017  0.000011  0.500012  1
  Co  Co34  1  0.999989  0.499983  0.500012  1
  Ru  Ru35  1  0.500001  0.499999  0.000003  1
  Ru  Ru36  1  0.500022  0.000016  0.999978  1
  Ru  Ru37  1  0.999984  0.499978  0.999978  1
