# generated using pymatgen
data_Y6Er10MgAg3Rh4
_symmetry_space_group_name_H-M   'P 1'
_cell_length_a   9.53650365
_cell_length_b   9.53308505
_cell_length_c   9.53362003
_cell_angle_alpha   59.99717901
_cell_angle_beta   60.00051293
_cell_angle_gamma   60.00177915
_symmetry_Int_Tables_number   1
_chemical_formula_structural   Y6Er10MgAg3Rh4
_chemical_formula_sum   'Y6 Er10 Mg1 Ag3 Rh4'
_cell_volume   612.86349131
_cell_formula_units_Z   1
loop_
 _symmetry_equiv_pos_site_id
 _symmetry_equiv_pos_as_xyz
  1  'x, y, z'
loop_
 _atom_site_type_symbol
 _atom_site_label
 _atom_site_symmetry_multiplicity
 _atom_site_fract_x
 _atom_site_fract_y
 _atom_site_fract_z
 _atom_site_occupancy
  Y  Y0  1  0.185588  0.812914  0.813014  1
  Y  Y1  1  0.813710  0.185667  0.186011  1
  Y  Y2  1  0.813721  0.185736  0.814650  1
  Y  Y3  1  0.185635  0.812972  0.188390  1
  Y  Y4  1  0.813733  0.814420  0.185935  1
  Y  Y5  1  0.185565  0.188311  0.813037  1
  Er  Er6  1  0.602321  0.600060  0.600006  1
  Er  Er7  1  0.602336  0.600116  0.197503  1
  Er  Er8  1  0.602273  0.197965  0.599850  1
  Er  Er9  1  0.181757  0.606159  0.606092  1
  Er  Er10  1  0.062261  0.437324  0.437351  1
  Er  Er11  1  0.435614  0.064262  0.064119  1
  Er  Er12  1  0.435608  0.064280  0.435921  1
  Er  Er13  1  0.062268  0.437237  0.063109  1
  Er  Er14  1  0.435738  0.435916  0.064177  1
  Er  Er15  1  0.062183  0.063201  0.437298  1
  Mg  Mg16  1  0.535324  0.822115  0.821037  1
  Ag  Ag17  1  0.830917  0.832858  0.833656  1
  Ag  Ag18  1  0.831183  0.833040  0.502445  1
  Ag  Ag19  1  0.831797  0.501999  0.833148  1
  Rh  Rh20  1  0.390245  0.395651  0.395791  1
  Rh  Rh21  1  0.390352  0.395611  0.818424  1
  Rh  Rh22  1  0.390394  0.818456  0.395586  1
  Rh  Rh23  1  0.819480  0.393733  0.393450  1
