# generated using pymatgen
data_Cd4Ru3RhO14
_symmetry_space_group_name_H-M   'P 1'
_cell_length_a   7.27660767
_cell_length_b   7.23817617
_cell_length_c   7.27660700
_cell_angle_alpha   59.82420381
_cell_angle_beta   59.99999850
_cell_angle_gamma   59.82420960
_symmetry_Int_Tables_number   1
_chemical_formula_structural   Cd4Ru3RhO14
_chemical_formula_sum   'Cd4 Ru3 Rh1 O14'
_cell_volume   270.27939048
_cell_formula_units_Z   1
loop_
 _symmetry_equiv_pos_site_id
 _symmetry_equiv_pos_as_xyz
  1  'x, y, z'
loop_
 _atom_site_type_symbol
 _atom_site_label
 _atom_site_symmetry_multiplicity
 _atom_site_fract_x
 _atom_site_fract_y
 _atom_site_fract_z
 _atom_site_occupancy
  Cd  Cd0  1  0.125000  0.625000  0.125000  1
  Cd  Cd1  1  0.125000  0.125000  0.625000  1
  Cd  Cd2  1  0.625000  0.125000  0.125000  1
  Cd  Cd3  1  0.125000  0.125000  0.125000  1
  Ru  Ru4  1  0.625000  0.625000  0.125000  1
  Ru  Ru5  1  0.125000  0.625000  0.625000  1
  Ru  Ru6  1  0.625000  0.625000  0.625000  1
  Rh  Rh7  1  0.625000  0.125000  0.625000  1
  O  O8  1  0.696947  0.680324  0.311365  1
  O  O9  1  0.938635  0.569676  0.553053  1
  O  O10  1  0.548567  0.947338  0.955528  1
  O  O11  1  0.955528  0.947338  0.548567  1
  O  O12  1  0.938635  0.569676  0.938635  1
  O  O13  1  0.548567  0.947338  0.548567  1
  O  O14  1  0.311365  0.680324  0.311365  1
  O  O15  1  0.311365  0.680324  0.696947  1
  O  O16  1  0.701433  0.302662  0.294472  1
  O  O17  1  0.701433  0.302662  0.701433  1
  O  O18  1  0.553053  0.569676  0.938635  1
  O  O19  1  0.294472  0.302662  0.701433  1
  O  O20  1  0.248314  0.255059  0.248314  1
  O  O21  1  0.001686  0.994941  0.001686  1
