# generated using pymatgen
data_Li2Pr3HoPt3
_symmetry_space_group_name_H-M   'P 1'
_cell_length_a   7.68893000
_cell_length_b   7.59647737
_cell_length_c   4.20654300
_cell_angle_alpha   90.00000000
_cell_angle_beta   90.00000000
_cell_angle_gamma   120.40343641
_symmetry_Int_Tables_number   1
_chemical_formula_structural   Li2Pr3HoPt3
_chemical_formula_sum   'Li2 Pr3 Ho1 Pt3'
_cell_volume   211.91133698
_cell_formula_units_Z   1
loop_
 _symmetry_equiv_pos_site_id
 _symmetry_equiv_pos_as_xyz
  1  'x, y, z'
loop_
 _atom_site_type_symbol
 _atom_site_label
 _atom_site_symmetry_multiplicity
 _atom_site_fract_x
 _atom_site_fract_y
 _atom_site_fract_z
 _atom_site_occupancy
  Li  Li0  1  0.001358  0.240945  0.500000  1
  Li  Li1  1  0.760413  0.759055  0.500000  1
  Pr  Pr2  1  0.417694  0.439602  0.000000  1
  Pr  Pr3  1  0.613044  0.000000  0.000000  1
  Pr  Pr4  1  0.978092  0.560398  0.000000  1
  Ho  Ho5  1  0.241481  0.000000  0.500000  1
  Pt  Pt6  1  0.004785  0.000000  0.000000  1
  Pt  Pt7  1  0.653845  0.324555  0.500000  1
  Pt  Pt8  1  0.329289  0.675445  0.500000  1
