# generated using pymatgen
data_ScV6Sn5Sb
_symmetry_space_group_name_H-M   'P 1'
_cell_length_a   9.23900700
_cell_length_b   5.45000347
_cell_length_c   5.45000349
_cell_angle_alpha   119.96039307
_cell_angle_beta   90.00048383
_cell_angle_gamma   90.00048082
_symmetry_Int_Tables_number   1
_chemical_formula_structural   ScV6Sn5Sb
_chemical_formula_sum   'Sc1 V6 Sn5 Sb1'
_cell_volume   237.75117818
_cell_formula_units_Z   1
loop_
 _symmetry_equiv_pos_site_id
 _symmetry_equiv_pos_as_xyz
  1  'x, y, z'
loop_
 _atom_site_type_symbol
 _atom_site_label
 _atom_site_symmetry_multiplicity
 _atom_site_fract_x
 _atom_site_fract_y
 _atom_site_fract_z
 _atom_site_occupancy
  Sc  Sc0  1  0.003194  0.000007  0.000007  1
  V  V1  1  0.245972  0.499996  0.999997  1
  V  V2  1  0.752182  0.499992  0.999994  1
  V  V3  1  0.245933  0.499990  0.499990  1
  V  V4  1  0.752206  0.500001  0.500001  1
  V  V5  1  0.245972  0.999997  0.499996  1
  V  V6  1  0.752182  0.999994  0.499992  1
  Sn  Sn7  1  0.672045  0.999941  0.999941  1
  Sn  Sn8  1  0.500212  0.666803  0.333250  1
  Sn  Sn9  1  0.998880  0.666934  0.333064  1
  Sn  Sn10  1  0.500212  0.333250  0.666803  1
  Sn  Sn11  1  0.998880  0.333064  0.666934  1
  Sb  Sb12  1  0.332125  0.999996  0.999996  1
