# generated using pymatgen
data_Mg2Co3(B2Ru)2
_symmetry_space_group_name_H-M   'P 1'
_cell_length_a   2.92934300
_cell_length_b   8.15499500
_cell_length_c   9.34241300
_cell_angle_alpha   90.00000000
_cell_angle_beta   90.00000000
_cell_angle_gamma   90.00000000
_symmetry_Int_Tables_number   1
_chemical_formula_structural   Mg2Co3(B2Ru)2
_chemical_formula_sum   'Mg4 Co6 B8 Ru4'
_cell_volume   223.17882564
_cell_formula_units_Z   2
loop_
 _symmetry_equiv_pos_site_id
 _symmetry_equiv_pos_as_xyz
  1  'x, y, z'
loop_
 _atom_site_type_symbol
 _atom_site_label
 _atom_site_symmetry_multiplicity
 _atom_site_fract_x
 _atom_site_fract_y
 _atom_site_fract_z
 _atom_site_occupancy
  Mg  Mg0  1  0.500000  0.660717  0.818098  1
  Mg  Mg1  1  0.500000  0.339283  0.181902  1
  Mg  Mg2  1  0.500000  0.160717  0.681902  1
  Mg  Mg3  1  0.500000  0.839283  0.318098  1
  Co  Co4  1  0.000000  0.408062  0.743780  1
  Co  Co5  1  0.000000  0.591938  0.256220  1
  Co  Co6  1  0.000000  0.908062  0.756220  1
  Co  Co7  1  0.000000  0.091938  0.243780  1
  Co  Co8  1  0.000000  0.000000  0.500000  1
  Co  Co9  1  0.000000  0.500000  0.000000  1
  B  B10  1  0.500000  0.866312  0.602671  1
  B  B11  1  0.500000  0.133688  0.397329  1
  B  B12  1  0.500000  0.366312  0.897329  1
  B  B13  1  0.500000  0.633688  0.102671  1
  B  B14  1  0.500000  0.962274  0.902869  1
  B  B15  1  0.500000  0.037726  0.097131  1
  B  B16  1  0.500000  0.462274  0.597131  1
  B  B17  1  0.500000  0.537726  0.402869  1
  Ru  Ru18  1  0.000000  0.663660  0.546835  1
  Ru  Ru19  1  0.000000  0.336340  0.453165  1
  Ru  Ru20  1  0.000000  0.163660  0.953165  1
  Ru  Ru21  1  0.000000  0.836340  0.046835  1
