# generated using pymatgen
data_K4Al3Ga9Se20
_symmetry_space_group_name_H-M   'P 1'
_cell_length_a   13.51893084
_cell_length_b   7.59427504
_cell_length_c   11.13625797
_cell_angle_alpha   75.85557461
_cell_angle_beta   90.04035626
_cell_angle_gamma   90.01295577
_symmetry_Int_Tables_number   1
_chemical_formula_structural   K4Al3Ga9Se20
_chemical_formula_sum   'K4 Al3 Ga9 Se20'
_cell_volume   1108.65788385
_cell_formula_units_Z   1
loop_
 _symmetry_equiv_pos_site_id
 _symmetry_equiv_pos_as_xyz
  1  'x, y, z'
loop_
 _atom_site_type_symbol
 _atom_site_label
 _atom_site_symmetry_multiplicity
 _atom_site_fract_x
 _atom_site_fract_y
 _atom_site_fract_z
 _atom_site_occupancy
  K  K0  1  0.627529  0.833734  0.374419  1
  K  K1  1  0.127397  0.166080  0.125805  1
  K  K2  1  0.372630  0.166317  0.625719  1
  K  K3  1  0.872531  0.833950  0.874122  1
  Al  Al4  1  0.898590  0.436343  0.693037  1
  Al  Al5  1  0.162927  0.709081  0.624525  1
  Al  Al6  1  0.836946  0.291191  0.375400  1
  Ga  Ga7  1  0.921966  0.799211  0.398921  1
  Ga  Ga8  1  0.577745  0.799112  0.898527  1
  Ga  Ga9  1  0.422255  0.200885  0.101453  1
  Ga  Ga10  1  0.397467  0.562870  0.806640  1
  Ga  Ga11  1  0.102378  0.562580  0.306811  1
  Ga  Ga12  1  0.336787  0.709379  0.124804  1
  Ga  Ga13  1  0.602579  0.437033  0.193374  1
  Ga  Ga14  1  0.077685  0.200553  0.601604  1
  Ga  Ga15  1  0.663413  0.290772  0.875095  1
  Se  Se16  1  0.827735  0.714917  0.585314  1
  Se  Se17  1  0.105461  0.817146  0.410064  1
  Se  Se18  1  0.672804  0.718577  0.084245  1
  Se  Se19  1  0.394798  0.818298  0.908551  1
  Se  Se20  1  0.327177  0.281397  0.915805  1
  Se  Se21  1  0.664251  0.341825  0.402221  1
  Se  Se22  1  0.579723  0.575834  0.764817  1
  Se  Se23  1  0.605209  0.181799  0.091308  1
  Se  Se24  1  0.894274  0.185313  0.590410  1
  Se  Se25  1  0.631760  0.072131  0.753863  1
  Se  Se26  1  0.368220  0.927855  0.246213  1
  Se  Se27  1  0.172858  0.281289  0.416106  1
  Se  Se28  1  0.078913  0.427239  0.733979  1
  Se  Se29  1  0.919658  0.573596  0.265758  1
  Se  Se30  1  0.868472  0.074070  0.255449  1
  Se  Se31  1  0.131591  0.925955  0.744824  1
  Se  Se32  1  0.838076  0.343557  0.900022  1
  Se  Se33  1  0.335592  0.658210  0.597793  1
  Se  Se34  1  0.420212  0.424140  0.235285  1
  Se  Se35  1  0.162389  0.657762  0.097718  1
