# generated using pymatgen
data_Ho4CdPd4Pb
_symmetry_space_group_name_H-M   'P 1'
_cell_length_a   7.85576200
_cell_length_b   7.85576200
_cell_length_c   3.61922100
_cell_angle_alpha   90.00000000
_cell_angle_beta   90.00000000
_cell_angle_gamma   90.00000000
_symmetry_Int_Tables_number   1
_chemical_formula_structural   Ho4CdPd4Pb
_chemical_formula_sum   'Ho4 Cd1 Pd4 Pb1'
_cell_volume   223.35297327
_cell_formula_units_Z   1
loop_
 _symmetry_equiv_pos_site_id
 _symmetry_equiv_pos_as_xyz
  1  'x, y, z'
loop_
 _atom_site_type_symbol
 _atom_site_label
 _atom_site_symmetry_multiplicity
 _atom_site_fract_x
 _atom_site_fract_y
 _atom_site_fract_z
 _atom_site_occupancy
  Ho  Ho0  1  0.668874  0.172329  0.500000  1
  Ho  Ho1  1  0.172329  0.331126  0.500000  1
  Ho  Ho2  1  0.827671  0.668874  0.500000  1
  Ho  Ho3  1  0.331126  0.827671  0.500000  1
  Cd  Cd4  1  0.000000  0.000000  0.000000  1
  Pd  Pd5  1  0.367231  0.121055  0.000000  1
  Pd  Pd6  1  0.121055  0.632769  0.000000  1
  Pd  Pd7  1  0.632769  0.878945  0.000000  1
  Pd  Pd8  1  0.878945  0.367231  0.000000  1
  Pb  Pb9  1  0.500000  0.500000  0.000000  1
