# generated using pymatgen
data_GdHo(FeSi2)2
_symmetry_space_group_name_H-M   'P 1'
_cell_length_a   4.25562066
_cell_length_b   3.94091100
_cell_length_c   7.90838600
_cell_angle_alpha   90.00000000
_cell_angle_beta   103.40749930
_cell_angle_gamma   90.00000000
_symmetry_Int_Tables_number   1
_chemical_formula_structural   GdHo(FeSi2)2
_chemical_formula_sum   'Gd1 Ho1 Fe2 Si4'
_cell_volume   129.01691136
_cell_formula_units_Z   1
loop_
 _symmetry_equiv_pos_site_id
 _symmetry_equiv_pos_as_xyz
  1  'x, y, z'
loop_
 _atom_site_type_symbol
 _atom_site_label
 _atom_site_symmetry_multiplicity
 _atom_site_fract_x
 _atom_site_fract_y
 _atom_site_fract_z
 _atom_site_occupancy
  Gd  Gd0  1  0.897914  0.250001  0.293904  1
  Ho  Ho1  1  0.102088  0.749999  0.706096  1
  Fe  Fe2  1  0.385376  0.749999  0.110137  1
  Fe  Fe3  1  0.614623  0.250001  0.889862  1
  Si  Si4  1  0.829309  0.749999  0.006256  1
  Si  Si5  1  0.456056  0.749999  0.402513  1
  Si  Si6  1  0.543944  0.250001  0.597488  1
  Si  Si7  1  0.170690  0.250001  0.993743  1
