# generated using pymatgen
data_SrSm5YOsBr12
_symmetry_space_group_name_H-M   'P 1'
_cell_length_a   9.41653217
_cell_length_b   9.50085759
_cell_length_c   9.42009786
_cell_angle_alpha   106.41633798
_cell_angle_beta   106.15538854
_cell_angle_gamma   105.92529952
_symmetry_Int_Tables_number   1
_chemical_formula_structural   SrSm5YOsBr12
_chemical_formula_sum   'Sr1 Sm5 Y1 Os1 Br12'
_cell_volume   717.23176462
_cell_formula_units_Z   1
loop_
 _symmetry_equiv_pos_site_id
 _symmetry_equiv_pos_as_xyz
  1  'x, y, z'
loop_
 _atom_site_type_symbol
 _atom_site_label
 _atom_site_symmetry_multiplicity
 _atom_site_fract_x
 _atom_site_fract_y
 _atom_site_fract_z
 _atom_site_occupancy
  Sr  Sr0  1  0.499826  0.500208  0.499629  1
  Sm  Sm1  1  0.306298  0.019304  0.100572  1
  Sm  Sm2  1  0.019762  0.101313  0.307148  1
  Sm  Sm3  1  0.980824  0.900656  0.693554  1
  Sm  Sm4  1  0.694235  0.981275  0.899488  1
  Sm  Sm5  1  0.896195  0.683579  0.980546  1
  Y  Y6  1  0.102776  0.313148  0.020095  1
  Os  Os7  1  0.000397  0.000342  0.000568  1
  Br  Br8  1  0.218429  0.674973  0.071627  1
  Br  Br9  1  0.442774  0.364874  0.143132  1
  Br  Br10  1  0.679242  0.072622  0.219499  1
  Br  Br11  1  0.928072  0.782018  0.321210  1
  Br  Br12  1  0.144846  0.446822  0.361429  1
  Br  Br13  1  0.365980  0.146986  0.448135  1
  Br  Br14  1  0.634138  0.853369  0.552000  1
  Br  Br15  1  0.854686  0.553316  0.634549  1
  Br  Br16  1  0.073049  0.221109  0.683301  1
  Br  Br17  1  0.320787  0.927626  0.780609  1
  Br  Br18  1  0.552069  0.635388  0.854141  1
  Br  Br19  1  0.785612  0.321078  0.928770  1
