# generated using pymatgen
data_NaSc4Ni9As7
_symmetry_space_group_name_H-M   'P 1'
_cell_length_a   9.72056000
_cell_length_b   9.72056009
_cell_length_c   3.86291200
_cell_angle_alpha   90.00000000
_cell_angle_beta   90.00000000
_cell_angle_gamma   119.99999970
_symmetry_Int_Tables_number   1
_chemical_formula_structural   NaSc4Ni9As7
_chemical_formula_sum   'Na1 Sc4 Ni9 As7'
_cell_volume   316.10256665
_cell_formula_units_Z   1
loop_
 _symmetry_equiv_pos_site_id
 _symmetry_equiv_pos_as_xyz
  1  'x, y, z'
loop_
 _atom_site_type_symbol
 _atom_site_label
 _atom_site_symmetry_multiplicity
 _atom_site_fract_x
 _atom_site_fract_y
 _atom_site_fract_z
 _atom_site_occupancy
  Na  Na0  1  0.666667  0.333333  0.500000  1
  Sc  Sc1  1  0.233807  0.123486  0.500000  1
  Sc  Sc2  1  0.876514  0.110320  0.500000  1
  Sc  Sc3  1  0.889680  0.766193  0.500000  1
  Sc  Sc4  1  0.333333  0.666667  0.000000  1
  Ni  Ni5  1  0.125776  0.287791  0.000000  1
  Ni  Ni6  1  0.712209  0.837985  0.000000  1
  Ni  Ni7  1  0.162015  0.874224  0.000000  1
  Ni  Ni8  1  0.418906  0.361741  0.000000  1
  Ni  Ni9  1  0.638259  0.057166  0.000000  1
  Ni  Ni10  1  0.942834  0.581094  0.000000  1
  Ni  Ni11  1  0.054650  0.443938  0.500000  1
  Ni  Ni12  1  0.556062  0.610712  0.500000  1
  Ni  Ni13  1  0.389288  0.945350  0.500000  1
  As  As14  1  0.287394  0.423474  0.500000  1
  As  As15  1  0.576526  0.863921  0.500000  1
  As  As16  1  0.136079  0.712606  0.500000  1
  As  As17  1  0.427109  0.109989  0.000000  1
  As  As18  1  0.890011  0.317121  0.000000  1
  As  As19  1  0.682879  0.572891  0.000000  1
  As  As20  1  0.000000  0.000000  0.000000  1
