# generated using pymatgen
data_DyYGa2NiIr
_symmetry_space_group_name_H-M   'P 1'
_cell_length_a   4.33428900
_cell_length_b   6.82423700
_cell_length_c   7.58256500
_cell_angle_alpha   90.00000000
_cell_angle_beta   90.00000000
_cell_angle_gamma   90.00000000
_symmetry_Int_Tables_number   1
_chemical_formula_structural   DyYGa2NiIr
_chemical_formula_sum   'Dy2 Y2 Ga4 Ni2 Ir2'
_cell_volume   224.27874057
_cell_formula_units_Z   2
loop_
 _symmetry_equiv_pos_site_id
 _symmetry_equiv_pos_as_xyz
  1  'x, y, z'
loop_
 _atom_site_type_symbol
 _atom_site_label
 _atom_site_symmetry_multiplicity
 _atom_site_fract_x
 _atom_site_fract_y
 _atom_site_fract_z
 _atom_site_occupancy
  Dy  Dy0  1  0.750000  0.983283  0.191543  1
  Dy  Dy1  1  0.750000  0.483283  0.308457  1
  Y  Y2  1  0.250000  0.020709  0.809768  1
  Y  Y3  1  0.250000  0.520709  0.690232  1
  Ga  Ga4  1  0.250000  0.167759  0.435805  1
  Ga  Ga5  1  0.250000  0.667759  0.064195  1
  Ga  Ga6  1  0.750000  0.837408  0.581373  1
  Ga  Ga7  1  0.750000  0.337408  0.918627  1
  Ni  Ni8  1  0.750000  0.214284  0.603269  1
  Ni  Ni9  1  0.750000  0.714284  0.896731  1
  Ir  Ir10  1  0.250000  0.776557  0.394900  1
  Ir  Ir11  1  0.250000  0.276557  0.105100  1
