# generated using pymatgen
data_Ac3SmSn12
_symmetry_space_group_name_H-M   'P 1'
_cell_length_a   12.23091830
_cell_length_b   12.23091883
_cell_length_c   12.23091808
_cell_angle_alpha   32.46534597
_cell_angle_beta   32.46534089
_cell_angle_gamma   32.46534871
_symmetry_Int_Tables_number   1
_chemical_formula_structural   Ac3SmSn12
_chemical_formula_sum   'Ac3 Sm1 Sn12'
_cell_volume   468.76994015
_cell_formula_units_Z   1
loop_
 _symmetry_equiv_pos_site_id
 _symmetry_equiv_pos_as_xyz
  1  'x, y, z'
loop_
 _atom_site_type_symbol
 _atom_site_label
 _atom_site_symmetry_multiplicity
 _atom_site_fract_x
 _atom_site_fract_y
 _atom_site_fract_z
 _atom_site_occupancy
  Ac  Ac0  1  0.875987  0.875987  0.875987  1
  Ac  Ac1  1  0.122817  0.122817  0.122817  1
  Ac  Ac2  1  0.707082  0.707082  0.707082  1
  Sm  Sm3  1  0.294172  0.294172  0.294172  1
  Sn  Sn4  1  0.291758  0.791696  0.791696  1
  Sn  Sn5  1  0.791696  0.791696  0.291758  1
  Sn  Sn6  1  0.854821  0.389424  0.389424  1
  Sn  Sn7  1  0.389424  0.389424  0.854821  1
  Sn  Sn8  1  0.389424  0.854821  0.389424  1
  Sn  Sn9  1  0.607557  0.156158  0.607557  1
  Sn  Sn10  1  0.156158  0.607557  0.607557  1
  Sn  Sn11  1  0.607557  0.607557  0.156158  1
  Sn  Sn12  1  0.791696  0.291758  0.791696  1
  Sn  Sn13  1  0.209442  0.700967  0.209442  1
  Sn  Sn14  1  0.209442  0.209442  0.700967  1
  Sn  Sn15  1  0.700967  0.209442  0.209442  1
