# generated using pymatgen
data_SmCoAs3Rh4
_symmetry_space_group_name_H-M   'P 1'
_cell_length_a   3.95579100
_cell_length_b   11.26536200
_cell_length_c   12.88480000
_cell_angle_alpha   90.00000000
_cell_angle_beta   90.00000000
_cell_angle_gamma   90.00000000
_symmetry_Int_Tables_number   1
_chemical_formula_structural   SmCoAs3Rh4
_chemical_formula_sum   'Sm4 Co4 As12 Rh16'
_cell_volume   574.19072324
_cell_formula_units_Z   4
loop_
 _symmetry_equiv_pos_site_id
 _symmetry_equiv_pos_as_xyz
  1  'x, y, z'
loop_
 _atom_site_type_symbol
 _atom_site_label
 _atom_site_symmetry_multiplicity
 _atom_site_fract_x
 _atom_site_fract_y
 _atom_site_fract_z
 _atom_site_occupancy
  Sm  Sm0  1  0.250000  0.584064  0.706728  1
  Sm  Sm1  1  0.250000  0.915936  0.206728  1
  Sm  Sm2  1  0.750000  0.415936  0.293272  1
  Sm  Sm3  1  0.750000  0.084064  0.793272  1
  Co  Co4  1  0.250000  0.466752  0.932827  1
  Co  Co5  1  0.250000  0.033248  0.432827  1
  Co  Co6  1  0.750000  0.533248  0.067173  1
  Co  Co7  1  0.750000  0.966752  0.567173  1
  As  As8  1  0.250000  0.420681  0.106228  1
  As  As9  1  0.250000  0.079319  0.606228  1
  As  As10  1  0.750000  0.579319  0.893772  1
  As  As11  1  0.750000  0.920681  0.393772  1
  As  As12  1  0.250000  0.273242  0.873629  1
  As  As13  1  0.250000  0.226758  0.373629  1
  As  As14  1  0.750000  0.726758  0.126371  1
  As  As15  1  0.750000  0.773242  0.626371  1
  As  As16  1  0.250000  0.601038  0.388636  1
  As  As17  1  0.250000  0.898962  0.888636  1
  As  As18  1  0.750000  0.398962  0.611364  1
  As  As19  1  0.750000  0.101038  0.111364  1
  Rh  Rh20  1  0.250000  0.711799  0.988023  1
  Rh  Rh21  1  0.250000  0.788201  0.488023  1
  Rh  Rh22  1  0.750000  0.288201  0.011977  1
  Rh  Rh23  1  0.750000  0.211799  0.511977  1
  Rh  Rh24  1  0.250000  0.407677  0.481497  1
  Rh  Rh25  1  0.250000  0.092323  0.981497  1
  Rh  Rh26  1  0.750000  0.592323  0.518503  1
  Rh  Rh27  1  0.750000  0.907677  0.018503  1
  Rh  Rh28  1  0.250000  0.222133  0.178230  1
  Rh  Rh29  1  0.250000  0.277867  0.678230  1
  Rh  Rh30  1  0.750000  0.777867  0.821770  1
  Rh  Rh31  1  0.750000  0.722133  0.321770  1
  Rh  Rh32  1  0.250000  0.886842  0.696499  1
  Rh  Rh33  1  0.250000  0.613158  0.196499  1
  Rh  Rh34  1  0.750000  0.113158  0.303501  1
  Rh  Rh35  1  0.750000  0.386842  0.803501  1
