# generated using pymatgen
data_ErBi3Ru2O11
_symmetry_space_group_name_H-M   'P 1'
_cell_length_a   6.52385343
_cell_length_b   7.51651223
_cell_length_c   9.79376399
_cell_angle_alpha   100.95590884
_cell_angle_beta   91.20925558
_cell_angle_gamma   90.15220170
_symmetry_Int_Tables_number   1
_chemical_formula_structural   ErBi3Ru2O11
_chemical_formula_sum   'Er2 Bi6 Ru4 O22'
_cell_volume   471.38401459
_cell_formula_units_Z   2
loop_
 _symmetry_equiv_pos_site_id
 _symmetry_equiv_pos_as_xyz
  1  'x, y, z'
loop_
 _atom_site_type_symbol
 _atom_site_label
 _atom_site_symmetry_multiplicity
 _atom_site_fract_x
 _atom_site_fract_y
 _atom_site_fract_z
 _atom_site_occupancy
  Er  Er0  1  0.749298  0.371826  0.478555  1
  Er  Er1  1  0.250702  0.628174  0.521445  1
  Bi  Bi2  1  0.757465  0.869538  0.491587  1
  Bi  Bi3  1  0.242535  0.130462  0.508413  1
  Bi  Bi4  1  0.469314  0.952244  0.820097  1
  Bi  Bi5  1  0.530686  0.047756  0.179903  1
  Bi  Bi6  1  0.396776  0.453407  0.824911  1
  Bi  Bi7  1  0.603224  0.546593  0.175089  1
  Ru  Ru8  1  0.932639  0.702434  0.810192  1
  Ru  Ru9  1  0.067361  0.297566  0.189808  1
  Ru  Ru10  1  0.929300  0.203620  0.811770  1
  Ru  Ru11  1  0.070700  0.796380  0.188230  1
  O  O12  1  0.228005  0.719505  0.758904  1
  O  O13  1  0.771995  0.280495  0.241096  1
  O  O14  1  0.636428  0.674169  0.834427  1
  O  O15  1  0.363572  0.325831  0.165573  1
  O  O16  1  0.634493  0.243711  0.847736  1
  O  O17  1  0.365507  0.756289  0.152264  1
  O  O18  1  0.881974  0.184528  0.607153  1
  O  O19  1  0.118026  0.815472  0.392847  1
  O  O20  1  0.224183  0.157853  0.760229  1
  O  O21  1  0.775817  0.842147  0.239771  1
  O  O22  1  0.903376  0.625712  0.600708  1
  O  O23  1  0.096624  0.374288  0.399292  1
  O  O24  1  0.007027  0.542663  0.171665  1
  O  O25  1  0.992973  0.457337  0.828335  1
  O  O26  1  0.998280  0.786557  0.999133  1
  O  O27  1  0.001720  0.213443  0.000867  1
  O  O28  1  0.569023  0.599154  0.397947  1
  O  O29  1  0.430977  0.400846  0.602053  1
  O  O30  1  0.158021  0.055488  0.222948  1
  O  O31  1  0.841979  0.944512  0.777052  1
  O  O32  1  0.550152  0.105563  0.402007  1
  O  O33  1  0.449848  0.894437  0.597993  1
