# generated using pymatgen
data_Er10In8AgPt2Au
_symmetry_space_group_name_H-M   'P 1'
_cell_length_a   3.62154200
_cell_length_b   8.14020409
_cell_length_c   18.29274734
_cell_angle_alpha   90.03892161
_cell_angle_beta   90.00000000
_cell_angle_gamma   90.00000000
_symmetry_Int_Tables_number   1
_chemical_formula_structural   Er10In8AgPt2Au
_chemical_formula_sum   'Er10 In8 Ag1 Pt2 Au1'
_cell_volume   539.27173203
_cell_formula_units_Z   1
loop_
 _symmetry_equiv_pos_site_id
 _symmetry_equiv_pos_as_xyz
  1  'x, y, z'
loop_
 _atom_site_type_symbol
 _atom_site_label
 _atom_site_symmetry_multiplicity
 _atom_site_fract_x
 _atom_site_fract_y
 _atom_site_fract_z
 _atom_site_occupancy
  Er  Er0  1  0.000000  0.120901  0.422066  1
  Er  Er1  1  0.000000  0.880869  0.581114  1
  Er  Er2  1  0.000000  0.385078  0.916246  1
  Er  Er3  1  0.000000  0.617755  0.083226  1
  Er  Er4  1  0.000000  0.256254  0.214323  1
  Er  Er5  1  0.000000  0.746958  0.782879  1
  Er  Er6  1  0.000000  0.267788  0.721987  1
  Er  Er7  1  0.000000  0.724198  0.279469  1
  Er  Er8  1  0.000000  0.000278  0.000048  1
  Er  Er9  1  0.000000  0.501497  0.499861  1
  In  In10  1  0.500000  0.414501  0.352387  1
  In  In11  1  0.500000  0.578178  0.647357  1
  In  In12  1  0.500000  0.077356  0.852957  1
  In  In13  1  0.500000  0.922751  0.148373  1
  In  In14  1  0.500000  0.293475  0.064036  1
  In  In15  1  0.500000  0.709650  0.934437  1
  In  In16  1  0.500000  0.212152  0.568607  1
  In  In17  1  0.500000  0.791446  0.431524  1
  Ag  Ag18  1  0.500000  0.028308  0.301852  1
  Pt  Pt19  1  0.500000  0.472519  0.804431  1
  Pt  Pt20  1  0.500000  0.527848  0.195127  1
  Au  Au21  1  0.500000  0.970238  0.697693  1
