# generated using pymatgen
data_U4AlVIr6
_symmetry_space_group_name_H-M   'P 1'
_cell_length_a   5.56827300
_cell_length_b   5.56827423
_cell_length_c   7.84626600
_cell_angle_alpha   90.00000000
_cell_angle_beta   90.00000000
_cell_angle_gamma   119.99999866
_symmetry_Int_Tables_number   1
_chemical_formula_structural   U4AlVIr6
_chemical_formula_sum   'U4 Al1 V1 Ir6'
_cell_volume   210.68557396
_cell_formula_units_Z   1
loop_
 _symmetry_equiv_pos_site_id
 _symmetry_equiv_pos_as_xyz
  1  'x, y, z'
loop_
 _atom_site_type_symbol
 _atom_site_label
 _atom_site_symmetry_multiplicity
 _atom_site_fract_x
 _atom_site_fract_y
 _atom_site_fract_z
 _atom_site_occupancy
  U  U0  1  0.333333  0.666667  0.425798  1
  U  U1  1  0.666667  0.333333  0.917463  1
  U  U2  1  0.666667  0.333333  0.574202  1
  U  U3  1  0.333333  0.666667  0.082537  1
  Al  Al4  1  0.000000  0.000000  0.000000  1
  V  V5  1  0.000000  0.000000  0.500000  1
  Ir  Ir6  1  0.169548  0.830452  0.748452  1
  Ir  Ir7  1  0.339095  0.169548  0.251548  1
  Ir  Ir8  1  0.830452  0.169548  0.251548  1
  Ir  Ir9  1  0.660905  0.830452  0.748452  1
  Ir  Ir10  1  0.169548  0.339095  0.748452  1
  Ir  Ir11  1  0.830452  0.660905  0.251548  1
