# generated using pymatgen
data_DyNb6TlSe12
_symmetry_space_group_name_H-M   'P 1'
_cell_length_a   6.14266400
_cell_length_b   6.14266394
_cell_length_c   15.66033400
_cell_angle_alpha   90.00000000
_cell_angle_beta   90.00000000
_cell_angle_gamma   120.00000033
_symmetry_Int_Tables_number   1
_chemical_formula_structural   DyNb6TlSe12
_chemical_formula_sum   'Dy1 Nb6 Tl1 Se12'
_cell_volume   511.73505355
_cell_formula_units_Z   1
loop_
 _symmetry_equiv_pos_site_id
 _symmetry_equiv_pos_as_xyz
  1  'x, y, z'
loop_
 _atom_site_type_symbol
 _atom_site_label
 _atom_site_symmetry_multiplicity
 _atom_site_fract_x
 _atom_site_fract_y
 _atom_site_fract_z
 _atom_site_occupancy
  Dy  Dy0  1  0.000000  0.000000  0.000000  1
  Nb  Nb1  1  0.000000  0.000000  0.768549  1
  Nb  Nb2  1  0.000000  0.000000  0.231451  1
  Nb  Nb3  1  0.333333  0.666667  0.231851  1
  Nb  Nb4  1  0.666667  0.333333  0.768149  1
  Nb  Nb5  1  0.666667  0.333333  0.231851  1
  Nb  Nb6  1  0.333333  0.666667  0.768149  1
  Tl  Tl7  1  0.000000  0.000000  0.500000  1
  Se  Se8  1  0.337086  0.000000  0.125052  1
  Se  Se9  1  0.000000  0.337086  0.125052  1
  Se  Se10  1  0.662914  0.662914  0.125052  1
  Se  Se11  1  0.335123  0.335123  0.663160  1
  Se  Se12  1  0.664877  0.664877  0.336840  1
  Se  Se13  1  0.664877  0.000000  0.663160  1
  Se  Se14  1  0.000000  0.664877  0.663160  1
  Se  Se15  1  0.000000  0.662914  0.874948  1
  Se  Se16  1  0.337086  0.337086  0.874948  1
  Se  Se17  1  0.000000  0.335123  0.336840  1
  Se  Se18  1  0.335123  0.000000  0.336840  1
  Se  Se19  1  0.662914  0.000000  0.874948  1
