# generated using pymatgen
data_Y6Al17Si7Ru8
_symmetry_space_group_name_H-M   'P 1'
_cell_length_a   8.66597778
_cell_length_b   8.67782804
_cell_length_c   9.50175400
_cell_angle_alpha   90.00000000
_cell_angle_beta   90.00000000
_cell_angle_gamma   119.88158442
_symmetry_Int_Tables_number   1
_chemical_formula_structural   Y6Al17Si7Ru8
_chemical_formula_sum   'Y6 Al17 Si7 Ru8'
_cell_volume   619.55519627
_cell_formula_units_Z   1
loop_
 _symmetry_equiv_pos_site_id
 _symmetry_equiv_pos_as_xyz
  1  'x, y, z'
loop_
 _atom_site_type_symbol
 _atom_site_label
 _atom_site_symmetry_multiplicity
 _atom_site_fract_x
 _atom_site_fract_y
 _atom_site_fract_z
 _atom_site_occupancy
  Y  Y0  1  0.808293  0.195213  0.750000  1
  Y  Y1  1  0.192303  0.807432  0.250000  1
  Y  Y2  1  0.387791  0.196068  0.750000  1
  Y  Y3  1  0.613316  0.803525  0.250000  1
  Y  Y4  1  0.804946  0.610987  0.750000  1
  Y  Y5  1  0.196774  0.387738  0.250000  1
  Al  Al6  1  0.835661  0.165156  0.420984  1
  Al  Al7  1  0.165518  0.836272  0.580251  1
  Al  Al8  1  0.329080  0.164251  0.421692  1
  Al  Al9  1  0.165518  0.836272  0.919749  1
  Al  Al10  1  0.670082  0.835834  0.578919  1
  Al  Al11  1  0.835661  0.165156  0.079016  1
  Al  Al12  1  0.836001  0.670573  0.422794  1
  Al  Al13  1  0.670082  0.835834  0.921081  1
  Al  Al14  1  0.164816  0.329294  0.579238  1
  Al  Al15  1  0.329080  0.164251  0.078308  1
  Al  Al16  1  0.164816  0.329294  0.920762  1
  Al  Al17  1  0.836001  0.670573  0.077206  1
  Al  Al18  1  0.874499  0.439947  0.250000  1
  Al  Al19  1  0.435943  0.871538  0.750000  1
  Al  Al20  1  0.560656  0.126389  0.250000  1
  Al  Al21  1  0.000337  0.999292  0.750000  1
  Al  Al22  1  0.000324  0.001237  0.250000  1
  Si  Si23  1  0.666553  0.330971  0.962177  1
  Si  Si24  1  0.333550  0.669403  0.039216  1
  Si  Si25  1  0.333550  0.669403  0.460784  1
  Si  Si26  1  0.666553  0.330971  0.537823  1
  Si  Si27  1  0.434989  0.559476  0.750000  1
  Si  Si28  1  0.563188  0.436882  0.250000  1
  Si  Si29  1  0.124704  0.559589  0.750000  1
  Ru  Ru30  1  0.499059  0.500313  0.998958  1
  Ru  Ru31  1  0.001746  0.500991  0.993750  1
  Ru  Ru32  1  0.499059  0.500313  0.501042  1
  Ru  Ru33  1  0.499252  0.999400  0.999838  1
  Ru  Ru34  1  0.001746  0.500991  0.506250  1
  Ru  Ru35  1  0.499252  0.999400  0.500162  1
  Ru  Ru36  1  0.999649  0.999885  0.000289  1
  Ru  Ru37  1  0.999649  0.999885  0.499711  1
