# generated using pymatgen
data_La3Dy3Co2(P3Rh4)4
_symmetry_space_group_name_H-M   'P 1'
_cell_length_a   3.90922000
_cell_length_b   11.22608417
_cell_length_c   12.91178534
_cell_angle_alpha   90.05225227
_cell_angle_beta   90.00000000
_cell_angle_gamma   90.00000000
_symmetry_Int_Tables_number   1
_chemical_formula_structural   La3Dy3Co2(P3Rh4)4
_chemical_formula_sum   'La3 Dy3 Co2 P12 Rh16'
_cell_volume   566.63646930
_cell_formula_units_Z   1
loop_
 _symmetry_equiv_pos_site_id
 _symmetry_equiv_pos_as_xyz
  1  'x, y, z'
loop_
 _atom_site_type_symbol
 _atom_site_label
 _atom_site_symmetry_multiplicity
 _atom_site_fract_x
 _atom_site_fract_y
 _atom_site_fract_z
 _atom_site_occupancy
  La  La0  1  0.000000  0.499755  0.524095  1
  La  La1  1  0.500000  0.000737  0.477471  1
  La  La2  1  0.500000  0.816093  0.201393  1
  Dy  Dy3  1  0.500000  0.186224  0.200249  1
  Dy  Dy4  1  0.000000  0.684359  0.799085  1
  Dy  Dy5  1  0.000000  0.314789  0.798593  1
  Co  Co6  1  0.000000  0.498452  0.978375  1
  Co  Co7  1  0.500000  0.001962  0.015917  1
  P  P8  1  0.500000  0.498737  0.882473  1
  P  P9  1  0.000000  0.002759  0.113981  1
  P  P10  1  0.500000  0.500177  0.346288  1
  P  P11  1  0.000000  0.999742  0.654237  1
  P  P12  1  0.500000  0.312308  0.621666  1
  P  P13  1  0.500000  0.687104  0.623231  1
  P  P14  1  0.000000  0.188834  0.378682  1
  P  P15  1  0.000000  0.811684  0.383792  1
  P  P16  1  0.500000  0.851427  0.896500  1
  P  P17  1  0.500000  0.148799  0.895762  1
  P  P18  1  0.000000  0.641784  0.101322  1
  P  P19  1  0.000000  0.353094  0.102647  1
  Rh  Rh20  1  0.500000  0.501002  0.166083  1
  Rh  Rh21  1  0.000000  0.002126  0.833871  1
  Rh  Rh22  1  0.500000  0.499422  0.707129  1
  Rh  Rh23  1  0.000000  0.002704  0.294045  1
  Rh  Rh24  1  0.500000  0.337058  0.994539  1
  Rh  Rh25  1  0.500000  0.661720  0.992640  1
  Rh  Rh26  1  0.000000  0.165208  0.004640  1
  Rh  Rh27  1  0.000000  0.836919  0.001631  1
  Rh  Rh28  1  0.500000  0.293003  0.428687  1
  Rh  Rh29  1  0.500000  0.705988  0.431912  1
  Rh  Rh30  1  0.000000  0.207670  0.572110  1
  Rh  Rh31  1  0.000000  0.793302  0.573341  1
  Rh  Rh32  1  0.500000  0.873549  0.715705  1
  Rh  Rh33  1  0.500000  0.126327  0.714250  1
  Rh  Rh34  1  0.000000  0.622467  0.289107  1
  Rh  Rh35  1  0.000000  0.372716  0.284552  1
