# generated using pymatgen
data_Nd4Ga24PdRh
_symmetry_space_group_name_H-M   'P 1'
_cell_length_a   6.17093700
_cell_length_b   6.17093700
_cell_length_c   15.58994800
_cell_angle_alpha   90.00000000
_cell_angle_beta   90.00000000
_cell_angle_gamma   90.00000000
_symmetry_Int_Tables_number   1
_chemical_formula_structural   Nd4Ga24PdRh
_chemical_formula_sum   'Nd4 Ga24 Pd1 Rh1'
_cell_volume   593.67244513
_cell_formula_units_Z   1
loop_
 _symmetry_equiv_pos_site_id
 _symmetry_equiv_pos_as_xyz
  1  'x, y, z'
loop_
 _atom_site_type_symbol
 _atom_site_label
 _atom_site_symmetry_multiplicity
 _atom_site_fract_x
 _atom_site_fract_y
 _atom_site_fract_z
 _atom_site_occupancy
  Nd  Nd0  1  0.750000  0.250000  0.245374  1
  Nd  Nd1  1  0.250000  0.750000  0.243833  1
  Nd  Nd2  1  0.250000  0.750000  0.756167  1
  Nd  Nd3  1  0.750000  0.250000  0.754626  1
  Ga  Ga4  1  0.250000  0.250000  0.187436  1
  Ga  Ga5  1  0.750000  0.750000  0.187436  1
  Ga  Ga6  1  0.750000  0.750000  0.812564  1
  Ga  Ga7  1  0.250000  0.250000  0.812564  1
  Ga  Ga8  1  0.250000  0.250000  0.346063  1
  Ga  Ga9  1  0.750000  0.750000  0.346063  1
  Ga  Ga10  1  0.750000  0.750000  0.653937  1
  Ga  Ga11  1  0.250000  0.250000  0.653937  1
  Ga  Ga12  1  0.502662  0.002662  0.911987  1
  Ga  Ga13  1  0.997315  0.002685  0.912254  1
  Ga  Ga14  1  0.502685  0.497315  0.912254  1
  Ga  Ga15  1  0.997338  0.497338  0.911987  1
  Ga  Ga16  1  0.502685  0.002685  0.087746  1
  Ga  Ga17  1  0.997338  0.002662  0.088013  1
  Ga  Ga18  1  0.502662  0.497338  0.088013  1
  Ga  Ga19  1  0.997315  0.497315  0.087746  1
  Ga  Ga20  1  0.581576  0.081576  0.431632  1
  Ga  Ga21  1  0.082210  0.917790  0.431106  1
  Ga  Ga22  1  0.417790  0.582210  0.431106  1
  Ga  Ga23  1  0.918424  0.418424  0.431632  1
  Ga  Ga24  1  0.417790  0.917790  0.568894  1
  Ga  Ga25  1  0.918424  0.081576  0.568368  1
  Ga  Ga26  1  0.581576  0.418424  0.568368  1
  Ga  Ga27  1  0.082210  0.582210  0.568894  1
  Pd  Pd28  1  0.250000  0.750000  0.000000  1
  Rh  Rh29  1  0.750000  0.250000  0.000000  1
