# generated using pymatgen
data_YTc4GeP
_symmetry_space_group_name_H-M   'P 1'
_cell_length_a   7.45175531
_cell_length_b   7.45175531
_cell_length_c   4.07979000
_cell_angle_alpha   90.00000000
_cell_angle_beta   90.00000000
_cell_angle_gamma   89.65227679
_symmetry_Int_Tables_number   1
_chemical_formula_structural   YTc4GeP
_chemical_formula_sum   'Y2 Tc8 Ge2 P2'
_cell_volume   226.54108820
_cell_formula_units_Z   2
loop_
 _symmetry_equiv_pos_site_id
 _symmetry_equiv_pos_as_xyz
  1  'x, y, z'
loop_
 _atom_site_type_symbol
 _atom_site_label
 _atom_site_symmetry_multiplicity
 _atom_site_fract_x
 _atom_site_fract_y
 _atom_site_fract_z
 _atom_site_occupancy
  Y  Y0  1  0.000000  0.000000  0.000000  1
  Y  Y1  1  0.500000  0.500000  0.500000  1
  Tc  Tc2  1  0.578235  0.157966  0.000000  1
  Tc  Tc3  1  0.421765  0.842034  0.000000  1
  Tc  Tc4  1  0.651527  0.901054  0.500000  1
  Tc  Tc5  1  0.098946  0.348473  0.500000  1
  Tc  Tc6  1  0.348473  0.098946  0.500000  1
  Tc  Tc7  1  0.901054  0.651527  0.500000  1
  Tc  Tc8  1  0.157966  0.578235  0.000000  1
  Tc  Tc9  1  0.842034  0.421765  0.000000  1
  Ge  Ge10  1  0.789777  0.210223  0.500000  1
  Ge  Ge11  1  0.210223  0.789777  0.500000  1
  P  P12  1  0.295725  0.295725  0.000000  1
  P  P13  1  0.704275  0.704275  0.000000  1
