# generated using pymatgen
data_Nb6Al2Ga2FeCuC2
_symmetry_space_group_name_H-M   'P 1'
_cell_length_a   8.31028133
_cell_length_b   8.31028074
_cell_length_c   8.31028000
_cell_angle_alpha   60.01262059
_cell_angle_beta   60.01262294
_cell_angle_gamma   60.01261500
_symmetry_Int_Tables_number   1
_chemical_formula_structural   Nb6Al2Ga2FeCuC2
_chemical_formula_sum   'Nb12 Al4 Ga4 Fe2 Cu2 C4'
_cell_volume   405.93482605
_cell_formula_units_Z   2
loop_
 _symmetry_equiv_pos_site_id
 _symmetry_equiv_pos_as_xyz
  1  'x, y, z'
loop_
 _atom_site_type_symbol
 _atom_site_label
 _atom_site_symmetry_multiplicity
 _atom_site_fract_x
 _atom_site_fract_y
 _atom_site_fract_z
 _atom_site_occupancy
  Nb  Nb0  1  0.567152  0.938566  0.557223  1
  Nb  Nb1  1  0.316502  0.683307  0.683307  1
  Nb  Nb2  1  0.690400  0.309165  0.309165  1
  Nb  Nb3  1  0.313363  0.692270  0.311538  1
  Nb  Nb4  1  0.682761  0.692589  0.311597  1
  Nb  Nb5  1  0.313363  0.311538  0.692270  1
  Nb  Nb6  1  0.567152  0.557223  0.938566  1
  Nb  Nb7  1  0.933462  0.566498  0.566498  1
  Nb  Nb8  1  0.559745  0.940461  0.940461  1
  Nb  Nb9  1  0.937831  0.939067  0.556579  1
  Nb  Nb10  1  0.682761  0.311597  0.692589  1
  Nb  Nb11  1  0.937831  0.556579  0.939067  1
  Al  Al12  1  0.917335  0.245612  0.920451  1
  Al  Al13  1  0.917335  0.920451  0.245612  1
  Al  Al14  1  0.252493  0.917158  0.917158  1
  Al  Al15  1  0.335642  0.333225  0.333225  1
  Ga  Ga16  1  0.913139  0.915954  0.915954  1
  Ga  Ga17  1  0.993123  0.334570  0.334570  1
  Ga  Ga18  1  0.333605  0.000772  0.331595  1
  Ga  Ga19  1  0.333605  0.331595  0.000772  1
  Fe  Fe20  1  0.124215  0.124230  0.124230  1
  Fe  Fe21  1  0.624555  0.125924  0.125924  1
  Cu  Cu22  1  0.126152  0.625074  0.126644  1
  Cu  Cu23  1  0.126152  0.126644  0.625074  1
  C  C24  1  0.624874  0.624712  0.624712  1
  C  C25  1  0.124274  0.625519  0.625519  1
  C  C26  1  0.625589  0.124399  0.625299  1
  C  C27  1  0.625589  0.625299  0.124399  1
