# generated using pymatgen
data_Y3Ho2P12Pd4Ru15
_symmetry_space_group_name_H-M   'P 1'
_cell_length_a   12.71813304
_cell_length_b   12.63527968
_cell_length_c   3.96611000
_cell_angle_alpha   90.00000000
_cell_angle_beta   90.00000000
_cell_angle_gamma   120.37581924
_symmetry_Int_Tables_number   1
_chemical_formula_structural   Y3Ho2P12Pd4Ru15
_chemical_formula_sum   'Y3 Ho2 P12 Pd4 Ru15'
_cell_volume   549.85280701
_cell_formula_units_Z   1
loop_
 _symmetry_equiv_pos_site_id
 _symmetry_equiv_pos_as_xyz
  1  'x, y, z'
loop_
 _atom_site_type_symbol
 _atom_site_label
 _atom_site_symmetry_multiplicity
 _atom_site_fract_x
 _atom_site_fract_y
 _atom_site_fract_z
 _atom_site_occupancy
  Y  Y0  1  0.003616  0.179936  0.500000  1
  Y  Y1  1  0.817812  0.814907  0.500000  1
  Y  Y2  1  0.182083  0.999332  0.500000  1
  Ho  Ho3  1  0.663606  0.333513  0.000000  1
  Ho  Ho4  1  0.334505  0.667912  0.000000  1
  P  P5  1  0.001530  0.814578  0.000000  1
  P  P6  1  0.186654  0.185796  0.000000  1
  P  P7  1  0.814937  0.992852  0.000000  1
  P  P8  1  0.687219  0.174589  0.500000  1
  P  P9  1  0.820037  0.518401  0.500000  1
  P  P10  1  0.479591  0.302717  0.500000  1
  P  P11  1  0.179400  0.698589  0.500000  1
  P  P12  1  0.519748  0.821720  0.500000  1
  P  P13  1  0.301789  0.482037  0.500000  1
  P  P14  1  0.009648  0.375569  0.000000  1
  P  P15  1  0.634033  0.634161  0.000000  1
  P  P16  1  0.365408  0.000015  0.000000  1
  Pd  Pd17  1  0.995884  0.551687  0.000000  1
  Pd  Pd18  1  0.447173  0.447132  0.000000  1
  Pd  Pd19  1  0.554495  0.004451  0.000000  1
  Pd  Pd20  1  0.813771  0.187149  0.000000  1
  Ru  Ru21  1  0.000335  0.712749  0.500000  1
  Ru  Ru22  1  0.287520  0.288216  0.500000  1
  Ru  Ru23  1  0.715708  0.003352  0.500000  1
  Ru  Ru24  1  0.814975  0.621073  0.000000  1
  Ru  Ru25  1  0.377447  0.193313  0.000000  1
  Ru  Ru26  1  0.185806  0.805730  0.000000  1
  Ru  Ru27  1  0.621395  0.816201  0.000000  1
  Ru  Ru28  1  0.195634  0.379910  0.000000  1
  Ru  Ru29  1  0.869651  0.362545  0.500000  1
  Ru  Ru30  1  0.631994  0.508142  0.500000  1
  Ru  Ru31  1  0.487800  0.123512  0.500000  1
  Ru  Ru32  1  0.369447  0.874719  0.500000  1
  Ru  Ru33  1  0.507106  0.632256  0.500000  1
  Ru  Ru34  1  0.121702  0.491254  0.500000  1
  Ru  Ru35  1  0.000540  0.999983  0.000000  1
