# generated using pymatgen
data_Li2Er3Ge5P7Ir19
_symmetry_space_group_name_H-M   'P 1'
_cell_length_a   12.85909714
_cell_length_b   12.86156528
_cell_length_c   3.95349700
_cell_angle_alpha   90.00000000
_cell_angle_beta   90.00000000
_cell_angle_gamma   120.09867952
_symmetry_Int_Tables_number   1
_chemical_formula_structural   Li2Er3Ge5P7Ir19
_chemical_formula_sum   'Li2 Er3 Ge5 P7 Ir19'
_cell_volume   565.69669877
_cell_formula_units_Z   1
loop_
 _symmetry_equiv_pos_site_id
 _symmetry_equiv_pos_as_xyz
  1  'x, y, z'
loop_
 _atom_site_type_symbol
 _atom_site_label
 _atom_site_symmetry_multiplicity
 _atom_site_fract_x
 _atom_site_fract_y
 _atom_site_fract_z
 _atom_site_occupancy
  Li  Li0  1  0.823687  0.817635  0.500000  1
  Li  Li1  1  0.176418  0.001546  0.500000  1
  Er  Er2  1  0.666107  0.330484  0.000000  1
  Er  Er3  1  0.331295  0.667136  0.000000  1
  Er  Er4  1  0.001022  0.173349  0.500000  1
  Ge  Ge5  1  0.679793  0.157876  0.500000  1
  Ge  Ge6  1  0.836414  0.518419  0.500000  1
  Ge  Ge7  1  0.645786  0.648254  0.000000  1
  Ge  Ge8  1  0.351442  0.001233  0.000000  1
  Ge  Ge9  1  0.000619  0.357705  0.000000  1
  P  P10  1  0.480085  0.313088  0.500000  1
  P  P11  1  0.174727  0.695235  0.500000  1
  P  P12  1  0.515900  0.824193  0.500000  1
  P  P13  1  0.306766  0.484548  0.500000  1
  P  P14  1  0.180830  0.179508  0.000000  1
  P  P15  1  0.820275  0.988557  0.000000  1
  P  P16  1  0.000355  0.823718  0.000000  1
  Ir  Ir17  1  0.810301  0.167642  0.000000  1
  Ir  Ir18  1  0.823893  0.632132  0.000000  1
  Ir  Ir19  1  0.378535  0.207527  0.000000  1
  Ir  Ir20  1  0.180645  0.794756  0.000000  1
  Ir  Ir21  1  0.609075  0.818060  0.000000  1
  Ir  Ir22  1  0.205333  0.384633  0.000000  1
  Ir  Ir23  1  0.453488  0.456384  0.000000  1
  Ir  Ir24  1  0.550413  0.010706  0.000000  1
  Ir  Ir25  1  0.994209  0.545680  0.000000  1
  Ir  Ir26  1  0.282744  0.288525  0.500000  1
  Ir  Ir27  1  0.720241  0.987974  0.500000  1
  Ir  Ir28  1  0.008328  0.728489  0.500000  1
  Ir  Ir29  1  0.870436  0.350557  0.500000  1
  Ir  Ir30  1  0.635333  0.504137  0.500000  1
  Ir  Ir31  1  0.480376  0.131816  0.500000  1
  Ir  Ir32  1  0.367810  0.869890  0.500000  1
  Ir  Ir33  1  0.500417  0.633969  0.500000  1
  Ir  Ir34  1  0.132425  0.500901  0.500000  1
  Ir  Ir35  1  0.004478  0.003741  0.000000  1
