# generated using pymatgen
data_Ho8Re2OsRuC8
_symmetry_space_group_name_H-M   'P 1'
_cell_length_a   5.08445900
_cell_length_b   6.51711182
_cell_length_c   9.79732945
_cell_angle_alpha   89.95513272
_cell_angle_beta   90.00000000
_cell_angle_gamma   90.00000000
_symmetry_Int_Tables_number   1
_chemical_formula_structural   Ho8Re2OsRuC8
_chemical_formula_sum   'Ho8 Re2 Os1 Ru1 C8'
_cell_volume   324.64408991
_cell_formula_units_Z   1
loop_
 _symmetry_equiv_pos_site_id
 _symmetry_equiv_pos_as_xyz
  1  'x, y, z'
loop_
 _atom_site_type_symbol
 _atom_site_label
 _atom_site_symmetry_multiplicity
 _atom_site_fract_x
 _atom_site_fract_y
 _atom_site_fract_z
 _atom_site_occupancy
  Ho  Ho0  1  0.250000  0.677491  0.555540  1
  Ho  Ho1  1  0.750000  0.319157  0.443264  1
  Ho  Ho2  1  0.750000  0.824958  0.054632  1
  Ho  Ho3  1  0.250000  0.179712  0.943649  1
  Ho  Ho4  1  0.250000  0.530701  0.215676  1
  Ho  Ho5  1  0.750000  0.466664  0.784163  1
  Ho  Ho6  1  0.750000  0.969352  0.714614  1
  Ho  Ho7  1  0.250000  0.032286  0.284588  1
  Re  Re8  1  0.250000  0.721360  0.865804  1
  Re  Re9  1  0.750000  0.778699  0.365614  1
  Os  Os10  1  0.250000  0.222029  0.633892  1
  Ru  Ru11  1  0.750000  0.278631  0.133618  1
  C  C12  1  0.250000  0.455352  0.759686  1
  C  C13  1  0.750000  0.545363  0.242462  1
  C  C14  1  0.750000  0.044348  0.260270  1
  C  C15  1  0.250000  0.955733  0.741203  1
  C  C16  1  0.250000  0.823051  0.052525  1
  C  C17  1  0.750000  0.174827  0.948205  1
  C  C18  1  0.750000  0.676201  0.552203  1
  C  C19  1  0.250000  0.324084  0.448392  1
