# generated using pymatgen
data_Dy4IrRh3O14
_symmetry_space_group_name_H-M   'P 1'
_cell_length_a   7.22912585
_cell_length_b   7.22912688
_cell_length_c   7.23582526
_cell_angle_alpha   60.03061650
_cell_angle_beta   60.03061009
_cell_angle_gamma   59.99999700
_symmetry_Int_Tables_number   1
_chemical_formula_structural   Dy4IrRh3O14
_chemical_formula_sum   'Dy4 Ir1 Rh3 O14'
_cell_volume   267.51337274
_cell_formula_units_Z   1
loop_
 _symmetry_equiv_pos_site_id
 _symmetry_equiv_pos_as_xyz
  1  'x, y, z'
loop_
 _atom_site_type_symbol
 _atom_site_label
 _atom_site_symmetry_multiplicity
 _atom_site_fract_x
 _atom_site_fract_y
 _atom_site_fract_z
 _atom_site_occupancy
  Dy  Dy0  1  0.125000  0.625000  0.125000  1
  Dy  Dy1  1  0.125000  0.125000  0.625000  1
  Dy  Dy2  1  0.625000  0.125000  0.125000  1
  Dy  Dy3  1  0.125000  0.125000  0.125000  1
  Ir  Ir4  1  0.625000  0.625000  0.125000  1
  Rh  Rh5  1  0.625000  0.625000  0.625000  1
  Rh  Rh6  1  0.125000  0.625000  0.625000  1
  Rh  Rh7  1  0.625000  0.125000  0.625000  1
  O  O8  1  0.286387  0.711487  0.715739  1
  O  O9  1  0.539168  0.958312  0.963352  1
  O  O10  1  0.710832  0.710832  0.286648  1
  O  O11  1  0.286387  0.286387  0.715739  1
  O  O12  1  0.999426  0.999426  0.001722  1
  O  O13  1  0.711487  0.286387  0.715739  1
  O  O14  1  0.291688  0.710832  0.286648  1
  O  O15  1  0.958312  0.539168  0.963352  1
  O  O16  1  0.539168  0.539168  0.963352  1
  O  O17  1  0.963613  0.963613  0.534261  1
  O  O18  1  0.250574  0.250574  0.248278  1
  O  O19  1  0.538513  0.963613  0.534261  1
  O  O20  1  0.710832  0.291688  0.286648  1
  O  O21  1  0.963613  0.538513  0.534261  1
