# generated using pymatgen
data_Hf13Ga9Ir7
_symmetry_space_group_name_H-M   'P 1'
_cell_length_a   9.09126525
_cell_length_b   9.09126520
_cell_length_c   9.09126660
_cell_angle_alpha   59.36822000
_cell_angle_beta   59.36822052
_cell_angle_gamma   59.36822098
_symmetry_Int_Tables_number   1
_chemical_formula_structural   Hf13Ga9Ir7
_chemical_formula_sum   'Hf13 Ga9 Ir7'
_cell_volume   523.68200346
_cell_formula_units_Z   1
loop_
 _symmetry_equiv_pos_site_id
 _symmetry_equiv_pos_as_xyz
  1  'x, y, z'
loop_
 _atom_site_type_symbol
 _atom_site_label
 _atom_site_symmetry_multiplicity
 _atom_site_fract_x
 _atom_site_fract_y
 _atom_site_fract_z
 _atom_site_occupancy
  Hf  Hf0  1  0.879045  0.879045  0.370054  1
  Hf  Hf1  1  0.879045  0.370054  0.879045  1
  Hf  Hf2  1  0.370054  0.879045  0.879045  1
  Hf  Hf3  1  0.873062  0.873062  0.873062  1
  Hf  Hf4  1  0.125798  0.125798  0.622993  1
  Hf  Hf5  1  0.125798  0.622993  0.125798  1
  Hf  Hf6  1  0.622993  0.125798  0.125798  1
  Hf  Hf7  1  0.684293  0.684293  0.317685  1
  Hf  Hf8  1  0.312293  0.694179  0.312293  1
  Hf  Hf9  1  0.694179  0.312293  0.312293  1
  Hf  Hf10  1  0.312293  0.312293  0.694179  1
  Hf  Hf11  1  0.684293  0.317685  0.684293  1
  Hf  Hf12  1  0.317685  0.684293  0.684293  1
  Ga  Ga13  1  0.117587  0.117587  0.117587  1
  Ga  Ga14  1  0.651619  0.651619  0.042886  1
  Ga  Ga15  1  0.651619  0.042886  0.651619  1
  Ga  Ga16  1  0.042886  0.651619  0.651619  1
  Ga  Ga17  1  0.654709  0.654709  0.654709  1
  Ga  Ga18  1  0.342461  0.342461  0.968385  1
  Ga  Ga19  1  0.342461  0.968385  0.342461  1
  Ga  Ga20  1  0.968385  0.342461  0.342461  1
  Ga  Ga21  1  0.351565  0.351565  0.351565  1
  Ir  Ir22  1  0.993627  0.993627  0.993627  1
  Ir  Ir23  1  0.000600  0.000600  0.500271  1
  Ir  Ir24  1  0.500872  0.999037  0.500872  1
  Ir  Ir25  1  0.999037  0.500872  0.500872  1
  Ir  Ir26  1  0.500872  0.500872  0.999037  1
  Ir  Ir27  1  0.000600  0.500271  0.000600  1
  Ir  Ir28  1  0.500271  0.000600  0.000600  1
