# generated using pymatgen
data_Mg4ZnB4(RuRh3)2
_symmetry_space_group_name_H-M   'P 1'
_cell_length_a   9.49351766
_cell_length_b   9.49351766
_cell_length_c   2.94385200
_cell_angle_alpha   90.00000000
_cell_angle_beta   90.00000000
_cell_angle_gamma   125.81292328
_symmetry_Int_Tables_number   1
_chemical_formula_structural   Mg4ZnB4(RuRh3)2
_chemical_formula_sum   'Mg4 Zn1 B4 Ru2 Rh6'
_cell_volume   215.15659382
_cell_formula_units_Z   1
loop_
 _symmetry_equiv_pos_site_id
 _symmetry_equiv_pos_as_xyz
  1  'x, y, z'
loop_
 _atom_site_type_symbol
 _atom_site_label
 _atom_site_symmetry_multiplicity
 _atom_site_fract_x
 _atom_site_fract_y
 _atom_site_fract_z
 _atom_site_occupancy
  Mg  Mg0  1  0.206861  0.793139  0.500000  1
  Mg  Mg1  1  0.793139  0.206861  0.500000  1
  Mg  Mg2  1  0.346690  0.346690  0.500000  1
  Mg  Mg3  1  0.653310  0.653310  0.500000  1
  Zn  Zn4  1  0.000000  0.000000  0.500000  1
  B  B5  1  0.467275  0.158493  0.500000  1
  B  B6  1  0.158493  0.467275  0.500000  1
  B  B7  1  0.532725  0.841507  0.500000  1
  B  B8  1  0.841507  0.532725  0.500000  1
  Ru  Ru9  1  0.633246  0.366754  0.000000  1
  Ru  Ru10  1  0.366754  0.633246  0.000000  1
  Rh  Rh11  1  0.923945  0.735073  0.000000  1
  Rh  Rh12  1  0.076055  0.264927  0.000000  1
  Rh  Rh13  1  0.500000  0.000000  0.000000  1
  Rh  Rh14  1  0.264927  0.076055  0.000000  1
  Rh  Rh15  1  0.735073  0.923945  0.000000  1
  Rh  Rh16  1  0.000000  0.500000  0.000000  1
