# generated using pymatgen
data_Sr(NdSn4)3
_symmetry_space_group_name_H-M   'P 1'
_cell_length_a   12.09213233
_cell_length_b   12.09213261
_cell_length_c   12.09213281
_cell_angle_alpha   32.15089741
_cell_angle_beta   32.15089521
_cell_angle_gamma   32.15090038
_symmetry_Int_Tables_number   1
_chemical_formula_structural   Sr(NdSn4)3
_chemical_formula_sum   'Sr1 Nd3 Sn12'
_cell_volume   444.97550533
_cell_formula_units_Z   1
loop_
 _symmetry_equiv_pos_site_id
 _symmetry_equiv_pos_as_xyz
  1  'x, y, z'
loop_
 _atom_site_type_symbol
 _atom_site_label
 _atom_site_symmetry_multiplicity
 _atom_site_fract_x
 _atom_site_fract_y
 _atom_site_fract_z
 _atom_site_occupancy
  Sr  Sr0  1  0.291500  0.291500  0.291500  1
  Nd  Nd1  1  0.878398  0.878398  0.878398  1
  Nd  Nd2  1  0.122663  0.122663  0.122663  1
  Nd  Nd3  1  0.706345  0.706345  0.706345  1
  Sn  Sn4  1  0.292379  0.792820  0.792820  1
  Sn  Sn5  1  0.792820  0.792820  0.292379  1
  Sn  Sn6  1  0.851518  0.386250  0.386250  1
  Sn  Sn7  1  0.386250  0.386250  0.851518  1
  Sn  Sn8  1  0.386250  0.851518  0.386250  1
  Sn  Sn9  1  0.617747  0.138698  0.617747  1
  Sn  Sn10  1  0.138698  0.617747  0.617747  1
  Sn  Sn11  1  0.617747  0.617747  0.138698  1
  Sn  Sn12  1  0.792820  0.292379  0.792820  1
  Sn  Sn13  1  0.208816  0.707234  0.208816  1
  Sn  Sn14  1  0.208816  0.208816  0.707234  1
  Sn  Sn15  1  0.707234  0.208816  0.208816  1
