# generated using pymatgen
data_Pa2Ta2Ni10P7
_symmetry_space_group_name_H-M   'P 1'
_cell_length_a   9.24209400
_cell_length_b   9.14932738
_cell_length_c   3.68162400
_cell_angle_alpha   90.00000000
_cell_angle_beta   90.00000000
_cell_angle_gamma   120.02067082
_symmetry_Int_Tables_number   1
_chemical_formula_structural   Pa2Ta2Ni10P7
_chemical_formula_sum   'Pa2 Ta2 Ni10 P7'
_cell_volume   269.54986265
_cell_formula_units_Z   1
loop_
 _symmetry_equiv_pos_site_id
 _symmetry_equiv_pos_as_xyz
  1  'x, y, z'
loop_
 _atom_site_type_symbol
 _atom_site_label
 _atom_site_symmetry_multiplicity
 _atom_site_fract_x
 _atom_site_fract_y
 _atom_site_fract_z
 _atom_site_occupancy
  Pa  Pa0  1  0.340766  0.667680  0.000000  1
  Pa  Pa1  1  0.669905  0.340435  0.500001  1
  Ta  Ta2  1  0.218127  0.099684  0.500001  1
  Ta  Ta3  1  0.897850  0.114880  0.500001  1
  Ni  Ni4  1  0.429818  0.057209  0.000000  1
  Ni  Ni5  1  0.159507  0.287839  0.000000  1
  Ni  Ni6  1  0.941730  0.373004  0.000000  1
  Ni  Ni7  1  0.630397  0.567482  0.000000  1
  Ni  Ni8  1  0.123974  0.840047  0.000000  1
  Ni  Ni9  1  0.717473  0.875261  0.000000  1
  Ni  Ni10  1  0.386907  0.441173  0.500001  1
  Ni  Ni11  1  0.045523  0.615054  0.500001  1
  Ni  Ni12  1  0.873141  0.773680  0.500001  1
  Ni  Ni13  1  0.560730  0.945804  0.500001  1
  P  P14  1  0.995072  0.988596  0.000000  1
  P  P15  1  0.697731  0.116503  0.000000  1
  P  P16  1  0.413666  0.300921  0.000000  1
  P  P17  1  0.888647  0.592639  0.000000  1
  P  P18  1  0.117540  0.413563  0.500001  1
  P  P19  1  0.601121  0.711256  0.500001  1
  P  P20  1  0.290375  0.877291  0.500001  1
