# generated using pymatgen
data_Ho2Si5IrPd2
_symmetry_space_group_name_H-M   'P 1'
_cell_length_a   8.20451421
_cell_length_b   8.16180693
_cell_length_c   8.16180581
_cell_angle_alpha   137.86765444
_cell_angle_beta   104.43139316
_cell_angle_gamma   90.44903208
_symmetry_Int_Tables_number   1
_chemical_formula_structural   Ho2Si5IrPd2
_chemical_formula_sum   'Ho4 Si10 Ir2 Pd4'
_cell_volume   339.10617291
_cell_formula_units_Z   2
loop_
 _symmetry_equiv_pos_site_id
 _symmetry_equiv_pos_as_xyz
  1  'x, y, z'
loop_
 _atom_site_type_symbol
 _atom_site_label
 _atom_site_symmetry_multiplicity
 _atom_site_fract_x
 _atom_site_fract_y
 _atom_site_fract_z
 _atom_site_occupancy
  Ho  Ho0  1  0.638509  0.870435  0.768075  1
  Ho  Ho1  1  0.361491  0.129565  0.231925  1
  Ho  Ho2  1  0.102792  0.369548  0.733244  1
  Ho  Ho3  1  0.897208  0.630452  0.266756  1
  Si  Si4  1  0.274637  0.021775  0.749994  1
  Si  Si5  1  0.725363  0.978225  0.250006  1
  Si  Si6  1  0.725363  0.475357  0.747139  1
  Si  Si7  1  0.274637  0.524643  0.252861  1
  Si  Si8  1  0.455658  0.611417  0.844241  1
  Si  Si9  1  0.544342  0.388583  0.155759  1
  Si  Si10  1  0.764914  0.111225  0.653688  1
  Si  Si11  1  0.235086  0.888775  0.346312  1
  Si  Si12  1  0.000000  0.740934  0.740934  1
  Si  Si13  1  0.000000  0.259066  0.259066  1
  Ir  Ir14  1  0.250321  0.637686  0.612635  1
  Ir  Ir15  1  0.749679  0.362314  0.387365  1
  Pd  Pd16  1  0.025544  0.138089  0.887456  1
  Pd  Pd17  1  0.974456  0.861911  0.112544  1
  Pd  Pd18  1  0.500000  0.749804  0.249804  1
  Pd  Pd19  1  0.500000  0.250196  0.750196  1
