# generated using pymatgen
data_Nb3Br7Cl
_symmetry_space_group_name_H-M   'P 1'
_cell_length_a   7.14988257
_cell_length_b   7.13550088
_cell_length_c   7.12458116
_cell_angle_alpha   89.99999872
_cell_angle_beta   89.89868791
_cell_angle_gamma   119.93348747
_symmetry_Int_Tables_number   1
_chemical_formula_structural   Nb3Br7Cl
_chemical_formula_sum   'Nb3 Br7 Cl1'
_cell_volume   314.99461070
_cell_formula_units_Z   1
loop_
 _symmetry_equiv_pos_site_id
 _symmetry_equiv_pos_as_xyz
  1  'x, y, z'
loop_
 _atom_site_type_symbol
 _atom_site_label
 _atom_site_symmetry_multiplicity
 _atom_site_fract_x
 _atom_site_fract_y
 _atom_site_fract_z
 _atom_site_occupancy
  Nb  Nb0  1  0.602891  0.801445  0.220471  1
  Nb  Nb1  1  0.197159  0.397326  0.220677  1
  Nb  Nb2  1  0.197159  0.799832  0.220677  1
  Br  Br3  1  0.333014  0.666508  0.499991  1
  Br  Br4  1  0.497661  0.997375  0.970998  1
  Br  Br5  1  0.998259  0.999130  0.019622  1
  Br  Br6  1  0.335723  0.167862  0.421658  1
  Br  Br7  1  0.831026  0.168455  0.423936  1
  Br  Br8  1  0.831026  0.662573  0.423936  1
  Br  Br9  1  0.497661  0.500286  0.970998  1
  Cl  Cl10  1  0.011755  0.505876  0.991937  1
