# generated using pymatgen
data_Tb10Y3Ho3(InIr)4
_symmetry_space_group_name_H-M   'P 1'
_cell_length_a   9.69958190
_cell_length_b   9.69571752
_cell_length_c   9.69265557
_cell_angle_alpha   60.05924460
_cell_angle_beta   59.97386015
_cell_angle_gamma   60.00020413
_symmetry_Int_Tables_number   1
_chemical_formula_structural   Tb10Y3Ho3(InIr)4
_chemical_formula_sum   'Tb10 Y3 Ho3 In4 Ir4'
_cell_volume   644.71763407
_cell_formula_units_Z   1
loop_
 _symmetry_equiv_pos_site_id
 _symmetry_equiv_pos_as_xyz
  1  'x, y, z'
loop_
 _atom_site_type_symbol
 _atom_site_label
 _atom_site_symmetry_multiplicity
 _atom_site_fract_x
 _atom_site_fract_y
 _atom_site_fract_z
 _atom_site_occupancy
  Tb  Tb0  1  0.097612  0.098222  0.098295  1
  Tb  Tb1  1  0.559555  0.558721  0.940054  1
  Tb  Tb2  1  0.100013  0.100035  0.702024  1
  Tb  Tb3  1  0.690089  0.310834  0.690062  1
  Tb  Tb4  1  0.690348  0.690226  0.310629  1
  Tb  Tb5  1  0.690281  0.310747  0.310925  1
  Tb  Tb6  1  0.309959  0.690657  0.690772  1
  Tb  Tb7  1  0.559844  0.939868  0.558798  1
  Tb  Tb8  1  0.701537  0.100372  0.100264  1
  Tb  Tb9  1  0.559250  0.940156  0.940255  1
  Y  Y10  1  0.310391  0.690263  0.310685  1
  Y  Y11  1  0.941027  0.558869  0.558468  1
  Y  Y12  1  0.310228  0.310875  0.690232  1
  Ho  Ho13  1  0.099931  0.702768  0.099951  1
  Ho  Ho14  1  0.940933  0.939592  0.558756  1
  Ho  Ho15  1  0.941076  0.558595  0.940178  1
  In  In16  1  0.332660  0.334386  0.333766  1
  In  In17  1  0.001423  0.332955  0.332460  1
  In  In18  1  0.332049  0.001302  0.332582  1
  In  In19  1  0.331971  0.333155  0.000935  1
  Ir  Ir20  1  0.892345  0.889668  0.891179  1
  Ir  Ir21  1  0.891226  0.891505  0.325378  1
  Ir  Ir22  1  0.325420  0.890120  0.891340  1
  Ir  Ir23  1  0.890833  0.326107  0.892011  1
