# generated using pymatgen
data_CsMg2H8Rh
_symmetry_space_group_name_H-M   'P 1'
_cell_length_a   5.14963200
_cell_length_b   5.14963200
_cell_length_c   11.13081200
_cell_angle_alpha   90.00000000
_cell_angle_beta   90.00000000
_cell_angle_gamma   90.00000000
_symmetry_Int_Tables_number   1
_chemical_formula_structural   CsMg2H8Rh
_chemical_formula_sum   'Cs2 Mg4 H16 Rh2'
_cell_volume   295.17477255
_cell_formula_units_Z   2
loop_
 _symmetry_equiv_pos_site_id
 _symmetry_equiv_pos_as_xyz
  1  'x, y, z'
loop_
 _atom_site_type_symbol
 _atom_site_label
 _atom_site_symmetry_multiplicity
 _atom_site_fract_x
 _atom_site_fract_y
 _atom_site_fract_z
 _atom_site_occupancy
  Cs  Cs0  1  0.500000  0.000000  0.000000  1
  Cs  Cs1  1  0.000000  0.500000  0.500000  1
  Mg  Mg2  1  0.500000  0.000000  0.633010  1
  Mg  Mg3  1  0.000000  0.500000  0.133010  1
  Mg  Mg4  1  0.500000  0.000000  0.366990  1
  Mg  Mg5  1  0.000000  0.500000  0.866990  1
  H  H6  1  0.229880  0.229880  0.750000  1
  H  H7  1  0.770120  0.770120  0.750000  1
  H  H8  1  0.770120  0.229880  0.250000  1
  H  H9  1  0.229880  0.770120  0.250000  1
  H  H10  1  0.770120  0.770120  0.250000  1
  H  H11  1  0.229880  0.229880  0.250000  1
  H  H12  1  0.229880  0.770120  0.750000  1
  H  H13  1  0.770120  0.229880  0.750000  1
  H  H14  1  0.500000  0.238241  0.500000  1
  H  H15  1  0.500000  0.761759  0.500000  1
  H  H16  1  0.761759  0.500000  0.000000  1
  H  H17  1  0.238241  0.500000  0.000000  1
  H  H18  1  0.000000  0.000000  0.601655  1
  H  H19  1  0.000000  0.000000  0.101655  1
  H  H20  1  0.000000  0.000000  0.398345  1
  H  H21  1  0.000000  0.000000  0.898345  1
  Rh  Rh22  1  0.000000  0.000000  0.750000  1
  Rh  Rh23  1  0.000000  0.000000  0.250000  1
