# generated using pymatgen
data_ErTmTcB6
_symmetry_space_group_name_H-M   'P 1'
_cell_length_a   3.64791600
_cell_length_b   9.10268600
_cell_length_c   11.47553400
_cell_angle_alpha   90.00000000
_cell_angle_beta   90.00000000
_cell_angle_gamma   90.00000000
_symmetry_Int_Tables_number   1
_chemical_formula_structural   ErTmTcB6
_chemical_formula_sum   'Er4 Tm4 Tc4 B24'
_cell_volume   381.05467595
_cell_formula_units_Z   4
loop_
 _symmetry_equiv_pos_site_id
 _symmetry_equiv_pos_as_xyz
  1  'x, y, z'
loop_
 _atom_site_type_symbol
 _atom_site_label
 _atom_site_symmetry_multiplicity
 _atom_site_fract_x
 _atom_site_fract_y
 _atom_site_fract_z
 _atom_site_occupancy
  Er  Er0  1  0.000000  0.323550  0.414345  1
  Er  Er1  1  0.000000  0.676450  0.585655  1
  Er  Er2  1  0.000000  0.823550  0.085655  1
  Er  Er3  1  0.000000  0.176450  0.914345  1
  Tm  Tm4  1  0.000000  0.943023  0.369919  1
  Tm  Tm5  1  0.000000  0.056977  0.630081  1
  Tm  Tm6  1  0.000000  0.443023  0.130081  1
  Tm  Tm7  1  0.000000  0.556977  0.869919  1
  Tc  Tc8  1  0.000000  0.639001  0.320177  1
  Tc  Tc9  1  0.000000  0.360999  0.679823  1
  Tc  Tc10  1  0.000000  0.139001  0.179823  1
  Tc  Tc11  1  0.000000  0.860999  0.820177  1
  B  B12  1  0.500000  0.553293  0.433104  1
  B  B13  1  0.500000  0.446707  0.566896  1
  B  B14  1  0.500000  0.053293  0.066896  1
  B  B15  1  0.500000  0.946707  0.933104  1
  B  B16  1  0.500000  0.749623  0.418877  1
  B  B17  1  0.500000  0.250377  0.581123  1
  B  B18  1  0.500000  0.249623  0.081123  1
  B  B19  1  0.500000  0.750377  0.918877  1
  B  B20  1  0.500000  0.792547  0.265077  1
  B  B21  1  0.500000  0.207453  0.734923  1
  B  B22  1  0.500000  0.292547  0.234923  1
  B  B23  1  0.500000  0.707453  0.765077  1
  B  B24  1  0.500000  0.630427  0.184976  1
  B  B25  1  0.500000  0.369573  0.815024  1
  B  B26  1  0.500000  0.130427  0.315024  1
  B  B27  1  0.500000  0.869573  0.684976  1
  B  B28  1  0.500000  0.981401  0.211971  1
  B  B29  1  0.500000  0.018599  0.788029  1
  B  B30  1  0.500000  0.481401  0.288029  1
  B  B31  1  0.500000  0.518599  0.711971  1
  B  B32  1  0.500000  0.599531  0.027735  1
  B  B33  1  0.500000  0.400469  0.972265  1
  B  B34  1  0.500000  0.099531  0.472265  1
  B  B35  1  0.500000  0.900469  0.527735  1
