# generated using pymatgen
data_NaCa2(AsRu)6
_symmetry_space_group_name_H-M   'P 1'
_cell_length_a   8.45596428
_cell_length_b   8.45596588
_cell_length_c   5.98848869
_cell_angle_alpha   79.38869911
_cell_angle_beta   79.38869555
_cell_angle_gamma   41.24428555
_symmetry_Int_Tables_number   1
_chemical_formula_structural   NaCa2(AsRu)6
_chemical_formula_sum   'Na1 Ca2 As6 Ru6'
_cell_volume   276.77975449
_cell_formula_units_Z   1
loop_
 _symmetry_equiv_pos_site_id
 _symmetry_equiv_pos_as_xyz
  1  'x, y, z'
loop_
 _atom_site_type_symbol
 _atom_site_label
 _atom_site_symmetry_multiplicity
 _atom_site_fract_x
 _atom_site_fract_y
 _atom_site_fract_z
 _atom_site_occupancy
  Na  Na0  1  0.000000  0.000000  0.000000  1
  Ca  Ca1  1  0.665261  0.665261  0.669906  1
  Ca  Ca2  1  0.334739  0.334739  0.330094  1
  As  As3  1  0.878104  0.878104  0.507510  1
  As  As4  1  0.210100  0.210100  0.845552  1
  As  As5  1  0.545092  0.545092  0.178161  1
  As  As6  1  0.454908  0.454908  0.821839  1
  As  As7  1  0.789900  0.789900  0.154448  1
  As  As8  1  0.121896  0.121896  0.492490  1
  Ru  Ru9  1  0.082219  0.582279  0.829262  1
  Ru  Ru10  1  0.417721  0.917781  0.170738  1
  Ru  Ru11  1  0.749740  0.250260  0.500000  1
  Ru  Ru12  1  0.250260  0.749740  0.500000  1
  Ru  Ru13  1  0.582279  0.082219  0.829262  1
  Ru  Ru14  1  0.917781  0.417721  0.170738  1
