# generated using pymatgen
data_RbGa2PSe6
_symmetry_space_group_name_H-M   'P 1'
_cell_length_a   6.66541890
_cell_length_b   6.74255054
_cell_length_c   6.99494248
_cell_angle_alpha   98.93005055
_cell_angle_beta   104.92412221
_cell_angle_gamma   97.56043267
_symmetry_Int_Tables_number   1
_chemical_formula_structural   RbGa2PSe6
_chemical_formula_sum   'Rb1 Ga2 P1 Se6'
_cell_volume   295.19409885
_cell_formula_units_Z   1
loop_
 _symmetry_equiv_pos_site_id
 _symmetry_equiv_pos_as_xyz
  1  'x, y, z'
loop_
 _atom_site_type_symbol
 _atom_site_label
 _atom_site_symmetry_multiplicity
 _atom_site_fract_x
 _atom_site_fract_y
 _atom_site_fract_z
 _atom_site_occupancy
  Rb  Rb0  1  0.000337  0.990864  0.975398  1
  Ga  Ga1  1  0.553788  0.373013  0.796774  1
  Ga  Ga2  1  0.788145  0.522222  0.395565  1
  P  P3  1  0.373492  0.803488  0.532023  1
  Se  Se4  1  0.661822  0.853882  0.426009  1
  Se  Se5  1  0.424579  0.705386  0.830347  1
  Se  Se6  1  0.882108  0.423980  0.718033  1
  Se  Se7  1  0.112572  0.595844  0.281736  1
  Se  Se8  1  0.256278  0.102116  0.563879  1
  Se  Se9  1  0.579189  0.261614  0.112544  1
