# generated using pymatgen
data_Er16InCo4Ag3
_symmetry_space_group_name_H-M   'P 1'
_cell_length_a   9.33001966
_cell_length_b   9.38414877
_cell_length_c   9.38414900
_cell_angle_alpha   60.00000271
_cell_angle_beta   59.80790082
_cell_angle_gamma   59.80789408
_symmetry_Int_Tables_number   1
_chemical_formula_structural   Er16InCo4Ag3
_chemical_formula_sum   'Er16 In1 Co4 Ag3'
_cell_volume   579.28221758
_cell_formula_units_Z   1
loop_
 _symmetry_equiv_pos_site_id
 _symmetry_equiv_pos_as_xyz
  1  'x, y, z'
loop_
 _atom_site_type_symbol
 _atom_site_label
 _atom_site_symmetry_multiplicity
 _atom_site_fract_x
 _atom_site_fract_y
 _atom_site_fract_z
 _atom_site_occupancy
  Er  Er0  1  0.596313  0.597322  0.597322  1
  Er  Er1  1  0.596313  0.597322  0.209041  1
  Er  Er2  1  0.596313  0.209041  0.597322  1
  Er  Er3  1  0.207583  0.597472  0.597472  1
  Er  Er4  1  0.061710  0.438430  0.438430  1
  Er  Er5  1  0.438509  0.061049  0.061049  1
  Er  Er6  1  0.438509  0.061049  0.439393  1
  Er  Er7  1  0.061710  0.438430  0.061431  1
  Er  Er8  1  0.438509  0.439393  0.061049  1
  Er  Er9  1  0.061710  0.061431  0.438430  1
  Er  Er10  1  0.184145  0.813321  0.813321  1
  Er  Er11  1  0.810458  0.188488  0.188488  1
  Er  Er12  1  0.810458  0.188488  0.812567  1
  Er  Er13  1  0.184145  0.813321  0.189214  1
  Er  Er14  1  0.810458  0.812567  0.188488  1
  Er  Er15  1  0.184145  0.189214  0.813321  1
  In  In16  1  0.516189  0.827937  0.827937  1
  Co  Co17  1  0.391221  0.390890  0.390890  1
  Co  Co18  1  0.391221  0.390890  0.827001  1
  Co  Co19  1  0.391221  0.827001  0.390890  1
  Co  Co20  1  0.826097  0.391301  0.391301  1
  Ag  Ag21  1  0.834356  0.831678  0.831678  1
  Ag  Ag22  1  0.834356  0.831678  0.502289  1
  Ag  Ag23  1  0.834356  0.502289  0.831678  1
