# generated using pymatgen
data_Tm(HfS2)4
_symmetry_space_group_name_H-M   'P 1'
_cell_length_a   7.62623001
_cell_length_b   7.62622894
_cell_length_c   7.62623000
_cell_angle_alpha   56.35459597
_cell_angle_beta   56.35460136
_cell_angle_gamma   56.35459232
_symmetry_Int_Tables_number   1
_chemical_formula_structural   Tm(HfS2)4
_chemical_formula_sum   'Tm1 Hf4 S8'
_cell_volume   287.18405483
_cell_formula_units_Z   1
loop_
 _symmetry_equiv_pos_site_id
 _symmetry_equiv_pos_as_xyz
  1  'x, y, z'
loop_
 _atom_site_type_symbol
 _atom_site_label
 _atom_site_symmetry_multiplicity
 _atom_site_fract_x
 _atom_site_fract_y
 _atom_site_fract_z
 _atom_site_occupancy
  Tm  Tm0  1  0.500000  0.500000  0.500000  1
  Hf  Hf1  1  0.000000  0.500000  0.500000  1
  Hf  Hf2  1  0.500000  0.000000  0.500000  1
  Hf  Hf3  1  0.500000  0.500000  0.000000  1
  Hf  Hf4  1  0.000000  0.000000  0.000000  1
  S  S5  1  0.248702  0.755720  0.755720  1
  S  S6  1  0.244280  0.244280  0.751298  1
  S  S7  1  0.751298  0.244280  0.244280  1
  S  S8  1  0.244280  0.751298  0.244280  1
  S  S9  1  0.257229  0.257229  0.257229  1
  S  S10  1  0.742771  0.742771  0.742771  1
  S  S11  1  0.755720  0.248702  0.755720  1
  S  S12  1  0.755720  0.755720  0.248702  1
