# generated using pymatgen
data_Tb12Dy4In4Os3Rh
_symmetry_space_group_name_H-M   'P 1'
_cell_length_a   9.73448398
_cell_length_b   9.67042143
_cell_length_c   9.73612174
_cell_angle_alpha   59.59839676
_cell_angle_beta   59.81369405
_cell_angle_gamma   59.61906462
_symmetry_Int_Tables_number   1
_chemical_formula_structural   Tb12Dy4In4Os3Rh
_chemical_formula_sum   'Tb12 Dy4 In4 Os3 Rh1'
_cell_volume   643.32065139
_cell_formula_units_Z   1
loop_
 _symmetry_equiv_pos_site_id
 _symmetry_equiv_pos_as_xyz
  1  'x, y, z'
loop_
 _atom_site_type_symbol
 _atom_site_label
 _atom_site_symmetry_multiplicity
 _atom_site_fract_x
 _atom_site_fract_y
 _atom_site_fract_z
 _atom_site_occupancy
  Tb  Tb0  1  0.691670  0.309408  0.307548  1
  Tb  Tb1  1  0.695328  0.690943  0.310087  1
  Tb  Tb2  1  0.308085  0.691310  0.308229  1
  Tb  Tb3  1  0.935994  0.946194  0.560306  1
  Tb  Tb4  1  0.150988  0.151525  0.544731  1
  Tb  Tb5  1  0.557081  0.946973  0.557246  1
  Tb  Tb6  1  0.150764  0.152685  0.150665  1
  Tb  Tb7  1  0.307802  0.309803  0.691503  1
  Tb  Tb8  1  0.945312  0.556373  0.554140  1
  Tb  Tb9  1  0.553871  0.556313  0.945293  1
  Tb  Tb10  1  0.560149  0.946380  0.936167  1
  Tb  Tb11  1  0.942385  0.560250  0.941941  1
  Dy  Dy12  1  0.153139  0.539044  0.152702  1
  Dy  Dy13  1  0.309920  0.690878  0.695354  1
  Dy  Dy14  1  0.693001  0.311677  0.693413  1
  Dy  Dy15  1  0.544208  0.151937  0.151005  1
  In  In16  1  0.917962  0.917840  0.246461  1
  In  In17  1  0.246318  0.917719  0.918076  1
  In  In18  1  0.916340  0.249456  0.916691  1
  In  In19  1  0.918908  0.917286  0.919111  1
  Os  Os20  1  0.362176  0.357274  0.361062  1
  Os  Os21  1  0.917875  0.355888  0.360629  1
  Os  Os22  1  0.360918  0.356032  0.917969  1
  Rh  Rh23  1  0.359806  0.916809  0.359671  1
