# generated using pymatgen
data_Cs3TlTe3
_symmetry_space_group_name_H-M   'P 1'
_cell_length_a   15.20341700
_cell_length_b   9.45817071
_cell_length_c   12.50803024
_cell_angle_alpha   52.73392099
_cell_angle_beta   90.00000000
_cell_angle_gamma   90.00000000
_symmetry_Int_Tables_number   1
_chemical_formula_structural   Cs3TlTe3
_chemical_formula_sum   'Cs12 Tl4 Te12'
_cell_volume   1431.39249034
_cell_formula_units_Z   4
loop_
 _symmetry_equiv_pos_site_id
 _symmetry_equiv_pos_as_xyz
  1  'x, y, z'
loop_
 _atom_site_type_symbol
 _atom_site_label
 _atom_site_symmetry_multiplicity
 _atom_site_fract_x
 _atom_site_fract_y
 _atom_site_fract_z
 _atom_site_occupancy
  Cs  Cs0  1  0.582560  0.649560  0.102844  1
  Cs  Cs1  1  0.082560  0.350440  0.397156  1
  Cs  Cs2  1  0.417440  0.350440  0.897156  1
  Cs  Cs3  1  0.917440  0.649560  0.602844  1
  Cs  Cs4  1  0.308254  0.885860  0.905800  1
  Cs  Cs5  1  0.808254  0.114140  0.594200  1
  Cs  Cs6  1  0.691746  0.114140  0.094200  1
  Cs  Cs7  1  0.191746  0.885860  0.405800  1
  Cs  Cs8  1  0.877474  0.632887  0.019629  1
  Cs  Cs9  1  0.377474  0.367113  0.480371  1
  Cs  Cs10  1  0.122526  0.367113  0.980371  1
  Cs  Cs11  1  0.622526  0.632887  0.519629  1
  Tl  Tl12  1  0.560918  0.927655  0.669844  1
  Tl  Tl13  1  0.060918  0.072345  0.830156  1
  Tl  Tl14  1  0.439082  0.072345  0.330156  1
  Tl  Tl15  1  0.939082  0.927655  0.169844  1
  Te  Te16  1  0.115411  0.852113  0.119778  1
  Te  Te17  1  0.615411  0.147887  0.380222  1
  Te  Te18  1  0.884589  0.147887  0.880222  1
  Te  Te19  1  0.384589  0.852113  0.619778  1
  Te  Te20  1  0.821437  0.628294  0.318781  1
  Te  Te21  1  0.321437  0.371706  0.181219  1
  Te  Te22  1  0.178563  0.371706  0.681219  1
  Te  Te23  1  0.678563  0.628294  0.818781  1
  Te  Te24  1  0.051191  0.871888  0.728296  1
  Te  Te25  1  0.551191  0.128112  0.771704  1
  Te  Te26  1  0.948809  0.128112  0.271704  1
  Te  Te27  1  0.448809  0.871888  0.228296  1
