# generated using pymatgen
data_Y3HoGa18(Ir2Pd)2
_symmetry_space_group_name_H-M   'P 1'
_cell_length_a   7.62183243
_cell_length_b   7.62178297
_cell_length_c   9.50450200
_cell_angle_alpha   90.00000000
_cell_angle_beta   90.00000000
_cell_angle_gamma   119.79487200
_symmetry_Int_Tables_number   1
_chemical_formula_structural   Y3HoGa18(Ir2Pd)2
_chemical_formula_sum   'Y3 Ho1 Ga18 Ir4 Pd2'
_cell_volume   479.14830433
_cell_formula_units_Z   1
loop_
 _symmetry_equiv_pos_site_id
 _symmetry_equiv_pos_as_xyz
  1  'x, y, z'
loop_
 _atom_site_type_symbol
 _atom_site_label
 _atom_site_symmetry_multiplicity
 _atom_site_fract_x
 _atom_site_fract_y
 _atom_site_fract_z
 _atom_site_occupancy
  Y  Y0  1  0.996756  0.668796  0.250000  1
  Y  Y1  1  0.003191  0.331202  0.750000  1
  Y  Y2  1  0.668721  0.996748  0.250000  1
  Ho  Ho3  1  0.331318  0.003144  0.750000  1
  Ga  Ga4  1  0.128066  0.128037  0.250000  1
  Ga  Ga5  1  0.872250  0.872005  0.750000  1
  Ga  Ga6  1  0.999123  0.336735  0.080936  1
  Ga  Ga7  1  0.001145  0.663563  0.918879  1
  Ga  Ga8  1  0.001145  0.663563  0.581121  1
  Ga  Ga9  1  0.336718  0.999146  0.419262  1
  Ga  Ga10  1  0.999123  0.336735  0.419064  1
  Ga  Ga11  1  0.662984  0.000876  0.581141  1
  Ga  Ga12  1  0.662984  0.000876  0.918859  1
  Ga  Ga13  1  0.336718  0.999146  0.080738  1
  Ga  Ga14  1  0.334905  0.334641  0.567102  1
  Ga  Ga15  1  0.665075  0.665075  0.433112  1
  Ga  Ga16  1  0.665075  0.665075  0.066888  1
  Ga  Ga17  1  0.334905  0.334641  0.932898  1
  Ga  Ga18  1  0.337836  0.545944  0.250000  1
  Ga  Ga19  1  0.661895  0.453778  0.750000  1
  Ga  Ga20  1  0.545940  0.337824  0.250000  1
  Ga  Ga21  1  0.454077  0.662384  0.750000  1
  Ir  Ir22  1  0.671357  0.328478  0.999883  1
  Ir  Ir23  1  0.328580  0.671544  0.999875  1
  Ir  Ir24  1  0.328580  0.671544  0.500125  1
  Ir  Ir25  1  0.671357  0.328478  0.500117  1
  Pd  Pd26  1  0.000088  0.000011  0.999932  1
  Pd  Pd27  1  0.000088  0.000011  0.500068  1
