# generated using pymatgen
data_Y3Lu2(Co2Sn5)2
_symmetry_space_group_name_H-M   'P 1'
_cell_length_a   13.84060900
_cell_length_b   13.84060900
_cell_length_c   4.42783300
_cell_angle_alpha   90.00000000
_cell_angle_beta   90.00000000
_cell_angle_gamma   90.00000000
_symmetry_Int_Tables_number   1
_chemical_formula_structural   Y3Lu2(Co2Sn5)2
_chemical_formula_sum   'Y6 Lu4 Co8 Sn20'
_cell_volume   848.20657084
_cell_formula_units_Z   2
loop_
 _symmetry_equiv_pos_site_id
 _symmetry_equiv_pos_as_xyz
  1  'x, y, z'
loop_
 _atom_site_type_symbol
 _atom_site_label
 _atom_site_symmetry_multiplicity
 _atom_site_fract_x
 _atom_site_fract_y
 _atom_site_fract_z
 _atom_site_occupancy
  Y  Y0  1  0.000000  0.000000  0.000000  1
  Y  Y1  1  0.500000  0.500000  0.000000  1
  Y  Y2  1  0.891554  0.608446  0.500000  1
  Y  Y3  1  0.108446  0.391554  0.500000  1
  Y  Y4  1  0.391554  0.891554  0.500000  1
  Y  Y5  1  0.608446  0.108446  0.500000  1
  Lu  Lu6  1  0.179420  0.679420  0.500000  1
  Lu  Lu7  1  0.820580  0.320580  0.500000  1
  Lu  Lu8  1  0.679420  0.820580  0.500000  1
  Lu  Lu9  1  0.320580  0.179420  0.500000  1
  Co  Co10  1  0.254132  0.535225  0.000000  1
  Co  Co11  1  0.745868  0.464775  0.000000  1
  Co  Co12  1  0.754132  0.964775  0.000000  1
  Co  Co13  1  0.245868  0.035225  0.000000  1
  Co  Co14  1  0.464775  0.254132  0.000000  1
  Co  Co15  1  0.535225  0.745868  0.000000  1
  Co  Co16  1  0.035225  0.754132  0.000000  1
  Co  Co17  1  0.964775  0.245868  0.000000  1
  Sn  Sn18  1  0.351703  0.700658  0.000000  1
  Sn  Sn19  1  0.648297  0.299342  0.000000  1
  Sn  Sn20  1  0.851703  0.799342  0.000000  1
  Sn  Sn21  1  0.148297  0.200658  0.000000  1
  Sn  Sn22  1  0.299342  0.351703  0.000000  1
  Sn  Sn23  1  0.700658  0.648297  0.000000  1
  Sn  Sn24  1  0.200658  0.851703  0.000000  1
  Sn  Sn25  1  0.799342  0.148297  0.000000  1
  Sn  Sn26  1  0.334196  0.513375  0.500000  1
  Sn  Sn27  1  0.665804  0.486625  0.500000  1
  Sn  Sn28  1  0.834196  0.986625  0.500000  1
  Sn  Sn29  1  0.165804  0.013375  0.500000  1
  Sn  Sn30  1  0.486625  0.334196  0.500000  1
  Sn  Sn31  1  0.513375  0.665804  0.500000  1
  Sn  Sn32  1  0.013375  0.834196  0.500000  1
  Sn  Sn33  1  0.986625  0.165804  0.500000  1
  Sn  Sn34  1  0.072680  0.572680  0.000000  1
  Sn  Sn35  1  0.927320  0.427320  0.000000  1
  Sn  Sn36  1  0.572680  0.927320  0.000000  1
  Sn  Sn37  1  0.427320  0.072680  0.000000  1
