# generated using pymatgen
data_Dy3HoAl4Ir3Au
_symmetry_space_group_name_H-M   'P 1'
_cell_length_a   4.34593400
_cell_length_b   6.86051242
_cell_length_c   7.91526220
_cell_angle_alpha   90.03275085
_cell_angle_beta   90.00000000
_cell_angle_gamma   90.00000000
_symmetry_Int_Tables_number   1
_chemical_formula_structural   Dy3HoAl4Ir3Au
_chemical_formula_sum   'Dy3 Ho1 Al4 Ir3 Au1'
_cell_volume   235.99614888
_cell_formula_units_Z   1
loop_
 _symmetry_equiv_pos_site_id
 _symmetry_equiv_pos_as_xyz
  1  'x, y, z'
loop_
 _atom_site_type_symbol
 _atom_site_label
 _atom_site_symmetry_multiplicity
 _atom_site_fract_x
 _atom_site_fract_y
 _atom_site_fract_z
 _atom_site_occupancy
  Dy  Dy0  1  0.250000  0.024978  0.326271  1
  Dy  Dy1  1  0.250000  0.541705  0.182386  1
  Dy  Dy2  1  0.750000  0.969395  0.678162  1
  Ho  Ho3  1  0.750000  0.476182  0.813690  1
  Al  Al4  1  0.250000  0.135895  0.931372  1
  Al  Al5  1  0.250000  0.641030  0.562515  1
  Al  Al6  1  0.750000  0.847593  0.059969  1
  Al  Al7  1  0.750000  0.364563  0.445315  1
  Ir  Ir8  1  0.250000  0.268430  0.619654  1
  Ir  Ir9  1  0.250000  0.765621  0.880858  1
  Ir  Ir10  1  0.750000  0.734070  0.378637  1
  Au  Au11  1  0.750000  0.230539  0.121172  1
