# generated using pymatgen
data_Er20GeOs6Pt5
_symmetry_space_group_name_H-M   'P 1'
_cell_length_a   10.84529005
_cell_length_b   10.84529013
_cell_length_c   6.40228800
_cell_angle_alpha   89.99424152
_cell_angle_beta   89.99424152
_cell_angle_gamma   89.64338336
_symmetry_Int_Tables_number   1
_chemical_formula_structural   Er20GeOs6Pt5
_chemical_formula_sum   'Er20 Ge1 Os6 Pt5'
_cell_volume   753.02455118
_cell_formula_units_Z   1
loop_
 _symmetry_equiv_pos_site_id
 _symmetry_equiv_pos_as_xyz
  1  'x, y, z'
loop_
 _atom_site_type_symbol
 _atom_site_label
 _atom_site_symmetry_multiplicity
 _atom_site_fract_x
 _atom_site_fract_y
 _atom_site_fract_z
 _atom_site_occupancy
  Er  Er0  1  0.296688  0.090894  0.368534  1
  Er  Er1  1  0.298411  0.918961  0.866735  1
  Er  Er2  1  0.702531  0.084492  0.870617  1
  Er  Er3  1  0.702422  0.909723  0.371854  1
  Er  Er4  1  0.589591  0.793206  0.875998  1
  Er  Er5  1  0.581593  0.204498  0.366912  1
  Er  Er6  1  0.420196  0.796501  0.364966  1
  Er  Er7  1  0.412653  0.208138  0.873826  1
  Er  Er8  1  0.206794  0.410409  0.624002  1
  Er  Er9  1  0.203499  0.579804  0.135034  1
  Er  Er10  1  0.795502  0.418407  0.133088  1
  Er  Er11  1  0.791862  0.587347  0.626174  1
  Er  Er12  1  0.909106  0.703312  0.131466  1
  Er  Er13  1  0.915508  0.297469  0.629383  1
  Er  Er14  1  0.081039  0.701589  0.633265  1
  Er  Er15  1  0.090277  0.297578  0.128146  1
  Er  Er16  1  0.001074  0.000284  0.499194  1
  Er  Er17  1  0.999716  0.998926  0.000806  1
  Er  Er18  1  0.501272  0.497458  0.002952  1
  Er  Er19  1  0.502542  0.498728  0.497048  1
  Ge  Ge20  1  0.342959  0.657041  0.750000  1
  Os  Os21  1  0.650169  0.651431  0.250364  1
  Os  Os22  1  0.348569  0.349831  0.249636  1
  Os  Os23  1  0.500333  0.999944  0.117311  1
  Os  Os24  1  0.500455  0.001007  0.619650  1
  Os  Os25  1  0.998993  0.499545  0.880350  1
  Os  Os26  1  0.000056  0.499667  0.382689  1
  Pt  Pt27  1  0.847314  0.152686  0.250000  1
  Pt  Pt28  1  0.848822  0.848616  0.750205  1
  Pt  Pt29  1  0.151384  0.151178  0.749795  1
  Pt  Pt30  1  0.152124  0.847876  0.250000  1
  Pt  Pt31  1  0.656544  0.343456  0.750000  1
