# generated using pymatgen
data_TbSm2Dy3NiBr10
_symmetry_space_group_name_H-M   'P 1'
_cell_length_a   7.37314431
_cell_length_b   9.22450330
_cell_length_c   9.34591998
_cell_angle_alpha   107.72009542
_cell_angle_beta   96.66753830
_cell_angle_gamma   105.47424816
_symmetry_Int_Tables_number   1
_chemical_formula_structural   TbSm2Dy3NiBr10
_chemical_formula_sum   'Tb1 Sm2 Dy3 Ni1 Br10'
_cell_volume   569.90409808
_cell_formula_units_Z   1
loop_
 _symmetry_equiv_pos_site_id
 _symmetry_equiv_pos_as_xyz
  1  'x, y, z'
loop_
 _atom_site_type_symbol
 _atom_site_label
 _atom_site_symmetry_multiplicity
 _atom_site_fract_x
 _atom_site_fract_y
 _atom_site_fract_z
 _atom_site_occupancy
  Tb  Tb0  1  0.646878  0.869019  0.826284  1
  Sm  Sm1  1  0.126833  0.048336  0.756416  1
  Sm  Sm2  1  0.874077  0.952169  0.243889  1
  Dy  Dy3  1  0.969718  0.292030  0.091386  1
  Dy  Dy4  1  0.030777  0.708151  0.908992  1
  Dy  Dy5  1  0.351857  0.130394  0.172996  1
  Ni  Ni6  1  0.000045  0.000057  0.999940  1
  Br  Br7  1  0.551034  0.179615  0.918808  1
  Br  Br8  1  0.448764  0.821332  0.082373  1
  Br  Br9  1  0.348192  0.448940  0.269712  1
  Br  Br10  1  0.652814  0.549753  0.730385  1
  Br  Br11  1  0.257518  0.085126  0.453700  1
  Br  Br12  1  0.743688  0.915491  0.545735  1
  Br  Br13  1  0.777843  0.257406  0.340745  1
  Br  Br14  1  0.219273  0.741758  0.658032  1
  Br  Br15  1  0.083318  0.375129  0.831314  1
  Br  Br16  1  0.917374  0.625293  0.169294  1
