# generated using pymatgen
data_Tm(NbCl3)6
_symmetry_space_group_name_H-M   'P 1'
_cell_length_a   10.14819996
_cell_length_b   10.14900914
_cell_length_c   10.14921356
_cell_angle_alpha   55.96084178
_cell_angle_beta   55.97013211
_cell_angle_gamma   55.96619439
_symmetry_Int_Tables_number   1
_chemical_formula_structural   Tm(NbCl3)6
_chemical_formula_sum   'Tm1 Nb6 Cl18'
_cell_volume   670.05270611
_cell_formula_units_Z   1
loop_
 _symmetry_equiv_pos_site_id
 _symmetry_equiv_pos_as_xyz
  1  'x, y, z'
loop_
 _atom_site_type_symbol
 _atom_site_label
 _atom_site_symmetry_multiplicity
 _atom_site_fract_x
 _atom_site_fract_y
 _atom_site_fract_z
 _atom_site_occupancy
  Tm  Tm0  1  0.000000  0.000000  0.000000  1
  Nb  Nb1  1  0.407459  0.298736  0.651110  1
  Nb  Nb2  1  0.348915  0.592528  0.701235  1
  Nb  Nb3  1  0.701277  0.348884  0.592544  1
  Nb  Nb4  1  0.298723  0.651116  0.407456  1
  Nb  Nb5  1  0.651085  0.407472  0.298765  1
  Nb  Nb6  1  0.592541  0.701264  0.348890  1
  Cl  Cl7  1  0.568802  0.160658  0.441794  1
  Cl  Cl8  1  0.223585  0.369983  0.909646  1
  Cl  Cl9  1  0.909650  0.223585  0.369982  1
  Cl  Cl10  1  0.369971  0.909677  0.223569  1
  Cl  Cl11  1  0.776415  0.630017  0.090354  1
  Cl  Cl12  1  0.090350  0.776415  0.630018  1
  Cl  Cl13  1  0.706222  0.958749  0.158202  1
  Cl  Cl14  1  0.958755  0.158197  0.706222  1
  Cl  Cl15  1  0.158212  0.706224  0.958725  1
  Cl  Cl16  1  0.293778  0.041251  0.841798  1
  Cl  Cl17  1  0.041245  0.841803  0.293778  1
  Cl  Cl18  1  0.841788  0.293776  0.041275  1
  Cl  Cl19  1  0.558211  0.431193  0.839349  1
  Cl  Cl20  1  0.160632  0.441786  0.568811  1
  Cl  Cl21  1  0.441789  0.568807  0.160651  1
  Cl  Cl22  1  0.431198  0.839342  0.558206  1
  Cl  Cl23  1  0.839368  0.558214  0.431189  1
  Cl  Cl24  1  0.630029  0.090323  0.776431  1
