# generated using pymatgen
data_Yb4MgSbPd10
_symmetry_space_group_name_H-M   'P 1'
_cell_length_a   4.31953500
_cell_length_b   5.75017323
_cell_length_c   11.33449345
_cell_angle_alpha   89.96757229
_cell_angle_beta   90.00000000
_cell_angle_gamma   90.00000000
_symmetry_Int_Tables_number   1
_chemical_formula_structural   Yb4MgSbPd10
_chemical_formula_sum   'Yb4 Mg1 Sb1 Pd10'
_cell_volume   281.52694801
_cell_formula_units_Z   1
loop_
 _symmetry_equiv_pos_site_id
 _symmetry_equiv_pos_as_xyz
  1  'x, y, z'
loop_
 _atom_site_type_symbol
 _atom_site_label
 _atom_site_symmetry_multiplicity
 _atom_site_fract_x
 _atom_site_fract_y
 _atom_site_fract_z
 _atom_site_occupancy
  Yb  Yb0  1  0.500000  0.180963  0.137257  1
  Yb  Yb1  1  0.500000  0.819037  0.862743  1
  Yb  Yb2  1  0.500000  0.321447  0.644232  1
  Yb  Yb3  1  0.500000  0.678553  0.355768  1
  Mg  Mg4  1  0.000000  0.500000  0.000000  1
  Sb  Sb5  1  0.000000  0.000000  0.500000  1
  Pd  Pd6  1  0.500000  0.190624  0.389198  1
  Pd  Pd7  1  0.500000  0.809376  0.610802  1
  Pd  Pd8  1  0.500000  0.309445  0.889335  1
  Pd  Pd9  1  0.500000  0.690555  0.110665  1
  Pd  Pd10  1  0.000000  0.430188  0.245571  1
  Pd  Pd11  1  0.000000  0.569812  0.754429  1
  Pd  Pd12  1  0.000000  0.068180  0.749520  1
  Pd  Pd13  1  0.000000  0.931820  0.250480  1
  Pd  Pd14  1  0.000000  0.000000  0.000000  1
  Pd  Pd15  1  0.000000  0.500000  0.500000  1
