# generated using pymatgen
data_Tb2HoAlFe2Os3
_symmetry_space_group_name_H-M   'P 1'
_cell_length_a   5.30015756
_cell_length_b   5.29607259
_cell_length_c   13.01965194
_cell_angle_alpha   89.88497180
_cell_angle_beta   89.92629546
_cell_angle_gamma   119.82884755
_symmetry_Int_Tables_number   1
_chemical_formula_structural   Tb2HoAlFe2Os3
_chemical_formula_sum   'Tb4 Ho2 Al2 Fe4 Os6'
_cell_volume   317.04196941
_cell_formula_units_Z   2
loop_
 _symmetry_equiv_pos_site_id
 _symmetry_equiv_pos_as_xyz
  1  'x, y, z'
loop_
 _atom_site_type_symbol
 _atom_site_label
 _atom_site_symmetry_multiplicity
 _atom_site_fract_x
 _atom_site_fract_y
 _atom_site_fract_z
 _atom_site_occupancy
  Tb  Tb0  1  0.675675  0.339382  0.583965  1
  Tb  Tb1  1  0.324267  0.660575  0.666343  1
  Tb  Tb2  1  0.000153  0.000734  0.002043  1
  Tb  Tb3  1  0.662602  0.328410  0.327893  1
  Ho  Ho4  1  0.337336  0.671701  0.922025  1
  Ho  Ho5  1  0.999835  0.999526  0.247961  1
  Al  Al6  1  0.670958  0.836289  0.457038  1
  Al  Al7  1  0.329295  0.163763  0.792974  1
  Fe  Fe8  1  0.499741  0.500081  0.125010  1
  Fe  Fe9  1  0.169341  0.838542  0.458220  1
  Fe  Fe10  1  0.830343  0.161489  0.791814  1
  Fe  Fe11  1  0.499892  0.999667  0.124979  1
  Os  Os12  1  0.169064  0.335293  0.456406  1
  Os  Os13  1  0.830757  0.664302  0.793692  1
  Os  Os14  1  0.331808  0.664458  0.291346  1
  Os  Os15  1  0.999985  0.999975  0.625009  1
  Os  Os16  1  0.668452  0.335497  0.958330  1
  Os  Os17  1  0.000497  0.500315  0.124954  1
