# generated using pymatgen
data_LuPS
_symmetry_space_group_name_H-M   'P 1'
_cell_length_a   5.21418900
_cell_length_b   5.26074800
_cell_length_c   16.43455800
_cell_angle_alpha   90.00000000
_cell_angle_beta   90.00000000
_cell_angle_gamma   90.00000000
_symmetry_Int_Tables_number   1
_chemical_formula_structural   LuPS
_chemical_formula_sum   'Lu8 P8 S8'
_cell_volume   450.80870780
_cell_formula_units_Z   8
loop_
 _symmetry_equiv_pos_site_id
 _symmetry_equiv_pos_as_xyz
  1  'x, y, z'
loop_
 _atom_site_type_symbol
 _atom_site_label
 _atom_site_symmetry_multiplicity
 _atom_site_fract_x
 _atom_site_fract_y
 _atom_site_fract_z
 _atom_site_occupancy
  Lu  Lu0  1  0.250000  0.483856  0.362375  1
  Lu  Lu1  1  0.250000  0.983856  0.137625  1
  Lu  Lu2  1  0.750000  0.516144  0.637625  1
  Lu  Lu3  1  0.750000  0.016144  0.862375  1
  Lu  Lu4  1  0.250000  0.014627  0.645895  1
  Lu  Lu5  1  0.250000  0.514627  0.854105  1
  Lu  Lu6  1  0.750000  0.985373  0.354105  1
  Lu  Lu7  1  0.750000  0.485373  0.145895  1
  P  P8  1  0.031581  0.289750  0.997300  1
  P  P9  1  0.468419  0.789750  0.502700  1
  P  P10  1  0.531581  0.710250  0.002700  1
  P  P11  1  0.968419  0.210250  0.497300  1
  P  P12  1  0.968419  0.710250  0.002700  1
  P  P13  1  0.531581  0.210250  0.497300  1
  P  P14  1  0.468419  0.289750  0.997300  1
  P  P15  1  0.031581  0.789750  0.502700  1
  S  S16  1  0.250000  0.484606  0.189330  1
  S  S17  1  0.250000  0.984606  0.310670  1
  S  S18  1  0.750000  0.515394  0.810670  1
  S  S19  1  0.750000  0.015394  0.689330  1
  S  S20  1  0.250000  0.011102  0.815699  1
  S  S21  1  0.250000  0.511102  0.684301  1
  S  S22  1  0.750000  0.988898  0.184301  1
  S  S23  1  0.750000  0.488898  0.315699  1
