# generated using pymatgen
data_Mg2Ni10P7Ru2
_symmetry_space_group_name_H-M   'P 1'
_cell_length_a   9.14980264
_cell_length_b   9.17409883
_cell_length_c   3.58096000
_cell_angle_alpha   90.00000000
_cell_angle_beta   90.00000000
_cell_angle_gamma   120.60804558
_symmetry_Int_Tables_number   1
_chemical_formula_structural   Mg2Ni10P7Ru2
_chemical_formula_sum   'Mg2 Ni10 P7 Ru2'
_cell_volume   258.70900597
_cell_formula_units_Z   1
loop_
 _symmetry_equiv_pos_site_id
 _symmetry_equiv_pos_as_xyz
  1  'x, y, z'
loop_
 _atom_site_type_symbol
 _atom_site_label
 _atom_site_symmetry_multiplicity
 _atom_site_fract_x
 _atom_site_fract_y
 _atom_site_fract_z
 _atom_site_occupancy
  Mg  Mg0  1  0.664890  0.329209  0.500000  1
  Mg  Mg1  1  0.335847  0.663109  0.000000  1
  Ni  Ni2  1  0.560551  0.945757  0.500000  1
  Ni  Ni3  1  0.383458  0.434148  0.500000  1
  Ni  Ni4  1  0.905202  0.125513  0.500000  1
  Ni  Ni5  1  0.231338  0.099436  0.500000  1
  Ni  Ni6  1  0.704740  0.875058  0.000000  1
  Ni  Ni7  1  0.126549  0.854493  0.000000  1
  Ni  Ni8  1  0.157635  0.272488  0.000000  1
  Ni  Ni9  1  0.442387  0.067705  0.000000  1
  Ni  Ni10  1  0.933055  0.364586  0.000000  1
  Ni  Ni11  1  0.628470  0.558195  0.000000  1
  P  P12  1  0.585026  0.702592  0.500000  1
  P  P13  1  0.992498  0.998683  0.000000  1
  P  P14  1  0.294899  0.888979  0.500000  1
  P  P15  1  0.119333  0.404387  0.500000  1
  P  P16  1  0.879701  0.583120  0.000000  1
  P  P17  1  0.413280  0.290730  0.000000  1
  P  P18  1  0.704640  0.118687  0.000000  1
  Ru  Ru19  1  0.880200  0.805611  0.500000  1
  Ru  Ru20  1  0.056303  0.617510  0.500000  1
