# generated using pymatgen
data_Dy9HoIn8CuPd2Pt
_symmetry_space_group_name_H-M   'P 1'
_cell_length_a   3.62903200
_cell_length_b   8.14170775
_cell_length_c   18.20437600
_cell_angle_alpha   89.93812790
_cell_angle_beta   90.00000000
_cell_angle_gamma   90.00000000
_symmetry_Int_Tables_number   1
_chemical_formula_structural   Dy9HoIn8CuPd2Pt
_chemical_formula_sum   'Dy9 Ho1 In8 Cu1 Pd2 Pt1'
_cell_volume   537.87560862
_cell_formula_units_Z   1
loop_
 _symmetry_equiv_pos_site_id
 _symmetry_equiv_pos_as_xyz
  1  'x, y, z'
loop_
 _atom_site_type_symbol
 _atom_site_label
 _atom_site_symmetry_multiplicity
 _atom_site_fract_x
 _atom_site_fract_y
 _atom_site_fract_z
 _atom_site_occupancy
  Dy  Dy0  1  0.000000  0.118021  0.415126  1
  Dy  Dy1  1  0.000000  0.883363  0.583035  1
  Dy  Dy2  1  0.000000  0.383061  0.916539  1
  Dy  Dy3  1  0.000000  0.617939  0.084670  1
  Dy  Dy4  1  0.000000  0.246238  0.219817  1
  Dy  Dy5  1  0.000000  0.757371  0.780446  1
  Dy  Dy6  1  0.000000  0.257379  0.719595  1
  Dy  Dy7  1  0.000000  0.735457  0.280365  1
  Dy  Dy8  1  0.000000  0.999064  0.000589  1
  Ho  Ho9  1  0.000000  0.499304  0.499278  1
  In  In10  1  0.500000  0.420280  0.352158  1
  In  In11  1  0.500000  0.577646  0.648287  1
  In  In12  1  0.500000  0.077190  0.851113  1
  In  In13  1  0.500000  0.924699  0.151713  1
  In  In14  1  0.500000  0.291861  0.066979  1
  In  In15  1  0.500000  0.708499  0.932824  1
  In  In16  1  0.500000  0.209086  0.566773  1
  In  In17  1  0.500000  0.793213  0.431657  1
  Cu  Cu18  1  0.500000  0.024189  0.302138  1
  Pd  Pd19  1  0.500000  0.975198  0.696048  1
  Pd  Pd20  1  0.500000  0.475271  0.803358  1
  Pt  Pt21  1  0.500000  0.525671  0.197491  1
