# generated using pymatgen
data_VSe23
_symmetry_space_group_name_H-M   'P 1'
_cell_length_a   5.23736715
_cell_length_b   10.19426330
_cell_length_c   16.49151900
_cell_angle_alpha   88.31348080
_cell_angle_beta   86.83688808
_cell_angle_gamma   91.83957472
_symmetry_Int_Tables_number   1
_chemical_formula_structural   VSe23
_chemical_formula_sum   'V1 Se23'
_cell_volume   878.27619183
_cell_formula_units_Z   1
loop_
 _symmetry_equiv_pos_site_id
 _symmetry_equiv_pos_as_xyz
  1  'x, y, z'
loop_
 _atom_site_type_symbol
 _atom_site_label
 _atom_site_symmetry_multiplicity
 _atom_site_fract_x
 _atom_site_fract_y
 _atom_site_fract_z
 _atom_site_occupancy
  V  V0  1  0.466855  0.359866  0.452202  1
  Se  Se1  1  0.555390  0.784800  0.399641  1
  Se  Se2  1  0.013272  0.315479  0.119302  1
  Se  Se3  1  0.815140  0.238591  0.524508  1
  Se  Se4  1  0.276952  0.799794  0.512408  1
  Se  Se5  1  0.245335  0.264086  0.997837  1
  Se  Se6  1  0.737886  0.707847  0.010922  1
  Se  Se7  1  0.055616  0.308762  0.400987  1
  Se  Se8  1  0.750616  0.563567  0.400248  1
  Se  Se9  1  0.758966  0.127360  0.162330  1
  Se  Se10  1  0.245790  0.864220  0.135420  1
  Se  Se11  1  0.780622  0.660121  0.628072  1
  Se  Se12  1  0.250775  0.439531  0.570204  1
  Se  Se13  1  0.230143  0.863669  0.856230  1
  Se  Se14  1  0.752438  0.135721  0.855483  1
  Se  Se15  1  0.005644  0.667041  0.118793  1
  Se  Se16  1  0.540256  0.852885  0.622123  1
  Se  Se17  1  0.483970  0.124495  0.463448  1
  Se  Se18  1  0.978831  0.671077  0.888565  1
  Se  Se19  1  0.009249  0.321808  0.884906  1
  Se  Se20  1  0.511302  0.447339  0.307748  1
  Se  Se21  1  0.025476  0.988195  0.234275  1
  Se  Se22  1  0.506458  0.491932  0.684220  1
  Se  Se23  1  0.003018  0.001810  0.770132  1
