# generated using pymatgen
data_LiNdTmP2
_symmetry_space_group_name_H-M   'P 1'
_cell_length_a   4.09140600
_cell_length_b   4.09140677
_cell_length_c   14.06182500
_cell_angle_alpha   90.00000000
_cell_angle_beta   90.00000000
_cell_angle_gamma   119.99997760
_symmetry_Int_Tables_number   1
_chemical_formula_structural   LiNdTmP2
_chemical_formula_sum   'Li2 Nd2 Tm2 P4'
_cell_volume   203.85325751
_cell_formula_units_Z   2
loop_
 _symmetry_equiv_pos_site_id
 _symmetry_equiv_pos_as_xyz
  1  'x, y, z'
loop_
 _atom_site_type_symbol
 _atom_site_label
 _atom_site_symmetry_multiplicity
 _atom_site_fract_x
 _atom_site_fract_y
 _atom_site_fract_z
 _atom_site_occupancy
  Li  Li0  1  0.000000  0.000000  0.743308  1
  Li  Li1  1  0.000000  0.000000  0.243308  1
  Nd  Nd2  1  0.333333  0.666667  0.890781  1
  Nd  Nd3  1  0.666667  0.333333  0.390781  1
  Tm  Tm4  1  0.666667  0.333333  0.111350  1
  Tm  Tm5  1  0.333333  0.666667  0.611350  1
  P  P6  1  0.000000  0.000000  0.009975  1
  P  P7  1  0.333333  0.666667  0.244586  1
  P  P8  1  0.666667  0.333333  0.744586  1
  P  P9  1  0.000000  0.000000  0.509975  1
