# generated using pymatgen
data_Dy16In3AgRh4
_symmetry_space_group_name_H-M   'P 1'
_cell_length_a   9.63297635
_cell_length_b   9.61699863
_cell_length_c   9.61731924
_cell_angle_alpha   59.96795885
_cell_angle_beta   59.94634322
_cell_angle_gamma   59.94507447
_symmetry_Int_Tables_number   1
_chemical_formula_structural   Dy16In3AgRh4
_chemical_formula_sum   'Dy16 In3 Ag1 Rh4'
_cell_volume   629.32807442
_cell_formula_units_Z   1
loop_
 _symmetry_equiv_pos_site_id
 _symmetry_equiv_pos_as_xyz
  1  'x, y, z'
loop_
 _atom_site_type_symbol
 _atom_site_label
 _atom_site_symmetry_multiplicity
 _atom_site_fract_x
 _atom_site_fract_y
 _atom_site_fract_z
 _atom_site_occupancy
  Dy  Dy0  1  0.689166  0.311374  0.310295  1
  Dy  Dy1  1  0.688553  0.689320  0.312003  1
  Dy  Dy2  1  0.310125  0.689318  0.312004  1
  Dy  Dy3  1  0.937136  0.937353  0.557700  1
  Dy  Dy4  1  0.150308  0.148860  0.550525  1
  Dy  Dy5  1  0.567808  0.937356  0.557700  1
  Dy  Dy6  1  0.152708  0.150413  0.149151  1
  Dy  Dy7  1  0.308409  0.310214  0.691607  1
  Dy  Dy8  1  0.938402  0.566306  0.556890  1
  Dy  Dy9  1  0.564214  0.563450  0.935726  1
  Dy  Dy10  1  0.564478  0.936411  0.934633  1
  Dy  Dy11  1  0.936609  0.563451  0.935726  1
  Dy  Dy12  1  0.150721  0.550950  0.147609  1
  Dy  Dy13  1  0.308982  0.690430  0.691608  1
  Dy  Dy14  1  0.689770  0.310214  0.691607  1
  Dy  Dy15  1  0.547728  0.150414  0.149150  1
  In  In16  1  0.244961  0.917263  0.921265  1
  In  In17  1  0.916414  0.245038  0.922133  1
  In  In18  1  0.916510  0.917264  0.921266  1
  Ag  Ag19  1  0.916299  0.915780  0.251622  1
  Rh  Rh20  1  0.357322  0.357280  0.357874  1
  Rh  Rh21  1  0.927519  0.357285  0.357873  1
  Rh  Rh22  1  0.357993  0.357403  0.926609  1
  Rh  Rh23  1  0.357864  0.926853  0.357426  1
