# generated using pymatgen
data_Dy2Tm2ReB12Rh
_symmetry_space_group_name_H-M   'P 1'
_cell_length_a   3.65869000
_cell_length_b   9.10975685
_cell_length_c   11.50797126
_cell_angle_alpha   90.39045409
_cell_angle_beta   90.00000000
_cell_angle_gamma   90.00000000
_symmetry_Int_Tables_number   1
_chemical_formula_structural   Dy2Tm2ReB12Rh
_chemical_formula_sum   'Dy4 Tm4 Re2 B24 Rh2'
_cell_volume   383.54920138
_cell_formula_units_Z   2
loop_
 _symmetry_equiv_pos_site_id
 _symmetry_equiv_pos_as_xyz
  1  'x, y, z'
loop_
 _atom_site_type_symbol
 _atom_site_label
 _atom_site_symmetry_multiplicity
 _atom_site_fract_x
 _atom_site_fract_y
 _atom_site_fract_z
 _atom_site_occupancy
  Dy  Dy0  1  0.500000  0.318375  0.410992  1
  Dy  Dy1  1  0.500000  0.681625  0.589008  1
  Dy  Dy2  1  0.500000  0.174246  0.917030  1
  Dy  Dy3  1  0.500000  0.825754  0.082970  1
  Tm  Tm4  1  0.500000  0.442520  0.126620  1
  Tm  Tm5  1  0.500000  0.557480  0.873380  1
  Tm  Tm6  1  0.500000  0.054408  0.628055  1
  Tm  Tm7  1  0.500000  0.945592  0.371945  1
  Re  Re8  1  0.500000  0.139290  0.180190  1
  Re  Re9  1  0.500000  0.860710  0.819810  1
  B  B10  1  0.000000  0.105979  0.471489  1
  B  B11  1  0.000000  0.894021  0.528511  1
  B  B12  1  0.000000  0.395488  0.970986  1
  B  B13  1  0.000000  0.604512  0.029014  1
  B  B14  1  0.000000  0.131563  0.315119  1
  B  B15  1  0.000000  0.868437  0.684881  1
  B  B16  1  0.000000  0.368009  0.816699  1
  B  B17  1  0.000000  0.631991  0.183301  1
  B  B18  1  0.000000  0.053279  0.067702  1
  B  B19  1  0.000000  0.946721  0.932298  1
  B  B20  1  0.000000  0.445315  0.566013  1
  B  B21  1  0.000000  0.554685  0.433987  1
  B  B22  1  0.000000  0.483600  0.287346  1
  B  B23  1  0.000000  0.516400  0.712654  1
  B  B24  1  0.000000  0.017114  0.786438  1
  B  B25  1  0.000000  0.982886  0.213562  1
  B  B26  1  0.000000  0.249321  0.081540  1
  B  B27  1  0.000000  0.750679  0.918460  1
  B  B28  1  0.000000  0.250253  0.578926  1
  B  B29  1  0.000000  0.749747  0.421074  1
  B  B30  1  0.000000  0.293335  0.234690  1
  B  B31  1  0.000000  0.706665  0.765310  1
  B  B32  1  0.000000  0.208345  0.734632  1
  B  B33  1  0.000000  0.791655  0.265368  1
  Rh  Rh34  1  0.500000  0.361584  0.679084  1
  Rh  Rh35  1  0.500000  0.638416  0.320916  1
