# generated using pymatgen
data_Ho3LuFe5Co9
_symmetry_space_group_name_H-M   'P 1'
_cell_length_a   5.04497341
_cell_length_b   5.04497509
_cell_length_c   12.10733376
_cell_angle_alpha   78.00336948
_cell_angle_beta   78.00336621
_cell_angle_gamma   59.97333276
_symmetry_Int_Tables_number   1
_chemical_formula_structural   Ho3LuFe5Co9
_chemical_formula_sum   'Ho3 Lu1 Fe5 Co9'
_cell_volume   259.00041460
_cell_formula_units_Z   1
loop_
 _symmetry_equiv_pos_site_id
 _symmetry_equiv_pos_as_xyz
  1  'x, y, z'
loop_
 _atom_site_type_symbol
 _atom_site_label
 _atom_site_symmetry_multiplicity
 _atom_site_fract_x
 _atom_site_fract_y
 _atom_site_fract_z
 _atom_site_occupancy
  Ho  Ho0  1  0.949236  0.949236  0.152155  1
  Ho  Ho1  1  0.051086  0.051086  0.846853  1
  Ho  Ho2  1  0.851532  0.851532  0.445541  1
  Lu  Lu3  1  0.148257  0.148257  0.555282  1
  Fe  Fe4  1  0.499861  0.499861  0.500376  1
  Fe  Fe5  1  0.721924  0.721924  0.834627  1
  Fe  Fe6  1  0.278026  0.278026  0.165141  1
  Fe  Fe7  1  0.611044  0.611044  0.166781  1
  Fe  Fe8  1  0.389027  0.389027  0.833357  1
  Co  Co9  1  0.999995  0.500054  0.999854  1
  Co  Co10  1  0.500054  0.999995  0.999854  1
  Co  Co11  1  0.500051  0.500051  0.999904  1
  Co  Co12  1  0.388845  0.388845  0.330621  1
  Co  Co13  1  0.892116  0.388592  0.330733  1
  Co  Co14  1  0.388592  0.892116  0.330733  1
  Co  Co15  1  0.610785  0.610785  0.669419  1
  Co  Co16  1  0.108487  0.611081  0.669383  1
  Co  Co17  1  0.611081  0.108487  0.669383  1
