# generated using pymatgen
data_HoEr4MoRhO12
_symmetry_space_group_name_H-M   'P 1'
_cell_length_a   6.80046154
_cell_length_b   6.80180666
_cell_length_c   7.41611904
_cell_angle_alpha   73.94381259
_cell_angle_beta   73.94796122
_cell_angle_gamma   49.91591998
_symmetry_Int_Tables_number   1
_chemical_formula_structural   HoEr4MoRhO12
_chemical_formula_sum   'Ho1 Er4 Mo1 Rh1 O12'
_cell_volume   249.94883346
_cell_formula_units_Z   1
loop_
 _symmetry_equiv_pos_site_id
 _symmetry_equiv_pos_as_xyz
  1  'x, y, z'
loop_
 _atom_site_type_symbol
 _atom_site_label
 _atom_site_symmetry_multiplicity
 _atom_site_fract_x
 _atom_site_fract_y
 _atom_site_fract_z
 _atom_site_occupancy
  Ho  Ho0  1  0.316810  0.287281  0.359423  1
  Er  Er1  1  0.713041  0.683291  0.640619  1
  Er  Er2  1  0.318300  0.305674  0.826936  1
  Er  Er3  1  0.694265  0.681750  0.173036  1
  Er  Er4  1  0.007238  0.992605  0.500139  1
  Mo  Mo5  1  0.204561  0.795541  0.999931  1
  Rh  Rh6  1  0.754733  0.245338  0.999916  1
  O  O7  1  0.912001  0.437933  0.912778  1
  O  O8  1  0.416053  0.903940  0.915060  1
  O  O9  1  0.095742  0.584405  0.084384  1
  O  O10  1  0.562717  0.087374  0.086375  1
  O  O11  1  0.107564  0.592949  0.569405  1
  O  O12  1  0.600925  0.087645  0.577403  1
  O  O13  1  0.910467  0.400190  0.423596  1
  O  O14  1  0.408126  0.890567  0.431467  1
  O  O15  1  0.998168  0.998588  0.799154  1
  O  O16  1  0.001449  0.001826  0.200892  1
  O  O17  1  0.489126  0.511622  0.818449  1
  O  O18  1  0.488714  0.511482  0.181037  1
