# generated using pymatgen
data_CsVH5
_symmetry_space_group_name_H-M   'P 1'
_cell_length_a   11.44732200
_cell_length_b   7.45154900
_cell_length_c   4.89109800
_cell_angle_alpha   90.00000000
_cell_angle_beta   90.00000000
_cell_angle_gamma   90.00000000
_symmetry_Int_Tables_number   1
_chemical_formula_structural   CsVH5
_chemical_formula_sum   'Cs4 V4 H20'
_cell_volume   417.21203283
_cell_formula_units_Z   4
loop_
 _symmetry_equiv_pos_site_id
 _symmetry_equiv_pos_as_xyz
  1  'x, y, z'
loop_
 _atom_site_type_symbol
 _atom_site_label
 _atom_site_symmetry_multiplicity
 _atom_site_fract_x
 _atom_site_fract_y
 _atom_site_fract_z
 _atom_site_occupancy
  Cs  Cs0  1  0.670497  0.070064  0.339403  1
  Cs  Cs1  1  0.170497  0.429935  0.339403  1
  Cs  Cs2  1  0.829503  0.570064  0.839403  1
  Cs  Cs3  1  0.329503  0.929936  0.839403  1
  V  V4  1  0.516273  0.562390  0.304759  1
  V  V5  1  0.016273  0.937610  0.304759  1
  V  V6  1  0.983727  0.062389  0.804758  1
  V  V7  1  0.483727  0.437611  0.804758  1
  H  H8  1  0.353778  0.330782  0.790210  1
  H  H9  1  0.853778  0.169218  0.790210  1
  H  H10  1  0.974378  0.718650  0.306706  1
  H  H11  1  0.474378  0.781349  0.306706  1
  H  H12  1  0.585113  0.405416  0.079046  1
  H  H13  1  0.085112  0.094584  0.079046  1
  H  H14  1  0.395793  0.511696  0.083789  1
  H  H15  1  0.895793  0.988305  0.083789  1
  H  H16  1  0.965836  0.143047  0.463085  1
  H  H17  1  0.465836  0.356954  0.463085  1
  H  H18  1  0.146222  0.830782  0.290209  1
  H  H19  1  0.646222  0.669217  0.290209  1
  H  H20  1  0.525623  0.218650  0.806708  1
  H  H21  1  0.025623  0.281349  0.806708  1
  H  H22  1  0.914888  0.905415  0.579046  1
  H  H23  1  0.414888  0.594585  0.579046  1
  H  H24  1  0.104207  0.011695  0.583789  1
  H  H25  1  0.604207  0.488305  0.583789  1
  H  H26  1  0.534164  0.643047  0.963087  1
  H  H27  1  0.034164  0.856954  0.963087  1
