# generated using pymatgen
data_Zn14CuB6Ir16Rh
_symmetry_space_group_name_H-M   'P 1'
_cell_length_a   2.89508300
_cell_length_b   11.37840700
_cell_length_c   14.95363900
_cell_angle_alpha   90.00000000
_cell_angle_beta   90.00000000
_cell_angle_gamma   90.00000000
_symmetry_Int_Tables_number   1
_chemical_formula_structural   Zn14CuB6Ir16Rh
_chemical_formula_sum   'Zn14 Cu1 B6 Ir16 Rh1'
_cell_volume   492.59429233
_cell_formula_units_Z   1
loop_
 _symmetry_equiv_pos_site_id
 _symmetry_equiv_pos_as_xyz
  1  'x, y, z'
loop_
 _atom_site_type_symbol
 _atom_site_label
 _atom_site_symmetry_multiplicity
 _atom_site_fract_x
 _atom_site_fract_y
 _atom_site_fract_z
 _atom_site_occupancy
  Zn  Zn0  1  0.500000  0.500000  0.348736  1
  Zn  Zn1  1  0.500000  0.000000  0.651150  1
  Zn  Zn2  1  0.500000  0.387526  0.000002  1
  Zn  Zn3  1  0.500000  0.111840  0.999442  1
  Zn  Zn4  1  0.500000  0.612474  0.000002  1
  Zn  Zn5  1  0.500000  0.888160  0.999442  1
  Zn  Zn6  1  0.500000  0.372848  0.770329  1
  Zn  Zn7  1  0.500000  0.127289  0.231368  1
  Zn  Zn8  1  0.500000  0.627152  0.770329  1
  Zn  Zn9  1  0.500000  0.872711  0.231368  1
  Zn  Zn10  1  0.500000  0.297417  0.604074  1
  Zn  Zn11  1  0.500000  0.203146  0.396185  1
  Zn  Zn12  1  0.500000  0.702583  0.604074  1
  Zn  Zn13  1  0.500000  0.796854  0.396185  1
  Cu  Cu14  1  0.000000  0.000000  0.121048  1
  B  B15  1  0.500000  0.500000  0.530462  1
  B  B16  1  0.500000  0.000000  0.469195  1
  B  B17  1  0.500000  0.141909  0.821841  1
  B  B18  1  0.500000  0.356948  0.177580  1
  B  B19  1  0.500000  0.858091  0.821841  1
  B  B20  1  0.500000  0.643052  0.177580  1
  Ir  Ir21  1  0.000000  0.246895  0.894770  1
  Ir  Ir22  1  0.000000  0.247049  0.105688  1
  Ir  Ir23  1  0.000000  0.753105  0.894770  1
  Ir  Ir24  1  0.000000  0.752951  0.105688  1
  Ir  Ir25  1  0.000000  0.500000  0.643406  1
  Ir  Ir26  1  0.000000  0.000000  0.355134  1
  Ir  Ir27  1  0.000000  0.171220  0.716857  1
  Ir  Ir28  1  0.000000  0.329214  0.282786  1
  Ir  Ir29  1  0.000000  0.828780  0.716857  1
  Ir  Ir30  1  0.000000  0.670786  0.282786  1
  Ir  Ir31  1  0.000000  0.500000  0.136514  1
  Ir  Ir32  1  0.000000  0.000000  0.864195  1
  Ir  Ir33  1  0.000000  0.122744  0.529030  1
  Ir  Ir34  1  0.000000  0.377292  0.470451  1
  Ir  Ir35  1  0.000000  0.877256  0.529030  1
  Ir  Ir36  1  0.000000  0.622708  0.470451  1
  Rh  Rh37  1  0.000000  0.500000  0.879351  1
