# generated using pymatgen
data_Yb3(GdIr)2
_symmetry_space_group_name_H-M   'P 1'
_cell_length_a   8.58669275
_cell_length_b   8.58669145
_cell_length_c   7.35649000
_cell_angle_alpha   82.91159063
_cell_angle_beta   82.91159170
_cell_angle_gamma   44.16424344
_symmetry_Int_Tables_number   1
_chemical_formula_structural   Yb3(GdIr)2
_chemical_formula_sum   'Yb6 Gd4 Ir4'
_cell_volume   374.53614505
_cell_formula_units_Z   2
loop_
 _symmetry_equiv_pos_site_id
 _symmetry_equiv_pos_as_xyz
  1  'x, y, z'
loop_
 _atom_site_type_symbol
 _atom_site_label
 _atom_site_symmetry_multiplicity
 _atom_site_fract_x
 _atom_site_fract_y
 _atom_site_fract_z
 _atom_site_occupancy
  Yb  Yb0  1  0.023727  0.797715  0.919618  1
  Yb  Yb1  1  0.202285  0.976273  0.580382  1
  Yb  Yb2  1  0.979270  0.200901  0.081943  1
  Yb  Yb3  1  0.799099  0.020730  0.418057  1
  Yb  Yb4  1  0.356534  0.206247  0.816405  1
  Yb  Yb5  1  0.793753  0.643466  0.683595  1
  Gd  Gd6  1  0.635073  0.799070  0.181968  1
  Gd  Gd7  1  0.200930  0.364927  0.318032  1
  Gd  Gd8  1  0.571824  0.428176  0.750000  1
  Gd  Gd9  1  0.433793  0.566207  0.250000  1
  Ir  Ir10  1  0.190679  0.594119  0.570158  1
  Ir  Ir11  1  0.405881  0.809321  0.929842  1
  Ir  Ir12  1  0.817331  0.410179  0.420704  1
  Ir  Ir13  1  0.589821  0.182669  0.079296  1
