# generated using pymatgen
data_TbTm7(Hf3Si4)4
_symmetry_space_group_name_H-M   'P 1'
_cell_length_a   7.24943486
_cell_length_b   7.24795901
_cell_length_c   13.30850757
_cell_angle_alpha   89.99984075
_cell_angle_beta   89.94443209
_cell_angle_gamma   90.00659214
_symmetry_Int_Tables_number   1
_chemical_formula_structural   TbTm7(Hf3Si4)4
_chemical_formula_sum   'Tb1 Tm7 Hf12 Si16'
_cell_volume   699.27665450
_cell_formula_units_Z   1
loop_
 _symmetry_equiv_pos_site_id
 _symmetry_equiv_pos_as_xyz
  1  'x, y, z'
loop_
 _atom_site_type_symbol
 _atom_site_label
 _atom_site_symmetry_multiplicity
 _atom_site_fract_x
 _atom_site_fract_y
 _atom_site_fract_z
 _atom_site_occupancy
  Tb  Tb0  1  0.656310  0.004664  0.284747  1
  Tm  Tm1  1  0.997058  0.344684  0.214916  1
  Tm  Tm2  1  0.003415  0.655514  0.715183  1
  Tm  Tm3  1  0.155746  0.496747  0.465377  1
  Tm  Tm4  1  0.503074  0.843891  0.034376  1
  Tm  Tm5  1  0.844512  0.503278  0.964989  1
  Tm  Tm6  1  0.496526  0.155668  0.535246  1
  Tm  Tm7  1  0.344321  0.996578  0.784876  1
  Hf  Hf8  1  0.174333  0.174648  0.999720  1
  Hf  Hf9  1  0.825798  0.825384  0.500338  1
  Hf  Hf10  1  0.325103  0.673788  0.250052  1
  Hf  Hf11  1  0.674562  0.325538  0.749975  1
  Hf  Hf12  1  0.149231  0.996829  0.374564  1
  Hf  Hf13  1  0.851666  0.003102  0.874270  1
  Hf  Hf14  1  0.502877  0.648151  0.624836  1
  Hf  Hf15  1  0.351520  0.497108  0.875410  1
  Hf  Hf16  1  0.495922  0.351841  0.123919  1
  Hf  Hf17  1  0.648366  0.503493  0.375904  1
  Hf  Hf18  1  0.997093  0.148544  0.625812  1
  Hf  Hf19  1  0.003234  0.850984  0.125235  1
  Si  Si20  1  0.360031  0.296009  0.317890  1
  Si  Si21  1  0.638959  0.704994  0.818010  1
  Si  Si22  1  0.205256  0.860967  0.568065  1
  Si  Si23  1  0.138919  0.794769  0.931915  1
  Si  Si24  1  0.795298  0.138918  0.067567  1
  Si  Si25  1  0.862535  0.206239  0.433142  1
  Si  Si26  1  0.295024  0.361113  0.682029  1
  Si  Si27  1  0.705479  0.637440  0.181556  1
  Si  Si28  1  0.295568  0.048378  0.184943  1
  Si  Si29  1  0.702770  0.952103  0.685474  1
  Si  Si30  1  0.450889  0.796289  0.436247  1
  Si  Si31  1  0.202648  0.548001  0.064417  1
  Si  Si32  1  0.547869  0.202759  0.935305  1
  Si  Si33  1  0.797439  0.452232  0.564608  1
  Si  Si34  1  0.047774  0.297309  0.814562  1
  Si  Si35  1  0.952878  0.702047  0.314526  1
