# generated using pymatgen
data_Dy5Ho11CdNi4Ag3
_symmetry_space_group_name_H-M   'P 1'
_cell_length_a   9.41424107
_cell_length_b   9.43180743
_cell_length_c   9.43179665
_cell_angle_alpha   60.13613010
_cell_angle_beta   60.08319516
_cell_angle_gamma   60.08327547
_symmetry_Int_Tables_number   1
_chemical_formula_structural   Dy5Ho11CdNi4Ag3
_chemical_formula_sum   'Dy5 Ho11 Cd1 Ni4 Ag3'
_cell_volume   593.54117136
_cell_formula_units_Z   1
loop_
 _symmetry_equiv_pos_site_id
 _symmetry_equiv_pos_as_xyz
  1  'x, y, z'
loop_
 _atom_site_type_symbol
 _atom_site_label
 _atom_site_symmetry_multiplicity
 _atom_site_fract_x
 _atom_site_fract_y
 _atom_site_fract_z
 _atom_site_occupancy
  Dy  Dy0  1  0.347415  0.347985  0.347982  1
  Dy  Dy1  1  0.351720  0.351036  0.948851  1
  Dy  Dy2  1  0.351724  0.948847  0.351035  1
  Dy  Dy3  1  0.946610  0.352557  0.352556  1
  Dy  Dy4  1  0.811984  0.188719  0.188720  1
  Ho  Ho5  1  0.187274  0.811905  0.811900  1
  Ho  Ho6  1  0.188714  0.810919  0.189614  1
  Ho  Ho7  1  0.811042  0.187208  0.811479  1
  Ho  Ho8  1  0.188713  0.189613  0.810916  1
  Ho  Ho9  1  0.811039  0.811481  0.187211  1
  Ho  Ho10  1  0.931809  0.565546  0.565546  1
  Ho  Ho11  1  0.564259  0.935701  0.935701  1
  Ho  Ho12  1  0.563639  0.935538  0.565251  1
  Ho  Ho13  1  0.933906  0.564491  0.937468  1
  Ho  Ho14  1  0.563641  0.565252  0.935537  1
  Ho  Ho15  1  0.933909  0.937469  0.564490  1
  Cd  Cd16  1  0.262823  0.578507  0.578508  1
  Ni  Ni17  1  0.142672  0.144713  0.144715  1
  Ni  Ni18  1  0.142069  0.141856  0.572883  1
  Ni  Ni19  1  0.142071  0.572881  0.141860  1
  Ni  Ni20  1  0.572306  0.141405  0.141404  1
  Ag  Ag21  1  0.583621  0.581966  0.581966  1
  Ag  Ag22  1  0.583522  0.583747  0.250657  1
  Ag  Ag23  1  0.583522  0.250656  0.583747  1
