# generated using pymatgen
data_NbCoB2Ru
_symmetry_space_group_name_H-M   'P 1'
_cell_length_a   4.64735878
_cell_length_b   4.64735657
_cell_length_c   4.64735698
_cell_angle_alpha   141.70843922
_cell_angle_beta   120.41572966
_cell_angle_gamma   73.07387678
_symmetry_Int_Tables_number   1
_chemical_formula_structural   NbCoB2Ru
_chemical_formula_sum   'Nb1 Co1 B2 Ru1'
_cell_volume   52.56746225
_cell_formula_units_Z   1
loop_
 _symmetry_equiv_pos_site_id
 _symmetry_equiv_pos_as_xyz
  1  'x, y, z'
loop_
 _atom_site_type_symbol
 _atom_site_label
 _atom_site_symmetry_multiplicity
 _atom_site_fract_x
 _atom_site_fract_y
 _atom_site_fract_z
 _atom_site_occupancy
  Nb  Nb0  1  0.704072  0.204072  0.500000  1
  Co  Co1  1  0.002799  0.002799  0.000000  1
  B  B2  1  0.689454  0.491275  0.198179  1
  B  B3  1  0.293094  0.491275  0.801821  1
  Ru  Ru4  1  0.310580  0.810580  0.500000  1
