# generated using pymatgen
data_V2Hg3O8
_symmetry_space_group_name_H-M   'P 1'
_cell_length_a   12.03453000
_cell_length_b   6.67688438
_cell_length_c   10.37951500
_cell_angle_alpha   80.65970292
_cell_angle_beta   90.00000000
_cell_angle_gamma   90.00000000
_symmetry_Int_Tables_number   1
_chemical_formula_structural   V2Hg3O8
_chemical_formula_sum   'V8 Hg12 O32'
_cell_volume   822.96920114
_cell_formula_units_Z   4
loop_
 _symmetry_equiv_pos_site_id
 _symmetry_equiv_pos_as_xyz
  1  'x, y, z'
loop_
 _atom_site_type_symbol
 _atom_site_label
 _atom_site_symmetry_multiplicity
 _atom_site_fract_x
 _atom_site_fract_y
 _atom_site_fract_z
 _atom_site_occupancy
  V  V0  1  0.368429  0.911757  0.901059  1
  V  V1  1  0.868429  0.588243  0.098941  1
  V  V2  1  0.631571  0.088243  0.098941  1
  V  V3  1  0.131571  0.411757  0.901059  1
  V  V4  1  0.909499  0.208885  0.604825  1
  V  V5  1  0.409499  0.291115  0.395175  1
  V  V6  1  0.090501  0.791115  0.395175  1
  V  V7  1  0.590501  0.708885  0.604825  1
  Hg  Hg8  1  0.172882  0.096741  0.652786  1
  Hg  Hg9  1  0.672882  0.403259  0.347214  1
  Hg  Hg10  1  0.827118  0.903259  0.347214  1
  Hg  Hg11  1  0.327118  0.596741  0.652786  1
  Hg  Hg12  1  0.886456  0.681502  0.709599  1
  Hg  Hg13  1  0.386456  0.818498  0.290401  1
  Hg  Hg14  1  0.113544  0.318498  0.290401  1
  Hg  Hg15  1  0.613544  0.181502  0.709599  1
  Hg  Hg16  1  0.120913  0.851042  0.056781  1
  Hg  Hg17  1  0.620913  0.648958  0.943219  1
  Hg  Hg18  1  0.879087  0.148958  0.943219  1
  Hg  Hg19  1  0.379087  0.351042  0.056781  1
  O  O20  1  0.445299  0.123745  0.871707  1
  O  O21  1  0.945299  0.376255  0.128293  1
  O  O22  1  0.554701  0.876255  0.128293  1
  O  O23  1  0.054701  0.623745  0.871707  1
  O  O24  1  0.450288  0.688264  0.910789  1
  O  O25  1  0.950288  0.811736  0.089211  1
  O  O26  1  0.549712  0.311736  0.089211  1
  O  O27  1  0.049712  0.188264  0.910789  1
  O  O28  1  0.276062  0.897102  0.771939  1
  O  O29  1  0.776062  0.602898  0.228061  1
  O  O30  1  0.723938  0.102898  0.228061  1
  O  O31  1  0.223938  0.397102  0.771939  1
  O  O32  1  0.289517  0.915839  0.046770  1
  O  O33  1  0.789517  0.584161  0.953230  1
  O  O34  1  0.710483  0.084161  0.953230  1
  O  O35  1  0.210483  0.415839  0.046770  1
  O  O36  1  0.823361  0.200442  0.477908  1
  O  O37  1  0.323361  0.299558  0.522092  1
  O  O38  1  0.176639  0.799558  0.522092  1
  O  O39  1  0.676639  0.700442  0.477908  1
  O  O40  1  0.453875  0.758094  0.543104  1
  O  O41  1  0.953875  0.741906  0.456896  1
  O  O42  1  0.546125  0.241906  0.456896  1
  O  O43  1  0.046125  0.258094  0.543104  1
  O  O44  1  0.593168  0.481763  0.716981  1
  O  O45  1  0.093168  0.018237  0.283019  1
  O  O46  1  0.406832  0.518237  0.283019  1
  O  O47  1  0.906832  0.981763  0.716981  1
  O  O48  1  0.641916  0.883177  0.701805  1
  O  O49  1  0.141916  0.616823  0.298195  1
  O  O50  1  0.358084  0.116823  0.298195  1
  O  O51  1  0.858084  0.383177  0.701805  1
