# generated using pymatgen
data_Y4Ho4B24Ir3Ru
_symmetry_space_group_name_H-M   'P 1'
_cell_length_a   3.64899700
_cell_length_b   9.18589617
_cell_length_c   11.51926322
_cell_angle_alpha   90.02203342
_cell_angle_beta   90.00000000
_cell_angle_gamma   90.00000000
_symmetry_Int_Tables_number   1
_chemical_formula_structural   Y4Ho4B24Ir3Ru
_chemical_formula_sum   'Y4 Ho4 B24 Ir3 Ru1'
_cell_volume   386.11769802
_cell_formula_units_Z   1
loop_
 _symmetry_equiv_pos_site_id
 _symmetry_equiv_pos_as_xyz
  1  'x, y, z'
loop_
 _atom_site_type_symbol
 _atom_site_label
 _atom_site_symmetry_multiplicity
 _atom_site_fract_x
 _atom_site_fract_y
 _atom_site_fract_z
 _atom_site_occupancy
  Y  Y0  1  0.000000  0.320708  0.413324  1
  Y  Y1  1  0.000000  0.680342  0.587950  1
  Y  Y2  1  0.000000  0.820931  0.085033  1
  Y  Y3  1  0.000000  0.177335  0.912998  1
  Ho  Ho4  1  0.000000  0.944027  0.373761  1
  Ho  Ho5  1  0.000000  0.054391  0.627184  1
  Ho  Ho6  1  0.000000  0.444051  0.126018  1
  Ho  Ho7  1  0.000000  0.557664  0.873952  1
  B  B8  1  0.500000  0.554081  0.434251  1
  B  B9  1  0.500000  0.446092  0.565950  1
  B  B10  1  0.500000  0.053704  0.066022  1
  B  B11  1  0.500000  0.945626  0.933226  1
  B  B12  1  0.500000  0.749735  0.420590  1
  B  B13  1  0.500000  0.250358  0.579556  1
  B  B14  1  0.500000  0.249347  0.079487  1
  B  B15  1  0.500000  0.751818  0.919556  1
  B  B16  1  0.500000  0.792731  0.265214  1
  B  B17  1  0.500000  0.207483  0.734172  1
  B  B18  1  0.500000  0.293138  0.234828  1
  B  B19  1  0.500000  0.708315  0.766045  1
  B  B20  1  0.500000  0.631850  0.184112  1
  B  B21  1  0.500000  0.368236  0.815805  1
  B  B22  1  0.500000  0.132371  0.315786  1
  B  B23  1  0.500000  0.868228  0.685330  1
  B  B24  1  0.500000  0.982259  0.213459  1
  B  B25  1  0.500000  0.016131  0.786409  1
  B  B26  1  0.500000  0.482426  0.286240  1
  B  B27  1  0.500000  0.517548  0.714099  1
  B  B28  1  0.500000  0.609789  0.030350  1
  B  B29  1  0.500000  0.389774  0.969997  1
  B  B30  1  0.500000  0.109921  0.469852  1
  B  B31  1  0.500000  0.890130  0.529772  1
  Ir  Ir32  1  0.000000  0.638155  0.321564  1
  Ir  Ir33  1  0.000000  0.362013  0.678784  1
  Ir  Ir34  1  0.000000  0.137549  0.178206  1
  Ru  Ru35  1  0.000000  0.861740  0.821119  1
