# generated using pymatgen
data_ScZn2Cu2Au
_symmetry_space_group_name_H-M   'P 1'
_cell_length_a   4.97603855
_cell_length_b   4.97603870
_cell_length_c   5.00839500
_cell_angle_alpha   59.78467416
_cell_angle_beta   59.78467314
_cell_angle_gamma   60.23038478
_symmetry_Int_Tables_number   1
_chemical_formula_structural   ScZn2Cu2Au
_chemical_formula_sum   'Sc1 Zn2 Cu2 Au1'
_cell_volume   87.55387291
_cell_formula_units_Z   1
loop_
 _symmetry_equiv_pos_site_id
 _symmetry_equiv_pos_as_xyz
  1  'x, y, z'
loop_
 _atom_site_type_symbol
 _atom_site_label
 _atom_site_symmetry_multiplicity
 _atom_site_fract_x
 _atom_site_fract_y
 _atom_site_fract_z
 _atom_site_occupancy
  Sc  Sc0  1  0.246269  0.246269  0.253731  1
  Zn  Zn1  1  0.626665  0.626665  0.624959  1
  Zn  Zn2  1  0.626665  0.626665  0.121709  1
  Cu  Cu3  1  0.624789  0.126528  0.624341  1
  Cu  Cu4  1  0.126528  0.624789  0.624341  1
  Au  Au5  1  0.999083  0.999083  0.000917  1
