# generated using pymatgen
data_CrIrI18
_symmetry_space_group_name_H-M   'P 1'
_cell_length_a   9.98316085
_cell_length_b   10.01884597
_cell_length_c   9.97428198
_cell_angle_alpha   93.47357713
_cell_angle_beta   93.51252182
_cell_angle_gamma   93.41306154
_symmetry_Int_Tables_number   1
_chemical_formula_structural   CrIrI18
_chemical_formula_sum   'Cr1 Ir1 I18'
_cell_volume   991.91700969
_cell_formula_units_Z   1
loop_
 _symmetry_equiv_pos_site_id
 _symmetry_equiv_pos_as_xyz
  1  'x, y, z'
loop_
 _atom_site_type_symbol
 _atom_site_label
 _atom_site_symmetry_multiplicity
 _atom_site_fract_x
 _atom_site_fract_y
 _atom_site_fract_z
 _atom_site_occupancy
  Cr  Cr0  1  0.500000  0.500000  0.500000  1
  Ir  Ir1  1  0.000000  0.000000  0.000000  1
  I  I2  1  0.773119  0.485467  0.519090  1
  I  I3  1  0.518382  0.771943  0.484960  1
  I  I4  1  0.485682  0.519325  0.773419  1
  I  I5  1  0.226881  0.514533  0.480910  1
  I  I6  1  0.481618  0.228057  0.515040  1
  I  I7  1  0.514318  0.480675  0.226581  1
  I  I8  1  0.889066  0.367015  0.761968  1
  I  I9  1  0.761157  0.887690  0.367005  1
  I  I10  1  0.367381  0.761584  0.888974  1
  I  I11  1  0.110934  0.632985  0.238032  1
  I  I12  1  0.238843  0.112310  0.632995  1
  I  I13  1  0.632619  0.238416  0.111026  1
  I  I14  1  0.002810  0.966768  0.730362  1
  I  I15  1  0.730709  0.002842  0.965684  1
  I  I16  1  0.965695  0.731601  0.001740  1
  I  I17  1  0.997190  0.033232  0.269638  1
  I  I18  1  0.269291  0.997158  0.034316  1
  I  I19  1  0.034305  0.268399  0.998260  1
