# generated using pymatgen
data_Al7Zn(IrRh)4
_symmetry_space_group_name_H-M   'P 1'
_cell_length_a   6.02476400
_cell_length_b   4.26311400
_cell_length_c   8.54278700
_cell_angle_alpha   89.99976500
_cell_angle_beta   90.00012803
_cell_angle_gamma   89.99987676
_symmetry_Int_Tables_number   1
_chemical_formula_structural   Al7Zn(IrRh)4
_chemical_formula_sum   'Al7 Zn1 Ir4 Rh4'
_cell_volume   219.41512617
_cell_formula_units_Z   1
loop_
 _symmetry_equiv_pos_site_id
 _symmetry_equiv_pos_as_xyz
  1  'x, y, z'
loop_
 _atom_site_type_symbol
 _atom_site_label
 _atom_site_symmetry_multiplicity
 _atom_site_fract_x
 _atom_site_fract_y
 _atom_site_fract_z
 _atom_site_occupancy
  Al  Al0  1  0.000001  0.749999  0.125001  1
  Al  Al1  1  0.499930  0.249998  0.372722  1
  Al  Al2  1  0.000080  0.249999  0.374515  1
  Al  Al3  1  0.999830  0.749999  0.625001  1
  Al  Al4  1  0.500192  0.750000  0.625002  1
  Al  Al5  1  0.000085  0.250001  0.875484  1
  Al  Al6  1  0.499924  0.250001  0.877273  1
  Zn  Zn7  1  0.499747  0.749999  0.125003  1
  Ir  Ir8  1  0.754559  0.249999  0.124992  1
  Ir  Ir9  1  0.248150  0.750000  0.378564  1
  Ir  Ir10  1  0.749508  0.250002  0.624997  1
  Ir  Ir11  1  0.248140  0.749995  0.871442  1
  Rh  Rh12  1  0.247305  0.250001  0.125005  1
  Rh  Rh13  1  0.751047  0.750003  0.378146  1
  Rh  Rh14  1  0.250462  0.249997  0.625003  1
  Rh  Rh15  1  0.751039  0.749999  0.871846  1
