# generated using pymatgen
data_La8In3Hg3Au20
_symmetry_space_group_name_H-M   'P 1'
_cell_length_a   8.89255768
_cell_length_b   8.89256018
_cell_length_c   10.50008709
_cell_angle_alpha   90.07081608
_cell_angle_beta   89.92918310
_cell_angle_gamma   108.46471979
_symmetry_Int_Tables_number   1
_chemical_formula_structural   La8In3Hg3Au20
_chemical_formula_sum   'La8 In3 Hg3 Au20'
_cell_volume   787.57490719
_cell_formula_units_Z   1
loop_
 _symmetry_equiv_pos_site_id
 _symmetry_equiv_pos_as_xyz
  1  'x, y, z'
loop_
 _atom_site_type_symbol
 _atom_site_label
 _atom_site_symmetry_multiplicity
 _atom_site_fract_x
 _atom_site_fract_y
 _atom_site_fract_z
 _atom_site_occupancy
  La  La0  1  0.704949  0.296132  0.000828  1
  La  La1  1  0.202357  0.794988  0.498519  1
  La  La2  1  0.799204  0.800492  0.296601  1
  La  La3  1  0.300492  0.299204  0.203399  1
  La  La4  1  0.796132  0.204949  0.499172  1
  La  La5  1  0.294988  0.702357  0.001481  1
  La  La6  1  0.701510  0.699956  0.796765  1
  La  La7  1  0.199956  0.201510  0.703235  1
  In  In8  1  0.999236  0.000210  0.998841  1
  In  In9  1  0.484585  0.984585  0.750000  1
  In  In10  1  0.500210  0.499236  0.501159  1
  Hg  Hg11  1  0.520910  0.020910  0.250000  1
  Hg  Hg12  1  0.979604  0.479604  0.750000  1
  Hg  Hg13  1  0.019953  0.519953  0.250000  1
  Au  Au14  1  0.161366  0.427971  0.476919  1
  Au  Au15  1  0.904980  0.905171  0.593187  1
  Au  Au16  1  0.571722  0.841410  0.527018  1
  Au  Au17  1  0.894592  0.166245  0.208214  1
  Au  Au18  1  0.394971  0.667897  0.291831  1
  Au  Au19  1  0.666245  0.394592  0.291786  1
  Au  Au20  1  0.405171  0.404980  0.906813  1
  Au  Au21  1  0.927971  0.661366  0.023081  1
  Au  Au22  1  0.334685  0.607789  0.709788  1
  Au  Au23  1  0.341410  0.071722  0.972982  1
  Au  Au24  1  0.595244  0.594773  0.093970  1
  Au  Au25  1  0.657657  0.925944  0.022870  1
  Au  Au26  1  0.094773  0.095244  0.406030  1
  Au  Au27  1  0.604014  0.328379  0.709724  1
  Au  Au28  1  0.107789  0.834685  0.790212  1
  Au  Au29  1  0.072486  0.338617  0.975502  1
  Au  Au30  1  0.838617  0.572486  0.524498  1
  Au  Au31  1  0.167897  0.894971  0.208169  1
  Au  Au32  1  0.425944  0.157657  0.477130  1
  Au  Au33  1  0.828379  0.104014  0.790276  1
