# generated using pymatgen
data_Tb15ErCdIn2AgRh4
_symmetry_space_group_name_H-M   'P 1'
_cell_length_a   9.68261554
_cell_length_b   9.65325626
_cell_length_c   9.68261600
_cell_angle_alpha   59.95865141
_cell_angle_beta   59.93529113
_cell_angle_gamma   59.95865807
_symmetry_Int_Tables_number   1
_chemical_formula_structural   Tb15ErCdIn2AgRh4
_chemical_formula_sum   'Tb15 Er1 Cd1 In2 Ag1 Rh4'
_cell_volume   639.23416058
_cell_formula_units_Z   1
loop_
 _symmetry_equiv_pos_site_id
 _symmetry_equiv_pos_as_xyz
  1  'x, y, z'
loop_
 _atom_site_type_symbol
 _atom_site_label
 _atom_site_symmetry_multiplicity
 _atom_site_fract_x
 _atom_site_fract_y
 _atom_site_fract_z
 _atom_site_occupancy
  Tb  Tb0  1  0.189176  0.189595  0.812514  1
  Tb  Tb1  1  0.438265  0.057710  0.065508  1
  Tb  Tb2  1  0.436481  0.058396  0.436019  1
  Tb  Tb3  1  0.063904  0.436737  0.061956  1
  Tb  Tb4  1  0.649085  0.050690  0.647777  1
  Tb  Tb5  1  0.188272  0.811574  0.813048  1
  Tb  Tb6  1  0.066928  0.057149  0.437626  1
  Tb  Tb7  1  0.811113  0.191015  0.191028  1
  Tb  Tb8  1  0.811925  0.810306  0.189619  1
  Tb  Tb9  1  0.647371  0.647669  0.051692  1
  Tb  Tb10  1  0.652441  0.651848  0.651583  1
  Tb  Tb11  1  0.063937  0.435499  0.435341  1
  Tb  Tb12  1  0.051171  0.648564  0.647081  1
  Tb  Tb13  1  0.810928  0.190794  0.809928  1
  Tb  Tb14  1  0.435022  0.435258  0.062903  1
  Er  Er15  1  0.189499  0.811490  0.189830  1
  Cd  Cd16  1  0.418118  0.422896  0.742816  1
  In  In17  1  0.744042  0.422168  0.419018  1
  In  In18  1  0.417993  0.420622  0.418506  1
  Ag  Ag19  1  0.415857  0.749963  0.416827  1
  Rh  Rh20  1  0.857112  0.427248  0.857376  1
  Rh  Rh21  1  0.859344  0.857275  0.425468  1
  Rh  Rh22  1  0.425498  0.857522  0.859666  1
  Rh  Rh23  1  0.856511  0.858013  0.856866  1
