# generated using pymatgen
data_PrCoTeO6
_symmetry_space_group_name_H-M   'P 1'
_cell_length_a   5.11052351
_cell_length_b   5.11160111
_cell_length_c   10.40769003
_cell_angle_alpha   90.00446080
_cell_angle_beta   89.97645777
_cell_angle_gamma   119.98219293
_symmetry_Int_Tables_number   1
_chemical_formula_structural   PrCoTeO6
_chemical_formula_sum   'Pr2 Co2 Te2 O12'
_cell_volume   235.49689560
_cell_formula_units_Z   2
loop_
 _symmetry_equiv_pos_site_id
 _symmetry_equiv_pos_as_xyz
  1  'x, y, z'
loop_
 _atom_site_type_symbol
 _atom_site_label
 _atom_site_symmetry_multiplicity
 _atom_site_fract_x
 _atom_site_fract_y
 _atom_site_fract_z
 _atom_site_occupancy
  Pr  Pr0  1  0.000002  0.999999  0.000006  1
  Pr  Pr1  1  0.999998  0.999997  0.499994  1
  Co  Co2  1  0.333295  0.666798  0.250052  1
  Co  Co3  1  0.666706  0.333201  0.749948  1
  Te  Te4  1  0.666578  0.333401  0.250063  1
  Te  Te5  1  0.333421  0.666598  0.749937  1
  O  O6  1  0.370598  0.997626  0.145607  1
  O  O7  1  0.626564  0.629365  0.145522  1
  O  O8  1  0.002709  0.373471  0.145568  1
  O  O9  1  0.002322  0.629290  0.354503  1
  O  O10  1  0.626551  0.997370  0.354485  1
  O  O11  1  0.370532  0.373406  0.354500  1
  O  O12  1  0.629468  0.626599  0.645494  1
  O  O13  1  0.373444  0.002623  0.645508  1
  O  O14  1  0.997685  0.370712  0.645490  1
  O  O15  1  0.997295  0.626535  0.854437  1
  O  O16  1  0.373427  0.370633  0.854482  1
  O  O17  1  0.629400  0.002366  0.854399  1
