# generated using pymatgen
data_La8Cd2FePt
_symmetry_space_group_name_H-M   'P 1'
_cell_length_a   10.07937521
_cell_length_b   10.07937504
_cell_length_c   10.13394600
_cell_angle_alpha   59.82074012
_cell_angle_beta   59.82074066
_cell_angle_gamma   59.78234216
_symmetry_Int_Tables_number   1
_chemical_formula_structural   La8Cd2FePt
_chemical_formula_sum   'La16 Cd4 Fe2 Pt2'
_cell_volume   724.82496958
_cell_formula_units_Z   2
loop_
 _symmetry_equiv_pos_site_id
 _symmetry_equiv_pos_as_xyz
  1  'x, y, z'
loop_
 _atom_site_type_symbol
 _atom_site_label
 _atom_site_symmetry_multiplicity
 _atom_site_fract_x
 _atom_site_fract_y
 _atom_site_fract_z
 _atom_site_occupancy
  La  La0  1  0.593150  0.593150  0.608797  1
  La  La1  1  0.593150  0.593150  0.204904  1
  La  La2  1  0.587185  0.212103  0.600356  1
  La  La3  1  0.212103  0.587185  0.600356  1
  La  La4  1  0.073342  0.440861  0.437747  1
  La  La5  1  0.440861  0.073342  0.048050  1
  La  La6  1  0.440861  0.073342  0.437747  1
  La  La7  1  0.073342  0.440861  0.048050  1
  La  La8  1  0.436981  0.436981  0.063019  1
  La  La9  1  0.056649  0.056649  0.443351  1
  La  La10  1  0.188645  0.808039  0.812780  1
  La  La11  1  0.808039  0.188645  0.190535  1
  La  La12  1  0.808039  0.188645  0.812780  1
  La  La13  1  0.188645  0.808039  0.190535  1
  La  La14  1  0.810404  0.810404  0.189596  1
  La  La15  1  0.189308  0.189308  0.810692  1
  Cd  Cd16  1  0.829310  0.829310  0.829747  1
  Cd  Cd17  1  0.829310  0.829310  0.511633  1
  Cd  Cd18  1  0.829642  0.511147  0.829605  1
  Cd  Cd19  1  0.511147  0.829642  0.829605  1
  Fe  Fe20  1  0.390131  0.390131  0.389207  1
  Fe  Fe21  1  0.390131  0.390131  0.830531  1
  Pt  Pt22  1  0.393564  0.826060  0.390188  1
  Pt  Pt23  1  0.826060  0.393564  0.390188  1
