# generated using pymatgen
data_K4BaVAsSe8
_symmetry_space_group_name_H-M   'P 1'
_cell_length_a   11.91037788
_cell_length_b   12.20689569
_cell_length_c   11.91037838
_cell_angle_alpha   133.44887743
_cell_angle_beta   127.63963226
_cell_angle_gamma   72.06988171
_symmetry_Int_Tables_number   1
_chemical_formula_structural   K4BaVAsSe8
_chemical_formula_sum   'K8 Ba2 V2 As2 Se16'
_cell_volume   976.37690455
_cell_formula_units_Z   2
loop_
 _symmetry_equiv_pos_site_id
 _symmetry_equiv_pos_as_xyz
  1  'x, y, z'
loop_
 _atom_site_type_symbol
 _atom_site_label
 _atom_site_symmetry_multiplicity
 _atom_site_fract_x
 _atom_site_fract_y
 _atom_site_fract_z
 _atom_site_occupancy
  K  K0  1  0.490012  0.248631  0.241241  1
  K  K1  1  0.992610  0.751369  0.241381  1
  K  K2  1  0.577423  0.701502  0.124079  1
  K  K3  1  0.422577  0.298498  0.875921  1
  K  K4  1  0.509988  0.751369  0.758759  1
  K  K5  1  0.077879  0.456587  0.378706  1
  K  K6  1  0.922121  0.543413  0.621294  1
  K  K7  1  0.007390  0.248631  0.758619  1
  Ba  Ba8  1  0.250146  0.000000  0.250146  1
  Ba  Ba9  1  0.749854  0.000000  0.749854  1
  V  V10  1  0.370751  0.666161  0.295411  1
  V  V11  1  0.629249  0.333839  0.704589  1
  As  As12  1  0.133733  0.918477  0.784744  1
  As  As13  1  0.866267  0.081523  0.215256  1
  Se  Se14  1  0.595290  0.608485  0.367267  1
  Se  Se15  1  0.747030  0.015399  0.268369  1
  Se  Se16  1  0.887953  0.857141  0.969188  1
  Se  Se17  1  0.758783  0.391515  0.986807  1
  Se  Se18  1  0.747038  0.235125  0.136722  1
  Se  Se19  1  0.745066  0.468906  0.723841  1
  Se  Se20  1  0.252970  0.984601  0.731631  1
  Se  Se21  1  0.241217  0.608485  0.013193  1
  Se  Se22  1  0.254934  0.531094  0.276159  1
  Se  Se23  1  0.252962  0.764875  0.863278  1
  Se  Se24  1  0.112047  0.142859  0.030812  1
  Se  Se25  1  0.901598  0.764875  0.511912  1
  Se  Se26  1  0.098402  0.235125  0.488088  1
  Se  Se27  1  0.606756  0.074624  0.467867  1
  Se  Se28  1  0.404710  0.391515  0.632733  1
  Se  Se29  1  0.393244  0.925376  0.532133  1
