# generated using pymatgen
data_PrPa(Al5Fe)4
_symmetry_space_group_name_H-M   'P 1'
_cell_length_a   6.79086143
_cell_length_b   6.79086159
_cell_length_c   9.02493700
_cell_angle_alpha   90.00000000
_cell_angle_beta   90.00000000
_cell_angle_gamma   97.68240216
_symmetry_Int_Tables_number   1
_chemical_formula_structural   PrPa(Al5Fe)4
_chemical_formula_sum   'Pr1 Pa1 Al20 Fe4'
_cell_volume   412.45657612
_cell_formula_units_Z   1
loop_
 _symmetry_equiv_pos_site_id
 _symmetry_equiv_pos_as_xyz
  1  'x, y, z'
loop_
 _atom_site_type_symbol
 _atom_site_label
 _atom_site_symmetry_multiplicity
 _atom_site_fract_x
 _atom_site_fract_y
 _atom_site_fract_z
 _atom_site_occupancy
  Pr  Pr0  1  0.124628  0.875372  0.250000  1
  Pa  Pa1  1  0.874790  0.125210  0.750000  1
  Al  Al2  1  0.624831  0.375169  0.550234  1
  Al  Al3  1  0.374648  0.625352  0.452626  1
  Al  Al4  1  0.374648  0.625352  0.047374  1
  Al  Al5  1  0.624831  0.375169  0.949766  1
  Al  Al6  1  0.227757  0.227451  0.501498  1
  Al  Al7  1  0.772549  0.772243  0.501498  1
  Al  Al8  1  0.772549  0.772243  0.998502  1
  Al  Al9  1  0.227757  0.227451  0.998502  1
  Al  Al10  1  0.839569  0.160431  0.098199  1
  Al  Al11  1  0.157880  0.842120  0.900155  1
  Al  Al12  1  0.157880  0.842120  0.599845  1
  Al  Al13  1  0.839569  0.160431  0.401801  1
  Al  Al14  1  0.865010  0.587510  0.750000  1
  Al  Al15  1  0.134573  0.412258  0.250000  1
  Al  Al16  1  0.412490  0.134990  0.750000  1
  Al  Al17  1  0.587742  0.865427  0.250000  1
  Al  Al18  1  0.220553  0.479372  0.750000  1
  Al  Al19  1  0.777808  0.519615  0.250000  1
  Al  Al20  1  0.520628  0.779447  0.750000  1
  Al  Al21  1  0.480385  0.222192  0.250000  1
  Fe  Fe22  1  0.998389  0.494927  0.503662  1
  Fe  Fe23  1  0.998389  0.494927  0.996338  1
  Fe  Fe24  1  0.505073  0.001611  0.996338  1
  Fe  Fe25  1  0.505073  0.001611  0.503662  1
