# generated using pymatgen
data_Er2Pa(GaPt)3
_symmetry_space_group_name_H-M   'P 1'
_cell_length_a   7.30015500
_cell_length_b   7.32190872
_cell_length_c   3.84700700
_cell_angle_alpha   90.00000000
_cell_angle_beta   90.00000000
_cell_angle_gamma   119.90177171
_symmetry_Int_Tables_number   1
_chemical_formula_structural   Er2Pa(GaPt)3
_chemical_formula_sum   'Er2 Pa1 Ga3 Pt3'
_cell_volume   178.25389159
_cell_formula_units_Z   1
loop_
 _symmetry_equiv_pos_site_id
 _symmetry_equiv_pos_as_xyz
  1  'x, y, z'
loop_
 _atom_site_type_symbol
 _atom_site_label
 _atom_site_symmetry_multiplicity
 _atom_site_fract_x
 _atom_site_fract_y
 _atom_site_fract_z
 _atom_site_occupancy
  Er  Er0  1  0.404363  0.402853  0.500000  1
  Er  Er1  1  0.001511  0.597147  0.500000  1
  Pa  Pa2  1  0.589400  0.000000  0.500000  1
  Ga  Ga3  1  0.745988  0.734281  0.000000  1
  Ga  Ga4  1  0.011705  0.265719  0.000000  1
  Ga  Ga5  1  0.244094  0.000000  0.000000  1
  Pt  Pt6  1  0.346829  0.680458  0.000000  1
  Pt  Pt7  1  0.666372  0.319542  0.000000  1
  Pt  Pt8  1  0.989736  0.000000  0.500000  1
