# generated using pymatgen
data_K2Mn(IO3)6
_symmetry_space_group_name_H-M   'P 1'
_cell_length_a   7.64754331
_cell_length_b   7.64754328
_cell_length_c   7.64754470
_cell_angle_alpha   96.66583870
_cell_angle_beta   96.66584572
_cell_angle_gamma   96.66583850
_symmetry_Int_Tables_number   1
_chemical_formula_structural   K2Mn(IO3)6
_chemical_formula_sum   'K2 Mn1 I6 O18'
_cell_volume   437.41820263
_cell_formula_units_Z   1
loop_
 _symmetry_equiv_pos_site_id
 _symmetry_equiv_pos_as_xyz
  1  'x, y, z'
loop_
 _atom_site_type_symbol
 _atom_site_label
 _atom_site_symmetry_multiplicity
 _atom_site_fract_x
 _atom_site_fract_y
 _atom_site_fract_z
 _atom_site_occupancy
  K  K0  1  0.321174  0.321174  0.321174  1
  K  K1  1  0.678826  0.678826  0.678826  1
  Mn  Mn2  1  0.000000  0.000000  0.000000  1
  I  I3  1  0.832872  0.641701  0.204826  1
  I  I4  1  0.641701  0.204826  0.832872  1
  I  I5  1  0.167128  0.358299  0.795174  1
  I  I6  1  0.204826  0.832872  0.641701  1
  I  I7  1  0.358299  0.795174  0.167128  1
  I  I8  1  0.795174  0.167128  0.358299  1
  O  O9  1  0.817564  0.823105  0.053108  1
  O  O10  1  0.587405  0.121591  0.207110  1
  O  O11  1  0.207110  0.587405  0.121591  1
  O  O12  1  0.176895  0.946892  0.182436  1
  O  O13  1  0.591410  0.591714  0.183353  1
  O  O14  1  0.183353  0.591410  0.591714  1
  O  O15  1  0.792890  0.412595  0.878409  1
  O  O16  1  0.412595  0.878409  0.792890  1
  O  O17  1  0.121591  0.207110  0.587405  1
  O  O18  1  0.946892  0.182436  0.176895  1
  O  O19  1  0.053108  0.817564  0.823105  1
  O  O20  1  0.182436  0.176895  0.946892  1
  O  O21  1  0.823105  0.053108  0.817564  1
  O  O22  1  0.591714  0.183353  0.591410  1
  O  O23  1  0.878409  0.792890  0.412595  1
  O  O24  1  0.408590  0.408286  0.816647  1
  O  O25  1  0.408286  0.816647  0.408590  1
  O  O26  1  0.816647  0.408590  0.408286  1
