# generated using pymatgen
data_U2Hg3F12
_symmetry_space_group_name_H-M   'P 1'
_cell_length_a   9.44843200
_cell_length_b   6.19175882
_cell_length_c   12.72012388
_cell_angle_alpha   85.26236747
_cell_angle_beta   90.00000000
_cell_angle_gamma   90.00000000
_symmetry_Int_Tables_number   1
_chemical_formula_structural   U2Hg3F12
_chemical_formula_sum   'U4 Hg6 F24'
_cell_volume   741.61540530
_cell_formula_units_Z   2
loop_
 _symmetry_equiv_pos_site_id
 _symmetry_equiv_pos_as_xyz
  1  'x, y, z'
loop_
 _atom_site_type_symbol
 _atom_site_label
 _atom_site_symmetry_multiplicity
 _atom_site_fract_x
 _atom_site_fract_y
 _atom_site_fract_z
 _atom_site_occupancy
  U  U0  1  0.140508  0.712529  0.669313  1
  U  U1  1  0.640508  0.287471  0.830687  1
  U  U2  1  0.859492  0.287471  0.330687  1
  U  U3  1  0.359492  0.712529  0.169313  1
  Hg  Hg4  1  0.718314  0.751165  0.556531  1
  Hg  Hg5  1  0.218314  0.248835  0.943469  1
  Hg  Hg6  1  0.281686  0.248835  0.443469  1
  Hg  Hg7  1  0.781686  0.751165  0.056531  1
  Hg  Hg8  1  0.500000  0.000000  0.500000  1
  Hg  Hg9  1  0.000000  0.000000  0.000000  1
  F  F10  1  0.938540  0.607852  0.612972  1
  F  F11  1  0.438540  0.392148  0.887028  1
  F  F12  1  0.061460  0.392148  0.387028  1
  F  F13  1  0.561460  0.607852  0.112972  1
  F  F14  1  0.194495  0.400934  0.729632  1
  F  F15  1  0.694495  0.599066  0.770368  1
  F  F16  1  0.805505  0.599066  0.270368  1
  F  F17  1  0.305505  0.400934  0.229632  1
  F  F18  1  0.053403  0.759020  0.816013  1
  F  F19  1  0.553403  0.240980  0.683987  1
  F  F20  1  0.166297  0.832007  0.214142  1
  F  F21  1  0.666297  0.167993  0.285858  1
  F  F22  1  0.833703  0.167993  0.785858  1
  F  F23  1  0.333703  0.832007  0.714142  1
  F  F24  1  0.261159  0.648255  0.026632  1
  F  F25  1  0.761159  0.351745  0.473368  1
  F  F26  1  0.738841  0.351745  0.973368  1
  F  F27  1  0.238841  0.648255  0.526632  1
  F  F28  1  0.413013  0.020282  0.106021  1
  F  F29  1  0.913013  0.979718  0.393979  1
  F  F30  1  0.586987  0.979718  0.893979  1
  F  F31  1  0.086987  0.020282  0.606021  1
  F  F32  1  0.446597  0.759020  0.316013  1
  F  F33  1  0.946597  0.240980  0.183987  1
