# generated using pymatgen
data_Nd6Al24Os5Ru3
_symmetry_space_group_name_H-M   'P 1'
_cell_length_a   8.89468300
_cell_length_b   8.89975486
_cell_length_c   9.72528075
_cell_angle_alpha   90.00196836
_cell_angle_beta   90.00000000
_cell_angle_gamma   119.98115376
_symmetry_Int_Tables_number   1
_chemical_formula_structural   Nd6Al24Os5Ru3
_chemical_formula_sum   'Nd6 Al24 Os5 Ru3'
_cell_volume   666.84322413
_cell_formula_units_Z   1
loop_
 _symmetry_equiv_pos_site_id
 _symmetry_equiv_pos_as_xyz
  1  'x, y, z'
loop_
 _atom_site_type_symbol
 _atom_site_label
 _atom_site_symmetry_multiplicity
 _atom_site_fract_x
 _atom_site_fract_y
 _atom_site_fract_z
 _atom_site_occupancy
  Nd  Nd0  1  0.193055  0.386108  0.249143  1
  Nd  Nd1  1  0.806945  0.613892  0.750857  1
  Nd  Nd2  1  0.615346  0.806887  0.249455  1
  Nd  Nd3  1  0.384654  0.193113  0.750545  1
  Nd  Nd4  1  0.191542  0.806887  0.249455  1
  Nd  Nd5  1  0.808458  0.193113  0.750545  1
  Al  Al6  1  0.333646  0.667294  0.009900  1
  Al  Al7  1  0.666354  0.332706  0.990100  1
  Al  Al8  1  0.666394  0.332785  0.510169  1
  Al  Al9  1  0.333606  0.667215  0.489831  1
  Al  Al10  1  0.163028  0.326056  0.574320  1
  Al  Al11  1  0.836972  0.673944  0.425680  1
  Al  Al12  1  0.674305  0.836630  0.574780  1
  Al  Al13  1  0.836907  0.673813  0.074625  1
  Al  Al14  1  0.325695  0.163370  0.425220  1
  Al  Al15  1  0.163093  0.326187  0.925375  1
  Al  Al16  1  0.162325  0.836630  0.574780  1
  Al  Al17  1  0.326109  0.162827  0.074444  1
  Al  Al18  1  0.837675  0.163370  0.425220  1
  Al  Al19  1  0.673891  0.837173  0.925556  1
  Al  Al20  1  0.836719  0.162827  0.074444  1
  Al  Al21  1  0.163281  0.837173  0.925556  1
  Al  Al22  1  0.561825  0.123649  0.250543  1
  Al  Al23  1  0.438175  0.876351  0.749457  1
  Al  Al24  1  0.875241  0.437660  0.250123  1
  Al  Al25  1  0.124759  0.562340  0.749877  1
  Al  Al26  1  0.562419  0.437660  0.250123  1
  Al  Al27  1  0.437581  0.562340  0.749877  1
  Al  Al28  1  0.000313  0.000628  0.250008  1
  Al  Al29  1  0.999687  0.999372  0.749992  1
  Os  Os30  1  0.500000  0.000000  0.000000  1
  Os  Os31  1  0.000000  0.500000  0.000000  1
  Os  Os32  1  0.500000  0.500000  0.000000  1
  Os  Os33  1  0.000000  0.500000  0.500000  1
  Os  Os34  1  0.500000  0.500000  0.500000  1
  Ru  Ru35  1  0.500000  0.000000  0.500000  1
  Ru  Ru36  1  0.000000  0.000000  0.000000  1
  Ru  Ru37  1  0.000000  0.000000  0.500000  1
