# generated using pymatgen
data_Eu6IrO12
_symmetry_space_group_name_H-M   'P 1'
_cell_length_a   6.61661270
_cell_length_b   6.61661177
_cell_length_c   6.61661151
_cell_angle_alpha   98.17802340
_cell_angle_beta   98.17802417
_cell_angle_gamma   98.17802033
_symmetry_Int_Tables_number   1
_chemical_formula_structural   Eu6IrO12
_chemical_formula_sum   'Eu6 Ir1 O12'
_cell_volume   279.88083139
_cell_formula_units_Z   1
loop_
 _symmetry_equiv_pos_site_id
 _symmetry_equiv_pos_as_xyz
  1  'x, y, z'
loop_
 _atom_site_type_symbol
 _atom_site_label
 _atom_site_symmetry_multiplicity
 _atom_site_fract_x
 _atom_site_fract_y
 _atom_site_fract_z
 _atom_site_occupancy
  Eu  Eu0  1  0.138735  0.300961  0.605321  1
  Eu  Eu1  1  0.394679  0.861265  0.699039  1
  Eu  Eu2  1  0.699039  0.394679  0.861265  1
  Eu  Eu3  1  0.300961  0.605321  0.138735  1
  Eu  Eu4  1  0.605321  0.138735  0.300961  1
  Eu  Eu5  1  0.861265  0.699039  0.394679  1
  Ir  Ir6  1  0.000000  0.000000  0.000000  1
  O  O7  1  0.065951  0.293639  0.966178  1
  O  O8  1  0.033822  0.934049  0.706361  1
  O  O9  1  0.406257  0.565101  0.823913  1
  O  O10  1  0.176087  0.593743  0.434899  1
  O  O11  1  0.706361  0.033822  0.934049  1
  O  O12  1  0.434899  0.176087  0.593743  1
  O  O13  1  0.565101  0.823913  0.406257  1
  O  O14  1  0.293639  0.966178  0.065951  1
  O  O15  1  0.823913  0.406257  0.565101  1
  O  O16  1  0.593743  0.434899  0.176087  1
  O  O17  1  0.966178  0.065951  0.293639  1
  O  O18  1  0.934049  0.706361  0.033822  1
