# generated using pymatgen
data_GdY3OsI4
_symmetry_space_group_name_H-M   'P 1'
_cell_length_a   11.69977726
_cell_length_b   11.69977824
_cell_length_c   6.33113200
_cell_angle_alpha   90.02656224
_cell_angle_beta   90.02657204
_cell_angle_gamma   88.36899596
_symmetry_Int_Tables_number   1
_chemical_formula_structural   GdY3OsI4
_chemical_formula_sum   'Gd2 Y6 Os2 I8'
_cell_volume   866.28444341
_cell_formula_units_Z   2
loop_
 _symmetry_equiv_pos_site_id
 _symmetry_equiv_pos_as_xyz
  1  'x, y, z'
loop_
 _atom_site_type_symbol
 _atom_site_label
 _atom_site_symmetry_multiplicity
 _atom_site_fract_x
 _atom_site_fract_y
 _atom_site_fract_z
 _atom_site_occupancy
  Gd  Gd0  1  0.804752  0.083007  0.999369  1
  Gd  Gd1  1  0.083007  0.804752  0.499369  1
  Y  Y2  1  0.075790  0.189741  0.000658  1
  Y  Y3  1  0.189741  0.075790  0.500658  1
  Y  Y4  1  0.923466  0.810460  0.999473  1
  Y  Y5  1  0.918692  0.192310  0.500989  1
  Y  Y6  1  0.192310  0.918692  0.000989  1
  Y  Y7  1  0.810460  0.923466  0.499473  1
  Os  Os8  1  0.999663  0.999809  0.250079  1
  Os  Os9  1  0.999809  0.999663  0.750079  1
  I  I10  1  0.654391  0.148162  0.507526  1
  I  I11  1  0.858685  0.657130  0.505728  1
  I  I12  1  0.341833  0.138887  0.994340  1
  I  I13  1  0.138887  0.341833  0.494340  1
  I  I14  1  0.657130  0.858685  0.005728  1
  I  I15  1  0.349243  0.853980  0.491837  1
  I  I16  1  0.148162  0.654391  0.007526  1
  I  I17  1  0.853980  0.349243  0.991837  1
