# generated using pymatgen
data_Tb6Y2Tl7Cd
_symmetry_space_group_name_H-M   'P 1'
_cell_length_a   6.51190600
_cell_length_b   6.51269553
_cell_length_c   10.78726000
_cell_angle_alpha   90.00000000
_cell_angle_beta   90.00000000
_cell_angle_gamma   110.15368896
_symmetry_Int_Tables_number   1
_chemical_formula_structural   Tb6Y2Tl7Cd
_chemical_formula_sum   'Tb6 Y2 Tl7 Cd1'
_cell_volume   429.47717378
_cell_formula_units_Z   1
loop_
 _symmetry_equiv_pos_site_id
 _symmetry_equiv_pos_as_xyz
  1  'x, y, z'
loop_
 _atom_site_type_symbol
 _atom_site_label
 _atom_site_symmetry_multiplicity
 _atom_site_fract_x
 _atom_site_fract_y
 _atom_site_fract_z
 _atom_site_occupancy
  Tb  Tb0  1  0.501399  0.501178  0.250000  1
  Tb  Tb1  1  0.498566  0.498838  0.750000  1
  Tb  Tb2  1  0.250597  0.748922  0.498033  1
  Tb  Tb3  1  0.250597  0.748922  0.001967  1
  Tb  Tb4  1  0.749298  0.251008  0.498076  1
  Tb  Tb5  1  0.749298  0.251008  0.001924  1
  Y  Y6  1  0.997661  0.997296  0.250000  1
  Y  Y7  1  0.002636  0.002849  0.750000  1
  Tl  Tl8  1  0.250175  0.246117  0.003702  1
  Tl  Tl9  1  0.749832  0.753757  0.001659  1
  Tl  Tl10  1  0.250175  0.246117  0.496298  1
  Tl  Tl11  1  0.749832  0.753757  0.498341  1
  Tl  Tl12  1  0.999501  0.501747  0.750000  1
  Tl  Tl13  1  0.501676  0.999480  0.750000  1
  Tl  Tl14  1  0.000453  0.498318  0.250000  1
  Cd  Cd15  1  0.498301  0.000687  0.250000  1
