# generated using pymatgen
data_Sm2Y6Si12PdRh3
_symmetry_space_group_name_H-M   'P 1'
_cell_length_a   8.19847800
_cell_length_b   8.19847818
_cell_length_c   8.00977500
_cell_angle_alpha   90.00000000
_cell_angle_beta   90.00000000
_cell_angle_gamma   119.99999122
_symmetry_Int_Tables_number   1
_chemical_formula_structural   Sm2Y6Si12PdRh3
_chemical_formula_sum   'Sm2 Y6 Si12 Pd1 Rh3'
_cell_volume   466.24852105
_cell_formula_units_Z   1
loop_
 _symmetry_equiv_pos_site_id
 _symmetry_equiv_pos_as_xyz
  1  'x, y, z'
loop_
 _atom_site_type_symbol
 _atom_site_label
 _atom_site_symmetry_multiplicity
 _atom_site_fract_x
 _atom_site_fract_y
 _atom_site_fract_z
 _atom_site_occupancy
  Sm  Sm0  1  0.000000  0.000000  0.250170  1
  Sm  Sm1  1  0.000000  0.000000  0.750979  1
  Y  Y2  1  0.510069  0.489931  0.247373  1
  Y  Y3  1  0.510069  0.020138  0.247373  1
  Y  Y4  1  0.979862  0.489931  0.247373  1
  Y  Y5  1  0.492362  0.507638  0.752039  1
  Y  Y6  1  0.492362  0.984725  0.752039  1
  Y  Y7  1  0.015275  0.507638  0.752039  1
  Si  Si8  1  0.165083  0.834917  0.501070  1
  Si  Si9  1  0.165083  0.330167  0.501070  1
  Si  Si10  1  0.669833  0.834917  0.501070  1
  Si  Si11  1  0.831633  0.168367  0.499421  1
  Si  Si12  1  0.831633  0.663267  0.499421  1
  Si  Si13  1  0.336733  0.168367  0.499421  1
  Si  Si14  1  0.832596  0.167404  0.999720  1
  Si  Si15  1  0.832596  0.665193  0.999720  1
  Si  Si16  1  0.334807  0.167404  0.999720  1
  Si  Si17  1  0.167707  0.832293  0.000727  1
  Si  Si18  1  0.167707  0.335414  0.000727  1
  Si  Si19  1  0.664586  0.832293  0.000727  1
  Pd  Pd20  1  0.333333  0.666667  0.466417  1
  Rh  Rh21  1  0.666667  0.333333  0.535133  1
  Rh  Rh22  1  0.666667  0.333333  0.965814  1
  Rh  Rh23  1  0.333333  0.666667  0.030441  1
