# generated using pymatgen
data_Nd6Y10Cd4Pd3Ru
_symmetry_space_group_name_H-M   'P 1'
_cell_length_a   9.83559204
_cell_length_b   9.83559219
_cell_length_c   9.83559317
_cell_angle_alpha   59.71668448
_cell_angle_beta   59.71668399
_cell_angle_gamma   59.71668339
_symmetry_Int_Tables_number   1
_chemical_formula_structural   Nd6Y10Cd4Pd3Ru
_chemical_formula_sum   'Nd6 Y10 Cd4 Pd3 Ru1'
_cell_volume   668.47156271
_cell_formula_units_Z   1
loop_
 _symmetry_equiv_pos_site_id
 _symmetry_equiv_pos_as_xyz
  1  'x, y, z'
loop_
 _atom_site_type_symbol
 _atom_site_label
 _atom_site_symmetry_multiplicity
 _atom_site_fract_x
 _atom_site_fract_y
 _atom_site_fract_z
 _atom_site_occupancy
  Nd  Nd0  1  0.936124  0.563949  0.563949  1
  Nd  Nd1  1  0.558920  0.937980  0.937980  1
  Nd  Nd2  1  0.563949  0.936124  0.563949  1
  Nd  Nd3  1  0.937980  0.558920  0.937980  1
  Nd  Nd4  1  0.563949  0.563949  0.936124  1
  Nd  Nd5  1  0.937980  0.937980  0.558920  1
  Y  Y6  1  0.352715  0.352715  0.352715  1
  Y  Y7  1  0.348643  0.348643  0.949454  1
  Y  Y8  1  0.348643  0.949454  0.348643  1
  Y  Y9  1  0.949454  0.348643  0.348643  1
  Y  Y10  1  0.817900  0.187057  0.187057  1
  Y  Y11  1  0.186119  0.811209  0.811209  1
  Y  Y12  1  0.187057  0.817900  0.187057  1
  Y  Y13  1  0.811209  0.186119  0.811209  1
  Y  Y14  1  0.187057  0.187057  0.817900  1
  Y  Y15  1  0.811209  0.811209  0.186119  1
  Cd  Cd16  1  0.579459  0.579459  0.579459  1
  Cd  Cd17  1  0.579626  0.579626  0.259366  1
  Cd  Cd18  1  0.579626  0.259366  0.579626  1
  Cd  Cd19  1  0.259366  0.579626  0.579626  1
  Pd  Pd20  1  0.144458  0.144458  0.571007  1
  Pd  Pd21  1  0.144458  0.571007  0.144458  1
  Pd  Pd22  1  0.571007  0.144458  0.144458  1
  Ru  Ru23  1  0.143096  0.143096  0.143096  1
