# generated using pymatgen
data_Nb6SeS7
_symmetry_space_group_name_H-M   'P 1'
_cell_length_a   9.75068447
_cell_length_b   9.85520746
_cell_length_c   3.38395700
_cell_angle_alpha   90.00000000
_cell_angle_beta   90.00000000
_cell_angle_gamma   120.71689603
_symmetry_Int_Tables_number   1
_chemical_formula_structural   Nb6SeS7
_chemical_formula_sum   'Nb6 Se1 S7'
_cell_volume   279.55900423
_cell_formula_units_Z   1
loop_
 _symmetry_equiv_pos_site_id
 _symmetry_equiv_pos_as_xyz
  1  'x, y, z'
loop_
 _atom_site_type_symbol
 _atom_site_label
 _atom_site_symmetry_multiplicity
 _atom_site_fract_x
 _atom_site_fract_y
 _atom_site_fract_z
 _atom_site_occupancy
  Nb  Nb0  1  0.510376  0.889945  0.750000  1
  Nb  Nb1  1  0.626816  0.508032  0.250000  1
  Nb  Nb2  1  0.886678  0.372345  0.250000  1
  Nb  Nb3  1  0.114096  0.626451  0.750000  1
  Nb  Nb4  1  0.372103  0.483966  0.750000  1
  Nb  Nb5  1  0.482803  0.111913  0.250000  1
  Se  Se6  1  0.670098  0.725208  0.750000  1
  S  S7  1  0.941792  0.649655  0.250000  1
  S  S8  1  0.709175  0.060469  0.250000  1
  S  S9  1  0.284109  0.940029  0.750000  1
  S  S10  1  0.058400  0.348457  0.750000  1
  S  S11  1  0.343809  0.286171  0.250000  1
  S  S12  1  0.334519  0.666529  0.250000  1
  S  S13  1  0.665225  0.330829  0.750000  1
