# generated using pymatgen
data_K8BaSr3(SiAs4)2
_symmetry_space_group_name_H-M   'P 1'
_cell_length_a   10.25396078
_cell_length_b   10.29117040
_cell_length_c   7.76833682
_cell_angle_alpha   88.94825055
_cell_angle_beta   88.39374787
_cell_angle_gamma   119.11767534
_symmetry_Int_Tables_number   1
_chemical_formula_structural   K8BaSr3(SiAs4)2
_chemical_formula_sum   'K8 Ba1 Sr3 Si2 As8'
_cell_volume   715.39472976
_cell_formula_units_Z   1
loop_
 _symmetry_equiv_pos_site_id
 _symmetry_equiv_pos_as_xyz
  1  'x, y, z'
loop_
 _atom_site_type_symbol
 _atom_site_label
 _atom_site_symmetry_multiplicity
 _atom_site_fract_x
 _atom_site_fract_y
 _atom_site_fract_z
 _atom_site_occupancy
  K  K0  1  0.048251  0.520677  0.610035  1
  K  K1  1  0.522011  0.049874  0.109653  1
  K  K2  1  0.274267  0.135462  0.826976  1
  K  K3  1  0.867654  0.719893  0.774738  1
  K  K4  1  0.861123  0.150263  0.806069  1
  K  K5  1  0.721113  0.867414  0.274108  1
  K  K6  1  0.135188  0.275068  0.325959  1
  K  K7  1  0.148625  0.859877  0.305670  1
  Ba  Ba8  1  0.474482  0.949935  0.609281  1
  Sr  Sr9  1  0.474265  0.518655  0.610549  1
  Sr  Sr10  1  0.951560  0.476411  0.111574  1
  Sr  Sr11  1  0.520261  0.474500  0.110446  1
  Si  Si12  1  0.667815  0.338862  0.497093  1
  Si  Si13  1  0.336727  0.665764  0.998355  1
  As  As14  1  0.662985  0.344313  0.813552  1
  As  As15  1  0.343803  0.662319  0.312146  1
  As  As16  1  0.593545  0.782800  0.876495  1
  As  As17  1  0.209648  0.406749  0.914362  1
  As  As18  1  0.197214  0.787082  0.905887  1
  As  As19  1  0.406433  0.214538  0.413086  1
  As  As20  1  0.786515  0.591207  0.370949  1
  As  As21  1  0.796342  0.208166  0.395052  1
