# generated using pymatgen
data_NbFeI8
_symmetry_space_group_name_H-M   'P 1'
_cell_length_a   11.15342900
_cell_length_b   11.15342923
_cell_length_c   9.87036100
_cell_angle_alpha   90.00000000
_cell_angle_beta   90.00000000
_cell_angle_gamma   128.34807865
_symmetry_Int_Tables_number   1
_chemical_formula_structural   NbFeI8
_chemical_formula_sum   'Nb2 Fe2 I16'
_cell_volume   962.95883052
_cell_formula_units_Z   2
loop_
 _symmetry_equiv_pos_site_id
 _symmetry_equiv_pos_as_xyz
  1  'x, y, z'
loop_
 _atom_site_type_symbol
 _atom_site_label
 _atom_site_symmetry_multiplicity
 _atom_site_fract_x
 _atom_site_fract_y
 _atom_site_fract_z
 _atom_site_occupancy
  Nb  Nb0  1  0.611269  0.388731  0.250000  1
  Nb  Nb1  1  0.388731  0.611269  0.750000  1
  Fe  Fe2  1  0.812316  0.187684  0.250000  1
  Fe  Fe3  1  0.187684  0.812316  0.750000  1
  I  I4  1  0.523714  0.067740  0.250000  1
  I  I5  1  0.067740  0.523714  0.750000  1
  I  I6  1  0.476286  0.932260  0.750000  1
  I  I7  1  0.932260  0.476286  0.250000  1
  I  I8  1  0.631356  0.368644  0.978181  1
  I  I9  1  0.368644  0.631356  0.021819  1
  I  I10  1  0.631356  0.368644  0.521819  1
  I  I11  1  0.368644  0.631356  0.478181  1
  I  I12  1  0.316116  0.258900  0.250000  1
  I  I13  1  0.258900  0.316116  0.750000  1
  I  I14  1  0.683884  0.741100  0.750000  1
  I  I15  1  0.741100  0.683884  0.250000  1
  I  I16  1  0.881242  0.118758  0.462454  1
  I  I17  1  0.118758  0.881242  0.537546  1
  I  I18  1  0.881242  0.118758  0.037546  1
  I  I19  1  0.118758  0.881242  0.962454  1
