# generated using pymatgen
data_Ho2Tm5Lu13Pb16
_symmetry_space_group_name_H-M   'P 1'
_cell_length_a   8.11537169
_cell_length_b   8.15614805
_cell_length_c   15.39361861
_cell_angle_alpha   90.00623581
_cell_angle_beta   90.11735940
_cell_angle_gamma   89.95114218
_symmetry_Int_Tables_number   1
_chemical_formula_structural   Ho2Tm5Lu13Pb16
_chemical_formula_sum   'Ho2 Tm5 Lu13 Pb16'
_cell_volume   1018.90376379
_cell_formula_units_Z   1
loop_
 _symmetry_equiv_pos_site_id
 _symmetry_equiv_pos_as_xyz
  1  'x, y, z'
loop_
 _atom_site_type_symbol
 _atom_site_label
 _atom_site_symmetry_multiplicity
 _atom_site_fract_x
 _atom_site_fract_y
 _atom_site_fract_z
 _atom_site_occupancy
  Ho  Ho0  1  0.040963  0.176073  0.599481  1
  Ho  Ho1  1  0.458765  0.675771  0.400435  1
  Tm  Tm2  1  0.957962  0.824631  0.099695  1
  Tm  Tm3  1  0.458782  0.675249  0.099781  1
  Tm  Tm4  1  0.959044  0.824109  0.400520  1
  Tm  Tm5  1  0.540869  0.324132  0.599559  1
  Tm  Tm6  1  0.041503  0.175635  0.900508  1
  Lu  Lu7  1  0.378002  0.842816  0.878059  1
  Lu  Lu8  1  0.877755  0.656681  0.622068  1
  Lu  Lu9  1  0.622497  0.156714  0.377978  1
  Lu  Lu10  1  0.121889  0.342684  0.121991  1
  Lu  Lu11  1  0.621405  0.157088  0.121689  1
  Lu  Lu12  1  0.121932  0.343258  0.377823  1
  Lu  Lu13  1  0.377641  0.843685  0.622209  1
  Lu  Lu14  1  0.878575  0.656741  0.877964  1
  Lu  Lu15  1  0.543027  0.324966  0.899854  1
  Lu  Lu16  1  0.209715  0.505571  0.750151  1
  Lu  Lu17  1  0.708931  0.994612  0.750294  1
  Lu  Lu18  1  0.790348  0.494541  0.249655  1
  Lu  Lu19  1  0.290422  0.005148  0.249874  1
  Pb  Pb20  1  0.279910  0.032554  0.043049  1
  Pb  Pb21  1  0.781035  0.466200  0.457342  1
  Pb  Pb22  1  0.718839  0.966429  0.543211  1
  Pb  Pb23  1  0.220767  0.532434  0.957119  1
  Pb  Pb24  1  0.719047  0.966680  0.957019  1
  Pb  Pb25  1  0.219221  0.534435  0.543059  1
  Pb  Pb26  1  0.280843  0.034030  0.457153  1
  Pb  Pb27  1  0.781025  0.466349  0.042421  1
  Pb  Pb28  1  0.571550  0.626687  0.749966  1
  Pb  Pb29  1  0.071549  0.873453  0.749918  1
  Pb  Pb30  1  0.428274  0.373004  0.249837  1
  Pb  Pb31  1  0.928127  0.127133  0.249979  1
  Pb  Pb32  1  0.353028  0.157703  0.750471  1
  Pb  Pb33  1  0.852463  0.342791  0.750258  1
  Pb  Pb34  1  0.647406  0.843077  0.249861  1
  Pb  Pb35  1  0.146890  0.656934  0.249746  1
