# generated using pymatgen
data_Zr8TlIn(Pd4Pb)2
_symmetry_space_group_name_H-M   'P 1'
_cell_length_a   7.58610800
_cell_length_b   7.58610800
_cell_length_c   6.95020400
_cell_angle_alpha   90.00000000
_cell_angle_beta   90.00000000
_cell_angle_gamma   90.00000000
_symmetry_Int_Tables_number   1
_chemical_formula_structural   Zr8TlIn(Pd4Pb)2
_chemical_formula_sum   'Zr8 Tl1 In1 Pd8 Pb2'
_cell_volume   399.97753039
_cell_formula_units_Z   1
loop_
 _symmetry_equiv_pos_site_id
 _symmetry_equiv_pos_as_xyz
  1  'x, y, z'
loop_
 _atom_site_type_symbol
 _atom_site_label
 _atom_site_symmetry_multiplicity
 _atom_site_fract_x
 _atom_site_fract_y
 _atom_site_fract_z
 _atom_site_occupancy
  Zr  Zr0  1  0.650943  0.649377  0.500403  1
  Zr  Zr1  1  0.813224  0.188133  0.500333  1
  Zr  Zr2  1  0.688133  0.686776  0.999667  1
  Zr  Zr3  1  0.850623  0.150943  0.999597  1
  Zr  Zr4  1  0.186776  0.811867  0.500333  1
  Zr  Zr5  1  0.311867  0.313224  0.999667  1
  Zr  Zr6  1  0.149377  0.849057  0.999597  1
  Zr  Zr7  1  0.349057  0.350623  0.500403  1
  Tl  Tl8  1  0.500000  0.000000  0.250000  1
  In  In9  1  0.000000  0.500000  0.750000  1
  Pd  Pd10  1  0.625936  0.369135  0.212196  1
  Pd  Pd11  1  0.367071  0.624966  0.787494  1
  Pd  Pd12  1  0.875034  0.867071  0.712506  1
  Pd  Pd13  1  0.632929  0.375034  0.787494  1
  Pd  Pd14  1  0.374064  0.630865  0.212196  1
  Pd  Pd15  1  0.130865  0.125936  0.287804  1
  Pd  Pd16  1  0.869135  0.874064  0.287804  1
  Pd  Pd17  1  0.124966  0.132929  0.712506  1
  Pb  Pb18  1  0.000000  0.500000  0.250000  1
  Pb  Pb19  1  0.500000  0.000000  0.750000  1
