# generated using pymatgen
data_Ho5Er11(In3Ir)2
_symmetry_space_group_name_H-M   'P 1'
_cell_length_a   10.34190104
_cell_length_b   10.34203790
_cell_length_c   7.02221301
_cell_angle_alpha   89.99675575
_cell_angle_beta   90.00393461
_cell_angle_gamma   119.98767847
_symmetry_Int_Tables_number   1
_chemical_formula_structural   Ho5Er11(In3Ir)2
_chemical_formula_sum   'Ho5 Er11 In6 Ir2'
_cell_volume   650.52657251
_cell_formula_units_Z   1
loop_
 _symmetry_equiv_pos_site_id
 _symmetry_equiv_pos_as_xyz
  1  'x, y, z'
loop_
 _atom_site_type_symbol
 _atom_site_label
 _atom_site_symmetry_multiplicity
 _atom_site_fract_x
 _atom_site_fract_y
 _atom_site_fract_z
 _atom_site_occupancy
  Ho  Ho0  1  0.533258  0.066508  0.792908  1
  Ho  Ho1  1  0.933486  0.466744  0.792930  1
  Ho  Ho2  1  0.533169  0.466833  0.792984  1
  Ho  Ho3  1  0.466715  0.933372  0.292923  1
  Ho  Ho4  1  0.066626  0.533287  0.292915  1
  Er  Er5  1  0.466454  0.533544  0.293002  1
  Er  Er6  1  0.823164  0.646669  0.498921  1
  Er  Er7  1  0.353345  0.176853  0.498928  1
  Er  Er8  1  0.823404  0.176588  0.499111  1
  Er  Er9  1  0.176738  0.353225  0.999302  1
  Er  Er10  1  0.646763  0.823263  0.999315  1
  Er  Er11  1  0.176631  0.823386  0.999124  1
  Er  Er12  1  0.666555  0.333425  0.174955  1
  Er  Er13  1  0.333434  0.666552  0.674880  1
  Er  Er14  1  0.000029  0.999953  0.778766  1
  Er  Er15  1  0.000003  0.000026  0.278835  1
  In  In16  1  0.837268  0.674478  0.039894  1
  In  In17  1  0.325512  0.162716  0.039892  1
  In  In18  1  0.837242  0.162760  0.039814  1
  In  In19  1  0.162888  0.325636  0.539814  1
  In  In20  1  0.674351  0.837095  0.539817  1
  In  In21  1  0.162732  0.837306  0.539853  1
  Ir  Ir22  1  0.666677  0.333340  0.568445  1
  Ir  Ir23  1  0.333554  0.666438  0.068579  1
