# generated using pymatgen
data_Pr7Bi(SeO5)4
_symmetry_space_group_name_H-M   'P 1'
_cell_length_a   8.87256071
_cell_length_b   8.94554948
_cell_length_c   11.31568508
_cell_angle_alpha   91.33120559
_cell_angle_beta   88.79168729
_cell_angle_gamma   142.75019607
_symmetry_Int_Tables_number   1
_chemical_formula_structural   Pr7Bi(SeO5)4
_chemical_formula_sum   'Pr7 Bi1 Se4 O20'
_cell_volume   543.47558375
_cell_formula_units_Z   1
loop_
 _symmetry_equiv_pos_site_id
 _symmetry_equiv_pos_as_xyz
  1  'x, y, z'
loop_
 _atom_site_type_symbol
 _atom_site_label
 _atom_site_symmetry_multiplicity
 _atom_site_fract_x
 _atom_site_fract_y
 _atom_site_fract_z
 _atom_site_occupancy
  Pr  Pr0  1  0.750011  0.256164  0.610874  1
  Pr  Pr1  1  0.249581  0.756617  0.388932  1
  Pr  Pr2  1  0.251456  0.750609  0.884796  1
  Pr  Pr3  1  0.754230  0.245386  0.120189  1
  Pr  Pr4  1  0.885296  0.069133  0.379468  1
  Pr  Pr5  1  0.068841  0.923709  0.613180  1
  Pr  Pr6  1  0.378913  0.576860  0.615463  1
  Bi  Bi7  1  0.570327  0.416577  0.409571  1
  Se  Se8  1  0.397477  0.580367  0.122393  1
  Se  Se9  1  0.571139  0.385466  0.866365  1
  Se  Se10  1  0.887528  0.071950  0.868580  1
  Se  Se11  1  0.071139  0.879026  0.138285  1
  O  O12  1  0.153027  0.454187  0.212063  1
  O  O13  1  0.431055  0.125233  0.784798  1
  O  O14  1  0.647018  0.958118  0.784402  1
  O  O15  1  0.978157  0.641038  0.209018  1
  O  O16  1  0.570203  0.912114  0.511371  1
  O  O17  1  0.899539  0.585024  0.506527  1
  O  O18  1  0.069635  0.410956  0.484514  1
  O  O19  1  0.404786  0.090313  0.503874  1
  O  O20  1  0.132598  0.582498  0.712762  1
  O  O21  1  0.634754  0.074637  0.287923  1
  O  O22  1  0.489045  0.814981  0.045992  1
  O  O23  1  0.822154  0.494930  0.931970  1
  O  O24  1  0.174536  0.067770  0.254006  1
  O  O25  1  0.105447  0.202386  0.760571  1
  O  O26  1  0.707070  0.592383  0.755921  1
  O  O27  1  0.630231  0.737263  0.220478  1
  O  O28  1  0.242000  0.254312  0.502840  1
  O  O29  1  0.734669  0.749315  0.502400  1
  O  O30  1  0.341467  0.026112  0.065289  1
  O  O31  1  0.001713  0.319611  0.945186  1
