# generated using pymatgen
data_NdHoErP4Pd7
_symmetry_space_group_name_H-M   'P 1'
_cell_length_a   7.93348022
_cell_length_b   7.93348019
_cell_length_c   9.47932206
_cell_angle_alpha   55.96453165
_cell_angle_beta   55.96453317
_cell_angle_gamma   29.29596605
_symmetry_Int_Tables_number   1
_chemical_formula_structural   NdHoErP4Pd7
_chemical_formula_sum   'Nd1 Ho1 Er1 P4 Pd7'
_cell_volume   238.13125897
_cell_formula_units_Z   1
loop_
 _symmetry_equiv_pos_site_id
 _symmetry_equiv_pos_as_xyz
  1  'x, y, z'
loop_
 _atom_site_type_symbol
 _atom_site_label
 _atom_site_symmetry_multiplicity
 _atom_site_fract_x
 _atom_site_fract_y
 _atom_site_fract_z
 _atom_site_occupancy
  Nd  Nd0  1  0.499979  0.499979  0.500017  1
  Ho  Ho1  1  0.820770  0.820770  0.175557  1
  Er  Er2  1  0.179222  0.179222  0.824480  1
  P  P3  1  0.392986  0.392986  0.316745  1
  P  P4  1  0.607112  0.607112  0.683380  1
  P  P5  1  0.837295  0.837295  0.758414  1
  P  P6  1  0.162492  0.162492  0.241755  1
  Pd  Pd7  1  0.669888  0.669888  0.073851  1
  Pd  Pd8  1  0.009859  0.009859  0.211975  1
  Pd  Pd9  1  0.990240  0.990240  0.787913  1
  Pd  Pd10  1  0.500212  0.500212  0.999770  1
  Pd  Pd11  1  0.195183  0.195183  0.469352  1
  Pd  Pd12  1  0.804714  0.804714  0.530992  1
  Pd  Pd13  1  0.330049  0.330049  0.925799  1
