# generated using pymatgen
data_Rb3U2TlTe6
_symmetry_space_group_name_H-M   'P 1'
_cell_length_a   8.12808945
_cell_length_b   8.12808945
_cell_length_c   8.99345700
_cell_angle_alpha   81.38826253
_cell_angle_beta   81.38825540
_cell_angle_gamma   120.04893398
_symmetry_Int_Tables_number   1
_chemical_formula_structural   Rb3U2TlTe6
_chemical_formula_sum   'Rb3 U2 Tl1 Te6'
_cell_volume   490.66361032
_cell_formula_units_Z   1
loop_
 _symmetry_equiv_pos_site_id
 _symmetry_equiv_pos_as_xyz
  1  'x, y, z'
loop_
 _atom_site_type_symbol
 _atom_site_label
 _atom_site_symmetry_multiplicity
 _atom_site_fract_x
 _atom_site_fract_y
 _atom_site_fract_z
 _atom_site_occupancy
  Rb  Rb0  1  0.654521  0.345479  0.500000  1
  Rb  Rb1  1  0.345479  0.654521  0.500000  1
  Rb  Rb2  1  0.000000  0.000000  0.500000  1
  U  U3  1  0.832274  0.167726  0.000000  1
  U  U4  1  0.167726  0.832274  0.000000  1
  Tl  Tl5  1  0.500000  0.500000  0.000000  1
  Te  Te6  1  0.800978  0.800978  0.198148  1
  Te  Te7  1  0.199022  0.199022  0.801852  1
  Te  Te8  1  0.432647  0.063094  0.202293  1
  Te  Te9  1  0.567353  0.936906  0.797707  1
  Te  Te10  1  0.936906  0.567353  0.797707  1
  Te  Te11  1  0.063094  0.432647  0.202293  1
