# generated using pymatgen
data_Ta5Ti8VP8
_symmetry_space_group_name_H-M   'P 1'
_cell_length_a   7.56417898
_cell_length_b   7.56417939
_cell_length_c   13.69197052
_cell_angle_alpha   76.17916574
_cell_angle_beta   76.17916578
_cell_angle_gamma   25.85545869
_symmetry_Int_Tables_number   1
_chemical_formula_structural   Ta5Ti8VP8
_chemical_formula_sum   'Ta5 Ti8 V1 P8'
_cell_volume   331.22638739
_cell_formula_units_Z   1
loop_
 _symmetry_equiv_pos_site_id
 _symmetry_equiv_pos_as_xyz
  1  'x, y, z'
loop_
 _atom_site_type_symbol
 _atom_site_label
 _atom_site_symmetry_multiplicity
 _atom_site_fract_x
 _atom_site_fract_y
 _atom_site_fract_z
 _atom_site_occupancy
  Ta  Ta0  1  0.999370  0.999370  0.001772  1
  Ta  Ta1  1  0.499750  0.499750  0.497858  1
  Ta  Ta2  1  0.425521  0.425521  0.178868  1
  Ta  Ta3  1  0.571311  0.571311  0.828838  1
  Ta  Ta4  1  0.197451  0.197451  0.689164  1
  Ti  Ti5  1  0.208868  0.208868  0.207841  1
  Ti  Ti6  1  0.792610  0.792610  0.795088  1
  Ti  Ti7  1  0.339076  0.339076  0.970787  1
  Ti  Ti8  1  0.660625  0.660625  0.031773  1
  Ti  Ti9  1  0.003044  0.003044  0.335318  1
  Ti  Ti10  1  0.996671  0.996671  0.664496  1
  Ti  Ti11  1  0.178774  0.178774  0.455514  1
  Ti  Ti12  1  0.823991  0.823991  0.538121  1
  V  V13  1  0.801719  0.801719  0.309641  1
  P  P14  1  0.180378  0.180378  0.891905  1
  P  P15  1  0.820082  0.820082  0.111988  1
  P  P16  1  0.371313  0.371313  0.391298  1
  P  P17  1  0.625777  0.625777  0.599133  1
  P  P18  1  0.371680  0.371680  0.660313  1
  P  P19  1  0.632163  0.632163  0.338222  1
  P  P20  1  0.064618  0.064618  0.153951  1
  P  P21  1  0.935208  0.935208  0.848110  1
