# generated using pymatgen
data_La8PrNd11Si16
_symmetry_space_group_name_H-M   'P 1'
_cell_length_a   7.93759413
_cell_length_b   7.93740214
_cell_length_c   15.36833949
_cell_angle_alpha   89.97921800
_cell_angle_beta   89.97967664
_cell_angle_gamma   89.99428121
_symmetry_Int_Tables_number   1
_chemical_formula_structural   La8PrNd11Si16
_chemical_formula_sum   'La8 Pr1 Nd11 Si16'
_cell_volume   968.26483678
_cell_formula_units_Z   1
loop_
 _symmetry_equiv_pos_site_id
 _symmetry_equiv_pos_as_xyz
  1  'x, y, z'
loop_
 _atom_site_type_symbol
 _atom_site_label
 _atom_site_symmetry_multiplicity
 _atom_site_fract_x
 _atom_site_fract_y
 _atom_site_fract_z
 _atom_site_occupancy
  La  La0  1  0.986986  0.621854  0.052531  1
  La  La1  1  0.013004  0.378100  0.552560  1
  La  La2  1  0.621895  0.987018  0.947472  1
  La  La3  1  0.121913  0.512961  0.802519  1
  La  La4  1  0.878103  0.487047  0.302470  1
  La  La5  1  0.512980  0.121839  0.197438  1
  La  La6  1  0.487050  0.878123  0.697496  1
  La  La7  1  0.378131  0.012870  0.447537  1
  Pr  Pr8  1  0.373669  0.480790  0.373362  1
  Nd  Nd9  1  0.873464  0.019071  0.376579  1
  Nd  Nd10  1  0.980993  0.126481  0.123370  1
  Nd  Nd11  1  0.018925  0.873531  0.623457  1
  Nd  Nd12  1  0.626485  0.518964  0.873407  1
  Nd  Nd13  1  0.481044  0.373501  0.626676  1
  Nd  Nd14  1  0.519032  0.626515  0.126557  1
  Nd  Nd15  1  0.126510  0.981037  0.876594  1
  Nd  Nd16  1  0.691919  0.691847  0.500038  1
  Nd  Nd17  1  0.808260  0.191729  0.750002  1
  Nd  Nd18  1  0.191745  0.808323  0.249978  1
  Nd  Nd19  1  0.308218  0.308209  0.999980  1
  Si  Si20  1  0.079252  0.713786  0.439757  1
  Si  Si21  1  0.920405  0.286510  0.939601  1
  Si  Si22  1  0.713553  0.079544  0.560421  1
  Si  Si23  1  0.213177  0.420287  0.189355  1
  Si  Si24  1  0.786521  0.579588  0.689627  1
  Si  Si25  1  0.420396  0.213496  0.810371  1
  Si  Si26  1  0.579899  0.786993  0.310273  1
  Si  Si27  1  0.286510  0.920394  0.060382  1
  Si  Si28  1  0.830605  0.806000  0.796093  1
  Si  Si29  1  0.168980  0.193573  0.295869  1
  Si  Si30  1  0.806007  0.830635  0.203886  1
  Si  Si31  1  0.305886  0.669695  0.546337  1
  Si  Si32  1  0.693963  0.330601  0.046094  1
  Si  Si33  1  0.669904  0.305679  0.454110  1
  Si  Si34  1  0.330609  0.694001  0.953898  1
  Si  Si35  1  0.194006  0.169407  0.703906  1
