# generated using pymatgen
data_Tb2TmGa6(Co2Cu)3
_symmetry_space_group_name_H-M   'P 1'
_cell_length_a   4.08421000
_cell_length_b   8.79426225
_cell_length_c   8.79426314
_cell_angle_alpha   60.00413096
_cell_angle_beta   90.00000000
_cell_angle_gamma   90.00000000
_symmetry_Int_Tables_number   1
_chemical_formula_structural   Tb2TmGa6(Co2Cu)3
_chemical_formula_sum   'Tb2 Tm1 Ga6 Co6 Cu3'
_cell_volume   273.56191858
_cell_formula_units_Z   1
loop_
 _symmetry_equiv_pos_site_id
 _symmetry_equiv_pos_as_xyz
  1  'x, y, z'
loop_
 _atom_site_type_symbol
 _atom_site_label
 _atom_site_symmetry_multiplicity
 _atom_site_fract_x
 _atom_site_fract_y
 _atom_site_fract_z
 _atom_site_occupancy
  Tb  Tb0  1  0.500000  0.333320  0.333475  1
  Tb  Tb1  1  0.500000  0.666525  0.666680  1
  Tm  Tm2  1  0.000000  0.000269  0.999731  1
  Ga  Ga3  1  0.000000  0.489377  0.510623  1
  Ga  Ga4  1  0.000000  0.510495  0.999905  1
  Ga  Ga5  1  0.000000  0.000095  0.489505  1
  Ga  Ga6  1  0.500000  0.726028  0.273972  1
  Ga  Ga7  1  0.500000  0.273915  0.999938  1
  Ga  Ga8  1  0.500000  0.000062  0.726085  1
  Co  Co9  1  0.000000  0.190991  0.176451  1
  Co  Co10  1  0.000000  0.176313  0.632780  1
  Co  Co11  1  0.000000  0.632616  0.190985  1
  Co  Co12  1  0.000000  0.823549  0.809009  1
  Co  Co13  1  0.000000  0.367220  0.823687  1
  Co  Co14  1  0.000000  0.809015  0.367384  1
  Cu  Cu15  1  0.500000  0.292401  0.707599  1
  Cu  Cu16  1  0.500000  0.707633  0.999921  1
  Cu  Cu17  1  0.500000  0.000079  0.292367  1
