# generated using pymatgen
data_TbTmNi3Ir
_symmetry_space_group_name_H-M   'P 1'
_cell_length_a   5.21444989
_cell_length_b   5.21445097
_cell_length_c   5.21444968
_cell_angle_alpha   57.98741212
_cell_angle_beta   57.98740924
_cell_angle_gamma   57.98740484
_symmetry_Int_Tables_number   1
_chemical_formula_structural   TbTmNi3Ir
_chemical_formula_sum   'Tb1 Tm1 Ni3 Ir1'
_cell_volume   95.62725643
_cell_formula_units_Z   1
loop_
 _symmetry_equiv_pos_site_id
 _symmetry_equiv_pos_as_xyz
  1  'x, y, z'
loop_
 _atom_site_type_symbol
 _atom_site_label
 _atom_site_symmetry_multiplicity
 _atom_site_fract_x
 _atom_site_fract_y
 _atom_site_fract_z
 _atom_site_occupancy
  Tb  Tb0  1  0.748170  0.748170  0.748170  1
  Tm  Tm1  1  0.501789  0.501789  0.501789  1
  Ni  Ni2  1  0.125185  0.624225  0.125185  1
  Ni  Ni3  1  0.125185  0.125185  0.624225  1
  Ni  Ni4  1  0.624225  0.125185  0.125185  1
  Ir  Ir5  1  0.125446  0.125446  0.125446  1
