# generated using pymatgen
data_Mg2SiPd3Pt2
_symmetry_space_group_name_H-M   'P 1'
_cell_length_a   4.04074200
_cell_length_b   5.56237900
_cell_length_c   10.73787600
_cell_angle_alpha   90.00000000
_cell_angle_beta   90.00000000
_cell_angle_gamma   90.00000000
_symmetry_Int_Tables_number   1
_chemical_formula_structural   Mg2SiPd3Pt2
_chemical_formula_sum   'Mg4 Si2 Pd6 Pt4'
_cell_volume   241.34598758
_cell_formula_units_Z   2
loop_
 _symmetry_equiv_pos_site_id
 _symmetry_equiv_pos_as_xyz
  1  'x, y, z'
loop_
 _atom_site_type_symbol
 _atom_site_label
 _atom_site_symmetry_multiplicity
 _atom_site_fract_x
 _atom_site_fract_y
 _atom_site_fract_z
 _atom_site_occupancy
  Mg  Mg0  1  0.500000  0.158116  0.143928  1
  Mg  Mg1  1  0.500000  0.841884  0.856072  1
  Mg  Mg2  1  0.500000  0.341884  0.643928  1
  Mg  Mg3  1  0.500000  0.658116  0.356072  1
  Si  Si4  1  0.000000  0.000000  0.500000  1
  Si  Si5  1  0.000000  0.500000  0.000000  1
  Pd  Pd6  1  0.000000  0.415794  0.234038  1
  Pd  Pd7  1  0.000000  0.584206  0.765962  1
  Pd  Pd8  1  0.000000  0.084206  0.734038  1
  Pd  Pd9  1  0.000000  0.915794  0.265962  1
  Pd  Pd10  1  0.000000  0.000000  0.000000  1
  Pd  Pd11  1  0.000000  0.500000  0.500000  1
  Pt  Pt12  1  0.500000  0.175883  0.399231  1
  Pt  Pt13  1  0.500000  0.824117  0.600769  1
  Pt  Pt14  1  0.500000  0.324117  0.899231  1
  Pt  Pt15  1  0.500000  0.675883  0.100769  1
