# generated using pymatgen
data_Dy(Ga3Ni)3
_symmetry_space_group_name_H-M   'P 1'
_cell_length_a   10.09816173
_cell_length_b   10.09582771
_cell_length_c   10.09646801
_cell_angle_alpha   42.38446039
_cell_angle_beta   42.36921500
_cell_angle_gamma   42.37956231
_symmetry_Int_Tables_number   1
_chemical_formula_structural   Dy(Ga3Ni)3
_chemical_formula_sum   'Dy2 Ga18 Ni6'
_cell_volume   423.31690766
_cell_formula_units_Z   2
loop_
 _symmetry_equiv_pos_site_id
 _symmetry_equiv_pos_as_xyz
  1  'x, y, z'
loop_
 _atom_site_type_symbol
 _atom_site_label
 _atom_site_symmetry_multiplicity
 _atom_site_fract_x
 _atom_site_fract_y
 _atom_site_fract_z
 _atom_site_occupancy
  Dy  Dy0  1  0.166907  0.167038  0.166942  1
  Dy  Dy1  1  0.833008  0.833017  0.833104  1
  Ga  Ga2  1  0.050978  0.051195  0.050994  1
  Ga  Ga3  1  0.709096  0.499818  0.291089  1
  Ga  Ga4  1  0.665878  0.333983  0.000126  1
  Ga  Ga5  1  0.103750  0.433547  0.763347  1
  Ga  Ga6  1  0.433580  0.763179  0.103985  1
  Ga  Ga7  1  0.385732  0.385887  0.386022  1
  Ga  Ga8  1  0.333832  0.999795  0.666340  1
  Ga  Ga9  1  0.614255  0.613997  0.614012  1
  Ga  Ga10  1  0.236720  0.566432  0.896228  1
  Ga  Ga11  1  0.566396  0.895994  0.236868  1
  Ga  Ga12  1  0.500105  0.290903  0.708979  1
  Ga  Ga13  1  0.763186  0.103729  0.433796  1
  Ga  Ga14  1  0.948971  0.949104  0.948892  1
  Ga  Ga15  1  0.291007  0.709034  0.499974  1
  Ga  Ga16  1  0.999948  0.666074  0.333981  1
  Ga  Ga17  1  0.716934  0.717157  0.717032  1
  Ga  Ga18  1  0.283086  0.282892  0.282934  1
  Ga  Ga19  1  0.896127  0.236697  0.566442  1
  Ni  Ni20  1  0.242119  0.921867  0.581914  1
  Ni  Ni21  1  0.921859  0.582216  0.241825  1
  Ni  Ni22  1  0.757991  0.418027  0.078102  1
  Ni  Ni23  1  0.078219  0.758232  0.417675  1
  Ni  Ni24  1  0.417773  0.078320  0.757973  1
  Ni  Ni25  1  0.582543  0.241866  0.921424  1
