# generated using pymatgen
data_PuSO4F
_symmetry_space_group_name_H-M   'P 1'
_cell_length_a   6.59440200
_cell_length_b   7.18357000
_cell_length_c   8.78757700
_cell_angle_alpha   90.00000000
_cell_angle_beta   90.00000000
_cell_angle_gamma   90.00000000
_symmetry_Int_Tables_number   1
_chemical_formula_structural   PuSO4F
_chemical_formula_sum   'Pu4 S4 O16 F4'
_cell_volume   416.27937144
_cell_formula_units_Z   4
loop_
 _symmetry_equiv_pos_site_id
 _symmetry_equiv_pos_as_xyz
  1  'x, y, z'
loop_
 _atom_site_type_symbol
 _atom_site_label
 _atom_site_symmetry_multiplicity
 _atom_site_fract_x
 _atom_site_fract_y
 _atom_site_fract_z
 _atom_site_occupancy
  Pu  Pu0  1  0.661612  0.750000  0.441298  1
  Pu  Pu1  1  0.161612  0.250000  0.058702  1
  Pu  Pu2  1  0.338388  0.250000  0.558702  1
  Pu  Pu3  1  0.838388  0.750000  0.941298  1
  S  S4  1  0.190821  0.750000  0.593723  1
  S  S5  1  0.690821  0.250000  0.906277  1
  S  S6  1  0.809179  0.250000  0.406277  1
  S  S7  1  0.309179  0.750000  0.093723  1
  O  O8  1  0.018137  0.750000  0.486619  1
  O  O9  1  0.518137  0.250000  0.013381  1
  O  O10  1  0.981863  0.250000  0.513381  1
  O  O11  1  0.481863  0.750000  0.986619  1
  O  O12  1  0.375515  0.750000  0.252473  1
  O  O13  1  0.875515  0.250000  0.247527  1
  O  O14  1  0.624485  0.250000  0.747527  1
  O  O15  1  0.124485  0.750000  0.752473  1
  O  O16  1  0.326251  0.914592  0.560999  1
  O  O17  1  0.826251  0.085408  0.939001  1
  O  O18  1  0.673749  0.414592  0.439001  1
  O  O19  1  0.173749  0.585408  0.060999  1
  O  O20  1  0.826251  0.414592  0.939001  1
  O  O21  1  0.326251  0.585408  0.560999  1
  O  O22  1  0.173749  0.914592  0.060999  1
  O  O23  1  0.673749  0.085408  0.439001  1
  F  F24  1  0.699597  0.750000  0.703981  1
  F  F25  1  0.199597  0.250000  0.796019  1
  F  F26  1  0.300403  0.250000  0.296019  1
  F  F27  1  0.800403  0.750000  0.203981  1
