# generated using pymatgen
data_Ho8Ti9Nb2Si16Ru
_symmetry_space_group_name_H-M   'P 1'
_cell_length_a   7.02169849
_cell_length_b   7.01802361
_cell_length_c   12.88581496
_cell_angle_alpha   90.14374008
_cell_angle_beta   89.90979866
_cell_angle_gamma   89.85481940
_symmetry_Int_Tables_number   1
_chemical_formula_structural   Ho8Ti9Nb2Si16Ru
_chemical_formula_sum   'Ho8 Ti9 Nb2 Si16 Ru1'
_cell_volume   634.98810433
_cell_formula_units_Z   1
loop_
 _symmetry_equiv_pos_site_id
 _symmetry_equiv_pos_as_xyz
  1  'x, y, z'
loop_
 _atom_site_type_symbol
 _atom_site_label
 _atom_site_symmetry_multiplicity
 _atom_site_fract_x
 _atom_site_fract_y
 _atom_site_fract_z
 _atom_site_occupancy
  Ho  Ho0  1  0.341591  0.002275  0.467713  1
  Ho  Ho1  1  0.497136  0.841313  0.717567  1
  Ho  Ho2  1  0.500310  0.159270  0.215449  1
  Ho  Ho3  1  0.841498  0.498058  0.282255  1
  Ho  Ho4  1  0.159622  0.500727  0.784871  1
  Ho  Ho5  1  0.658554  0.999382  0.968580  1
  Ho  Ho6  1  0.002857  0.340789  0.532527  1
  Ho  Ho7  1  0.999383  0.658453  0.031258  1
  Ti  Ti8  1  0.827510  0.174061  0.751987  1
  Ti  Ti9  1  0.150234  0.003558  0.875101  1
  Ti  Ti10  1  0.490872  0.657003  0.125188  1
  Ti  Ti11  1  0.507691  0.348870  0.627067  1
  Ti  Ti12  1  0.656175  0.492207  0.875638  1
  Ti  Ti13  1  0.348904  0.508693  0.372136  1
  Ti  Ti14  1  0.848521  0.992542  0.374522  1
  Ti  Ti15  1  0.002816  0.148582  0.125597  1
  Ti  Ti16  1  0.993197  0.847019  0.624709  1
  Nb  Nb17  1  0.174182  0.827932  0.248005  1
  Nb  Nb18  1  0.673660  0.673338  0.500208  1
  Si  Si19  1  0.202494  0.131696  0.684888  1
  Si  Si20  1  0.372751  0.700879  0.933316  1
  Si  Si21  1  0.630909  0.295383  0.434384  1
  Si  Si22  1  0.699920  0.372789  0.066115  1
  Si  Si23  1  0.295635  0.630102  0.565933  1
  Si  Si24  1  0.795085  0.868195  0.183164  1
  Si  Si25  1  0.132141  0.203929  0.315756  1
  Si  Si26  1  0.868321  0.796323  0.816551  1
  Si  Si27  1  0.288440  0.956109  0.061995  1
  Si  Si28  1  0.547547  0.793533  0.314473  1
  Si  Si29  1  0.450140  0.209358  0.818210  1
  Si  Si30  1  0.793355  0.546059  0.686026  1
  Si  Si31  1  0.208985  0.448727  0.181773  1
  Si  Si32  1  0.708715  0.048463  0.565691  1
  Si  Si33  1  0.953978  0.287486  0.936131  1
  Si  Si34  1  0.048194  0.707486  0.435549  1
  Ru  Ru35  1  0.328678  0.329412  0.999669  1
