# generated using pymatgen
data_Li6Er2PaN6
_symmetry_space_group_name_H-M   'P 1'
_cell_length_a   6.01870300
_cell_length_b   6.01870351
_cell_length_c   5.47289600
_cell_angle_alpha   90.00000000
_cell_angle_beta   90.00000000
_cell_angle_gamma   120.00000267
_symmetry_Int_Tables_number   1
_chemical_formula_structural   Li6Er2PaN6
_chemical_formula_sum   'Li6 Er2 Pa1 N6'
_cell_volume   171.69343072
_cell_formula_units_Z   1
loop_
 _symmetry_equiv_pos_site_id
 _symmetry_equiv_pos_as_xyz
  1  'x, y, z'
loop_
 _atom_site_type_symbol
 _atom_site_label
 _atom_site_symmetry_multiplicity
 _atom_site_fract_x
 _atom_site_fract_y
 _atom_site_fract_z
 _atom_site_occupancy
  Li  Li0  1  0.991054  0.661599  0.607105  1
  Li  Li1  1  0.338401  0.329455  0.607105  1
  Li  Li2  1  0.670545  0.008946  0.607105  1
  Li  Li3  1  0.008946  0.338401  0.392895  1
  Li  Li4  1  0.661599  0.670545  0.392895  1
  Li  Li5  1  0.329455  0.991054  0.392895  1
  Er  Er6  1  0.333333  0.666667  0.994746  1
  Er  Er7  1  0.666667  0.333333  0.005254  1
  Pa  Pa8  1  0.000000  0.000000  0.000000  1
  N  N9  1  0.999774  0.677863  0.228266  1
  N  N10  1  0.322137  0.321911  0.228266  1
  N  N11  1  0.678089  0.000226  0.228266  1
  N  N12  1  0.000226  0.322137  0.771734  1
  N  N13  1  0.677863  0.678089  0.771734  1
  N  N14  1  0.321911  0.999774  0.771734  1
