# generated using pymatgen
data_Tb2Th2(PdPt3)3
_symmetry_space_group_name_H-M   'P 1'
_cell_length_a   5.92450429
_cell_length_b   5.92450315
_cell_length_c   9.70056600
_cell_angle_alpha   90.00000000
_cell_angle_beta   90.00000000
_cell_angle_gamma   120.28473129
_symmetry_Int_Tables_number   1
_chemical_formula_structural   Tb2Th2(PdPt3)3
_chemical_formula_sum   'Tb2 Th2 Pd3 Pt9'
_cell_volume   294.02106275
_cell_formula_units_Z   1
loop_
 _symmetry_equiv_pos_site_id
 _symmetry_equiv_pos_as_xyz
  1  'x, y, z'
loop_
 _atom_site_type_symbol
 _atom_site_label
 _atom_site_symmetry_multiplicity
 _atom_site_fract_x
 _atom_site_fract_y
 _atom_site_fract_z
 _atom_site_occupancy
  Tb  Tb0  1  0.333005  0.666995  0.250000  1
  Tb  Tb1  1  0.667313  0.332687  0.750000  1
  Th  Th2  1  0.000079  0.999921  0.500344  1
  Th  Th3  1  0.000079  0.999921  0.999656  1
  Pd  Pd4  1  0.499986  0.500014  0.500522  1
  Pd  Pd5  1  0.499986  0.500014  0.999478  1
  Pd  Pd6  1  0.174933  0.825067  0.750000  1
  Pt  Pt7  1  0.500193  0.999787  0.500187  1
  Pt  Pt8  1  0.000213  0.499807  0.500187  1
  Pt  Pt9  1  0.500193  0.999787  0.999813  1
  Pt  Pt10  1  0.000213  0.499807  0.999813  1
  Pt  Pt11  1  0.825148  0.650491  0.250000  1
  Pt  Pt12  1  0.349509  0.174852  0.250000  1
  Pt  Pt13  1  0.824885  0.175115  0.250000  1
  Pt  Pt14  1  0.175071  0.350807  0.750000  1
  Pt  Pt15  1  0.649193  0.824929  0.750000  1
