# generated using pymatgen
data_Er5Si9P3Ir19
_symmetry_space_group_name_H-M   'P 1'
_cell_length_a   12.80738800
_cell_length_b   12.80738768
_cell_length_c   3.93550000
_cell_angle_alpha   90.00000000
_cell_angle_beta   90.00000000
_cell_angle_gamma   120.00000081
_symmetry_Int_Tables_number   1
_chemical_formula_structural   Er5Si9P3Ir19
_chemical_formula_sum   'Er5 Si9 P3 Ir19'
_cell_volume   559.05130750
_cell_formula_units_Z   1
loop_
 _symmetry_equiv_pos_site_id
 _symmetry_equiv_pos_as_xyz
  1  'x, y, z'
loop_
 _atom_site_type_symbol
 _atom_site_label
 _atom_site_symmetry_multiplicity
 _atom_site_fract_x
 _atom_site_fract_y
 _atom_site_fract_z
 _atom_site_occupancy
  Er  Er0  1  0.666667  0.333333  0.000000  1
  Er  Er1  1  0.333333  0.666667  0.000000  1
  Er  Er2  1  0.814432  0.814432  0.500000  1
  Er  Er3  1  0.185568  0.000000  0.500000  1
  Er  Er4  1  0.000000  0.185568  0.500000  1
  Si  Si5  1  0.686191  0.167549  0.500000  1
  Si  Si6  1  0.832451  0.518642  0.500000  1
  Si  Si7  1  0.481358  0.313809  0.500000  1
  Si  Si8  1  0.167549  0.686191  0.500000  1
  Si  Si9  1  0.518642  0.832451  0.500000  1
  Si  Si10  1  0.313809  0.481358  0.500000  1
  Si  Si11  1  0.633378  0.633378  0.000000  1
  Si  Si12  1  0.366622  0.000000  0.000000  1
  Si  Si13  1  0.000000  0.366622  0.000000  1
  P  P14  1  0.178185  0.178185  0.000000  1
  P  P15  1  0.821815  0.000000  0.000000  1
  P  P16  1  0.000000  0.821815  0.000000  1
  Ir  Ir17  1  0.807219  0.179729  0.000000  1
  Ir  Ir18  1  0.820271  0.627490  0.000000  1
  Ir  Ir19  1  0.372510  0.192781  0.000000  1
  Ir  Ir20  1  0.179729  0.807219  0.000000  1
  Ir  Ir21  1  0.627490  0.820271  0.000000  1
  Ir  Ir22  1  0.192781  0.372510  0.000000  1
  Ir  Ir23  1  0.447220  0.447220  0.000000  1
  Ir  Ir24  1  0.552780  0.000000  0.000000  1
  Ir  Ir25  1  0.000000  0.552780  0.000000  1
  Ir  Ir26  1  0.277808  0.277808  0.500000  1
  Ir  Ir27  1  0.722192  0.000000  0.500000  1
  Ir  Ir28  1  0.000000  0.722192  0.500000  1
  Ir  Ir29  1  0.872025  0.359490  0.500000  1
  Ir  Ir30  1  0.640510  0.512536  0.500000  1
  Ir  Ir31  1  0.487464  0.127975  0.500000  1
  Ir  Ir32  1  0.359490  0.872025  0.500000  1
  Ir  Ir33  1  0.512536  0.640510  0.500000  1
  Ir  Ir34  1  0.127975  0.487464  0.500000  1
  Ir  Ir35  1  0.000000  0.000000  0.000000  1
