# generated using pymatgen
data_PrEr(BIr)8
_symmetry_space_group_name_H-M   'P 1'
_cell_length_a   3.99099200
_cell_length_b   7.67311700
_cell_length_c   7.67311700
_cell_angle_alpha   90.00000000
_cell_angle_beta   90.00000000
_cell_angle_gamma   90.00000000
_symmetry_Int_Tables_number   1
_chemical_formula_structural   PrEr(BIr)8
_chemical_formula_sum   'Pr1 Er1 B8 Ir8'
_cell_volume   234.97653645
_cell_formula_units_Z   1
loop_
 _symmetry_equiv_pos_site_id
 _symmetry_equiv_pos_as_xyz
  1  'x, y, z'
loop_
 _atom_site_type_symbol
 _atom_site_label
 _atom_site_symmetry_multiplicity
 _atom_site_fract_x
 _atom_site_fract_y
 _atom_site_fract_z
 _atom_site_occupancy
  Pr  Pr0  1  0.750000  0.750000  0.750000  1
  Er  Er1  1  0.250000  0.250000  0.250000  1
  B  B2  1  0.358132  0.908394  0.030946  1
  B  B3  1  0.358132  0.591606  0.469054  1
  B  B4  1  0.862270  0.526209  0.092367  1
  B  B5  1  0.862270  0.973791  0.407633  1
  B  B6  1  0.637730  0.092367  0.973791  1
  B  B7  1  0.637730  0.407633  0.526209  1
  B  B8  1  0.141868  0.469054  0.908394  1
  B  B9  1  0.141868  0.030946  0.591606  1
  Ir  Ir10  1  0.138911  0.406836  0.639386  1
  Ir  Ir11  1  0.138911  0.093164  0.860614  1
  Ir  Ir12  1  0.638369  0.141787  0.587262  1
  Ir  Ir13  1  0.638369  0.358213  0.912738  1
  Ir  Ir14  1  0.861631  0.587262  0.358213  1
  Ir  Ir15  1  0.861631  0.912738  0.141787  1
  Ir  Ir16  1  0.361089  0.860614  0.406836  1
  Ir  Ir17  1  0.361089  0.639386  0.093164  1
