# generated using pymatgen
data_DyTh3(Si3Ni)2
_symmetry_space_group_name_H-M   'P 1'
_cell_length_a   8.03627400
_cell_length_b   8.01582890
_cell_length_c   8.43886400
_cell_angle_alpha   90.00000000
_cell_angle_beta   90.00000000
_cell_angle_gamma   120.08440054
_symmetry_Int_Tables_number   1
_chemical_formula_structural   DyTh3(Si3Ni)2
_chemical_formula_sum   'Dy2 Th6 Si12 Ni4'
_cell_volume   470.37887397
_cell_formula_units_Z   2
loop_
 _symmetry_equiv_pos_site_id
 _symmetry_equiv_pos_as_xyz
  1  'x, y, z'
loop_
 _atom_site_type_symbol
 _atom_site_label
 _atom_site_symmetry_multiplicity
 _atom_site_fract_x
 _atom_site_fract_y
 _atom_site_fract_z
 _atom_site_occupancy
  Dy  Dy0  1  0.500062  0.499899  0.750000  1
  Dy  Dy1  1  0.999837  0.499899  0.750000  1
  Th  Th2  1  0.999993  0.999987  0.250000  1
  Th  Th3  1  0.000004  0.000010  0.750000  1
  Th  Th4  1  0.000077  0.500048  0.250000  1
  Th  Th5  1  0.499971  0.500048  0.250000  1
  Th  Th6  1  0.500078  0.000157  0.750000  1
  Th  Th7  1  0.499952  0.999905  0.250000  1
  Si  Si8  1  0.172657  0.345311  0.994241  1
  Si  Si9  1  0.658749  0.827903  0.997522  1
  Si  Si10  1  0.172657  0.345311  0.505759  1
  Si  Si11  1  0.341239  0.172089  0.997635  1
  Si  Si12  1  0.169156  0.827903  0.997522  1
  Si  Si13  1  0.658749  0.827903  0.502478  1
  Si  Si14  1  0.827357  0.654714  0.994333  1
  Si  Si15  1  0.341239  0.172089  0.502365  1
  Si  Si16  1  0.169156  0.827903  0.502478  1
  Si  Si17  1  0.827357  0.654714  0.505667  1
  Si  Si18  1  0.830849  0.172089  0.997635  1
  Si  Si19  1  0.830849  0.172089  0.502365  1
  Ni  Ni20  1  0.334458  0.668917  0.996261  1
  Ni  Ni21  1  0.334458  0.668917  0.503739  1
  Ni  Ni22  1  0.665549  0.331096  0.997155  1
  Ni  Ni23  1  0.665549  0.331096  0.502845  1
