# generated using pymatgen
data_YHo4Sc3(Co4P3)4
_symmetry_space_group_name_H-M   'P 1'
_cell_length_a   12.25192800
_cell_length_b   12.25192773
_cell_length_c   3.72147000
_cell_angle_alpha   90.00000000
_cell_angle_beta   90.00000000
_cell_angle_gamma   120.00000614
_symmetry_Int_Tables_number   1
_chemical_formula_structural   YHo4Sc3(Co4P3)4
_chemical_formula_sum   'Y1 Ho4 Sc3 Co16 P12'
_cell_volume   483.78677195
_cell_formula_units_Z   1
loop_
 _symmetry_equiv_pos_site_id
 _symmetry_equiv_pos_as_xyz
  1  'x, y, z'
loop_
 _atom_site_type_symbol
 _atom_site_label
 _atom_site_symmetry_multiplicity
 _atom_site_fract_x
 _atom_site_fract_y
 _atom_site_fract_z
 _atom_site_occupancy
  Y  Y0  1  0.666667  0.333333  0.000000  1
  Ho  Ho1  1  0.333333  0.666667  0.000000  1
  Ho  Ho2  1  0.815720  0.815734  0.500000  1
  Ho  Ho3  1  0.184266  0.999986  0.500000  1
  Ho  Ho4  1  0.000014  0.184280  0.500000  1
  Sc  Sc5  1  0.439868  0.439964  0.000000  1
  Sc  Sc6  1  0.560036  0.999904  0.000000  1
  Sc  Sc7  1  0.000096  0.560132  0.000000  1
  Co  Co8  1  0.875838  0.355215  0.500000  1
  Co  Co9  1  0.644785  0.520622  0.500000  1
  Co  Co10  1  0.479378  0.124162  0.500000  1
  Co  Co11  1  0.355206  0.875471  0.500000  1
  Co  Co12  1  0.520265  0.644794  0.500000  1
  Co  Co13  1  0.124529  0.479735  0.500000  1
  Co  Co14  1  0.805052  0.178938  0.000000  1
  Co  Co15  1  0.821062  0.626114  0.000000  1
  Co  Co16  1  0.373886  0.194948  0.000000  1
  Co  Co17  1  0.179062  0.804950  0.000000  1
  Co  Co18  1  0.625888  0.820938  0.000000  1
  Co  Co19  1  0.195050  0.374112  0.000000  1
  Co  Co20  1  0.278262  0.278327  0.500000  1
  Co  Co21  1  0.721673  0.999935  0.500000  1
  Co  Co22  1  0.000065  0.721738  0.500000  1
  Co  Co23  1  0.000000  0.000000  0.000000  1
  P  P24  1  0.692437  0.170704  0.500000  1
  P  P25  1  0.829296  0.521733  0.500000  1
  P  P26  1  0.478267  0.307563  0.500000  1
  P  P27  1  0.171128  0.692322  0.500000  1
  P  P28  1  0.521194  0.828872  0.500000  1
  P  P29  1  0.307678  0.478806  0.500000  1
  P  P30  1  0.179247  0.179264  0.000000  1
  P  P31  1  0.820736  0.999982  0.000000  1
  P  P32  1  0.000018  0.820753  0.000000  1
  P  P33  1  0.645359  0.645341  0.000000  1
  P  P34  1  0.354659  0.000018  0.000000  1
  P  P35  1  0.999982  0.354641  0.000000  1
