# generated using pymatgen
data_Tb3Y(LuPt)4
_symmetry_space_group_name_H-M   'P 1'
_cell_length_a   4.75814400
_cell_length_b   7.12857361
_cell_length_c   8.65003451
_cell_angle_alpha   90.00400257
_cell_angle_beta   90.00000000
_cell_angle_gamma   90.00000000
_symmetry_Int_Tables_number   1
_chemical_formula_structural   Tb3Y(LuPt)4
_chemical_formula_sum   'Tb3 Y1 Lu4 Pt4'
_cell_volume   293.39861440
_cell_formula_units_Z   1
loop_
 _symmetry_equiv_pos_site_id
 _symmetry_equiv_pos_as_xyz
  1  'x, y, z'
loop_
 _atom_site_type_symbol
 _atom_site_label
 _atom_site_symmetry_multiplicity
 _atom_site_fract_x
 _atom_site_fract_y
 _atom_site_fract_z
 _atom_site_occupancy
  Tb  Tb0  1  0.250000  0.986576  0.328668  1
  Tb  Tb1  1  0.250000  0.486536  0.170696  1
  Tb  Tb2  1  0.750000  0.013376  0.671142  1
  Y  Y3  1  0.750000  0.513248  0.828481  1
  Lu  Lu4  1  0.250000  0.357140  0.577057  1
  Lu  Lu5  1  0.250000  0.856396  0.923346  1
  Lu  Lu6  1  0.750000  0.643357  0.423618  1
  Lu  Lu7  1  0.750000  0.142899  0.076633  1
  Pt  Pt8  1  0.250000  0.251835  0.905308  1
  Pt  Pt9  1  0.250000  0.752245  0.594595  1
  Pt  Pt10  1  0.750000  0.748160  0.094977  1
  Pt  Pt11  1  0.750000  0.248233  0.405479  1
