# generated using pymatgen
data_Sc10Ga2Bi3Pb
_symmetry_space_group_name_H-M   'P 1'
_cell_length_a   8.44247935
_cell_length_b   8.45950296
_cell_length_c   6.09561600
_cell_angle_alpha   90.00000000
_cell_angle_beta   90.00000000
_cell_angle_gamma   120.11249487
_symmetry_Int_Tables_number   1
_chemical_formula_structural   Sc10Ga2Bi3Pb
_chemical_formula_sum   'Sc10 Ga2 Bi3 Pb1'
_cell_volume   376.59076379
_cell_formula_units_Z   1
loop_
 _symmetry_equiv_pos_site_id
 _symmetry_equiv_pos_as_xyz
  1  'x, y, z'
loop_
 _atom_site_type_symbol
 _atom_site_label
 _atom_site_symmetry_multiplicity
 _atom_site_fract_x
 _atom_site_fract_y
 _atom_site_fract_z
 _atom_site_occupancy
  Sc  Sc0  1  0.334354  0.668875  0.000858  1
  Sc  Sc1  1  0.646055  0.323888  0.499143  1
  Sc  Sc2  1  0.646055  0.323888  0.000857  1
  Sc  Sc3  1  0.334354  0.668875  0.499142  1
  Sc  Sc4  1  0.240509  0.013846  0.250000  1
  Sc  Sc5  1  0.242272  0.224615  0.750000  1
  Sc  Sc6  1  0.018040  0.777899  0.750000  1
  Sc  Sc7  1  0.019597  0.242897  0.250000  1
  Sc  Sc8  1  0.757455  0.754012  0.250000  1
  Sc  Sc9  1  0.754548  0.999430  0.750000  1
  Ga  Ga10  1  0.394696  0.398338  0.250000  1
  Ga  Ga11  1  0.396530  0.997558  0.750000  1
  Bi  Bi12  1  0.612664  0.002191  0.250000  1
  Bi  Bi13  1  0.609096  0.608724  0.750000  1
  Bi  Bi14  1  0.997344  0.389469  0.750000  1
  Pb  Pb15  1  0.996430  0.605496  0.250000  1
