# generated using pymatgen
data_Sc5Nb3Co16GeP11
_symmetry_space_group_name_H-M   'P 1'
_cell_length_a   12.06321774
_cell_length_b   12.08186064
_cell_length_c   3.62560400
_cell_angle_alpha   90.00000000
_cell_angle_beta   90.00000000
_cell_angle_gamma   120.07853245
_symmetry_Int_Tables_number   1
_chemical_formula_structural   Sc5Nb3Co16GeP11
_chemical_formula_sum   'Sc5 Nb3 Co16 Ge1 P11'
_cell_volume   457.26058403
_cell_formula_units_Z   1
loop_
 _symmetry_equiv_pos_site_id
 _symmetry_equiv_pos_as_xyz
  1  'x, y, z'
loop_
 _atom_site_type_symbol
 _atom_site_label
 _atom_site_symmetry_multiplicity
 _atom_site_fract_x
 _atom_site_fract_y
 _atom_site_fract_z
 _atom_site_occupancy
  Sc  Sc0  1  0.817764  0.000135  0.500000  1
  Sc  Sc1  1  0.000824  0.817412  0.500000  1
  Sc  Sc2  1  0.180835  0.181089  0.500000  1
  Sc  Sc3  1  0.325471  0.665550  0.000000  1
  Sc  Sc4  1  0.667465  0.334035  0.000000  1
  Nb  Nb5  1  0.445681  0.002063  0.000000  1
  Nb  Nb6  1  0.000203  0.446024  0.000000  1
  Nb  Nb7  1  0.556824  0.551335  0.000000  1
  Co  Co8  1  0.277125  0.000177  0.500000  1
  Co  Co9  1  0.998345  0.276681  0.500000  1
  Co  Co10  1  0.728275  0.722908  0.500000  1
  Co  Co11  1  0.635215  0.811520  0.000000  1
  Co  Co12  1  0.195789  0.823714  0.000000  1
  Co  Co13  1  0.173324  0.369157  0.000000  1
  Co  Co14  1  0.371364  0.176923  0.000000  1
  Co  Co15  1  0.807149  0.627673  0.000000  1
  Co  Co16  1  0.822715  0.196022  0.000000  1
  Co  Co17  1  0.522131  0.881971  0.500000  1
  Co  Co18  1  0.128730  0.647445  0.500000  1
  Co  Co19  1  0.345436  0.466212  0.500000  1
  Co  Co20  1  0.483134  0.352441  0.500000  1
  Co  Co21  1  0.873107  0.519070  0.500000  1
  Co  Co22  1  0.646814  0.131283  0.500000  1
  Co  Co23  1  0.000704  0.000516  0.000000  1
  Ge  Ge24  1  0.511169  0.685092  0.500000  1
  P  P25  1  0.175537  0.999829  0.000000  1
  P  P26  1  0.998061  0.174505  0.000000  1
  P  P27  1  0.825598  0.824302  0.000000  1
  P  P28  1  0.313342  0.830989  0.500000  1
  P  P29  1  0.169806  0.481048  0.500000  1
  P  P30  1  0.482905  0.171432  0.500000  1
  P  P31  1  0.689514  0.517700  0.500000  1
  P  P32  1  0.829520  0.313192  0.500000  1
  P  P33  1  0.649822  0.001637  0.000000  1
  P  P34  1  0.001015  0.649344  0.000000  1
  P  P35  1  0.349286  0.349576  0.000000  1
