# generated using pymatgen
data_MgGa3SiBO9
_symmetry_space_group_name_H-M   'P 1'
_cell_length_a   11.29708200
_cell_length_b   6.00460400
_cell_length_c   10.68868500
_cell_angle_alpha   90.00000000
_cell_angle_beta   90.00000000
_cell_angle_gamma   90.00000000
_symmetry_Int_Tables_number   1
_chemical_formula_structural   MgGa3SiBO9
_chemical_formula_sum   'Mg4 Ga12 Si4 B4 O36'
_cell_volume   725.06164288
_cell_formula_units_Z   4
loop_
 _symmetry_equiv_pos_site_id
 _symmetry_equiv_pos_as_xyz
  1  'x, y, z'
loop_
 _atom_site_type_symbol
 _atom_site_label
 _atom_site_symmetry_multiplicity
 _atom_site_fract_x
 _atom_site_fract_y
 _atom_site_fract_z
 _atom_site_occupancy
  Mg  Mg0  1  0.281589  0.750001  0.090220  1
  Mg  Mg1  1  0.781589  0.750001  0.409780  1
  Mg  Mg2  1  0.218411  0.250000  0.590220  1
  Mg  Mg3  1  0.718411  0.250000  0.909780  1
  Ga  Ga4  1  0.000000  0.000000  0.000000  1
  Ga  Ga5  1  0.500000  0.000000  0.000000  1
  Ga  Ga6  1  0.000000  0.500000  0.000000  1
  Ga  Ga7  1  0.500000  0.500000  0.000000  1
  Ga  Ga8  1  0.053776  0.750001  0.230180  1
  Ga  Ga9  1  0.553776  0.750001  0.269820  1
  Ga  Ga10  1  0.000000  0.000000  0.500000  1
  Ga  Ga11  1  0.500000  0.000000  0.500000  1
  Ga  Ga12  1  0.000000  0.500000  0.500000  1
  Ga  Ga13  1  0.500000  0.500000  0.500000  1
  Ga  Ga14  1  0.446224  0.250000  0.730179  1
  Ga  Ga15  1  0.946224  0.250000  0.769821  1
  Si  Si16  1  0.738230  0.750001  0.066004  1
  Si  Si17  1  0.238230  0.750001  0.433996  1
  Si  Si18  1  0.761771  0.250000  0.566005  1
  Si  Si19  1  0.261770  0.250000  0.933995  1
  B  B20  1  0.999744  0.250000  0.248775  1
  B  B21  1  0.499744  0.250000  0.251226  1
  B  B22  1  0.500256  0.750001  0.748775  1
  B  B23  1  0.000256  0.750001  0.751225  1
  O  O24  1  0.675828  0.525504  0.008005  1
  O  O25  1  0.675828  0.974497  0.008005  1
  O  O26  1  0.879221  0.750001  0.028188  1
  O  O27  1  0.103529  0.750001  0.050700  1
  O  O28  1  0.469114  0.750001  0.117629  1
  O  O29  1  0.504250  0.250000  0.124120  1
  O  O30  1  0.997628  0.051268  0.183220  1
  O  O31  1  0.997628  0.448732  0.183220  1
  O  O32  1  0.717193  0.750001  0.221991  1
  O  O33  1  0.217193  0.750001  0.278009  1
  O  O34  1  0.497628  0.051268  0.316780  1
  O  O35  1  0.497628  0.448732  0.316780  1
  O  O36  1  0.004250  0.250000  0.375881  1
  O  O37  1  0.969114  0.750001  0.382371  1
  O  O38  1  0.603529  0.750001  0.449299  1
  O  O39  1  0.379221  0.750001  0.471812  1
  O  O40  1  0.175827  0.525504  0.491995  1
  O  O41  1  0.175827  0.974497  0.491995  1
  O  O42  1  0.824173  0.025503  0.508005  1
  O  O43  1  0.824173  0.474497  0.508005  1
  O  O44  1  0.620780  0.250000  0.528188  1
  O  O45  1  0.396471  0.250000  0.550700  1
  O  O46  1  0.030886  0.250000  0.617629  1
  O  O47  1  0.995751  0.750001  0.624119  1
  O  O48  1  0.502372  0.551269  0.683220  1
  O  O49  1  0.502372  0.948732  0.683220  1
  O  O50  1  0.782808  0.250000  0.721992  1
  O  O51  1  0.282807  0.250000  0.778008  1
  O  O52  1  0.002372  0.551269  0.816780  1
  O  O53  1  0.002372  0.948732  0.816780  1
  O  O54  1  0.495750  0.750001  0.875881  1
  O  O55  1  0.530887  0.250000  0.882371  1
  O  O56  1  0.896471  0.250000  0.949300  1
  O  O57  1  0.120780  0.250000  0.971811  1
  O  O58  1  0.324173  0.025503  0.991995  1
  O  O59  1  0.324173  0.474497  0.991995  1
