# generated using pymatgen
data_HoSc(Si7Ir3)2
_symmetry_space_group_name_H-M   'P 1'
_cell_length_a   8.01797737
_cell_length_b   8.01797744
_cell_length_c   8.01797821
_cell_angle_alpha   56.50158501
_cell_angle_beta   56.50158304
_cell_angle_gamma   56.50158679
_symmetry_Int_Tables_number   1
_chemical_formula_structural   HoSc(Si7Ir3)2
_chemical_formula_sum   'Ho1 Sc1 Si14 Ir6'
_cell_volume   335.01255332
_cell_formula_units_Z   1
loop_
 _symmetry_equiv_pos_site_id
 _symmetry_equiv_pos_as_xyz
  1  'x, y, z'
loop_
 _atom_site_type_symbol
 _atom_site_label
 _atom_site_symmetry_multiplicity
 _atom_site_fract_x
 _atom_site_fract_y
 _atom_site_fract_z
 _atom_site_occupancy
  Ho  Ho0  1  0.000000  0.000000  0.000000  1
  Sc  Sc1  1  0.500000  0.500000  0.500000  1
  Si  Si2  1  0.750088  0.750088  0.750088  1
  Si  Si3  1  0.249912  0.249912  0.249912  1
  Si  Si4  1  0.849922  0.065297  0.671763  1
  Si  Si5  1  0.671763  0.849922  0.065297  1
  Si  Si6  1  0.065297  0.671763  0.849922  1
  Si  Si7  1  0.648925  0.826964  0.436170  1
  Si  Si8  1  0.436170  0.648925  0.826964  1
  Si  Si9  1  0.826964  0.436170  0.648925  1
  Si  Si10  1  0.173036  0.563830  0.351075  1
  Si  Si11  1  0.563830  0.351075  0.173036  1
  Si  Si12  1  0.351075  0.173036  0.563830  1
  Si  Si13  1  0.934703  0.328237  0.150078  1
  Si  Si14  1  0.328237  0.150078  0.934703  1
  Si  Si15  1  0.150078  0.934703  0.328237  1
  Ir  Ir16  1  0.073403  0.429506  0.748201  1
  Ir  Ir17  1  0.251799  0.926597  0.570494  1
  Ir  Ir18  1  0.570494  0.251799  0.926597  1
  Ir  Ir19  1  0.926597  0.570494  0.251799  1
  Ir  Ir20  1  0.429506  0.748201  0.073403  1
  Ir  Ir21  1  0.748201  0.073403  0.429506  1
