# generated using pymatgen
data_Sr(RuO4)3
_symmetry_space_group_name_H-M   'P 1'
_cell_length_a   10.24037200
_cell_length_b   10.24037298
_cell_length_c   6.62398100
_cell_angle_alpha   90.00000000
_cell_angle_beta   90.00000000
_cell_angle_gamma   119.99999039
_symmetry_Int_Tables_number   1
_chemical_formula_structural   Sr(RuO4)3
_chemical_formula_sum   'Sr2 Ru6 O24'
_cell_volume   601.56319893
_cell_formula_units_Z   2
loop_
 _symmetry_equiv_pos_site_id
 _symmetry_equiv_pos_as_xyz
  1  'x, y, z'
loop_
 _atom_site_type_symbol
 _atom_site_label
 _atom_site_symmetry_multiplicity
 _atom_site_fract_x
 _atom_site_fract_y
 _atom_site_fract_z
 _atom_site_occupancy
  Sr  Sr0  1  0.666667  0.333333  0.750000  1
  Sr  Sr1  1  0.333333  0.666667  0.250000  1
  Ru  Ru2  1  0.611889  0.708193  0.750000  1
  Ru  Ru3  1  0.388111  0.291807  0.250000  1
  Ru  Ru4  1  0.096304  0.388111  0.750000  1
  Ru  Ru5  1  0.903696  0.611889  0.250000  1
  Ru  Ru6  1  0.291807  0.903696  0.750000  1
  Ru  Ru7  1  0.708193  0.096304  0.250000  1
  O  O8  1  0.962610  0.446265  0.750000  1
  O  O9  1  0.037390  0.553735  0.250000  1
  O  O10  1  0.483654  0.037390  0.750000  1
  O  O11  1  0.516346  0.962610  0.250000  1
  O  O12  1  0.553735  0.516346  0.750000  1
  O  O13  1  0.446265  0.483654  0.250000  1
  O  O14  1  0.805088  0.810361  0.750000  1
  O  O15  1  0.194912  0.189639  0.250000  1
  O  O16  1  0.005274  0.194912  0.750000  1
  O  O17  1  0.994726  0.805088  0.250000  1
  O  O18  1  0.189639  0.994726  0.750000  1
  O  O19  1  0.810361  0.005274  0.250000  1
  O  O20  1  0.539641  0.749186  0.964490  1
  O  O21  1  0.460359  0.250814  0.035510  1
  O  O22  1  0.209545  0.460359  0.964490  1
  O  O23  1  0.460359  0.250814  0.464490  1
  O  O24  1  0.790455  0.539641  0.035510  1
  O  O25  1  0.539641  0.749186  0.535510  1
  O  O26  1  0.250814  0.790455  0.964490  1
  O  O27  1  0.790455  0.539641  0.464490  1
  O  O28  1  0.749186  0.209545  0.035510  1
  O  O29  1  0.209545  0.460359  0.535510  1
  O  O30  1  0.749186  0.209545  0.464490  1
  O  O31  1  0.250814  0.790455  0.535510  1
