# generated using pymatgen
data_Ho2Tm3Co19Si11P
_symmetry_space_group_name_H-M   'P 1'
_cell_length_a   12.10773510
_cell_length_b   12.14316960
_cell_length_c   3.71348600
_cell_angle_alpha   90.00000000
_cell_angle_beta   90.00000000
_cell_angle_gamma   120.09686027
_symmetry_Int_Tables_number   1
_chemical_formula_structural   Ho2Tm3Co19Si11P
_chemical_formula_sum   'Ho2 Tm3 Co19 Si11 P1'
_cell_volume   472.37040705
_cell_formula_units_Z   1
loop_
 _symmetry_equiv_pos_site_id
 _symmetry_equiv_pos_as_xyz
  1  'x, y, z'
loop_
 _atom_site_type_symbol
 _atom_site_label
 _atom_site_symmetry_multiplicity
 _atom_site_fract_x
 _atom_site_fract_y
 _atom_site_fract_z
 _atom_site_occupancy
  Ho  Ho0  1  0.667330  0.333492  0.000000  1
  Ho  Ho1  1  0.332670  0.666163  0.000000  1
  Tm  Tm2  1  0.184970  0.185921  0.500000  1
  Tm  Tm3  1  0.815030  0.000951  0.500000  1
  Tm  Tm4  1  0.000000  0.813791  0.500000  1
  Co  Co5  1  0.823763  0.197012  0.000000  1
  Co  Co6  1  0.802868  0.622929  0.000000  1
  Co  Co7  1  0.376967  0.180007  0.000000  1
  Co  Co8  1  0.197132  0.820062  0.000000  1
  Co  Co9  1  0.623033  0.803041  0.000000  1
  Co  Co10  1  0.176237  0.373249  0.000000  1
  Co  Co11  1  0.558327  0.558792  0.000000  1
  Co  Co12  1  0.441673  0.000466  0.000000  1
  Co  Co13  1  0.000000  0.441620  0.000000  1
  Co  Co14  1  0.645197  0.123661  0.500000  1
  Co  Co15  1  0.877019  0.520494  0.500000  1
  Co  Co16  1  0.478779  0.356212  0.500000  1
  Co  Co17  1  0.122981  0.643476  0.500000  1
  Co  Co18  1  0.521221  0.877432  0.500000  1
  Co  Co19  1  0.354803  0.478464  0.500000  1
  Co  Co20  1  0.719033  0.718996  0.500000  1
  Co  Co21  1  0.280967  0.999963  0.500000  1
  Co  Co22  1  0.000000  0.277551  0.500000  1
  Co  Co23  1  0.000000  0.004837  0.000000  1
  Si  Si24  1  0.370224  0.370614  0.000000  1
  Si  Si25  1  0.629776  0.000391  0.000000  1
  Si  Si26  1  0.000000  0.629346  0.000000  1
  Si  Si27  1  0.840524  0.318292  0.500000  1
  Si  Si28  1  0.682289  0.521937  0.500000  1
  Si  Si29  1  0.478592  0.160831  0.500000  1
  Si  Si30  1  0.317711  0.839649  0.500000  1
  Si  Si31  1  0.521408  0.682240  0.500000  1
  Si  Si32  1  0.159476  0.477768  0.500000  1
  Si  Si33  1  0.817756  0.817513  0.000000  1
  Si  Si34  1  0.182244  0.999757  0.000000  1
  P  P35  1  0.000000  0.183081  0.000000  1
