# generated using pymatgen
data_Pr8Ho9Sc3Si15Sb
_symmetry_space_group_name_H-M   'P 1'
_cell_length_a   7.46489204
_cell_length_b   7.79323805
_cell_length_c   14.74853800
_cell_angle_alpha   90.00000000
_cell_angle_beta   90.00000000
_cell_angle_gamma   90.19800350
_symmetry_Int_Tables_number   1
_chemical_formula_structural   Pr8Ho9Sc3Si15Sb
_chemical_formula_sum   'Pr8 Ho9 Sc3 Si15 Sb1'
_cell_volume   858.00111348
_cell_formula_units_Z   1
loop_
 _symmetry_equiv_pos_site_id
 _symmetry_equiv_pos_as_xyz
  1  'x, y, z'
loop_
 _atom_site_type_symbol
 _atom_site_label
 _atom_site_symmetry_multiplicity
 _atom_site_fract_x
 _atom_site_fract_y
 _atom_site_fract_z
 _atom_site_occupancy
  Pr  Pr0  1  0.019439  0.179804  0.399971  1
  Pr  Pr1  1  0.518768  0.320285  0.399182  1
  Pr  Pr2  1  0.489222  0.667702  0.909567  1
  Pr  Pr3  1  0.489222  0.667702  0.590433  1
  Pr  Pr4  1  0.976964  0.820074  0.595572  1
  Pr  Pr5  1  0.976964  0.820074  0.904428  1
  Pr  Pr6  1  0.518768  0.320285  0.100818  1
  Pr  Pr7  1  0.019439  0.179804  0.100029  1
  Ho  Ho8  1  0.322910  0.183537  0.621831  1
  Ho  Ho9  1  0.677436  0.824128  0.373804  1
  Ho  Ho10  1  0.667372  0.992307  0.750000  1
  Ho  Ho11  1  0.177028  0.678212  0.374312  1
  Ho  Ho12  1  0.819445  0.325363  0.878107  1
  Ho  Ho13  1  0.819445  0.325363  0.621893  1
  Ho  Ho14  1  0.322910  0.183537  0.878169  1
  Ho  Ho15  1  0.177028  0.678212  0.125688  1
  Ho  Ho16  1  0.677436  0.824128  0.126196  1
  Sc  Sc17  1  0.844549  0.490229  0.250000  1
  Sc  Sc18  1  0.344317  0.011938  0.250000  1
  Sc  Sc19  1  0.149096  0.493832  0.750000  1
  Si  Si20  1  0.475749  0.607722  0.250000  1
  Si  Si21  1  0.022662  0.135163  0.750000  1
  Si  Si22  1  0.522012  0.388987  0.750000  1
  Si  Si23  1  0.144717  0.470399  0.538848  1
  Si  Si24  1  0.976373  0.894099  0.250000  1
  Si  Si25  1  0.722220  0.125801  0.250000  1
  Si  Si26  1  0.851430  0.532414  0.042744  1
  Si  Si27  1  0.351873  0.968218  0.041084  1
  Si  Si28  1  0.144717  0.470399  0.961152  1
  Si  Si29  1  0.645463  0.031238  0.538254  1
  Si  Si30  1  0.351873  0.968218  0.458916  1
  Si  Si31  1  0.851430  0.532414  0.457256  1
  Si  Si32  1  0.781663  0.622634  0.750000  1
  Si  Si33  1  0.220835  0.376339  0.250000  1
  Si  Si34  1  0.645463  0.031238  0.961746  1
  Sb  Sb35  1  0.283766  0.858209  0.750000  1
