# generated using pymatgen
data_Pr8Dy11Si16Hg
_symmetry_space_group_name_H-M   'P 1'
_cell_length_a   7.48636051
_cell_length_b   7.81963986
_cell_length_c   14.90966600
_cell_angle_alpha   90.00000000
_cell_angle_beta   90.00000000
_cell_angle_gamma   90.06049704
_symmetry_Int_Tables_number   1
_chemical_formula_structural   Pr8Dy11Si16Hg
_chemical_formula_sum   'Pr8 Dy11 Si16 Hg1'
_cell_volume   872.82094942
_cell_formula_units_Z   1
loop_
 _symmetry_equiv_pos_site_id
 _symmetry_equiv_pos_as_xyz
  1  'x, y, z'
loop_
 _atom_site_type_symbol
 _atom_site_label
 _atom_site_symmetry_multiplicity
 _atom_site_fract_x
 _atom_site_fract_y
 _atom_site_fract_z
 _atom_site_occupancy
  Pr  Pr0  1  0.019593  0.177657  0.402704  1
  Pr  Pr1  1  0.518202  0.323762  0.402157  1
  Pr  Pr2  1  0.483098  0.688758  0.898243  1
  Pr  Pr3  1  0.483098  0.688758  0.601757  1
  Pr  Pr4  1  0.970435  0.824635  0.602022  1
  Pr  Pr5  1  0.970435  0.824635  0.897978  1
  Pr  Pr6  1  0.518202  0.323762  0.097843  1
  Pr  Pr7  1  0.019593  0.177657  0.097296  1
  Dy  Dy8  1  0.336571  0.175297  0.625308  1
  Dy  Dy9  1  0.676109  0.816082  0.375385  1
  Dy  Dy10  1  0.177910  0.677288  0.378352  1
  Dy  Dy11  1  0.819100  0.311433  0.874592  1
  Dy  Dy12  1  0.819100  0.311433  0.625408  1
  Dy  Dy13  1  0.845379  0.488067  0.250000  1
  Dy  Dy14  1  0.342561  0.010845  0.250000  1
  Dy  Dy15  1  0.336571  0.175297  0.874692  1
  Dy  Dy16  1  0.177910  0.677288  0.121648  1
  Dy  Dy17  1  0.676109  0.816082  0.124615  1
  Dy  Dy18  1  0.151907  0.506515  0.750000  1
  Si  Si19  1  0.259281  0.876597  0.750000  1
  Si  Si20  1  0.468942  0.610390  0.250000  1
  Si  Si21  1  0.043767  0.114089  0.750000  1
  Si  Si22  1  0.525080  0.411831  0.750000  1
  Si  Si23  1  0.147624  0.470730  0.542433  1
  Si  Si24  1  0.969627  0.882496  0.250000  1
  Si  Si25  1  0.724854  0.120271  0.250000  1
  Si  Si26  1  0.853246  0.530072  0.035772  1
  Si  Si27  1  0.353714  0.968979  0.039371  1
  Si  Si28  1  0.147624  0.470730  0.957567  1
  Si  Si29  1  0.651377  0.037948  0.528146  1
  Si  Si30  1  0.353714  0.968979  0.460629  1
  Si  Si31  1  0.853246  0.530072  0.464228  1
  Si  Si32  1  0.778058  0.607250  0.750000  1
  Si  Si33  1  0.225021  0.378581  0.250000  1
  Si  Si34  1  0.651377  0.037948  0.971854  1
  Hg  Hg35  1  0.651560  0.987788  0.750000  1
