# generated using pymatgen
data_Mg4As(PN2)6
_symmetry_space_group_name_H-M   'P 1'
_cell_length_a   7.28331583
_cell_length_b   7.28331546
_cell_length_c   7.28331600
_cell_angle_alpha   109.47122214
_cell_angle_beta   109.47122110
_cell_angle_gamma   109.47122121
_symmetry_Int_Tables_number   1
_chemical_formula_structural   Mg4As(PN2)6
_chemical_formula_sum   'Mg4 As1 P6 N12'
_cell_volume   297.41681083
_cell_formula_units_Z   1
loop_
 _symmetry_equiv_pos_site_id
 _symmetry_equiv_pos_as_xyz
  1  'x, y, z'
loop_
 _atom_site_type_symbol
 _atom_site_label
 _atom_site_symmetry_multiplicity
 _atom_site_fract_x
 _atom_site_fract_y
 _atom_site_fract_z
 _atom_site_occupancy
  Mg  Mg0  1  0.359658  0.359658  0.359658  1
  Mg  Mg1  1  0.000000  0.640342  0.000000  1
  Mg  Mg2  1  0.640342  0.000000  0.000000  1
  Mg  Mg3  1  0.000000  0.000000  0.640342  1
  As  As4  1  0.000000  0.000000  0.000000  1
  P  P5  1  0.500000  0.250000  0.750000  1
  P  P6  1  0.500000  0.750000  0.250000  1
  P  P7  1  0.750000  0.250000  0.500000  1
  P  P8  1  0.250000  0.500000  0.750000  1
  P  P9  1  0.750000  0.500000  0.250000  1
  P  P10  1  0.250000  0.750000  0.500000  1
  N  N11  1  0.000000  0.722370  0.433694  1
  N  N12  1  0.277630  0.711324  0.277630  1
  N  N13  1  0.288676  0.566306  0.566306  1
  N  N14  1  0.566306  0.566306  0.288676  1
  N  N15  1  0.566306  0.288676  0.566306  1
  N  N16  1  0.722370  0.000000  0.433694  1
  N  N17  1  0.433694  0.000000  0.722370  1
  N  N18  1  0.722370  0.433694  0.000000  1
  N  N19  1  0.277630  0.277630  0.711324  1
  N  N20  1  0.711324  0.277630  0.277630  1
  N  N21  1  0.000000  0.433694  0.722370  1
  N  N22  1  0.433694  0.722370  0.000000  1
