# generated using pymatgen
data_Cs4Na2ErInSb4
_symmetry_space_group_name_H-M   'P 1'
_cell_length_a   10.35219739
_cell_length_b   10.35219690
_cell_length_c   10.35219853
_cell_angle_alpha   137.26181666
_cell_angle_beta   61.04435506
_cell_angle_gamma   138.56179028
_symmetry_Int_Tables_number   1
_chemical_formula_structural   Cs4Na2ErInSb4
_chemical_formula_sum   'Cs4 Na2 Er1 In1 Sb4'
_cell_volume   492.79747168
_cell_formula_units_Z   1
loop_
 _symmetry_equiv_pos_site_id
 _symmetry_equiv_pos_as_xyz
  1  'x, y, z'
loop_
 _atom_site_type_symbol
 _atom_site_label
 _atom_site_symmetry_multiplicity
 _atom_site_fract_x
 _atom_site_fract_y
 _atom_site_fract_z
 _atom_site_occupancy
  Cs  Cs0  1  0.320239  0.725211  0.056817  1
  Cs  Cs1  1  0.179761  0.236579  0.404972  1
  Cs  Cs2  1  0.831606  0.774789  0.595027  1
  Cs  Cs3  1  0.668394  0.263421  0.943183  1
  Na  Na4  1  0.249999  0.249999  0.000000  1
  Na  Na5  1  0.750000  0.750000  0.000000  1
  Er  Er6  1  0.749999  0.249999  0.500000  1
  In  In7  1  0.249999  0.749999  0.500000  1
  Sb  Sb8  1  0.910291  0.281301  0.182929  1
  Sb  Sb9  1  0.589710  0.772639  0.371010  1
  Sb  Sb10  1  0.401628  0.218699  0.628990  1
  Sb  Sb11  1  0.098371  0.727361  0.817070  1
