# generated using pymatgen
data_Nd17Ag3Pt4
_symmetry_space_group_name_H-M   'P 1'
_cell_length_a   10.05854326
_cell_length_b   10.04395192
_cell_length_c   10.04395200
_cell_angle_alpha   59.99999973
_cell_angle_beta   60.04797499
_cell_angle_gamma   60.04798303
_symmetry_Int_Tables_number   1
_chemical_formula_structural   Nd17Ag3Pt4
_chemical_formula_sum   'Nd17 Ag3 Pt4'
_cell_volume   718.03218922
_cell_formula_units_Z   1
loop_
 _symmetry_equiv_pos_site_id
 _symmetry_equiv_pos_as_xyz
  1  'x, y, z'
loop_
 _atom_site_type_symbol
 _atom_site_label
 _atom_site_symmetry_multiplicity
 _atom_site_fract_x
 _atom_site_fract_y
 _atom_site_fract_z
 _atom_site_occupancy
  Nd  Nd0  1  0.344533  0.348354  0.348354  1
  Nd  Nd1  1  0.344533  0.348354  0.958761  1
  Nd  Nd2  1  0.344533  0.958761  0.348354  1
  Nd  Nd3  1  0.927370  0.357544  0.357544  1
  Nd  Nd4  1  0.799623  0.195673  0.195673  1
  Nd  Nd5  1  0.180607  0.815848  0.815848  1
  Nd  Nd6  1  0.180607  0.815848  0.187697  1
  Nd  Nd7  1  0.799623  0.195673  0.809030  1
  Nd  Nd8  1  0.180607  0.187697  0.815848  1
  Nd  Nd9  1  0.799623  0.809030  0.195673  1
  Nd  Nd10  1  0.940129  0.566481  0.566481  1
  Nd  Nd11  1  0.559368  0.936476  0.936476  1
  Nd  Nd12  1  0.559368  0.936476  0.567678  1
  Nd  Nd13  1  0.940129  0.566481  0.926908  1
  Nd  Nd14  1  0.559368  0.567678  0.936476  1
  Nd  Nd15  1  0.940129  0.926908  0.566481  1
  Nd  Nd16  1  0.331372  0.556209  0.556209  1
  Ag  Ag17  1  0.599362  0.589750  0.589750  1
  Ag  Ag18  1  0.599362  0.589750  0.221139  1
  Ag  Ag19  1  0.599362  0.221139  0.589750  1
  Pt  Pt20  1  0.133674  0.147052  0.147052  1
  Pt  Pt21  1  0.133674  0.147052  0.572224  1
  Pt  Pt22  1  0.133674  0.572224  0.147052  1
  Pt  Pt23  1  0.569369  0.143544  0.143544  1
