# generated using pymatgen
data_ZrTi2NbSi2
_symmetry_space_group_name_H-M   'P 1'
_cell_length_a   3.64069100
_cell_length_b   6.94049780
_cell_length_c   11.97403395
_cell_angle_alpha   89.84916923
_cell_angle_beta   90.00000000
_cell_angle_gamma   90.00000000
_symmetry_Int_Tables_number   1
_chemical_formula_structural   ZrTi2NbSi2
_chemical_formula_sum   'Zr3 Ti6 Nb3 Si6'
_cell_volume   302.56133064
_cell_formula_units_Z   3
loop_
 _symmetry_equiv_pos_site_id
 _symmetry_equiv_pos_as_xyz
  1  'x, y, z'
loop_
 _atom_site_type_symbol
 _atom_site_label
 _atom_site_symmetry_multiplicity
 _atom_site_fract_x
 _atom_site_fract_y
 _atom_site_fract_z
 _atom_site_occupancy
  Zr  Zr0  1  0.500000  0.295022  0.295728  1
  Zr  Zr1  1  0.500000  0.294275  0.705949  1
  Zr  Zr2  1  0.500000  0.795743  0.203292  1
  Ti  Ti3  1  0.000000  0.751308  0.997527  1
  Ti  Ti4  1  0.000000  0.248277  0.502243  1
  Ti  Ti5  1  0.000000  0.627200  0.627601  1
  Ti  Ti6  1  0.000000  0.124821  0.124341  1
  Ti  Ti7  1  0.000000  0.127246  0.872608  1
  Ti  Ti8  1  0.000000  0.625706  0.373781  1
  Nb  Nb9  1  0.500000  0.408433  0.997771  1
  Nb  Nb10  1  0.500000  0.905804  0.502981  1
  Nb  Nb11  1  0.500000  0.794693  0.796499  1
  Si  Si12  1  0.000000  0.993532  0.666746  1
  Si  Si13  1  0.000000  0.497423  0.161098  1
  Si  Si14  1  0.000000  0.504177  0.836078  1
  Si  Si15  1  0.000000  0.997201  0.338400  1
  Si  Si16  1  0.500000  0.004655  0.997240  1
  Si  Si17  1  0.500000  0.504684  0.500118  1
