# generated using pymatgen
data_Tm3ThHgRu
_symmetry_space_group_name_H-M   'P 1'
_cell_length_a   9.58003064
_cell_length_b   9.57995003
_cell_length_c   9.56511400
_cell_angle_alpha   60.05113905
_cell_angle_beta   60.05142615
_cell_angle_gamma   60.09988945
_symmetry_Int_Tables_number   1
_chemical_formula_structural   Tm3ThHgRu
_chemical_formula_sum   'Tm12 Th4 Hg4 Ru4'
_cell_volume   621.68270908
_cell_formula_units_Z   4
loop_
 _symmetry_equiv_pos_site_id
 _symmetry_equiv_pos_as_xyz
  1  'x, y, z'
loop_
 _atom_site_type_symbol
 _atom_site_label
 _atom_site_symmetry_multiplicity
 _atom_site_fract_x
 _atom_site_fract_y
 _atom_site_fract_z
 _atom_site_occupancy
  Tm  Tm0  1  0.062579  0.436642  0.437721  1
  Tm  Tm1  1  0.436637  0.062587  0.063058  1
  Tm  Tm2  1  0.436638  0.062584  0.437722  1
  Tm  Tm3  1  0.062582  0.436640  0.063058  1
  Tm  Tm4  1  0.437036  0.437037  0.062964  1
  Tm  Tm5  1  0.062816  0.062826  0.437179  1
  Tm  Tm6  1  0.185464  0.814529  0.814257  1
  Tm  Tm7  1  0.814533  0.185460  0.185747  1
  Tm  Tm8  1  0.814532  0.185461  0.814261  1
  Tm  Tm9  1  0.185463  0.814531  0.185748  1
  Tm  Tm10  1  0.814942  0.814942  0.185058  1
  Tm  Tm11  1  0.185932  0.185928  0.814070  1
  Th  Th12  1  0.599528  0.599521  0.598719  1
  Th  Th13  1  0.599521  0.599513  0.202244  1
  Th  Th14  1  0.600424  0.200255  0.599655  1
  Th  Th15  1  0.200254  0.600413  0.599662  1
  Hg  Hg16  1  0.836056  0.836059  0.837220  1
  Hg  Hg17  1  0.836056  0.836060  0.490666  1
  Hg  Hg18  1  0.835484  0.491754  0.836381  1
  Hg  Hg19  1  0.491759  0.835485  0.836378  1
  Ru  Ru20  1  0.393118  0.393110  0.391566  1
  Ru  Ru21  1  0.393119  0.393115  0.822196  1
  Ru  Ru22  1  0.393729  0.821810  0.392234  1
  Ru  Ru23  1  0.821799  0.393735  0.392234  1
