# generated using pymatgen
data_Ca2SbRh3
_symmetry_space_group_name_H-M   'P 1'
_cell_length_a   5.32832886
_cell_length_b   5.68281705
_cell_length_c   5.68281700
_cell_angle_alpha   60.00000609
_cell_angle_beta   57.77371746
_cell_angle_gamma   57.77371836
_symmetry_Int_Tables_number   1
_chemical_formula_structural   Ca2SbRh3
_chemical_formula_sum   'Ca2 Sb1 Rh3'
_cell_volume   117.41901807
_cell_formula_units_Z   1
loop_
 _symmetry_equiv_pos_site_id
 _symmetry_equiv_pos_as_xyz
  1  'x, y, z'
loop_
 _atom_site_type_symbol
 _atom_site_label
 _atom_site_symmetry_multiplicity
 _atom_site_fract_x
 _atom_site_fract_y
 _atom_site_fract_z
 _atom_site_occupancy
  Ca  Ca0  1  0.503661  0.498780  0.498780  1
  Ca  Ca1  1  0.746339  0.751220  0.751220  1
  Sb  Sb2  1  0.625000  0.125000  0.125000  1
  Rh  Rh3  1  0.125000  0.125000  0.625000  1
  Rh  Rh4  1  0.125000  0.625000  0.125000  1
  Rh  Rh5  1  0.125000  0.125000  0.125000  1
