# generated using pymatgen
data_Ba2LuSc3(SeO3)8
_symmetry_space_group_name_H-M   'P 1'
_cell_length_a   5.45324280
_cell_length_b   10.61439795
_cell_length_c   14.60883117
_cell_angle_alpha   49.19652559
_cell_angle_beta   89.44496341
_cell_angle_gamma   89.64359966
_symmetry_Int_Tables_number   1
_chemical_formula_structural   Ba2LuSc3(SeO3)8
_chemical_formula_sum   'Ba2 Lu1 Sc3 Se8 O24'
_cell_volume   640.05249837
_cell_formula_units_Z   1
loop_
 _symmetry_equiv_pos_site_id
 _symmetry_equiv_pos_as_xyz
  1  'x, y, z'
loop_
 _atom_site_type_symbol
 _atom_site_label
 _atom_site_symmetry_multiplicity
 _atom_site_fract_x
 _atom_site_fract_y
 _atom_site_fract_z
 _atom_site_occupancy
  Ba  Ba0  1  0.047103  0.001333  0.745711  1
  Ba  Ba1  1  0.952897  0.998667  0.254289  1
  Lu  Lu2  1  0.500000  0.000000  0.000000  1
  Sc  Sc3  1  0.000000  0.500000  0.500000  1
  Sc  Sc4  1  0.500000  0.000000  0.500000  1
  Sc  Sc5  1  0.000000  0.500000  0.000000  1
  Se  Se6  1  0.498114  0.329419  0.184748  1
  Se  Se7  1  0.014244  0.740903  0.596563  1
  Se  Se8  1  0.017522  0.265989  0.900343  1
  Se  Se9  1  0.985756  0.259097  0.403437  1
  Se  Se10  1  0.498923  0.329914  0.682462  1
  Se  Se11  1  0.501886  0.670581  0.815252  1
  Se  Se12  1  0.501077  0.670086  0.317538  1
  Se  Se13  1  0.982478  0.734011  0.099657  1
  O  O14  1  0.218319  0.708242  0.350149  1
  O  O15  1  0.281840  0.790446  0.053053  1
  O  O16  1  0.778960  0.708443  0.850046  1
  O  O17  1  0.827130  0.899880  0.970540  1
  O  O18  1  0.723255  0.809765  0.538598  1
  O  O19  1  0.306702  0.344687  0.582593  1
  O  O20  1  0.172870  0.100120  0.029460  1
  O  O21  1  0.698636  0.338628  0.088308  1
  O  O22  1  0.781681  0.291758  0.649851  1
  O  O23  1  0.581635  0.130987  0.314935  1
  O  O24  1  0.693298  0.655313  0.417407  1
  O  O25  1  0.276745  0.190235  0.461402  1
  O  O26  1  0.588889  0.869791  0.190168  1
  O  O27  1  0.810292  0.099014  0.527056  1
  O  O28  1  0.411111  0.130209  0.809832  1
  O  O29  1  0.057205  0.424864  0.901726  1
  O  O30  1  0.718160  0.209554  0.946947  1
  O  O31  1  0.949021  0.418427  0.404793  1
  O  O32  1  0.050979  0.581573  0.595207  1
  O  O33  1  0.418365  0.869013  0.685065  1
  O  O34  1  0.301364  0.661372  0.911692  1
  O  O35  1  0.189708  0.900986  0.472944  1
  O  O36  1  0.942795  0.575136  0.098274  1
  O  O37  1  0.221040  0.291557  0.149954  1
