# generated using pymatgen
data_YLu2IrO7
_symmetry_space_group_name_H-M   'P 1'
_cell_length_a   6.35667300
_cell_length_b   6.35667392
_cell_length_c   7.35352300
_cell_angle_alpha   90.00000000
_cell_angle_beta   90.00000000
_cell_angle_gamma   109.20996427
_symmetry_Int_Tables_number   1
_chemical_formula_structural   YLu2IrO7
_chemical_formula_sum   'Y2 Lu4 Ir2 O14'
_cell_volume   280.59121087
_cell_formula_units_Z   2
loop_
 _symmetry_equiv_pos_site_id
 _symmetry_equiv_pos_as_xyz
  1  'x, y, z'
loop_
 _atom_site_type_symbol
 _atom_site_label
 _atom_site_symmetry_multiplicity
 _atom_site_fract_x
 _atom_site_fract_y
 _atom_site_fract_z
 _atom_site_occupancy
  Y  Y0  1  0.500000  0.500000  0.500000  1
  Y  Y1  1  0.500000  0.500000  0.000000  1
  Lu  Lu2  1  0.532559  0.000701  0.750000  1
  Lu  Lu3  1  0.000701  0.532559  0.250000  1
  Lu  Lu4  1  0.467441  0.999299  0.250000  1
  Lu  Lu5  1  0.999299  0.467441  0.750000  1
  Ir  Ir6  1  0.000000  0.000000  0.500000  1
  Ir  Ir7  1  0.000000  0.000000  0.000000  1
  O  O8  1  0.673970  0.925894  0.471762  1
  O  O9  1  0.925894  0.673970  0.528238  1
  O  O10  1  0.673970  0.925894  0.028238  1
  O  O11  1  0.925894  0.673970  0.971762  1
  O  O12  1  0.326030  0.074106  0.528238  1
  O  O13  1  0.074106  0.326030  0.471762  1
  O  O14  1  0.326030  0.074106  0.971762  1
  O  O15  1  0.074106  0.326030  0.028238  1
  O  O16  1  0.922951  0.077049  0.750000  1
  O  O17  1  0.077049  0.922951  0.250000  1
  O  O18  1  0.364087  0.635913  0.750000  1
  O  O19  1  0.635913  0.364087  0.250000  1
  O  O20  1  0.640310  0.359690  0.750000  1
  O  O21  1  0.359690  0.640310  0.250000  1
