# generated using pymatgen
data_La3Eu2Pb3Cl
_symmetry_space_group_name_H-M   'P 1'
_cell_length_a   9.73148200
_cell_length_b   9.73148264
_cell_length_c   7.32193800
_cell_angle_alpha   90.00000000
_cell_angle_beta   90.00000000
_cell_angle_gamma   120.01069244
_symmetry_Int_Tables_number   1
_chemical_formula_structural   La3Eu2Pb3Cl
_chemical_formula_sum   'La6 Eu4 Pb6 Cl2'
_cell_volume   600.43758837
_cell_formula_units_Z   2
loop_
 _symmetry_equiv_pos_site_id
 _symmetry_equiv_pos_as_xyz
  1  'x, y, z'
loop_
 _atom_site_type_symbol
 _atom_site_label
 _atom_site_symmetry_multiplicity
 _atom_site_fract_x
 _atom_site_fract_y
 _atom_site_fract_z
 _atom_site_occupancy
  La  La0  1  0.746443  0.746443  0.250000  1
  La  La1  1  0.253557  0.253557  0.750000  1
  La  La2  1  0.331560  0.668440  0.000000  1
  La  La3  1  0.668440  0.331560  0.000000  1
  La  La4  1  0.668440  0.331560  0.500000  1
  La  La5  1  0.331560  0.668440  0.500000  1
  Eu  Eu6  1  0.254815  0.001546  0.250000  1
  Eu  Eu7  1  0.745185  0.998454  0.750000  1
  Eu  Eu8  1  0.001546  0.254815  0.250000  1
  Eu  Eu9  1  0.998454  0.745185  0.750000  1
  Pb  Pb10  1  0.604683  0.996608  0.250000  1
  Pb  Pb11  1  0.395317  0.003392  0.750000  1
  Pb  Pb12  1  0.996608  0.604683  0.250000  1
  Pb  Pb13  1  0.003392  0.395317  0.750000  1
  Pb  Pb14  1  0.400332  0.400332  0.250000  1
  Pb  Pb15  1  0.599668  0.599668  0.750000  1
  Cl  Cl16  1  0.000000  0.000000  0.000000  1
  Cl  Cl17  1  0.000000  0.000000  0.500000  1
