# generated using pymatgen
data_Nb10AlGa2As3
_symmetry_space_group_name_H-M   'P 1'
_cell_length_a   5.19604246
_cell_length_b   7.66408193
_cell_length_c   7.73328900
_cell_angle_alpha   96.54252356
_cell_angle_beta   109.63049919
_cell_angle_gamma   70.17449652
_symmetry_Int_Tables_number   1
_chemical_formula_structural   Nb10AlGa2As3
_chemical_formula_sum   'Nb10 Al1 Ga2 As3'
_cell_volume   272.87077064
_cell_formula_units_Z   1
loop_
 _symmetry_equiv_pos_site_id
 _symmetry_equiv_pos_as_xyz
  1  'x, y, z'
loop_
 _atom_site_type_symbol
 _atom_site_label
 _atom_site_symmetry_multiplicity
 _atom_site_fract_x
 _atom_site_fract_y
 _atom_site_fract_z
 _atom_site_occupancy
  Nb  Nb0  1  0.422963  0.854254  0.701618  1
  Nb  Nb1  1  0.577710  0.144031  0.301050  1
  Nb  Nb2  1  0.924906  0.301342  0.148326  1
  Nb  Nb3  1  0.073291  0.702291  0.848173  1
  Nb  Nb4  1  0.723420  0.698658  0.148326  1
  Nb  Nb5  1  0.274883  0.297709  0.848173  1
  Nb  Nb6  1  0.778655  0.145746  0.701618  1
  Nb  Nb7  1  0.223340  0.855969  0.301050  1
  Nb  Nb8  1  0.250905  0.500173  0.501074  1
  Nb  Nb9  1  0.750170  0.499827  0.501074  1
  Al  Al10  1  0.250581  0.000000  0.001164  1
  Ga  Ga11  1  0.750838  0.000000  0.001677  1
  Ga  Ga12  1  0.334648  0.500000  0.169299  1
  As  As13  1  0.665318  0.500000  0.830635  1
  As  As14  1  0.834112  0.830911  0.498374  1
  As  As15  1  0.164262  0.169089  0.498374  1
