# generated using pymatgen
data_Hf6Ti4AlGe5
_symmetry_space_group_name_H-M   'P 1'
_cell_length_a   7.86454044
_cell_length_b   7.86454130
_cell_length_c   5.35272700
_cell_angle_alpha   90.00000000
_cell_angle_beta   90.00000000
_cell_angle_gamma   119.95291115
_symmetry_Int_Tables_number   1
_chemical_formula_structural   Hf6Ti4AlGe5
_chemical_formula_sum   'Hf6 Ti4 Al1 Ge5'
_cell_volume   286.85230867
_cell_formula_units_Z   1
loop_
 _symmetry_equiv_pos_site_id
 _symmetry_equiv_pos_as_xyz
  1  'x, y, z'
loop_
 _atom_site_type_symbol
 _atom_site_label
 _atom_site_symmetry_multiplicity
 _atom_site_fract_x
 _atom_site_fract_y
 _atom_site_fract_z
 _atom_site_occupancy
  Hf  Hf0  1  0.250444  0.000561  0.250000  1
  Hf  Hf1  1  0.751495  0.000350  0.750000  1
  Hf  Hf2  1  0.000561  0.250444  0.250000  1
  Hf  Hf3  1  0.000350  0.751495  0.750000  1
  Hf  Hf4  1  0.754918  0.754918  0.250000  1
  Hf  Hf5  1  0.246805  0.246805  0.750000  1
  Ti  Ti6  1  0.330760  0.666737  0.999970  1
  Ti  Ti7  1  0.666737  0.330760  0.999970  1
  Ti  Ti8  1  0.666737  0.330760  0.500030  1
  Ti  Ti9  1  0.330760  0.666737  0.500030  1
  Al  Al10  1  0.600342  0.600342  0.750000  1
  Ge  Ge11  1  0.604191  0.999539  0.250000  1
  Ge  Ge12  1  0.396105  0.999869  0.750000  1
  Ge  Ge13  1  0.999539  0.604191  0.250000  1
  Ge  Ge14  1  0.999869  0.396105  0.750000  1
  Ge  Ge15  1  0.400388  0.400388  0.250000  1
