# generated using pymatgen
data_Lu6Ga3Fe4Ru5
_symmetry_space_group_name_H-M   'P 1'
_cell_length_a   5.25752275
_cell_length_b   5.16732604
_cell_length_c   13.12838900
_cell_angle_alpha   89.90001864
_cell_angle_beta   88.28547708
_cell_angle_gamma   119.78277720
_symmetry_Int_Tables_number   1
_chemical_formula_structural   Lu6Ga3Fe4Ru5
_chemical_formula_sum   'Lu6 Ga3 Fe4 Ru5'
_cell_volume   309.35810576
_cell_formula_units_Z   1
loop_
 _symmetry_equiv_pos_site_id
 _symmetry_equiv_pos_as_xyz
  1  'x, y, z'
loop_
 _atom_site_type_symbol
 _atom_site_label
 _atom_site_symmetry_multiplicity
 _atom_site_fract_x
 _atom_site_fract_y
 _atom_site_fract_z
 _atom_site_occupancy
  Lu  Lu0  1  0.336005  0.669079  0.917248  1
  Lu  Lu1  1  0.002022  0.998743  0.250608  1
  Lu  Lu2  1  0.662371  0.330112  0.584047  1
  Lu  Lu3  1  0.337629  0.669888  0.665953  1
  Lu  Lu4  1  0.997978  0.001257  0.999392  1
  Lu  Lu5  1  0.663995  0.330921  0.332752  1
  Ga  Ga6  1  0.159400  0.331018  0.458048  1
  Ga  Ga7  1  0.840600  0.668982  0.791952  1
  Ga  Ga8  1  0.000000  0.500000  0.125000  1
  Fe  Fe9  1  0.500000  0.500000  0.125000  1
  Fe  Fe10  1  0.159556  0.832490  0.459017  1
  Fe  Fe11  1  0.840444  0.167510  0.790983  1
  Fe  Fe12  1  0.500000  0.000000  0.125000  1
  Ru  Ru13  1  0.325306  0.666207  0.286406  1
  Ru  Ru14  1  0.000000  0.000000  0.625000  1
  Ru  Ru15  1  0.674694  0.333793  0.963594  1
  Ru  Ru16  1  0.656044  0.831269  0.452998  1
  Ru  Ru17  1  0.343956  0.168731  0.797002  1
