# generated using pymatgen
data_Yb2Si5Ir
_symmetry_space_group_name_H-M   'P 1'
_cell_length_a   8.65193720
_cell_length_b   8.65193640
_cell_length_c   4.14508200
_cell_angle_alpha   90.00000000
_cell_angle_beta   90.00000000
_cell_angle_gamma   151.44508320
_symmetry_Int_Tables_number   1
_chemical_formula_structural   Yb2Si5Ir
_chemical_formula_sum   'Yb2 Si5 Ir1'
_cell_volume   148.31616571
_cell_formula_units_Z   1
loop_
 _symmetry_equiv_pos_site_id
 _symmetry_equiv_pos_as_xyz
  1  'x, y, z'
loop_
 _atom_site_type_symbol
 _atom_site_label
 _atom_site_symmetry_multiplicity
 _atom_site_fract_x
 _atom_site_fract_y
 _atom_site_fract_z
 _atom_site_occupancy
  Yb  Yb0  1  0.600386  0.399614  0.250000  1
  Yb  Yb1  1  0.388870  0.611130  0.750000  1
  Si  Si2  1  0.828741  0.171259  0.250000  1
  Si  Si3  1  0.967601  0.032399  0.250000  1
  Si  Si4  1  0.038014  0.961986  0.750000  1
  Si  Si5  1  0.250051  0.749949  0.250000  1
  Si  Si6  1  0.745275  0.254725  0.750000  1
  Ir  Ir7  1  0.181062  0.818938  0.750000  1
