# generated using pymatgen
data_Tm2ScB2IrRh4
_symmetry_space_group_name_H-M   'P 1'
_cell_length_a   3.18806800
_cell_length_b   9.67471807
_cell_length_c   9.65056407
_cell_angle_alpha   90.01346609
_cell_angle_beta   90.00000000
_cell_angle_gamma   90.00000000
_symmetry_Int_Tables_number   1
_chemical_formula_structural   Tm2ScB2IrRh4
_chemical_formula_sum   'Tm4 Sc2 B4 Ir2 Rh8'
_cell_volume   297.65869976
_cell_formula_units_Z   2
loop_
 _symmetry_equiv_pos_site_id
 _symmetry_equiv_pos_as_xyz
  1  'x, y, z'
loop_
 _atom_site_type_symbol
 _atom_site_label
 _atom_site_symmetry_multiplicity
 _atom_site_fract_x
 _atom_site_fract_y
 _atom_site_fract_z
 _atom_site_occupancy
  Tm  Tm0  1  0.000000  0.175456  0.675422  1
  Tm  Tm1  1  0.000000  0.824544  0.324578  1
  Tm  Tm2  1  0.000000  0.324682  0.175188  1
  Tm  Tm3  1  0.000000  0.675318  0.824812  1
  Sc  Sc4  1  0.000000  0.000000  0.000000  1
  Sc  Sc5  1  0.000000  0.500000  0.500000  1
  B  B6  1  0.000000  0.620134  0.119762  1
  B  B7  1  0.000000  0.379866  0.880238  1
  B  B8  1  0.000000  0.877888  0.619323  1
  B  B9  1  0.000000  0.122112  0.380677  1
  Ir  Ir10  1  0.500000  0.725488  0.571177  1
  Ir  Ir11  1  0.500000  0.274512  0.428823  1
  Rh  Rh12  1  0.500000  0.070492  0.224085  1
  Rh  Rh13  1  0.500000  0.929508  0.775915  1
  Rh  Rh14  1  0.500000  0.774455  0.071697  1
  Rh  Rh15  1  0.500000  0.429162  0.724993  1
  Rh  Rh16  1  0.500000  0.225545  0.928303  1
  Rh  Rh17  1  0.500000  0.570838  0.275007  1
  Rh  Rh18  1  0.500000  0.000000  0.500000  1
  Rh  Rh19  1  0.500000  0.500000  0.000000  1
