# generated using pymatgen
data_Y2Er8Si5P
_symmetry_space_group_name_H-M   'P 1'
_cell_length_a   8.33735071
_cell_length_b   8.34495217
_cell_length_c   6.24625100
_cell_angle_alpha   90.00000000
_cell_angle_beta   90.00000000
_cell_angle_gamma   119.92252238
_symmetry_Int_Tables_number   1
_chemical_formula_structural   Y2Er8Si5P
_chemical_formula_sum   'Y2 Er8 Si5 P1'
_cell_volume   376.65220770
_cell_formula_units_Z   1
loop_
 _symmetry_equiv_pos_site_id
 _symmetry_equiv_pos_as_xyz
  1  'x, y, z'
loop_
 _atom_site_type_symbol
 _atom_site_label
 _atom_site_symmetry_multiplicity
 _atom_site_fract_x
 _atom_site_fract_y
 _atom_site_fract_z
 _atom_site_occupancy
  Y  Y0  1  0.001098  0.757299  0.750000  1
  Y  Y1  1  0.755652  0.000149  0.750000  1
  Er  Er2  1  0.001029  0.243833  0.250000  1
  Er  Er3  1  0.756722  0.755934  0.250000  1
  Er  Er4  1  0.244247  0.243242  0.750000  1
  Er  Er5  1  0.243206  0.000249  0.250000  1
  Er  Er6  1  0.333644  0.667168  0.500239  1
  Er  Er7  1  0.666150  0.332594  0.999723  1
  Er  Er8  1  0.666150  0.332594  0.500277  1
  Er  Er9  1  0.333644  0.667168  0.999761  1
  Si  Si10  1  0.394536  0.393947  0.250000  1
  Si  Si11  1  0.000538  0.606081  0.250000  1
  Si  Si12  1  0.000537  0.394145  0.750000  1
  Si  Si13  1  0.605165  0.605050  0.750000  1
  Si  Si14  1  0.606701  0.999968  0.250000  1
  P  P15  1  0.390982  0.000581  0.750000  1
