# generated using pymatgen
data_Dy5Y7Ru4
_symmetry_space_group_name_H-M   'P 1'
_cell_length_a   6.35465942
_cell_length_b   7.31448840
_cell_length_c   9.26284349
_cell_angle_alpha   89.98512059
_cell_angle_beta   90.03398061
_cell_angle_gamma   90.06888273
_symmetry_Int_Tables_number   1
_chemical_formula_structural   Dy5Y7Ru4
_chemical_formula_sum   'Dy5 Y7 Ru4'
_cell_volume   430.54659146
_cell_formula_units_Z   1
loop_
 _symmetry_equiv_pos_site_id
 _symmetry_equiv_pos_as_xyz
  1  'x, y, z'
loop_
 _atom_site_type_symbol
 _atom_site_label
 _atom_site_symmetry_multiplicity
 _atom_site_fract_x
 _atom_site_fract_y
 _atom_site_fract_z
 _atom_site_occupancy
  Dy  Dy0  1  0.171372  0.176272  0.065858  1
  Dy  Dy1  1  0.863843  0.542350  0.249951  1
  Dy  Dy2  1  0.635793  0.042513  0.249937  1
  Dy  Dy3  1  0.135892  0.457375  0.750226  1
  Dy  Dy4  1  0.364351  0.957347  0.750192  1
  Y  Y5  1  0.329096  0.676777  0.065135  1
  Y  Y6  1  0.171111  0.176654  0.434935  1
  Y  Y7  1  0.670902  0.323308  0.565108  1
  Y  Y8  1  0.829259  0.823270  0.934921  1
  Y  Y9  1  0.670695  0.323093  0.935041  1
  Y  Y10  1  0.829036  0.823375  0.565130  1
  Y  Y11  1  0.329015  0.676646  0.434968  1
  Ru  Ru12  1  0.035961  0.885818  0.248795  1
  Ru  Ru13  1  0.463441  0.383833  0.249192  1
  Ru  Ru14  1  0.965045  0.115677  0.750568  1
  Ru  Ru15  1  0.535187  0.615692  0.750044  1
