# generated using pymatgen
data_Er3Tm2Bi2Ru
_symmetry_space_group_name_H-M   'P 1'
_cell_length_a   7.88518200
_cell_length_b   8.95202400
_cell_length_c   12.40108800
_cell_angle_alpha   90.00000000
_cell_angle_beta   90.00000000
_cell_angle_gamma   90.00000000
_symmetry_Int_Tables_number   1
_chemical_formula_structural   Er3Tm2Bi2Ru
_chemical_formula_sum   'Er12 Tm8 Bi8 Ru4'
_cell_volume   875.37219762
_cell_formula_units_Z   4
loop_
 _symmetry_equiv_pos_site_id
 _symmetry_equiv_pos_as_xyz
  1  'x, y, z'
loop_
 _atom_site_type_symbol
 _atom_site_label
 _atom_site_symmetry_multiplicity
 _atom_site_fract_x
 _atom_site_fract_y
 _atom_site_fract_z
 _atom_site_occupancy
  Er  Er0  1  0.661082  0.750000  0.707806  1
  Er  Er1  1  0.338918  0.250000  0.292194  1
  Er  Er2  1  0.161082  0.250000  0.792194  1
  Er  Er3  1  0.838918  0.750000  0.207806  1
  Er  Er4  1  0.127864  0.750000  0.812664  1
  Er  Er5  1  0.872136  0.250000  0.187336  1
  Er  Er6  1  0.627864  0.250000  0.687336  1
  Er  Er7  1  0.372136  0.750000  0.312664  1
  Er  Er8  1  0.555042  0.750000  0.995146  1
  Er  Er9  1  0.444958  0.250000  0.004854  1
  Er  Er10  1  0.055042  0.250000  0.504854  1
  Er  Er11  1  0.944958  0.750000  0.495146  1
  Tm  Tm12  1  0.827762  0.458443  0.933681  1
  Tm  Tm13  1  0.172238  0.541557  0.066319  1
  Tm  Tm14  1  0.327762  0.541557  0.566319  1
  Tm  Tm15  1  0.172238  0.958443  0.066319  1
  Tm  Tm16  1  0.672238  0.458443  0.433681  1
  Tm  Tm17  1  0.827762  0.041557  0.933681  1
  Tm  Tm18  1  0.672238  0.041557  0.433681  1
  Tm  Tm19  1  0.327762  0.958443  0.566319  1
  Bi  Bi20  1  0.936602  0.005048  0.672789  1
  Bi  Bi21  1  0.063398  0.994952  0.327211  1
  Bi  Bi22  1  0.436602  0.994952  0.827211  1
  Bi  Bi23  1  0.063398  0.505048  0.327211  1
  Bi  Bi24  1  0.563398  0.005048  0.172789  1
  Bi  Bi25  1  0.936602  0.494952  0.672789  1
  Bi  Bi26  1  0.563398  0.494952  0.172789  1
  Bi  Bi27  1  0.436602  0.505048  0.827211  1
  Ru  Ru28  1  0.927686  0.750000  0.991445  1
  Ru  Ru29  1  0.072314  0.250000  0.008555  1
  Ru  Ru30  1  0.427686  0.250000  0.508555  1
  Ru  Ru31  1  0.572314  0.750000  0.491445  1
