# generated using pymatgen
data_Sc3Al12Fe3Ni
_symmetry_space_group_name_H-M   'P 1'
_cell_length_a   8.53473300
_cell_length_b   8.55347574
_cell_length_c   9.15078508
_cell_angle_alpha   89.69579103
_cell_angle_beta   90.00000000
_cell_angle_gamma   119.92754459
_symmetry_Int_Tables_number   1
_chemical_formula_structural   Sc3Al12Fe3Ni
_chemical_formula_sum   'Sc6 Al24 Fe6 Ni2'
_cell_volume   578.93529008
_cell_formula_units_Z   2
loop_
 _symmetry_equiv_pos_site_id
 _symmetry_equiv_pos_as_xyz
  1  'x, y, z'
loop_
 _atom_site_type_symbol
 _atom_site_label
 _atom_site_symmetry_multiplicity
 _atom_site_fract_x
 _atom_site_fract_y
 _atom_site_fract_z
 _atom_site_occupancy
  Sc  Sc0  1  0.803197  0.191540  0.747487  1
  Sc  Sc1  1  0.196803  0.808460  0.252513  1
  Sc  Sc2  1  0.388343  0.191540  0.747487  1
  Sc  Sc3  1  0.611657  0.808460  0.252513  1
  Sc  Sc4  1  0.807192  0.614384  0.746913  1
  Sc  Sc5  1  0.192808  0.385616  0.253087  1
  Al  Al6  1  0.665194  0.330387  0.975202  1
  Al  Al7  1  0.334806  0.669613  0.024798  1
  Al  Al8  1  0.333063  0.666126  0.475301  1
  Al  Al9  1  0.666937  0.333874  0.524699  1
  Al  Al10  1  0.838451  0.162479  0.425882  1
  Al  Al11  1  0.161549  0.837521  0.574118  1
  Al  Al12  1  0.324028  0.162479  0.425882  1
  Al  Al13  1  0.164312  0.842362  0.924050  1
  Al  Al14  1  0.675972  0.837521  0.574118  1
  Al  Al15  1  0.835688  0.157638  0.075950  1
  Al  Al16  1  0.838477  0.676953  0.424727  1
  Al  Al17  1  0.678049  0.842362  0.924050  1
  Al  Al18  1  0.161523  0.323047  0.575273  1
  Al  Al19  1  0.321951  0.157638  0.075950  1
  Al  Al20  1  0.160198  0.320396  0.923494  1
  Al  Al21  1  0.839802  0.679604  0.076506  1
  Al  Al22  1  0.443321  0.556224  0.748860  1
  Al  Al23  1  0.556679  0.443776  0.251140  1
  Al  Al24  1  0.112903  0.556224  0.748860  1
  Al  Al25  1  0.887097  0.443776  0.251140  1
  Al  Al26  1  0.443398  0.886796  0.750799  1
  Al  Al27  1  0.556602  0.113204  0.249201  1
  Al  Al28  1  0.999824  0.999648  0.749733  1
  Al  Al29  1  0.000176  0.000352  0.250267  1
  Fe  Fe30  1  0.500000  0.500000  0.500000  1
  Fe  Fe31  1  0.500000  0.000000  0.000000  1
  Fe  Fe32  1  0.000000  0.500000  0.500000  1
  Fe  Fe33  1  0.500000  0.000000  0.500000  1
  Fe  Fe34  1  0.000000  0.000000  0.000000  1
  Fe  Fe35  1  0.000000  0.000000  0.500000  1
  Ni  Ni36  1  0.500000  0.500000  0.000000  1
  Ni  Ni37  1  0.000000  0.500000  0.000000  1
