# generated using pymatgen
data_HoEr(BiO4)2
_symmetry_space_group_name_H-M   'P 1'
_cell_length_a   5.50536230
_cell_length_b   7.84953192
_cell_length_c   7.82115207
_cell_angle_alpha   83.15418201
_cell_angle_beta   90.56245434
_cell_angle_gamma   92.18129563
_symmetry_Int_Tables_number   1
_chemical_formula_structural   HoEr(BiO4)2
_chemical_formula_sum   'Ho2 Er2 Bi4 O16'
_cell_volume   335.32972238
_cell_formula_units_Z   2
loop_
 _symmetry_equiv_pos_site_id
 _symmetry_equiv_pos_as_xyz
  1  'x, y, z'
loop_
 _atom_site_type_symbol
 _atom_site_label
 _atom_site_symmetry_multiplicity
 _atom_site_fract_x
 _atom_site_fract_y
 _atom_site_fract_z
 _atom_site_occupancy
  Ho  Ho0  1  0.254548  0.125183  0.623579  1
  Ho  Ho1  1  0.745452  0.874817  0.376421  1
  Er  Er2  1  0.219467  0.150269  0.117493  1
  Er  Er3  1  0.780533  0.849731  0.882507  1
  Bi  Bi4  1  0.239744  0.663697  0.181308  1
  Bi  Bi5  1  0.760256  0.336303  0.818692  1
  Bi  Bi6  1  0.726469  0.336708  0.321589  1
  Bi  Bi7  1  0.273531  0.663292  0.678411  1
  O  O8  1  0.090309  0.417950  0.675866  1
  O  O9  1  0.909691  0.582050  0.324134  1
  O  O10  1  0.579798  0.319470  0.573095  1
  O  O11  1  0.420202  0.680530  0.426905  1
  O  O12  1  0.902329  0.327531  0.074852  1
  O  O13  1  0.097671  0.672469  0.925148  1
  O  O14  1  0.395112  0.417092  0.185445  1
  O  O15  1  0.604888  0.582908  0.814555  1
  O  O16  1  0.032946  0.895151  0.168396  1
  O  O17  1  0.967054  0.104849  0.831604  1
  O  O18  1  0.505454  0.101831  0.322012  1
  O  O19  1  0.494546  0.898169  0.677988  1
  O  O20  1  0.454587  0.179732  0.887908  1
  O  O21  1  0.545413  0.820268  0.112092  1
  O  O22  1  0.999922  0.157403  0.389237  1
  O  O23  1  0.000078  0.842597  0.610763  1
