# generated using pymatgen
data_Pr9Nd(GePb3)2
_symmetry_space_group_name_H-M   'P 1'
_cell_length_a   9.80205413
_cell_length_b   9.79933484
_cell_length_c   6.66980800
_cell_angle_alpha   90.00000000
_cell_angle_beta   90.00000000
_cell_angle_gamma   119.99083357
_symmetry_Int_Tables_number   1
_chemical_formula_structural   Pr9Nd(GePb3)2
_chemical_formula_sum   'Pr9 Nd1 Ge2 Pb6'
_cell_volume   554.87833082
_cell_formula_units_Z   1
loop_
 _symmetry_equiv_pos_site_id
 _symmetry_equiv_pos_as_xyz
  1  'x, y, z'
loop_
 _atom_site_type_symbol
 _atom_site_label
 _atom_site_symmetry_multiplicity
 _atom_site_fract_x
 _atom_site_fract_y
 _atom_site_fract_z
 _atom_site_occupancy
  Pr  Pr0  1  0.746944  0.746767  0.750000  1
  Pr  Pr1  1  0.253056  0.999824  0.750000  1
  Pr  Pr2  1  0.000000  0.253039  0.750000  1
  Pr  Pr3  1  0.253292  0.253218  0.250000  1
  Pr  Pr4  1  0.746708  0.999927  0.250000  1
  Pr  Pr5  1  0.666798  0.333498  0.000192  1
  Pr  Pr6  1  0.333202  0.666701  0.000192  1
  Pr  Pr7  1  0.333202  0.666701  0.499808  1
  Pr  Pr8  1  0.666798  0.333498  0.499808  1
  Nd  Nd9  1  0.000000  0.747911  0.250000  1
  Ge  Ge10  1  0.000000  0.999220  0.000976  1
  Ge  Ge11  1  0.000000  0.999220  0.499024  1
  Pb  Pb12  1  0.389757  0.389785  0.750000  1
  Pb  Pb13  1  0.610243  0.000028  0.750000  1
  Pb  Pb14  1  0.000000  0.610548  0.750000  1
  Pb  Pb15  1  0.611007  0.610486  0.250000  1
  Pb  Pb16  1  0.388993  0.999479  0.250000  1
  Pb  Pb17  1  0.000000  0.390148  0.250000  1
