# generated using pymatgen
data_Y6Al23V(CoOs3)2
_symmetry_space_group_name_H-M   'P 1'
_cell_length_a   8.82104000
_cell_length_b   8.82103974
_cell_length_c   9.45523200
_cell_angle_alpha   90.00000000
_cell_angle_beta   90.00000000
_cell_angle_gamma   119.99999349
_symmetry_Int_Tables_number   1
_chemical_formula_structural   Y6Al23V(CoOs3)2
_chemical_formula_sum   'Y6 Al23 V1 Co2 Os6'
_cell_volume   637.15107401
_cell_formula_units_Z   1
loop_
 _symmetry_equiv_pos_site_id
 _symmetry_equiv_pos_as_xyz
  1  'x, y, z'
loop_
 _atom_site_type_symbol
 _atom_site_label
 _atom_site_symmetry_multiplicity
 _atom_site_fract_x
 _atom_site_fract_y
 _atom_site_fract_z
 _atom_site_occupancy
  Y  Y0  1  0.195455  0.390911  0.247971  1
  Y  Y1  1  0.806258  0.612516  0.749877  1
  Y  Y2  1  0.609089  0.804545  0.247971  1
  Y  Y3  1  0.387484  0.193742  0.749877  1
  Y  Y4  1  0.195455  0.804545  0.247971  1
  Y  Y5  1  0.806258  0.193742  0.749877  1
  Al  Al6  1  0.666667  0.333333  0.982808  1
  Al  Al7  1  0.666667  0.333333  0.517848  1
  Al  Al8  1  0.333333  0.666667  0.484691  1
  Al  Al9  1  0.159011  0.318024  0.575181  1
  Al  Al10  1  0.840568  0.681135  0.425204  1
  Al  Al11  1  0.681976  0.840989  0.575181  1
  Al  Al12  1  0.839575  0.679149  0.076355  1
  Al  Al13  1  0.318865  0.159432  0.425204  1
  Al  Al14  1  0.157075  0.314150  0.925906  1
  Al  Al15  1  0.159011  0.840989  0.575181  1
  Al  Al16  1  0.320851  0.160425  0.076355  1
  Al  Al17  1  0.840568  0.159432  0.425204  1
  Al  Al18  1  0.685850  0.842925  0.925906  1
  Al  Al19  1  0.839575  0.160425  0.076355  1
  Al  Al20  1  0.157075  0.842925  0.925906  1
  Al  Al21  1  0.561171  0.122343  0.252669  1
  Al  Al22  1  0.441082  0.882164  0.749973  1
  Al  Al23  1  0.877657  0.438829  0.252669  1
  Al  Al24  1  0.117836  0.558918  0.749973  1
  Al  Al25  1  0.561171  0.438829  0.252669  1
  Al  Al26  1  0.441082  0.558918  0.749973  1
  Al  Al27  1  0.000000  0.000000  0.250335  1
  Al  Al28  1  0.000000  0.000000  0.749374  1
  V  V29  1  0.333333  0.666667  0.982009  1
  Co  Co30  1  0.000000  0.000000  0.001022  1
  Co  Co31  1  0.000000  0.000000  0.498973  1
  Os  Os32  1  0.494937  0.989874  0.005419  1
  Os  Os33  1  0.010126  0.505063  0.005419  1
  Os  Os34  1  0.499663  0.999326  0.502425  1
  Os  Os35  1  0.494937  0.505063  0.005419  1
  Os  Os36  1  0.000674  0.500337  0.502425  1
  Os  Os37  1  0.499663  0.500337  0.502425  1
