# generated using pymatgen
data_Nd8Sm12Si15Tc
_symmetry_space_group_name_H-M   'P 1'
_cell_length_a   7.88410734
_cell_length_b   7.82620595
_cell_length_c   14.62971200
_cell_angle_alpha   90.02034510
_cell_angle_beta   89.77399520
_cell_angle_gamma   90.30858696
_symmetry_Int_Tables_number   1
_chemical_formula_structural   Nd8Sm12Si15Tc
_chemical_formula_sum   'Nd8 Sm12 Si15 Tc1'
_cell_volume   902.67180031
_cell_formula_units_Z   1
loop_
 _symmetry_equiv_pos_site_id
 _symmetry_equiv_pos_as_xyz
  1  'x, y, z'
loop_
 _atom_site_type_symbol
 _atom_site_label
 _atom_site_symmetry_multiplicity
 _atom_site_fract_x
 _atom_site_fract_y
 _atom_site_fract_z
 _atom_site_occupancy
  Nd  Nd0  1  0.990565  0.633134  0.045292  1
  Nd  Nd1  1  0.009455  0.373631  0.542101  1
  Nd  Nd2  1  0.636136  0.989529  0.956800  1
  Nd  Nd3  1  0.134949  0.511405  0.794072  1
  Nd  Nd4  1  0.867602  0.491975  0.298483  1
  Nd  Nd5  1  0.510657  0.136129  0.205312  1
  Nd  Nd6  1  0.493729  0.865614  0.705510  1
  Nd  Nd7  1  0.364555  0.007342  0.456286  1
  Sm  Sm8  1  0.359421  0.494723  0.379586  1
  Sm  Sm9  1  0.868810  0.007348  0.375763  1
  Sm  Sm10  1  0.988105  0.134380  0.124197  1
  Sm  Sm11  1  0.016536  0.863595  0.619703  1
  Sm  Sm12  1  0.634044  0.513527  0.876252  1
  Sm  Sm13  1  0.492645  0.365263  0.625455  1
  Sm  Sm14  1  0.510502  0.635021  0.124529  1
  Sm  Sm15  1  0.130845  0.987732  0.874874  1
  Sm  Sm16  1  0.694468  0.684506  0.497323  1
  Sm  Sm17  1  0.816644  0.183080  0.747489  1
  Sm  Sm18  1  0.179328  0.808685  0.256781  1
  Sm  Sm19  1  0.309691  0.311406  0.998322  1
  Si  Si20  1  0.927583  0.291222  0.938481  1
  Si  Si21  1  0.705263  0.070461  0.559537  1
  Si  Si22  1  0.211858  0.427472  0.189838  1
  Si  Si23  1  0.792248  0.571283  0.691063  1
  Si  Si24  1  0.431326  0.209212  0.809999  1
  Si  Si25  1  0.567267  0.793344  0.308654  1
  Si  Si26  1  0.291066  0.930965  0.060616  1
  Si  Si27  1  0.844091  0.795740  0.807487  1
  Si  Si28  1  0.160516  0.203462  0.305467  1
  Si  Si29  1  0.791891  0.844047  0.191200  1
  Si  Si30  1  0.300861  0.657049  0.560956  1
  Si  Si31  1  0.700751  0.341045  0.055446  1
  Si  Si32  1  0.653298  0.292941  0.441558  1
  Si  Si33  1  0.339816  0.704061  0.943626  1
  Si  Si34  1  0.205648  0.160820  0.692784  1
  Tc  Tc35  1  0.067826  0.708853  0.439161  1
