# generated using pymatgen
data_Ac2SiCO7
_symmetry_space_group_name_H-M   'P 1'
_cell_length_a   6.87341093
_cell_length_b   6.92286520
_cell_length_c   7.11039500
_cell_angle_alpha   95.99922223
_cell_angle_beta   116.63686564
_cell_angle_gamma   91.45477204
_symmetry_Int_Tables_number   1
_chemical_formula_structural   Ac2SiCO7
_chemical_formula_sum   'Ac4 Si2 C2 O14'
_cell_volume   299.77840686
_cell_formula_units_Z   2
loop_
 _symmetry_equiv_pos_site_id
 _symmetry_equiv_pos_as_xyz
  1  'x, y, z'
loop_
 _atom_site_type_symbol
 _atom_site_label
 _atom_site_symmetry_multiplicity
 _atom_site_fract_x
 _atom_site_fract_y
 _atom_site_fract_z
 _atom_site_occupancy
  Ac  Ac0  1  0.281212  0.640971  0.215409  1
  Ac  Ac1  1  0.240812  0.903870  0.715300  1
  Ac  Ac2  1  0.718788  0.359029  0.784591  1
  Ac  Ac3  1  0.759188  0.096130  0.284700  1
  Si  Si4  1  0.258330  0.148846  0.230160  1
  Si  Si5  1  0.741670  0.851154  0.769840  1
  C  C6  1  0.806227  0.599425  0.265142  1
  C  C7  1  0.193773  0.400575  0.734858  1
  O  O8  1  0.150452  0.022822  0.348874  1
  O  O9  1  0.332294  0.274052  0.748823  1
  O  O10  1  0.266492  0.572452  0.841210  1
  O  O11  1  0.012692  0.643987  0.381083  1
  O  O12  1  0.514001  0.715637  0.606643  1
  O  O13  1  0.657175  0.016792  0.898135  1
  O  O14  1  0.987308  0.356013  0.618917  1
  O  O15  1  0.342825  0.983208  0.101865  1
  O  O16  1  0.094047  0.296488  0.079260  1
  O  O17  1  0.849548  0.977178  0.651126  1
  O  O18  1  0.733508  0.427548  0.158790  1
  O  O19  1  0.905953  0.703512  0.920740  1
  O  O20  1  0.667706  0.725948  0.251177  1
  O  O21  1  0.485999  0.284363  0.393357  1
