# generated using pymatgen
data_Ce6MgCo17P12
_symmetry_space_group_name_H-M   'P 1'
_cell_length_a   3.77124400
_cell_length_b   10.56946100
_cell_length_c   12.38992900
_cell_angle_alpha   90.00000000
_cell_angle_beta   90.00000000
_cell_angle_gamma   90.00000000
_symmetry_Int_Tables_number   1
_chemical_formula_structural   Ce6MgCo17P12
_chemical_formula_sum   'Ce6 Mg1 Co17 P12'
_cell_volume   493.86277288
_cell_formula_units_Z   1
loop_
 _symmetry_equiv_pos_site_id
 _symmetry_equiv_pos_as_xyz
  1  'x, y, z'
loop_
 _atom_site_type_symbol
 _atom_site_label
 _atom_site_symmetry_multiplicity
 _atom_site_fract_x
 _atom_site_fract_y
 _atom_site_fract_z
 _atom_site_occupancy
  Ce  Ce0  1  0.000000  0.500000  0.526543  1
  Ce  Ce1  1  0.500000  0.000000  0.476959  1
  Ce  Ce2  1  0.500000  0.819394  0.208987  1
  Ce  Ce3  1  0.500000  0.180606  0.208987  1
  Ce  Ce4  1  0.000000  0.682711  0.793982  1
  Ce  Ce5  1  0.000000  0.317289  0.793982  1
  Mg  Mg6  1  0.500000  0.500000  0.151544  1
  Co  Co7  1  0.000000  0.000000  0.838156  1
  Co  Co8  1  0.500000  0.500000  0.703587  1
  Co  Co9  1  0.000000  0.000000  0.296338  1
  Co  Co10  1  0.000000  0.500000  0.985599  1
  Co  Co11  1  0.500000  0.000000  0.014369  1
  Co  Co12  1  0.500000  0.328394  0.993219  1
  Co  Co13  1  0.500000  0.671606  0.993219  1
  Co  Co14  1  0.000000  0.162370  0.000838  1
  Co  Co15  1  0.000000  0.837630  0.000838  1
  Co  Co16  1  0.500000  0.298125  0.432686  1
  Co  Co17  1  0.500000  0.701875  0.432686  1
  Co  Co18  1  0.000000  0.199833  0.570742  1
  Co  Co19  1  0.000000  0.800167  0.570742  1
  Co  Co20  1  0.500000  0.880527  0.710466  1
  Co  Co21  1  0.500000  0.119473  0.710466  1
  Co  Co22  1  0.000000  0.623386  0.293051  1
  Co  Co23  1  0.000000  0.376614  0.293051  1
  P  P24  1  0.500000  0.500000  0.886090  1
  P  P25  1  0.000000  0.000000  0.113793  1
  P  P26  1  0.500000  0.500000  0.351138  1
  P  P27  1  0.000000  0.000000  0.657721  1
  P  P28  1  0.500000  0.306103  0.614663  1
  P  P29  1  0.500000  0.693897  0.614663  1
  P  P30  1  0.000000  0.192512  0.388271  1
  P  P31  1  0.000000  0.807488  0.388271  1
  P  P32  1  0.500000  0.851166  0.892248  1
  P  P33  1  0.500000  0.148834  0.892248  1
  P  P34  1  0.000000  0.661675  0.099929  1
  P  P35  1  0.000000  0.338325  0.099929  1
