# generated using pymatgen
data_HoLu5Si2Os
_symmetry_space_group_name_H-M   'P 1'
_cell_length_a   7.56563700
_cell_length_b   7.55935301
_cell_length_c   4.28644700
_cell_angle_alpha   90.00000000
_cell_angle_beta   90.00000000
_cell_angle_gamma   120.02749816
_symmetry_Int_Tables_number   1
_chemical_formula_structural   HoLu5Si2Os
_chemical_formula_sum   'Ho1 Lu5 Si2 Os1'
_cell_volume   212.24516791
_cell_formula_units_Z   1
loop_
 _symmetry_equiv_pos_site_id
 _symmetry_equiv_pos_as_xyz
  1  'x, y, z'
loop_
 _atom_site_type_symbol
 _atom_site_label
 _atom_site_symmetry_multiplicity
 _atom_site_fract_x
 _atom_site_fract_y
 _atom_site_fract_z
 _atom_site_occupancy
  Ho  Ho0  1  0.402459  0.000000  0.000000  1
  Lu  Lu1  1  0.000223  0.401148  0.000000  1
  Lu  Lu2  1  0.599075  0.598852  0.000000  1
  Lu  Lu3  1  0.748695  0.000000  0.499999  1
  Lu  Lu4  1  0.251659  0.252729  0.499999  1
  Lu  Lu5  1  0.998930  0.747271  0.499999  1
  Si  Si6  1  0.667501  0.334700  0.499999  1
  Si  Si7  1  0.332802  0.665301  0.499999  1
  Os  Os8  1  0.998656  0.000000  0.000000  1
