# generated using pymatgen
data_Er5Tm4Mg(Ni2Sb)2
_symmetry_space_group_name_H-M   'P 1'
_cell_length_a   8.54365443
_cell_length_b   8.54672092
_cell_length_c   8.54335090
_cell_angle_alpha   128.40582696
_cell_angle_beta   128.38436019
_cell_angle_gamma   76.01020586
_symmetry_Int_Tables_number   1
_chemical_formula_structural   Er5Tm4Mg(Ni2Sb)2
_chemical_formula_sum   'Er5 Tm4 Mg1 Ni4 Sb2'
_cell_volume   372.52034635
_cell_formula_units_Z   1
loop_
 _symmetry_equiv_pos_site_id
 _symmetry_equiv_pos_as_xyz
  1  'x, y, z'
loop_
 _atom_site_type_symbol
 _atom_site_label
 _atom_site_symmetry_multiplicity
 _atom_site_fract_x
 _atom_site_fract_y
 _atom_site_fract_z
 _atom_site_occupancy
  Er  Er0  1  0.286301  0.462581  0.483880  1
  Er  Er1  1  0.021326  0.197655  0.484228  1
  Er  Er2  1  0.537341  0.021435  0.823725  1
  Er  Er3  1  0.713631  0.537115  0.515942  1
  Er  Er4  1  0.978663  0.802301  0.515821  1
  Tm  Tm5  1  0.499936  0.500258  0.000082  1
  Tm  Tm6  1  0.801972  0.286142  0.823558  1
  Tm  Tm7  1  0.197947  0.713883  0.176172  1
  Tm  Tm8  1  0.462419  0.978371  0.176738  1
  Mg  Mg9  1  0.000185  0.000026  0.000068  1
  Ni  Ni10  1  0.132339  0.623985  0.756269  1
  Ni  Ni11  1  0.868012  0.376386  0.244137  1
  Ni  Ni12  1  0.623415  0.868400  0.491478  1
  Ni  Ni13  1  0.376565  0.131614  0.507874  1
  Sb  Sb14  1  0.257510  0.257625  0.000039  1
  Sb  Sb15  1  0.742437  0.742223  0.999989  1
