# generated using pymatgen
data_Ce8Be3Si12Os
_symmetry_space_group_name_H-M   'P 1'
_cell_length_a   8.01968200
_cell_length_b   8.01968207
_cell_length_c   8.34676900
_cell_angle_alpha   90.00000000
_cell_angle_beta   90.00000000
_cell_angle_gamma   119.99999146
_symmetry_Int_Tables_number   1
_chemical_formula_structural   Ce8Be3Si12Os
_chemical_formula_sum   'Ce8 Be3 Si12 Os1'
_cell_volume   464.90408560
_cell_formula_units_Z   1
loop_
 _symmetry_equiv_pos_site_id
 _symmetry_equiv_pos_as_xyz
  1  'x, y, z'
loop_
 _atom_site_type_symbol
 _atom_site_label
 _atom_site_symmetry_multiplicity
 _atom_site_fract_x
 _atom_site_fract_y
 _atom_site_fract_z
 _atom_site_occupancy
  Ce  Ce0  1  0.000000  0.000000  0.250963  1
  Ce  Ce1  1  0.000000  0.000000  0.748971  1
  Ce  Ce2  1  0.497544  0.502456  0.246269  1
  Ce  Ce3  1  0.497544  0.995088  0.246269  1
  Ce  Ce4  1  0.004912  0.502456  0.246269  1
  Ce  Ce5  1  0.497388  0.502612  0.753719  1
  Ce  Ce6  1  0.497388  0.994776  0.753719  1
  Ce  Ce7  1  0.005224  0.502612  0.753719  1
  Be  Be8  1  0.333333  0.666667  0.498958  1
  Be  Be9  1  0.666667  0.333333  0.500808  1
  Be  Be10  1  0.666667  0.333333  0.999859  1
  Si  Si11  1  0.172242  0.827758  0.499723  1
  Si  Si12  1  0.172242  0.344483  0.499723  1
  Si  Si13  1  0.655517  0.827758  0.499723  1
  Si  Si14  1  0.827083  0.172917  0.499965  1
  Si  Si15  1  0.827083  0.654165  0.499965  1
  Si  Si16  1  0.345835  0.172917  0.499965  1
  Si  Si17  1  0.827367  0.172633  0.000091  1
  Si  Si18  1  0.827367  0.654732  0.000091  1
  Si  Si19  1  0.345268  0.172633  0.000091  1
  Si  Si20  1  0.163628  0.836372  0.000074  1
  Si  Si21  1  0.163628  0.327258  0.000074  1
  Si  Si22  1  0.672742  0.836372  0.000074  1
  Os  Os23  1  0.333333  0.666667  0.000921  1
