# generated using pymatgen
data_CaDy5Hf4(Si5Ir2)4
_symmetry_space_group_name_H-M   'P 1'
_cell_length_a   12.50914100
_cell_length_b   12.50914100
_cell_length_c   4.19177800
_cell_angle_alpha   90.00000000
_cell_angle_beta   90.00000000
_cell_angle_gamma   90.00000000
_symmetry_Int_Tables_number   1
_chemical_formula_structural   CaDy5Hf4(Si5Ir2)4
_chemical_formula_sum   'Ca1 Dy5 Hf4 Si20 Ir8'
_cell_volume   655.92358882
_cell_formula_units_Z   1
loop_
 _symmetry_equiv_pos_site_id
 _symmetry_equiv_pos_as_xyz
  1  'x, y, z'
loop_
 _atom_site_type_symbol
 _atom_site_label
 _atom_site_symmetry_multiplicity
 _atom_site_fract_x
 _atom_site_fract_y
 _atom_site_fract_z
 _atom_site_occupancy
  Ca  Ca0  1  0.500000  0.500000  0.000000  1
  Dy  Dy1  1  0.000000  0.000000  0.000000  1
  Dy  Dy2  1  0.884260  0.384539  0.500000  1
  Dy  Dy3  1  0.115740  0.615461  0.500000  1
  Dy  Dy4  1  0.384539  0.115740  0.500000  1
  Dy  Dy5  1  0.615461  0.884260  0.500000  1
  Hf  Hf6  1  0.673361  0.174051  0.500000  1
  Hf  Hf7  1  0.326639  0.825949  0.500000  1
  Hf  Hf8  1  0.174051  0.326639  0.500000  1
  Hf  Hf9  1  0.825949  0.673361  0.500000  1
  Si  Si10  1  0.567201  0.066980  0.000000  1
  Si  Si11  1  0.432799  0.933020  0.000000  1
  Si  Si12  1  0.066980  0.432799  0.000000  1
  Si  Si13  1  0.933020  0.567201  0.000000  1
  Si  Si14  1  0.664009  0.698666  0.000000  1
  Si  Si15  1  0.335991  0.301334  0.000000  1
  Si  Si16  1  0.165799  0.799430  0.000000  1
  Si  Si17  1  0.834201  0.200570  0.000000  1
  Si  Si18  1  0.301334  0.664009  0.000000  1
  Si  Si19  1  0.698666  0.335991  0.000000  1
  Si  Si20  1  0.200570  0.165799  0.000000  1
  Si  Si21  1  0.799430  0.834201  0.000000  1
  Si  Si22  1  0.655580  0.507762  0.500000  1
  Si  Si23  1  0.344420  0.492238  0.500000  1
  Si  Si24  1  0.157429  0.992421  0.500000  1
  Si  Si25  1  0.842571  0.007579  0.500000  1
  Si  Si26  1  0.492238  0.655580  0.500000  1
  Si  Si27  1  0.507762  0.344420  0.500000  1
  Si  Si28  1  0.007579  0.157429  0.500000  1
  Si  Si29  1  0.992421  0.842571  0.500000  1
  Ir  Ir30  1  0.747020  0.521408  0.000000  1
  Ir  Ir31  1  0.252980  0.478592  0.000000  1
  Ir  Ir32  1  0.246018  0.978693  0.000000  1
  Ir  Ir33  1  0.753982  0.021307  0.000000  1
  Ir  Ir34  1  0.478592  0.747020  0.000000  1
  Ir  Ir35  1  0.521408  0.252980  0.000000  1
  Ir  Ir36  1  0.021307  0.246018  0.000000  1
  Ir  Ir37  1  0.978693  0.753982  0.000000  1
