# generated using pymatgen
data_Hf9Zn(ReMo)2
_symmetry_space_group_name_H-M   'P 1'
_cell_length_a   8.65471000
_cell_length_b   8.66348991
_cell_length_c   8.62283100
_cell_angle_alpha   90.00000000
_cell_angle_beta   90.00000000
_cell_angle_gamma   119.96393485
_symmetry_Int_Tables_number   1
_chemical_formula_structural   Hf9Zn(ReMo)2
_chemical_formula_sum   'Hf18 Zn2 Re4 Mo4'
_cell_volume   560.12326955
_cell_formula_units_Z   2
loop_
 _symmetry_equiv_pos_site_id
 _symmetry_equiv_pos_as_xyz
  1  'x, y, z'
loop_
 _atom_site_type_symbol
 _atom_site_label
 _atom_site_symmetry_multiplicity
 _atom_site_fract_x
 _atom_site_fract_y
 _atom_site_fract_z
 _atom_site_occupancy
  Hf  Hf0  1  0.804375  0.608754  0.546573  1
  Hf  Hf1  1  0.804549  0.195287  0.546456  1
  Hf  Hf2  1  0.390685  0.195263  0.546472  1
  Hf  Hf3  1  0.194215  0.388411  0.449659  1
  Hf  Hf4  1  0.194904  0.805730  0.450427  1
  Hf  Hf5  1  0.610883  0.805763  0.450420  1
  Hf  Hf6  1  0.194215  0.388411  0.050341  1
  Hf  Hf7  1  0.194904  0.805730  0.049573  1
  Hf  Hf8  1  0.610883  0.805763  0.049580  1
  Hf  Hf9  1  0.804375  0.608754  0.953427  1
  Hf  Hf10  1  0.804549  0.195287  0.953544  1
  Hf  Hf11  1  0.390685  0.195263  0.953528  1
  Hf  Hf12  1  0.460747  0.921510  0.750000  1
  Hf  Hf13  1  0.460330  0.539083  0.750000  1
  Hf  Hf14  1  0.078694  0.539055  0.750000  1
  Hf  Hf15  1  0.539750  0.079510  0.250000  1
  Hf  Hf16  1  0.538426  0.459093  0.250000  1
  Hf  Hf17  1  0.920694  0.459110  0.250000  1
  Zn  Zn18  1  0.666491  0.333021  0.750000  1
  Zn  Zn19  1  0.333189  0.666326  0.250000  1
  Re  Re20  1  0.889757  0.111520  0.250000  1
  Re  Re21  1  0.221772  0.111490  0.250000  1
  Re  Re22  1  0.000062  0.000122  0.500363  1
  Re  Re23  1  0.000062  0.000122  0.999637  1
  Mo  Mo24  1  0.110519  0.221086  0.750000  1
  Mo  Mo25  1  0.111006  0.889754  0.750000  1
  Mo  Mo26  1  0.778748  0.889761  0.750000  1
  Mo  Mo27  1  0.890533  0.781020  0.250000  1
