# generated using pymatgen
data_Yb5Th2Co4Sn13
_symmetry_space_group_name_H-M   'P 1'
_cell_length_a   11.16546308
_cell_length_b   11.19786901
_cell_length_c   4.61724700
_cell_angle_alpha   90.00000000
_cell_angle_beta   90.00000000
_cell_angle_gamma   89.60316919
_symmetry_Int_Tables_number   1
_chemical_formula_structural   Yb5Th2Co4Sn13
_chemical_formula_sum   'Yb5 Th2 Co4 Sn13'
_cell_volume   577.27774385
_cell_formula_units_Z   1
loop_
 _symmetry_equiv_pos_site_id
 _symmetry_equiv_pos_as_xyz
  1  'x, y, z'
loop_
 _atom_site_type_symbol
 _atom_site_label
 _atom_site_symmetry_multiplicity
 _atom_site_fract_x
 _atom_site_fract_y
 _atom_site_fract_z
 _atom_site_occupancy
  Yb  Yb0  1  0.338262  0.670493  0.500000  1
  Yb  Yb1  1  0.661738  0.329507  0.500000  1
  Yb  Yb2  1  0.329067  0.339231  0.500000  1
  Yb  Yb3  1  0.670933  0.660769  0.500000  1
  Yb  Yb4  1  0.000000  0.500000  0.500000  1
  Th  Th5  1  0.000000  0.000000  0.000000  1
  Th  Th6  1  0.500000  0.000000  0.500000  1
  Co  Co7  1  0.118197  0.727304  0.000000  1
  Co  Co8  1  0.881803  0.272696  0.000000  1
  Co  Co9  1  0.277104  0.114830  0.000000  1
  Co  Co10  1  0.722896  0.885170  0.000000  1
  Sn  Sn11  1  0.286693  0.885545  0.000000  1
  Sn  Sn12  1  0.713307  0.114455  0.000000  1
  Sn  Sn13  1  0.113930  0.284158  0.000000  1
  Sn  Sn14  1  0.886070  0.715842  0.000000  1
  Sn  Sn15  1  0.077812  0.802222  0.500000  1
  Sn  Sn16  1  0.922188  0.197778  0.500000  1
  Sn  Sn17  1  0.197609  0.078151  0.500000  1
  Sn  Sn18  1  0.802391  0.921849  0.500000  1
  Sn  Sn19  1  0.522530  0.783932  0.000000  1
  Sn  Sn20  1  0.477470  0.216068  0.000000  1
  Sn  Sn21  1  0.214177  0.522398  0.000000  1
  Sn  Sn22  1  0.785823  0.477602  0.000000  1
  Sn  Sn23  1  0.500000  0.500000  0.000000  1
