# generated using pymatgen
data_Sc8Re3Si16Mo9
_symmetry_space_group_name_H-M   'P 1'
_cell_length_a   6.52341179
_cell_length_b   6.79769172
_cell_length_c   12.61340300
_cell_angle_alpha   90.00000000
_cell_angle_beta   90.00000000
_cell_angle_gamma   90.05231626
_symmetry_Int_Tables_number   1
_chemical_formula_structural   Sc8Re3Si16Mo9
_chemical_formula_sum   'Sc8 Re3 Si16 Mo9'
_cell_volume   559.33030422
_cell_formula_units_Z   1
loop_
 _symmetry_equiv_pos_site_id
 _symmetry_equiv_pos_as_xyz
  1  'x, y, z'
loop_
 _atom_site_type_symbol
 _atom_site_label
 _atom_site_symmetry_multiplicity
 _atom_site_fract_x
 _atom_site_fract_y
 _atom_site_fract_z
 _atom_site_occupancy
  Sc  Sc0  1  0.497086  0.331132  0.092255  1
  Sc  Sc1  1  0.994229  0.169395  0.408162  1
  Sc  Sc2  1  0.505900  0.669992  0.592074  1
  Sc  Sc3  1  0.005651  0.830782  0.908313  1
  Sc  Sc4  1  0.505900  0.669992  0.907926  1
  Sc  Sc5  1  0.005651  0.830782  0.591687  1
  Sc  Sc6  1  0.497086  0.331132  0.407745  1
  Sc  Sc7  1  0.994229  0.169395  0.091838  1
  Re  Re8  1  0.667629  0.981557  0.750000  1
  Re  Re9  1  0.168102  0.518278  0.750000  1
  Re  Re10  1  0.333078  0.013020  0.250000  1
  Si  Si11  1  0.663181  0.038038  0.546375  1
  Si  Si12  1  0.163526  0.462142  0.953213  1
  Si  Si13  1  0.336067  0.961985  0.046130  1
  Si  Si14  1  0.836123  0.537714  0.455715  1
  Si  Si15  1  0.336067  0.961985  0.453870  1
  Si  Si16  1  0.836123  0.537714  0.044285  1
  Si  Si17  1  0.663181  0.038038  0.953625  1
  Si  Si18  1  0.163526  0.462142  0.546787  1
  Si  Si19  1  0.525789  0.376007  0.750000  1
  Si  Si20  1  0.026630  0.123423  0.750000  1
  Si  Si21  1  0.469977  0.625057  0.250000  1
  Si  Si22  1  0.972389  0.875794  0.250000  1
  Si  Si23  1  0.803597  0.640821  0.750000  1
  Si  Si24  1  0.303176  0.859600  0.750000  1
  Si  Si25  1  0.199706  0.357708  0.250000  1
  Si  Si26  1  0.696592  0.139459  0.250000  1
  Mo  Mo27  1  0.826163  0.337263  0.625585  1
  Mo  Mo28  1  0.326197  0.162214  0.875489  1
  Mo  Mo29  1  0.172398  0.662500  0.123539  1
  Mo  Mo30  1  0.672894  0.836587  0.376404  1
  Mo  Mo31  1  0.172398  0.662500  0.376461  1
  Mo  Mo32  1  0.672894  0.836587  0.123596  1
  Mo  Mo33  1  0.826163  0.337263  0.874415  1
  Mo  Mo34  1  0.326197  0.162214  0.624511  1
  Mo  Mo35  1  0.834503  0.489783  0.250000  1
