# generated using pymatgen
data_Hf20Ni4As7P5
_symmetry_space_group_name_H-M   'P 1'
_cell_length_a   3.63898300
_cell_length_b   10.29588034
_cell_length_c   17.32683057
_cell_angle_alpha   90.02954216
_cell_angle_beta   90.00000000
_cell_angle_gamma   90.00000000
_symmetry_Int_Tables_number   1
_chemical_formula_structural   Hf20Ni4As7P5
_chemical_formula_sum   'Hf20 Ni4 As7 P5'
_cell_volume   649.17619253
_cell_formula_units_Z   1
loop_
 _symmetry_equiv_pos_site_id
 _symmetry_equiv_pos_as_xyz
  1  'x, y, z'
loop_
 _atom_site_type_symbol
 _atom_site_label
 _atom_site_symmetry_multiplicity
 _atom_site_fract_x
 _atom_site_fract_y
 _atom_site_fract_z
 _atom_site_occupancy
  Hf  Hf0  1  0.250000  0.124945  0.478512  1
  Hf  Hf1  1  0.750000  0.875527  0.520891  1
  Hf  Hf2  1  0.750000  0.621626  0.024628  1
  Hf  Hf3  1  0.250000  0.376832  0.980547  1
  Hf  Hf4  1  0.250000  0.063214  0.075963  1
  Hf  Hf5  1  0.750000  0.936288  0.924638  1
  Hf  Hf6  1  0.750000  0.562927  0.423202  1
  Hf  Hf7  1  0.250000  0.436772  0.576106  1
  Hf  Hf8  1  0.250000  0.486799  0.270414  1
  Hf  Hf9  1  0.750000  0.512702  0.725881  1
  Hf  Hf10  1  0.750000  0.986826  0.225099  1
  Hf  Hf11  1  0.250000  0.012376  0.775204  1
  Hf  Hf12  1  0.250000  0.813446  0.371395  1
  Hf  Hf13  1  0.750000  0.186871  0.627973  1
  Hf  Hf14  1  0.750000  0.320407  0.128153  1
  Hf  Hf15  1  0.250000  0.686393  0.872886  1
  Hf  Hf16  1  0.250000  0.755719  0.165980  1
  Hf  Hf17  1  0.750000  0.239304  0.833957  1
  Hf  Hf18  1  0.750000  0.261177  0.332424  1
  Hf  Hf19  1  0.250000  0.739056  0.666787  1
  Ni  Ni20  1  0.250000  0.369306  0.415510  1
  Ni  Ni21  1  0.750000  0.631662  0.583199  1
  Ni  Ni22  1  0.750000  0.868912  0.084112  1
  Ni  Ni23  1  0.250000  0.131416  0.917312  1
  As  As24  1  0.750000  0.490026  0.883105  1
  As  As25  1  0.750000  0.010469  0.381447  1
  As  As26  1  0.250000  0.989726  0.618140  1
  As  As27  1  0.250000  0.190857  0.219108  1
  As  As28  1  0.750000  0.809495  0.780185  1
  As  As29  1  0.750000  0.689036  0.279553  1
  As  As30  1  0.250000  0.310020  0.720613  1
  P  P31  1  0.250000  0.811515  0.010142  1
  P  P32  1  0.750000  0.188351  0.991381  1
  P  P33  1  0.750000  0.313321  0.489984  1
  P  P34  1  0.250000  0.686935  0.509000  1
  P  P35  1  0.250000  0.509747  0.116571  1
