# generated using pymatgen
data_La5Pr4SmC4I15
_symmetry_space_group_name_H-M   'P 1'
_cell_length_a   9.88284525
_cell_length_b   10.78963145
_cell_length_c   11.91703911
_cell_angle_alpha   93.55884773
_cell_angle_beta   114.41689056
_cell_angle_gamma   109.32890678
_symmetry_Int_Tables_number   1
_chemical_formula_structural   La5Pr4SmC4I15
_chemical_formula_sum   'La5 Pr4 Sm1 C4 I15'
_cell_volume   1062.21225422
_cell_formula_units_Z   1
loop_
 _symmetry_equiv_pos_site_id
 _symmetry_equiv_pos_as_xyz
  1  'x, y, z'
loop_
 _atom_site_type_symbol
 _atom_site_label
 _atom_site_symmetry_multiplicity
 _atom_site_fract_x
 _atom_site_fract_y
 _atom_site_fract_z
 _atom_site_occupancy
  La  La0  1  0.399730  0.456770  0.653632  1
  La  La1  1  0.471236  0.816209  0.897539  1
  La  La2  1  0.706373  0.568598  0.045705  1
  La  La3  1  0.294232  0.432211  0.956257  1
  La  La4  1  0.659108  0.253887  0.835509  1
  Pr  Pr5  1  0.345081  0.745812  0.164248  1
  Pr  Pr6  1  0.776207  0.882516  0.257890  1
  Pr  Pr7  1  0.527681  0.187316  0.101501  1
  Pr  Pr8  1  0.225240  0.116121  0.745771  1
  Sm  Sm9  1  0.595917  0.543705  0.337398  1
  C  C10  1  0.483992  0.302789  0.937466  1
  C  C11  1  0.517955  0.699135  0.061882  1
  C  C12  1  0.453563  0.362620  0.832994  1
  C  C13  1  0.546681  0.636541  0.164498  1
  I  I14  1  0.206806  0.908704  0.940453  1
  I  I15  1  0.101236  0.183597  0.470197  1
  I  I16  1  0.150310  0.556002  0.703370  1
  I  I17  1  0.403552  0.969424  0.646193  1
  I  I18  1  0.712885  0.734023  0.820481  1
  I  I19  1  0.293718  0.270229  0.183873  1
  I  I20  1  0.842614  0.444119  0.299409  1
  I  I21  1  0.888933  0.805426  0.527943  1
  I  I22  1  0.363765  0.629395  0.410225  1
  I  I23  1  0.053470  0.833256  0.221351  1
  I  I24  1  0.794560  0.095371  0.067196  1
  I  I25  1  0.642456  0.370850  0.585200  1
  I  I26  1  0.946715  0.164764  0.780685  1
  I  I27  1  0.593004  0.028848  0.349257  1
  I  I28  1  0.002982  0.501761  0.001879  1
