# generated using pymatgen
data_Tb12Tc2IrPd
_symmetry_space_group_name_H-M   'P 1'
_cell_length_a   6.39617403
_cell_length_b   7.35268574
_cell_length_c   9.28713500
_cell_angle_alpha   90.00000000
_cell_angle_beta   90.00000000
_cell_angle_gamma   90.16238343
_symmetry_Int_Tables_number   1
_chemical_formula_structural   Tb12Tc2IrPd
_chemical_formula_sum   'Tb12 Tc2 Ir1 Pd1'
_cell_volume   436.76345283
_cell_formula_units_Z   1
loop_
 _symmetry_equiv_pos_site_id
 _symmetry_equiv_pos_as_xyz
  1  'x, y, z'
loop_
 _atom_site_type_symbol
 _atom_site_label
 _atom_site_symmetry_multiplicity
 _atom_site_fract_x
 _atom_site_fract_y
 _atom_site_fract_z
 _atom_site_occupancy
  Tb  Tb0  1  0.335023  0.673211  0.062120  1
  Tb  Tb1  1  0.169365  0.183383  0.441685  1
  Tb  Tb2  1  0.669600  0.320281  0.562696  1
  Tb  Tb3  1  0.826336  0.822661  0.931911  1
  Tb  Tb4  1  0.669600  0.320281  0.937304  1
  Tb  Tb5  1  0.826336  0.822661  0.568089  1
  Tb  Tb6  1  0.335023  0.673211  0.437880  1
  Tb  Tb7  1  0.169365  0.183383  0.058315  1
  Tb  Tb8  1  0.867539  0.532917  0.250000  1
  Tb  Tb9  1  0.625726  0.041536  0.250000  1
  Tb  Tb10  1  0.132077  0.462270  0.750000  1
  Tb  Tb11  1  0.367208  0.960913  0.750000  1
  Tc  Tc12  1  0.454676  0.388128  0.250000  1
  Tc  Tc13  1  0.959394  0.111662  0.750000  1
  Ir  Ir14  1  0.543382  0.615461  0.750000  1
  Pd  Pd15  1  0.049353  0.888039  0.250000  1
