# generated using pymatgen
data_Pr8Tm11Si16Hg
_symmetry_space_group_name_H-M   'P 1'
_cell_length_a   7.41464408
_cell_length_b   7.76247630
_cell_length_c   14.72255500
_cell_angle_alpha   90.00000000
_cell_angle_beta   90.00000000
_cell_angle_gamma   90.03750487
_symmetry_Int_Tables_number   1
_chemical_formula_structural   Pr8Tm11Si16Hg
_chemical_formula_sum   'Pr8 Tm11 Si16 Hg1'
_cell_volume   847.37117872
_cell_formula_units_Z   1
loop_
 _symmetry_equiv_pos_site_id
 _symmetry_equiv_pos_as_xyz
  1  'x, y, z'
loop_
 _atom_site_type_symbol
 _atom_site_label
 _atom_site_symmetry_multiplicity
 _atom_site_fract_x
 _atom_site_fract_y
 _atom_site_fract_z
 _atom_site_occupancy
  Pr  Pr0  1  0.016881  0.175684  0.402619  1
  Pr  Pr1  1  0.514631  0.326283  0.402756  1
  Pr  Pr2  1  0.486173  0.686389  0.898658  1
  Pr  Pr3  1  0.486173  0.686389  0.601342  1
  Pr  Pr4  1  0.973618  0.826470  0.602075  1
  Pr  Pr5  1  0.973618  0.826470  0.897925  1
  Pr  Pr6  1  0.514631  0.326283  0.097244  1
  Pr  Pr7  1  0.016881  0.175684  0.097381  1
  Tm  Tm8  1  0.338345  0.175193  0.625206  1
  Tm  Tm9  1  0.673775  0.817091  0.375014  1
  Tm  Tm10  1  0.175611  0.677049  0.377980  1
  Tm  Tm11  1  0.821774  0.311739  0.874790  1
  Tm  Tm12  1  0.821774  0.311739  0.625210  1
  Tm  Tm13  1  0.842655  0.490644  0.250000  1
  Tm  Tm14  1  0.340208  0.008607  0.250000  1
  Tm  Tm15  1  0.338345  0.175193  0.874794  1
  Tm  Tm16  1  0.175611  0.677049  0.122020  1
  Tm  Tm17  1  0.673775  0.817091  0.124986  1
  Tm  Tm18  1  0.154752  0.504244  0.750000  1
  Si  Si19  1  0.262767  0.877317  0.750000  1
  Si  Si20  1  0.468195  0.613360  0.250000  1
  Si  Si21  1  0.046780  0.118402  0.750000  1
  Si  Si22  1  0.527213  0.407129  0.750000  1
  Si  Si23  1  0.150330  0.470017  0.542386  1
  Si  Si24  1  0.968207  0.880144  0.250000  1
  Si  Si25  1  0.720351  0.120197  0.250000  1
  Si  Si26  1  0.851186  0.531099  0.036240  1
  Si  Si27  1  0.351043  0.967644  0.039422  1
  Si  Si28  1  0.150330  0.470017  0.957614  1
  Si  Si29  1  0.653315  0.038543  0.528328  1
  Si  Si30  1  0.351043  0.967644  0.460578  1
  Si  Si31  1  0.851186  0.531099  0.463760  1
  Si  Si32  1  0.782881  0.603263  0.750000  1
  Si  Si33  1  0.220517  0.379188  0.250000  1
  Si  Si34  1  0.653315  0.038543  0.971672  1
  Hg  Hg35  1  0.652113  0.991104  0.750000  1
