# generated using pymatgen
data_Ba3NaMnCr3N8
_symmetry_space_group_name_H-M   'P 1'
_cell_length_a   6.42016808
_cell_length_b   6.42016684
_cell_length_c   7.74772617
_cell_angle_alpha   88.51903862
_cell_angle_beta   91.48095922
_cell_angle_gamma   126.19566630
_symmetry_Int_Tables_number   1
_chemical_formula_structural   Ba3NaMnCr3N8
_chemical_formula_sum   'Ba3 Na1 Mn1 Cr3 N8'
_cell_volume   257.60882193
_cell_formula_units_Z   1
loop_
 _symmetry_equiv_pos_site_id
 _symmetry_equiv_pos_as_xyz
  1  'x, y, z'
loop_
 _atom_site_type_symbol
 _atom_site_label
 _atom_site_symmetry_multiplicity
 _atom_site_fract_x
 _atom_site_fract_y
 _atom_site_fract_z
 _atom_site_occupancy
  Ba  Ba0  1  0.161299  0.838701  0.449194  1
  Ba  Ba1  1  0.662836  0.337164  0.064051  1
  Ba  Ba2  1  0.341094  0.658906  0.926105  1
  Na  Na3  1  0.848031  0.151969  0.570815  1
  Mn  Mn4  1  0.553513  0.446487  0.635701  1
  Cr  Cr5  1  0.448849  0.551151  0.364910  1
  Cr  Cr6  1  0.948305  0.051695  0.134085  1
  Cr  Cr7  1  0.048167  0.951833  0.865691  1
  N  N8  1  0.891214  0.108786  0.904908  1
  N  N9  1  0.105828  0.894172  0.093633  1
  N  N10  1  0.605386  0.394614  0.411895  1
  N  N11  1  0.395280  0.604720  0.582539  1
  N  N12  1  0.341255  0.160575  0.753718  1
  N  N13  1  0.156164  0.346643  0.244518  1
  N  N14  1  0.653357  0.843836  0.244518  1
  N  N15  1  0.839425  0.658745  0.753718  1
