# generated using pymatgen
data_LiNd16Tl3Ir4
_symmetry_space_group_name_H-M   'P 1'
_cell_length_a   10.00419593
_cell_length_b   10.00419498
_cell_length_c   10.00419500
_cell_angle_alpha   59.98653790
_cell_angle_beta   59.98653445
_cell_angle_gamma   59.98654103
_symmetry_Int_Tables_number   1
_chemical_formula_structural   LiNd16Tl3Ir4
_chemical_formula_sum   'Li1 Nd16 Tl3 Ir4'
_cell_volume   707.78099843
_cell_formula_units_Z   1
loop_
 _symmetry_equiv_pos_site_id
 _symmetry_equiv_pos_as_xyz
  1  'x, y, z'
loop_
 _atom_site_type_symbol
 _atom_site_label
 _atom_site_symmetry_multiplicity
 _atom_site_fract_x
 _atom_site_fract_y
 _atom_site_fract_z
 _atom_site_occupancy
  Li  Li0  1  0.318884  0.318880  0.318887  1
  Nd  Nd1  1  0.098561  0.706318  0.098547  1
  Nd  Nd2  1  0.940906  0.941036  0.559257  1
  Nd  Nd3  1  0.941064  0.559225  0.940988  1
  Nd  Nd4  1  0.310512  0.692054  0.310574  1
  Nd  Nd5  1  0.936777  0.561907  0.561856  1
  Nd  Nd6  1  0.310616  0.310518  0.691994  1
  Nd  Nd7  1  0.099006  0.098948  0.099041  1
  Nd  Nd8  1  0.561876  0.561896  0.936740  1
  Nd  Nd9  1  0.098500  0.098531  0.706375  1
  Nd  Nd10  1  0.692831  0.306067  0.692828  1
  Nd  Nd11  1  0.692798  0.692805  0.306191  1
  Nd  Nd12  1  0.692016  0.310481  0.310634  1
  Nd  Nd13  1  0.306147  0.692825  0.692801  1
  Nd  Nd14  1  0.561874  0.936847  0.561869  1
  Nd  Nd15  1  0.706359  0.098558  0.098495  1
  Nd  Nd16  1  0.559242  0.941101  0.940885  1
  Tl  Tl17  1  0.999033  0.334781  0.334770  1
  Tl  Tl18  1  0.334795  0.999011  0.334788  1
  Tl  Tl19  1  0.334761  0.334769  0.999047  1
  Ir  Ir20  1  0.892614  0.892625  0.892606  1
  Ir  Ir21  1  0.892732  0.892716  0.325367  1
  Ir  Ir22  1  0.325371  0.892719  0.892729  1
  Ir  Ir23  1  0.892722  0.325378  0.892730  1
