# generated using pymatgen
data_Rb4Ba5Sr3I20
_symmetry_space_group_name_H-M   'P 1'
_cell_length_a   9.37786079
_cell_length_b   10.34410492
_cell_length_c   15.00813074
_cell_angle_alpha   90.08641486
_cell_angle_beta   89.82291876
_cell_angle_gamma   90.08843151
_symmetry_Int_Tables_number   1
_chemical_formula_structural   Rb4Ba5Sr3I20
_chemical_formula_sum   'Rb4 Ba5 Sr3 I20'
_cell_volume   1455.86203281
_cell_formula_units_Z   1
loop_
 _symmetry_equiv_pos_site_id
 _symmetry_equiv_pos_as_xyz
  1  'x, y, z'
loop_
 _atom_site_type_symbol
 _atom_site_label
 _atom_site_symmetry_multiplicity
 _atom_site_fract_x
 _atom_site_fract_y
 _atom_site_fract_z
 _atom_site_occupancy
  Rb  Rb0  1  0.462980  0.494723  0.828053  1
  Rb  Rb1  1  0.537527  0.504032  0.171981  1
  Rb  Rb2  1  0.962425  0.503418  0.673681  1
  Rb  Rb3  1  0.037768  0.494106  0.325818  1
  Ba  Ba4  1  0.476190  0.999148  0.823132  1
  Ba  Ba5  1  0.524635  0.003135  0.176721  1
  Ba  Ba6  1  0.976205  0.004273  0.679529  1
  Ba  Ba7  1  0.024310  0.000146  0.319956  1
  Ba  Ba8  1  0.427952  0.748579  0.506375  1
  Sr  Sr9  1  0.570351  0.249394  0.495505  1
  Sr  Sr10  1  0.931795  0.250688  0.995609  1
  Sr  Sr11  1  0.068519  0.749592  0.004837  1
  I  I12  1  0.332850  0.454555  0.589939  1
  I  I13  1  0.668377  0.527827  0.410933  1
  I  I14  1  0.835929  0.533559  0.913623  1
  I  I15  1  0.164418  0.466285  0.086388  1
  I  I16  1  0.671999  0.779046  0.684298  1
  I  I17  1  0.334354  0.221861  0.321516  1
  I  I18  1  0.164848  0.222546  0.822650  1
  I  I19  1  0.834075  0.777659  0.178546  1
  I  I20  1  0.191216  0.765714  0.788405  1
  I  I21  1  0.810586  0.235031  0.209197  1
  I  I22  1  0.690888  0.234359  0.710782  1
  I  I23  1  0.305912  0.765975  0.283101  1
  I  I24  1  0.043710  0.776987  0.503981  1
  I  I25  1  0.949093  0.223579  0.495429  1
  I  I26  1  0.552011  0.224147  0.994933  1
  I  I27  1  0.447780  0.776344  0.004356  1
  I  I28  1  0.842027  0.961733  0.903816  1
  I  I29  1  0.158909  0.039811  0.096736  1
  I  I30  1  0.338670  0.046557  0.600790  1
  I  I31  1  0.661692  0.965189  0.399383  1
