# generated using pymatgen
data_DyEr(SbO4)2
_symmetry_space_group_name_H-M   'P 1'
_cell_length_a   5.38234681
_cell_length_b   7.64733578
_cell_length_c   7.54243640
_cell_angle_alpha   81.20078440
_cell_angle_beta   90.38001599
_cell_angle_gamma   92.21330515
_symmetry_Int_Tables_number   1
_chemical_formula_structural   DyEr(SbO4)2
_chemical_formula_sum   'Dy2 Er2 Sb4 O16'
_cell_volume   306.56848286
_cell_formula_units_Z   2
loop_
 _symmetry_equiv_pos_site_id
 _symmetry_equiv_pos_as_xyz
  1  'x, y, z'
loop_
 _atom_site_type_symbol
 _atom_site_label
 _atom_site_symmetry_multiplicity
 _atom_site_fract_x
 _atom_site_fract_y
 _atom_site_fract_z
 _atom_site_occupancy
  Dy  Dy0  1  0.261807  0.133074  0.615154  1
  Dy  Dy1  1  0.738193  0.866926  0.384846  1
  Er  Er2  1  0.212513  0.158148  0.109973  1
  Er  Er3  1  0.787487  0.841852  0.890027  1
  Sb  Sb4  1  0.239774  0.663365  0.193471  1
  Sb  Sb5  1  0.760226  0.336635  0.806529  1
  Sb  Sb6  1  0.725104  0.335593  0.308231  1
  Sb  Sb7  1  0.274896  0.664407  0.691769  1
  O  O8  1  0.087677  0.433725  0.688873  1
  O  O9  1  0.912323  0.566275  0.311127  1
  O  O10  1  0.608876  0.325041  0.561115  1
  O  O11  1  0.391124  0.674959  0.438885  1
  O  O12  1  0.876067  0.331811  0.061843  1
  O  O13  1  0.123933  0.668189  0.938157  1
  O  O14  1  0.399388  0.429562  0.195758  1
  O  O15  1  0.600612  0.570438  0.804242  1
  O  O16  1  0.043902  0.886948  0.171950  1
  O  O17  1  0.956098  0.113052  0.828050  1
  O  O18  1  0.508861  0.110643  0.320311  1
  O  O19  1  0.491139  0.889357  0.679689  1
  O  O20  1  0.462900  0.189462  0.880486  1
  O  O21  1  0.537100  0.810538  0.119514  1
  O  O22  1  0.992883  0.168359  0.380685  1
  O  O23  1  0.007117  0.831641  0.619315  1
