# generated using pymatgen
data_HoEr3Si4(PdRu)2
_symmetry_space_group_name_H-M   'P 1'
_cell_length_a   4.26959700
_cell_length_b   6.91041375
_cell_length_c   7.39619888
_cell_angle_alpha   90.49115526
_cell_angle_beta   90.00000000
_cell_angle_gamma   90.00000000
_symmetry_Int_Tables_number   1
_chemical_formula_structural   HoEr3Si4(PdRu)2
_chemical_formula_sum   'Ho1 Er3 Si4 Pd2 Ru2'
_cell_volume   218.21447688
_cell_formula_units_Z   1
loop_
 _symmetry_equiv_pos_site_id
 _symmetry_equiv_pos_as_xyz
  1  'x, y, z'
loop_
 _atom_site_type_symbol
 _atom_site_label
 _atom_site_symmetry_multiplicity
 _atom_site_fract_x
 _atom_site_fract_y
 _atom_site_fract_z
 _atom_site_occupancy
  Ho  Ho0  1  0.250000  0.993807  0.807516  1
  Er  Er1  1  0.750000  0.006222  0.192777  1
  Er  Er2  1  0.250000  0.499636  0.689493  1
  Er  Er3  1  0.750000  0.500297  0.310454  1
  Si  Si4  1  0.250000  0.300093  0.091075  1
  Si  Si5  1  0.750000  0.699867  0.909177  1
  Si  Si6  1  0.250000  0.788165  0.380975  1
  Si  Si7  1  0.750000  0.212136  0.618730  1
  Pd  Pd8  1  0.750000  0.835870  0.572976  1
  Pd  Pd9  1  0.250000  0.164070  0.426420  1
  Ru  Ru10  1  0.750000  0.345514  0.934154  1
  Ru  Ru11  1  0.250000  0.654320  0.066253  1
