# generated using pymatgen
data_Ca10AgRh
_symmetry_space_group_name_H-M   'P 1'
_cell_length_a   6.94113124
_cell_length_b   7.74370136
_cell_length_c   16.17754900
_cell_angle_alpha   90.00000000
_cell_angle_beta   90.00000000
_cell_angle_gamma   89.64710605
_symmetry_Int_Tables_number   1
_chemical_formula_structural   Ca10AgRh
_chemical_formula_sum   'Ca20 Ag2 Rh2'
_cell_volume   869.52753259
_cell_formula_units_Z   2
loop_
 _symmetry_equiv_pos_site_id
 _symmetry_equiv_pos_as_xyz
  1  'x, y, z'
loop_
 _atom_site_type_symbol
 _atom_site_label
 _atom_site_symmetry_multiplicity
 _atom_site_fract_x
 _atom_site_fract_y
 _atom_site_fract_z
 _atom_site_occupancy
  Ca  Ca0  1  0.350648  0.311938  0.059595  1
  Ca  Ca1  1  0.649352  0.688062  0.940405  1
  Ca  Ca2  1  0.849565  0.188559  0.937019  1
  Ca  Ca3  1  0.649352  0.688062  0.559595  1
  Ca  Ca4  1  0.150435  0.811441  0.062981  1
  Ca  Ca5  1  0.350648  0.311938  0.440405  1
  Ca  Ca6  1  0.150435  0.811441  0.437019  1
  Ca  Ca7  1  0.849565  0.188559  0.562981  1
  Ca  Ca8  1  0.138882  0.087496  0.250000  1
  Ca  Ca9  1  0.861118  0.912504  0.750000  1
  Ca  Ca10  1  0.666215  0.391471  0.750000  1
  Ca  Ca11  1  0.333785  0.608529  0.250000  1
  Ca  Ca12  1  0.319753  0.049874  0.640782  1
  Ca  Ca13  1  0.680247  0.950126  0.359218  1
  Ca  Ca14  1  0.834935  0.473424  0.358650  1
  Ca  Ca15  1  0.680247  0.950126  0.140782  1
  Ca  Ca16  1  0.165065  0.526576  0.641350  1
  Ca  Ca17  1  0.319753  0.049874  0.859218  1
  Ca  Ca18  1  0.165065  0.526576  0.858650  1
  Ca  Ca19  1  0.834935  0.473424  0.141350  1
  Ag  Ag20  1  0.540922  0.258077  0.250000  1
  Ag  Ag21  1  0.459078  0.741923  0.750000  1
  Rh  Rh22  1  0.041918  0.237728  0.750000  1
  Rh  Rh23  1  0.958082  0.762272  0.250000  1
