# generated using pymatgen
data_Yb11Mg(CuGe)12
_symmetry_space_group_name_H-M   'P 1'
_cell_length_a   4.31442600
_cell_length_b   7.36952328
_cell_length_c   20.74501439
_cell_angle_alpha   90.24878936
_cell_angle_beta   90.00000000
_cell_angle_gamma   90.00000000
_symmetry_Int_Tables_number   1
_chemical_formula_structural   Yb11Mg(CuGe)12
_chemical_formula_sum   'Yb11 Mg1 Cu12 Ge12'
_cell_volume   659.58696720
_cell_formula_units_Z   1
loop_
 _symmetry_equiv_pos_site_id
 _symmetry_equiv_pos_as_xyz
  1  'x, y, z'
loop_
 _atom_site_type_symbol
 _atom_site_label
 _atom_site_symmetry_multiplicity
 _atom_site_fract_x
 _atom_site_fract_y
 _atom_site_fract_z
 _atom_site_occupancy
  Yb  Yb0  1  0.250000  0.715496  0.000619  1
  Yb  Yb1  1  0.750000  0.283188  0.997261  1
  Yb  Yb2  1  0.750000  0.216776  0.498139  1
  Yb  Yb3  1  0.250000  0.782558  0.502402  1
  Yb  Yb4  1  0.250000  0.789388  0.165866  1
  Yb  Yb5  1  0.750000  0.206245  0.833333  1
  Yb  Yb6  1  0.750000  0.289684  0.333400  1
  Yb  Yb7  1  0.250000  0.710408  0.667976  1
  Yb  Yb8  1  0.250000  0.708991  0.333264  1
  Yb  Yb9  1  0.750000  0.294182  0.667707  1
  Yb  Yb10  1  0.750000  0.208828  0.165738  1
  Mg  Mg11  1  0.250000  0.793587  0.835846  1
  Cu  Cu12  1  0.250000  0.414047  0.095272  1
  Cu  Cu13  1  0.750000  0.586599  0.901099  1
  Cu  Cu14  1  0.750000  0.915005  0.403832  1
  Cu  Cu15  1  0.250000  0.084541  0.597785  1
  Cu  Cu16  1  0.250000  0.412574  0.235826  1
  Cu  Cu17  1  0.750000  0.595720  0.767754  1
  Cu  Cu18  1  0.750000  0.913157  0.263649  1
  Cu  Cu19  1  0.250000  0.084847  0.737902  1
  Cu  Cu20  1  0.250000  0.417699  0.436113  1
  Cu  Cu21  1  0.750000  0.581601  0.563717  1
  Cu  Cu22  1  0.750000  0.915277  0.064823  1
  Cu  Cu23  1  0.250000  0.078529  0.933283  1
  Ge  Ge24  1  0.250000  0.085782  0.065660  1
  Ge  Ge25  1  0.750000  0.909497  0.930344  1
  Ge  Ge26  1  0.750000  0.588629  0.431390  1
  Ge  Ge27  1  0.250000  0.410695  0.569109  1
  Ge  Ge28  1  0.250000  0.080683  0.268727  1
  Ge  Ge29  1  0.750000  0.921138  0.731408  1
  Ge  Ge30  1  0.750000  0.581093  0.230669  1
  Ge  Ge31  1  0.250000  0.424302  0.770540  1
  Ge  Ge32  1  0.250000  0.084707  0.398554  1
  Ge  Ge33  1  0.750000  0.915007  0.601415  1
  Ge  Ge34  1  0.750000  0.583434  0.101031  1
  Ge  Ge35  1  0.250000  0.416108  0.898544  1
