# generated using pymatgen
data_Pa5Co4Sn3Rh8
_symmetry_space_group_name_H-M   'P 1'
_cell_length_a   5.62785100
_cell_length_b   7.46395822
_cell_length_c   8.55973699
_cell_angle_alpha   90.78941392
_cell_angle_beta   90.00000000
_cell_angle_gamma   90.00000000
_symmetry_Int_Tables_number   1
_chemical_formula_structural   Pa5Co4Sn3Rh8
_chemical_formula_sum   'Pa5 Co4 Sn3 Rh8'
_cell_volume   359.52656774
_cell_formula_units_Z   1
loop_
 _symmetry_equiv_pos_site_id
 _symmetry_equiv_pos_as_xyz
  1  'x, y, z'
loop_
 _atom_site_type_symbol
 _atom_site_label
 _atom_site_symmetry_multiplicity
 _atom_site_fract_x
 _atom_site_fract_y
 _atom_site_fract_z
 _atom_site_occupancy
  Pa  Pa0  1  0.750000  0.901308  0.860607  1
  Pa  Pa1  1  0.750000  0.402843  0.645984  1
  Pa  Pa2  1  0.250000  0.100349  0.131991  1
  Pa  Pa3  1  0.250000  0.588809  0.355991  1
  Pa  Pa4  1  0.750000  0.932897  0.396860  1
  Co  Co5  1  0.750000  0.586795  0.375282  1
  Co  Co6  1  0.750000  0.084466  0.129692  1
  Co  Co7  1  0.250000  0.419421  0.615436  1
  Co  Co8  1  0.250000  0.915065  0.883262  1
  Sn  Sn9  1  0.750000  0.431780  0.103916  1
  Sn  Sn10  1  0.250000  0.070697  0.611426  1
  Sn  Sn11  1  0.250000  0.568857  0.891173  1
  Rh  Rh12  1  0.997584  0.256823  0.377310  1
  Rh  Rh13  1  0.500543  0.764444  0.128352  1
  Rh  Rh14  1  0.496649  0.739691  0.617621  1
  Rh  Rh15  1  0.999991  0.237398  0.875908  1
  Rh  Rh16  1  0.003351  0.739691  0.617621  1
  Rh  Rh17  1  0.500009  0.237398  0.875908  1
  Rh  Rh18  1  0.502416  0.256823  0.377310  1
  Rh  Rh19  1  0.999457  0.764444  0.128352  1
