# generated using pymatgen
data_La7PrSe12
_symmetry_space_group_name_H-M   'P 1'
_cell_length_a   7.95289701
_cell_length_b   4.30891000
_cell_length_c   16.55503202
_cell_angle_alpha   90.00031532
_cell_angle_beta   90.00539051
_cell_angle_gamma   89.99960602
_symmetry_Int_Tables_number   1
_chemical_formula_structural   La7PrSe12
_chemical_formula_sum   'La7 Pr1 Se12'
_cell_volume   567.31309008
_cell_formula_units_Z   1
loop_
 _symmetry_equiv_pos_site_id
 _symmetry_equiv_pos_as_xyz
  1  'x, y, z'
loop_
 _atom_site_type_symbol
 _atom_site_label
 _atom_site_symmetry_multiplicity
 _atom_site_fract_x
 _atom_site_fract_y
 _atom_site_fract_z
 _atom_site_occupancy
  La  La0  1  0.732893  0.500014  0.043396  1
  La  La1  1  0.143145  0.999985  0.204140  1
  La  La2  1  0.642834  0.999986  0.295458  1
  La  La3  1  0.233777  0.500009  0.456503  1
  La  La4  1  0.766211  0.999967  0.543361  1
  La  La5  1  0.357140  0.500021  0.704529  1
  La  La6  1  0.857336  0.499972  0.795571  1
  Pr  Pr7  1  0.265649  0.000005  0.956221  1
  Se  Se8  1  0.126538  0.500006  0.066717  1
  Se  Se9  1  0.506826  0.000004  0.109478  1
  Se  Se10  1  0.853204  0.500000  0.219351  1
  Se  Se11  1  0.353048  0.500003  0.280760  1
  Se  Se12  1  0.006997  0.000012  0.390286  1
  Se  Se13  1  0.626206  0.499989  0.432848  1
  Se  Se14  1  0.373865  0.000005  0.567220  1
  Se  Se15  1  0.993062  0.500003  0.609845  1
  Se  Se16  1  0.646904  0.000004  0.719465  1
  Se  Se17  1  0.147412  0.000005  0.781148  1
  Se  Se18  1  0.491728  0.499997  0.890861  1
  Se  Se19  1  0.875216  0.000004  0.932843  1
