# generated using pymatgen
data_Y3ErFe2(AuO7)2
_symmetry_space_group_name_H-M   'P 1'
_cell_length_a   7.28664955
_cell_length_b   7.33886733
_cell_length_c   7.28656884
_cell_angle_alpha   59.74633997
_cell_angle_beta   59.52334547
_cell_angle_gamma   59.74664467
_symmetry_Int_Tables_number   1
_chemical_formula_structural   Y3ErFe2(AuO7)2
_chemical_formula_sum   'Y3 Er1 Fe2 Au2 O14'
_cell_volume   273.47226050
_cell_formula_units_Z   1
loop_
 _symmetry_equiv_pos_site_id
 _symmetry_equiv_pos_as_xyz
  1  'x, y, z'
loop_
 _atom_site_type_symbol
 _atom_site_label
 _atom_site_symmetry_multiplicity
 _atom_site_fract_x
 _atom_site_fract_y
 _atom_site_fract_z
 _atom_site_occupancy
  Y  Y0  1  0.500009  0.000005  0.499989  1
  Y  Y1  1  0.999994  0.500017  0.499987  1
  Y  Y2  1  0.499987  0.500006  0.000004  1
  Er  Er3  1  0.499938  0.500023  0.500051  1
  Fe  Fe4  1  0.999997  0.499892  0.000041  1
  Fe  Fe5  1  0.000067  0.999988  0.999953  1
  Au  Au6  1  0.500012  0.000017  0.999990  1
  Au  Au7  1  0.999990  0.999996  0.500001  1
  O  O8  1  0.620821  0.627104  0.620818  1
  O  O9  1  0.379171  0.372905  0.379186  1
  O  O10  1  0.341660  0.912036  0.907214  1
  O  O11  1  0.095333  0.660421  0.658337  1
  O  O12  1  0.914416  0.335694  0.914417  1
  O  O13  1  0.907226  0.912039  0.341644  1
  O  O14  1  0.341666  0.339576  0.904671  1
  O  O15  1  0.340280  0.907699  0.340288  1
  O  O16  1  0.904661  0.339586  0.341666  1
  O  O17  1  0.658335  0.660414  0.095336  1
  O  O18  1  0.092781  0.087992  0.658339  1
  O  O19  1  0.658359  0.087973  0.092777  1
  O  O20  1  0.659716  0.092316  0.659714  1
  O  O21  1  0.085583  0.664305  0.085579  1
