# generated using pymatgen
data_Tb4Dy3Er(ReB6)4
_symmetry_space_group_name_H-M   'P 1'
_cell_length_a   3.69131100
_cell_length_b   9.18850502
_cell_length_c   11.58602302
_cell_angle_alpha   90.00718195
_cell_angle_beta   90.00000000
_cell_angle_gamma   90.00000000
_symmetry_Int_Tables_number   1
_chemical_formula_structural   Tb4Dy3Er(ReB6)4
_chemical_formula_sum   'Tb4 Dy3 Er1 Re4 B24'
_cell_volume   392.97043488
_cell_formula_units_Z   1
loop_
 _symmetry_equiv_pos_site_id
 _symmetry_equiv_pos_as_xyz
  1  'x, y, z'
loop_
 _atom_site_type_symbol
 _atom_site_label
 _atom_site_symmetry_multiplicity
 _atom_site_fract_x
 _atom_site_fract_y
 _atom_site_fract_z
 _atom_site_occupancy
  Tb  Tb0  1  0.000000  0.323654  0.413937  1
  Tb  Tb1  1  0.000000  0.676294  0.586252  1
  Tb  Tb2  1  0.000000  0.823538  0.086043  1
  Tb  Tb3  1  0.000000  0.176469  0.913836  1
  Dy  Dy4  1  0.000000  0.943285  0.369995  1
  Dy  Dy5  1  0.000000  0.056763  0.630080  1
  Dy  Dy6  1  0.000000  0.443371  0.129750  1
  Er  Er7  1  0.000000  0.556737  0.869738  1
  Re  Re8  1  0.000000  0.638878  0.320572  1
  Re  Re9  1  0.000000  0.361437  0.679719  1
  Re  Re10  1  0.000000  0.138936  0.179340  1
  Re  Re11  1  0.000000  0.860587  0.820674  1
  B  B12  1  0.500000  0.553669  0.432560  1
  B  B13  1  0.500000  0.446329  0.567561  1
  B  B14  1  0.500000  0.053666  0.067446  1
  B  B15  1  0.500000  0.946214  0.932510  1
  B  B16  1  0.500000  0.749220  0.418302  1
  B  B17  1  0.500000  0.250831  0.581758  1
  B  B18  1  0.500000  0.249236  0.081715  1
  B  B19  1  0.500000  0.750217  0.918284  1
  B  B20  1  0.500000  0.792042  0.265763  1
  B  B21  1  0.500000  0.208106  0.734261  1
  B  B22  1  0.500000  0.292053  0.234222  1
  B  B23  1  0.500000  0.707482  0.765914  1
  B  B24  1  0.500000  0.631006  0.185931  1
  B  B25  1  0.500000  0.369424  0.814291  1
  B  B26  1  0.500000  0.131024  0.314040  1
  B  B27  1  0.500000  0.868889  0.686034  1
  B  B28  1  0.500000  0.982897  0.212080  1
  B  B29  1  0.500000  0.017059  0.787950  1
  B  B30  1  0.500000  0.482871  0.287916  1
  B  B31  1  0.500000  0.517365  0.712420  1
  B  B32  1  0.500000  0.599634  0.027312  1
  B  B33  1  0.500000  0.400806  0.971764  1
  B  B34  1  0.500000  0.099782  0.472159  1
  B  B35  1  0.500000  0.900230  0.527872  1
