# generated using pymatgen
data_La6Ce2Al8IrRh7
_symmetry_space_group_name_H-M   'P 1'
_cell_length_a   4.27558000
_cell_length_b   7.24734724
_cell_length_c   16.13926914
_cell_angle_alpha   90.02213101
_cell_angle_beta   90.00000000
_cell_angle_gamma   90.00000000
_symmetry_Int_Tables_number   1
_chemical_formula_structural   La6Ce2Al8IrRh7
_chemical_formula_sum   'La6 Ce2 Al8 Ir1 Rh7'
_cell_volume   500.10124795
_cell_formula_units_Z   1
loop_
 _symmetry_equiv_pos_site_id
 _symmetry_equiv_pos_as_xyz
  1  'x, y, z'
loop_
 _atom_site_type_symbol
 _atom_site_label
 _atom_site_symmetry_multiplicity
 _atom_site_fract_x
 _atom_site_fract_y
 _atom_site_fract_z
 _atom_site_occupancy
  La  La0  1  0.250000  0.518820  0.780964  1
  La  La1  1  0.250000  0.018873  0.719023  1
  La  La2  1  0.250000  0.656456  0.557724  1
  La  La3  1  0.750000  0.345370  0.437673  1
  La  La4  1  0.750000  0.846304  0.061598  1
  La  La5  1  0.250000  0.157547  0.941910  1
  Ce  Ce6  1  0.750000  0.479190  0.220369  1
  Ce  Ce7  1  0.750000  0.977605  0.279359  1
  Al  Al8  1  0.250000  0.655095  0.346551  1
  Al  Al9  1  0.750000  0.347776  0.647090  1
  Al  Al10  1  0.750000  0.847428  0.852557  1
  Al  Al11  1  0.250000  0.151354  0.152943  1
  Al  Al12  1  0.250000  0.508010  0.064498  1
  Al  Al13  1  0.750000  0.494982  0.941762  1
  Al  Al14  1  0.750000  0.995369  0.558672  1
  Al  Al15  1  0.250000  0.007402  0.436481  1
  Ir  Ir16  1  0.250000  0.764484  0.187004  1
  Rh  Rh17  1  0.750000  0.225596  0.821653  1
  Rh  Rh18  1  0.750000  0.726532  0.678134  1
  Rh  Rh19  1  0.250000  0.265055  0.314159  1
  Rh  Rh20  1  0.250000  0.713869  0.927434  1
  Rh  Rh21  1  0.750000  0.290251  0.079510  1
  Rh  Rh22  1  0.750000  0.790913  0.421103  1
  Rh  Rh23  1  0.250000  0.215721  0.571830  1
