# generated using pymatgen
data_TbCe5(Er2Ir3)2
_symmetry_space_group_name_H-M   'P 1'
_cell_length_a   10.98536172
_cell_length_b   11.01863400
_cell_length_c   6.26927640
_cell_angle_alpha   90.00000000
_cell_angle_beta   90.66471998
_cell_angle_gamma   90.00000000
_symmetry_Int_Tables_number   1
_chemical_formula_structural   TbCe5(Er2Ir3)2
_chemical_formula_sum   'Tb2 Ce10 Er8 Ir12'
_cell_volume   758.80521838
_cell_formula_units_Z   2
loop_
 _symmetry_equiv_pos_site_id
 _symmetry_equiv_pos_as_xyz
  1  'x, y, z'
loop_
 _atom_site_type_symbol
 _atom_site_label
 _atom_site_symmetry_multiplicity
 _atom_site_fract_x
 _atom_site_fract_y
 _atom_site_fract_z
 _atom_site_occupancy
  Tb  Tb0  1  0.288728  0.088374  0.375777  1
  Tb  Tb1  1  0.288728  0.911626  0.875777  1
  Ce  Ce2  1  0.711726  0.091500  0.879767  1
  Ce  Ce3  1  0.711726  0.908500  0.379767  1
  Ce  Ce4  1  0.590366  0.786760  0.882624  1
  Ce  Ce5  1  0.590366  0.213240  0.382624  1
  Ce  Ce6  1  0.404899  0.789639  0.382272  1
  Ce  Ce7  1  0.404899  0.210361  0.882272  1
  Ce  Ce8  1  0.206550  0.409809  0.617945  1
  Ce  Ce9  1  0.206550  0.590191  0.117945  1
  Ce  Ce10  1  0.794306  0.411325  0.118250  1
  Ce  Ce11  1  0.794306  0.588675  0.618250  1
  Er  Er12  1  0.914953  0.712479  0.119739  1
  Er  Er13  1  0.914953  0.287521  0.619739  1
  Er  Er14  1  0.086141  0.712250  0.619200  1
  Er  Er15  1  0.086141  0.287750  0.119200  1
  Er  Er16  1  0.001780  0.000953  0.496951  1
  Er  Er17  1  0.001780  0.999047  0.996951  1
  Er  Er18  1  0.499368  0.499946  0.006904  1
  Er  Er19  1  0.499368  0.500054  0.506904  1
  Ir  Ir20  1  0.845880  0.152396  0.243031  1
  Ir  Ir21  1  0.845880  0.847604  0.743031  1
  Ir  Ir22  1  0.151947  0.153494  0.749074  1
  Ir  Ir23  1  0.151947  0.846506  0.249074  1
  Ir  Ir24  1  0.655688  0.344143  0.756211  1
  Ir  Ir25  1  0.655688  0.655857  0.256211  1
  Ir  Ir26  1  0.343905  0.345862  0.251593  1
  Ir  Ir27  1  0.343905  0.654138  0.751593  1
  Ir  Ir28  1  0.504022  0.999290  0.119763  1
  Ir  Ir29  1  0.504022  0.000710  0.619763  1
  Ir  Ir30  1  0.999740  0.500881  0.880897  1
  Ir  Ir31  1  0.999740  0.499119  0.380897  1
