# generated using pymatgen
data_SrLiPr3CoO8
_symmetry_space_group_name_H-M   'P 1'
_cell_length_a   5.33333100
_cell_length_b   6.87029773
_cell_length_c   21.32625300
_cell_angle_alpha   89.99965273
_cell_angle_beta   89.99989525
_cell_angle_gamma   67.15736578
_symmetry_Int_Tables_number   1
_chemical_formula_structural   SrLiPr3CoO8
_chemical_formula_sum   'Sr4 Li4 Pr12 Co4 O32'
_cell_volume   720.14362876
_cell_formula_units_Z   4
loop_
 _symmetry_equiv_pos_site_id
 _symmetry_equiv_pos_as_xyz
  1  'x, y, z'
loop_
 _atom_site_type_symbol
 _atom_site_label
 _atom_site_symmetry_multiplicity
 _atom_site_fract_x
 _atom_site_fract_y
 _atom_site_fract_z
 _atom_site_occupancy
  Sr  Sr0  1  0.359292  0.281408  0.999993  1
  Sr  Sr1  1  0.359295  0.281403  0.499999  1
  Sr  Sr2  1  0.640711  0.718595  0.250008  1
  Sr  Sr3  1  0.640711  0.718591  0.750003  1
  Li  Li4  1  0.500002  0.000002  0.125002  1
  Li  Li5  1  0.499994  0.000002  0.625017  1
  Li  Li6  1  0.499997  0.000013  0.374971  1
  Li  Li7  1  0.500003  0.999989  0.875010  1
  Pr  Pr8  1  0.635640  0.728946  0.999992  1
  Pr  Pr9  1  0.635645  0.728941  0.499990  1
  Pr  Pr10  1  0.364362  0.271058  0.250009  1
  Pr  Pr11  1  0.364360  0.271056  0.750011  1
  Pr  Pr12  1  0.136717  0.726674  0.126288  1
  Pr  Pr13  1  0.136746  0.726624  0.626292  1
  Pr  Pr14  1  0.863294  0.273331  0.123711  1
  Pr  Pr15  1  0.863273  0.273372  0.623711  1
  Pr  Pr16  1  0.136710  0.726694  0.373704  1
  Pr  Pr17  1  0.136692  0.726717  0.873715  1
  Pr  Pr18  1  0.863319  0.273293  0.376284  1
  Pr  Pr19  1  0.863310  0.273290  0.876295  1
  Co  Co20  1  0.999440  0.001087  0.499952  1
  Co  Co21  1  0.000551  0.998921  0.750047  1
  Co  Co22  1  0.999444  0.001077  0.999954  1
  Co  Co23  1  0.000553  0.998927  0.250048  1
  O  O24  1  0.157701  0.684438  0.000002  1
  O  O25  1  0.157666  0.684498  0.500004  1
  O  O26  1  0.842293  0.315558  0.249999  1
  O  O27  1  0.842308  0.315529  0.749994  1
  O  O28  1  0.836992  0.325997  0.000000  1
  O  O29  1  0.837022  0.325939  0.500008  1
  O  O30  1  0.163012  0.674008  0.249998  1
  O  O31  1  0.162995  0.674032  0.749994  1
  O  O32  1  0.319170  0.361660  0.132684  1
  O  O33  1  0.319173  0.361649  0.632678  1
  O  O34  1  0.680806  0.638341  0.117315  1
  O  O35  1  0.680792  0.638350  0.617318  1
  O  O36  1  0.319172  0.361650  0.367319  1
  O  O37  1  0.319180  0.361659  0.867312  1
  O  O38  1  0.680791  0.638351  0.382690  1
  O  O39  1  0.680805  0.638342  0.882679  1
  O  O40  1  0.758486  0.997899  0.061230  1
  O  O41  1  0.758507  0.997887  0.561227  1
  O  O42  1  0.756376  0.002143  0.188773  1
  O  O43  1  0.756402  0.002149  0.688776  1
  O  O44  1  0.243642  0.997856  0.061229  1
  O  O45  1  0.243627  0.997844  0.561225  1
  O  O46  1  0.241507  0.002107  0.188773  1
  O  O47  1  0.241486  0.002110  0.688776  1
  O  O48  1  0.756445  0.002144  0.311209  1
  O  O49  1  0.756482  0.002149  0.811189  1
  O  O50  1  0.241440  0.002107  0.311209  1
  O  O51  1  0.241396  0.002110  0.811191  1
  O  O52  1  0.758584  0.997892  0.438805  1
  O  O53  1  0.758562  0.997892  0.938791  1
  O  O54  1  0.243548  0.997847  0.438806  1
  O  O55  1  0.243572  0.997852  0.938792  1
