# generated using pymatgen
data_Rb8Tb6GaBr20
_symmetry_space_group_name_H-M   'P 1'
_cell_length_a   12.41578233
_cell_length_b   12.41578168
_cell_length_c   12.41578100
_cell_angle_alpha   59.99999915
_cell_angle_beta   60.00000088
_cell_angle_gamma   59.99999732
_symmetry_Int_Tables_number   1
_chemical_formula_structural   Rb8Tb6GaBr20
_chemical_formula_sum   'Rb8 Tb6 Ga1 Br20'
_cell_volume   1353.34086058
_cell_formula_units_Z   1
loop_
 _symmetry_equiv_pos_site_id
 _symmetry_equiv_pos_as_xyz
  1  'x, y, z'
loop_
 _atom_site_type_symbol
 _atom_site_label
 _atom_site_symmetry_multiplicity
 _atom_site_fract_x
 _atom_site_fract_y
 _atom_site_fract_z
 _atom_site_occupancy
  Rb  Rb0  1  0.358621  0.358621  0.358621  1
  Rb  Rb1  1  0.641379  0.641379  0.641379  1
  Rb  Rb2  1  0.358621  0.358621  0.924136  1
  Rb  Rb3  1  0.358621  0.924136  0.358621  1
  Rb  Rb4  1  0.641379  0.641379  0.075864  1
  Rb  Rb5  1  0.641379  0.075864  0.641379  1
  Rb  Rb6  1  0.924136  0.358621  0.358621  1
  Rb  Rb7  1  0.075864  0.641379  0.641379  1
  Tb  Tb8  1  0.840177  0.159823  0.159823  1
  Tb  Tb9  1  0.159823  0.840177  0.840177  1
  Tb  Tb10  1  0.159823  0.840177  0.159823  1
  Tb  Tb11  1  0.840177  0.159823  0.840177  1
  Tb  Tb12  1  0.159823  0.159823  0.840177  1
  Tb  Tb13  1  0.840177  0.840177  0.159823  1
  Ga  Ga14  1  0.000000  0.000000  0.000000  1
  Br  Br15  1  0.330856  0.000000  0.000000  1
  Br  Br16  1  0.669144  0.000000  0.000000  1
  Br  Br17  1  0.000000  0.330856  0.669144  1
  Br  Br18  1  0.000000  0.669144  0.330856  1
  Br  Br19  1  0.000000  0.330856  0.000000  1
  Br  Br20  1  0.669144  0.000000  0.330856  1
  Br  Br21  1  0.000000  0.669144  0.000000  1
  Br  Br22  1  0.330856  0.000000  0.669144  1
  Br  Br23  1  0.000000  0.000000  0.330856  1
  Br  Br24  1  0.000000  0.000000  0.669144  1
  Br  Br25  1  0.669144  0.330856  0.000000  1
  Br  Br26  1  0.330856  0.669144  0.000000  1
  Br  Br27  1  0.675773  0.324227  0.324227  1
  Br  Br28  1  0.324227  0.675773  0.675773  1
  Br  Br29  1  0.324227  0.675773  0.324227  1
  Br  Br30  1  0.675773  0.324227  0.675773  1
  Br  Br31  1  0.324227  0.324227  0.675773  1
  Br  Br32  1  0.675773  0.675773  0.324227  1
  Br  Br33  1  0.250000  0.250000  0.250000  1
  Br  Br34  1  0.750000  0.750000  0.750000  1
