# generated using pymatgen
data_Nd2Mn3Si7Pt9
_symmetry_space_group_name_H-M   'P 1'
_cell_length_a   9.92690900
_cell_length_b   9.92690843
_cell_length_c   3.97151500
_cell_angle_alpha   90.00000000
_cell_angle_beta   90.00000000
_cell_angle_gamma   119.99999858
_symmetry_Int_Tables_number   1
_chemical_formula_structural   Nd2Mn3Si7Pt9
_chemical_formula_sum   'Nd2 Mn3 Si7 Pt9'
_cell_volume   338.93381605
_cell_formula_units_Z   1
loop_
 _symmetry_equiv_pos_site_id
 _symmetry_equiv_pos_as_xyz
  1  'x, y, z'
loop_
 _atom_site_type_symbol
 _atom_site_label
 _atom_site_symmetry_multiplicity
 _atom_site_fract_x
 _atom_site_fract_y
 _atom_site_fract_z
 _atom_site_occupancy
  Nd  Nd0  1  0.000000  0.000000  0.000000  1
  Nd  Nd1  1  0.333333  0.666667  0.500000  1
  Mn  Mn2  1  0.881366  0.451924  0.500000  1
  Mn  Mn3  1  0.570558  0.118634  0.500000  1
  Mn  Mn4  1  0.548076  0.429442  0.500000  1
  Si  Si5  1  0.263459  0.218418  0.500000  1
  Si  Si6  1  0.781582  0.045042  0.500000  1
  Si  Si7  1  0.954958  0.736541  0.500000  1
  Si  Si8  1  0.554897  0.635060  0.000000  1
  Si  Si9  1  0.364940  0.919836  0.000000  1
  Si  Si10  1  0.080164  0.445103  0.000000  1
  Si  Si11  1  0.666667  0.333333  0.000000  1
  Pt  Pt12  1  0.226401  0.945408  0.500000  1
  Pt  Pt13  1  0.054592  0.280993  0.500000  1
  Pt  Pt14  1  0.719007  0.773599  0.500000  1
  Pt  Pt15  1  0.305809  0.405934  0.000000  1
  Pt  Pt16  1  0.594066  0.899876  0.000000  1
  Pt  Pt17  1  0.100124  0.694191  0.000000  1
  Pt  Pt18  1  0.394929  0.177089  0.000000  1
  Pt  Pt19  1  0.822911  0.217840  0.000000  1
  Pt  Pt20  1  0.782160  0.605071  0.000000  1
