# generated using pymatgen
data_SrGdBO4
_symmetry_space_group_name_H-M   'P 1'
_cell_length_a   3.73314000
_cell_length_b   9.84883200
_cell_length_c   11.01013700
_cell_angle_alpha   90.00000000
_cell_angle_beta   90.00000000
_cell_angle_gamma   90.00000000
_symmetry_Int_Tables_number   1
_chemical_formula_structural   SrGdBO4
_chemical_formula_sum   'Sr4 Gd4 B4 O16'
_cell_volume   404.81046339
_cell_formula_units_Z   4
loop_
 _symmetry_equiv_pos_site_id
 _symmetry_equiv_pos_as_xyz
  1  'x, y, z'
loop_
 _atom_site_type_symbol
 _atom_site_label
 _atom_site_symmetry_multiplicity
 _atom_site_fract_x
 _atom_site_fract_y
 _atom_site_fract_z
 _atom_site_occupancy
  Sr  Sr0  1  0.250000  0.662792  0.082580  1
  Sr  Sr1  1  0.750000  0.337208  0.917420  1
  Sr  Sr2  1  0.750000  0.162792  0.417420  1
  Sr  Sr3  1  0.250000  0.837208  0.582580  1
  Gd  Gd4  1  0.250000  0.082909  0.112668  1
  Gd  Gd5  1  0.750000  0.917091  0.887332  1
  Gd  Gd6  1  0.750000  0.582909  0.387332  1
  Gd  Gd7  1  0.250000  0.417091  0.612668  1
  B  B8  1  0.250000  0.365210  0.203187  1
  B  B9  1  0.750000  0.634790  0.796813  1
  B  B10  1  0.750000  0.865210  0.296813  1
  B  B11  1  0.250000  0.134790  0.703187  1
  O  O12  1  0.250000  0.492676  0.257243  1
  O  O13  1  0.750000  0.507324  0.742757  1
  O  O14  1  0.750000  0.992676  0.242757  1
  O  O15  1  0.250000  0.007324  0.757243  1
  O  O16  1  0.250000  0.246670  0.272829  1
  O  O17  1  0.750000  0.753330  0.727171  1
  O  O18  1  0.750000  0.746670  0.227171  1
  O  O19  1  0.250000  0.253330  0.772829  1
  O  O20  1  0.250000  0.353998  0.076264  1
  O  O21  1  0.750000  0.646002  0.923736  1
  O  O22  1  0.750000  0.853998  0.423736  1
  O  O23  1  0.250000  0.146002  0.576264  1
  O  O24  1  0.250000  0.611591  0.500068  1
  O  O25  1  0.750000  0.388409  0.499932  1
  O  O26  1  0.750000  0.111591  0.999932  1
  O  O27  1  0.250000  0.888409  0.000068  1
