# generated using pymatgen
data_Nd8Cd2NiRu
_symmetry_space_group_name_H-M   'P 1'
_cell_length_a   9.83959065
_cell_length_b   9.83958963
_cell_length_c   9.93390200
_cell_angle_alpha   59.68241456
_cell_angle_beta   59.68241802
_cell_angle_gamma   59.88103729
_symmetry_Int_Tables_number   1
_chemical_formula_structural   Nd8Cd2NiRu
_chemical_formula_sum   'Nd16 Cd4 Ni2 Ru2'
_cell_volume   676.19071248
_cell_formula_units_Z   2
loop_
 _symmetry_equiv_pos_site_id
 _symmetry_equiv_pos_as_xyz
  1  'x, y, z'
loop_
 _atom_site_type_symbol
 _atom_site_label
 _atom_site_symmetry_multiplicity
 _atom_site_fract_x
 _atom_site_fract_y
 _atom_site_fract_z
 _atom_site_occupancy
  Nd  Nd0  1  0.349870  0.349870  0.345349  1
  Nd  Nd1  1  0.349870  0.349870  0.954912  1
  Nd  Nd2  1  0.349087  0.957576  0.346669  1
  Nd  Nd3  1  0.957576  0.349087  0.346669  1
  Nd  Nd4  1  0.810635  0.187272  0.191415  1
  Nd  Nd5  1  0.187272  0.810635  0.810678  1
  Nd  Nd6  1  0.187272  0.810635  0.191415  1
  Nd  Nd7  1  0.810635  0.187272  0.810678  1
  Nd  Nd8  1  0.190071  0.190071  0.809929  1
  Nd  Nd9  1  0.805833  0.805833  0.194167  1
  Nd  Nd10  1  0.938689  0.557010  0.565750  1
  Nd  Nd11  1  0.557010  0.938689  0.938551  1
  Nd  Nd12  1  0.557010  0.938689  0.565750  1
  Nd  Nd13  1  0.938689  0.557010  0.938551  1
  Nd  Nd14  1  0.564754  0.564754  0.935246  1
  Nd  Nd15  1  0.938957  0.938957  0.561043  1
  Cd  Cd16  1  0.579205  0.579205  0.581155  1
  Cd  Cd17  1  0.579205  0.579205  0.260435  1
  Cd  Cd18  1  0.580906  0.259695  0.579698  1
  Cd  Cd19  1  0.259695  0.580906  0.579698  1
  Ni  Ni20  1  0.144863  0.575624  0.139757  1
  Ni  Ni21  1  0.575624  0.144863  0.139757  1
  Ru  Ru22  1  0.143635  0.143635  0.135981  1
  Ru  Ru23  1  0.143635  0.143635  0.576748  1
