# generated using pymatgen
data_EuDy6FeBr12
_symmetry_space_group_name_H-M   'P 1'
_cell_length_a   9.24851541
_cell_length_b   9.24851563
_cell_length_c   9.24851487
_cell_angle_alpha   106.38075899
_cell_angle_beta   106.38075165
_cell_angle_gamma   106.38075201
_symmetry_Int_Tables_number   1
_chemical_formula_structural   EuDy6FeBr12
_chemical_formula_sum   'Eu1 Dy6 Fe1 Br12'
_cell_volume   669.62969377
_cell_formula_units_Z   1
loop_
 _symmetry_equiv_pos_site_id
 _symmetry_equiv_pos_as_xyz
  1  'x, y, z'
loop_
 _atom_site_type_symbol
 _atom_site_label
 _atom_site_symmetry_multiplicity
 _atom_site_fract_x
 _atom_site_fract_y
 _atom_site_fract_z
 _atom_site_occupancy
  Eu  Eu0  1  0.000000  0.000000  0.000000  1
  Dy  Dy1  1  0.799767  0.519675  0.595784  1
  Dy  Dy2  1  0.519675  0.595784  0.799767  1
  Dy  Dy3  1  0.200233  0.480325  0.404216  1
  Dy  Dy4  1  0.480325  0.404216  0.200233  1
  Dy  Dy5  1  0.595784  0.799767  0.519675  1
  Dy  Dy6  1  0.404216  0.200233  0.480325  1
  Fe  Fe7  1  0.500000  0.500000  0.500000  1
  Br  Br8  1  0.719312  0.180890  0.573207  1
  Br  Br9  1  0.944710  0.866220  0.642293  1
  Br  Br10  1  0.573207  0.719312  0.180890  1
  Br  Br11  1  0.133780  0.357707  0.055290  1
  Br  Br12  1  0.642293  0.944710  0.866220  1
  Br  Br13  1  0.866220  0.642293  0.944710  1
  Br  Br14  1  0.055290  0.133780  0.357707  1
  Br  Br15  1  0.819110  0.426793  0.280688  1
  Br  Br16  1  0.357707  0.055290  0.133780  1
  Br  Br17  1  0.280688  0.819110  0.426793  1
  Br  Br18  1  0.180890  0.573207  0.719312  1
  Br  Br19  1  0.426793  0.280688  0.819110  1
