# generated using pymatgen
data_Li3Zn9(SiNi2)4
_symmetry_space_group_name_H-M   'P 1'
_cell_length_a   7.54219591
_cell_length_b   7.52873239
_cell_length_c   7.54219591
_cell_angle_alpha   119.94096475
_cell_angle_beta   89.57078555
_cell_angle_gamma   119.94096475
_symmetry_Int_Tables_number   1
_chemical_formula_structural   Li3Zn9(SiNi2)4
_chemical_formula_sum   'Li3 Zn9 Si4 Ni8'
_cell_volume   304.48137322
_cell_formula_units_Z   1
loop_
 _symmetry_equiv_pos_site_id
 _symmetry_equiv_pos_as_xyz
  1  'x, y, z'
loop_
 _atom_site_type_symbol
 _atom_site_label
 _atom_site_symmetry_multiplicity
 _atom_site_fract_x
 _atom_site_fract_y
 _atom_site_fract_z
 _atom_site_occupancy
  Li  Li0  1  0.937076  0.500000  0.062925  1
  Li  Li1  1  0.811643  0.000000  0.188358  1
  Li  Li2  1  0.563732  0.500000  0.436268  1
  Zn  Zn3  1  0.567844  0.129208  0.066184  1
  Zn  Zn4  1  0.567844  0.504821  0.066184  1
  Zn  Zn5  1  0.187940  0.001667  0.189213  1
  Zn  Zn6  1  0.187940  0.375486  0.189213  1
  Zn  Zn7  1  0.933817  0.495179  0.432156  1
  Zn  Zn8  1  0.933817  0.870793  0.432156  1
  Zn  Zn9  1  0.810787  0.998333  0.812060  1
  Zn  Zn10  1  0.186778  0.000000  0.813223  1
  Zn  Zn11  1  0.810788  0.624514  0.812061  1
  Si  Si12  1  0.373084  0.749177  0.125272  1
  Si  Si13  1  0.377703  0.253207  0.622296  1
  Si  Si14  1  0.377703  0.746792  0.622296  1
  Si  Si15  1  0.874728  0.250822  0.626916  1
  Ni  Ni16  1  0.242792  0.830505  0.418217  1
  Ni  Ni17  1  0.586567  0.168805  0.413434  1
  Ni  Ni18  1  0.586567  0.831195  0.413434  1
  Ni  Ni19  1  0.165404  0.329602  0.493800  1
  Ni  Ni20  1  0.581784  0.169495  0.757209  1
  Ni  Ni21  1  0.163734  0.328115  0.836267  1
  Ni  Ni22  1  0.163734  0.671886  0.836267  1
  Ni  Ni23  1  0.506201  0.670399  0.834597  1
