# generated using pymatgen
data_Hf6Al16Rh5Au2
_symmetry_space_group_name_H-M   'P 1'
_cell_length_a   8.75820569
_cell_length_b   8.73032330
_cell_length_c   8.75820624
_cell_angle_alpha   60.10525566
_cell_angle_beta   59.78948883
_cell_angle_gamma   60.10525734
_symmetry_Int_Tables_number   1
_chemical_formula_structural   Hf6Al16Rh5Au2
_chemical_formula_sum   'Hf6 Al16 Rh5 Au2'
_cell_volume   473.51840896
_cell_formula_units_Z   1
loop_
 _symmetry_equiv_pos_site_id
 _symmetry_equiv_pos_as_xyz
  1  'x, y, z'
loop_
 _atom_site_type_symbol
 _atom_site_label
 _atom_site_symmetry_multiplicity
 _atom_site_fract_x
 _atom_site_fract_y
 _atom_site_fract_z
 _atom_site_occupancy
  Hf  Hf0  1  0.686105  0.313894  0.313894  1
  Hf  Hf1  1  0.313894  0.686105  0.686105  1
  Hf  Hf2  1  0.325492  0.674507  0.325492  1
  Hf  Hf3  1  0.313894  0.313894  0.686105  1
  Hf  Hf4  1  0.674507  0.325492  0.674507  1
  Hf  Hf5  1  0.686105  0.686105  0.313894  1
  Al  Al6  1  0.333451  0.341564  0.333451  1
  Al  Al7  1  0.341564  0.333451  0.991532  1
  Al  Al8  1  0.991532  0.333451  0.341564  1
  Al  Al9  1  0.333451  0.991532  0.333451  1
  Al  Al10  1  0.666549  0.658436  0.666549  1
  Al  Al11  1  0.658436  0.666549  0.008468  1
  Al  Al12  1  0.666549  0.008468  0.666549  1
  Al  Al13  1  0.008468  0.666549  0.658436  1
  Al  Al14  1  0.125311  0.106387  0.125311  1
  Al  Al15  1  0.106387  0.125311  0.642991  1
  Al  Al16  1  0.642991  0.125311  0.106387  1
  Al  Al17  1  0.125311  0.642991  0.125311  1
  Al  Al18  1  0.874688  0.893612  0.874688  1
  Al  Al19  1  0.893612  0.874688  0.357012  1
  Al  Al20  1  0.874688  0.357012  0.874688  1
  Al  Al21  1  0.357012  0.874688  0.893612  1
  Rh  Rh22  1  0.000000  0.000000  0.000000  1
  Rh  Rh23  1  0.500000  0.000000  0.000000  1
  Rh  Rh24  1  0.000000  0.500000  0.500000  1
  Rh  Rh25  1  0.000000  0.000000  0.500000  1
  Rh  Rh26  1  0.500000  0.500000  0.000000  1
  Au  Au27  1  0.000000  0.500000  0.000000  1
  Au  Au28  1  0.500000  0.000000  0.500000  1
