# generated using pymatgen
data_Dy8CuSi8Pt7
_symmetry_space_group_name_H-M   'P 1'
_cell_length_a   4.28169300
_cell_length_b   7.41429738
_cell_length_c   13.91609200
_cell_angle_alpha   89.96509379
_cell_angle_beta   90.00000000
_cell_angle_gamma   90.00000000
_symmetry_Int_Tables_number   1
_chemical_formula_structural   Dy8CuSi8Pt7
_chemical_formula_sum   'Dy8 Cu1 Si8 Pt7'
_cell_volume   441.77662847
_cell_formula_units_Z   1
loop_
 _symmetry_equiv_pos_site_id
 _symmetry_equiv_pos_as_xyz
  1  'x, y, z'
loop_
 _atom_site_type_symbol
 _atom_site_label
 _atom_site_symmetry_multiplicity
 _atom_site_fract_x
 _atom_site_fract_y
 _atom_site_fract_z
 _atom_site_occupancy
  Dy  Dy0  1  0.000000  0.299620  0.999460  1
  Dy  Dy1  1  0.500000  0.703001  0.498966  1
  Dy  Dy2  1  0.000000  0.291166  0.499752  1
  Dy  Dy3  1  0.500000  0.707753  0.999785  1
  Dy  Dy4  1  0.000000  0.204752  0.249247  1
  Dy  Dy5  1  0.500000  0.793928  0.251663  1
  Dy  Dy6  1  0.000000  0.205374  0.750381  1
  Dy  Dy7  1  0.500000  0.791065  0.750023  1
  Cu  Cu8  1  0.000000  0.579860  0.655461  1
  Si  Si9  1  0.000000  0.908890  0.593034  1
  Si  Si10  1  0.500000  0.091564  0.906128  1
  Si  Si11  1  0.000000  0.909489  0.407446  1
  Si  Si12  1  0.500000  0.090180  0.092571  1
  Si  Si13  1  0.000000  0.590749  0.147481  1
  Si  Si14  1  0.500000  0.409560  0.351051  1
  Si  Si15  1  0.000000  0.591833  0.852442  1
  Si  Si16  1  0.500000  0.410765  0.646549  1
  Pt  Pt17  1  0.500000  0.075557  0.609778  1
  Pt  Pt18  1  0.000000  0.924310  0.890674  1
  Pt  Pt19  1  0.500000  0.077562  0.392179  1
  Pt  Pt20  1  0.000000  0.921660  0.108630  1
  Pt  Pt21  1  0.500000  0.420787  0.154260  1
  Pt  Pt22  1  0.000000  0.579783  0.350933  1
  Pt  Pt23  1  0.500000  0.420792  0.842105  1
