# generated using pymatgen
data_YbErGaIr2
_symmetry_space_group_name_H-M   'P 1'
_cell_length_a   5.68710017
_cell_length_b   5.68709947
_cell_length_c   7.68647085
_cell_angle_alpha   102.40372457
_cell_angle_beta   102.40372487
_cell_angle_gamma   57.78410688
_symmetry_Int_Tables_number   1
_chemical_formula_structural   YbErGaIr2
_chemical_formula_sum   'Yb2 Er2 Ga2 Ir4'
_cell_volume   203.90246609
_cell_formula_units_Z   2
loop_
 _symmetry_equiv_pos_site_id
 _symmetry_equiv_pos_as_xyz
  1  'x, y, z'
loop_
 _atom_site_type_symbol
 _atom_site_label
 _atom_site_symmetry_multiplicity
 _atom_site_fract_x
 _atom_site_fract_y
 _atom_site_fract_z
 _atom_site_occupancy
  Yb  Yb0  1  0.500003  0.790919  0.645159  1
  Yb  Yb1  1  0.209081  0.499997  0.854841  1
  Er  Er2  1  0.792472  0.497227  0.146150  1
  Er  Er3  1  0.502773  0.207528  0.353849  1
  Ga  Ga4  1  0.121003  0.878997  0.249999  1
  Ga  Ga5  1  0.890801  0.109199  0.750000  1
  Ir  Ir6  1  0.287836  0.997084  0.018721  1
  Ir  Ir7  1  0.002915  0.712164  0.481279  1
  Ir  Ir8  1  0.978941  0.285825  0.507011  1
  Ir  Ir9  1  0.714174  0.021058  0.992990  1
