# generated using pymatgen
data_Cd3Pt4AuO14
_symmetry_space_group_name_H-M   'P 1'
_cell_length_a   7.27922545
_cell_length_b   7.13105204
_cell_length_c   7.27922600
_cell_angle_alpha   59.31023253
_cell_angle_beta   59.99999750
_cell_angle_gamma   59.31022799
_symmetry_Int_Tables_number   1
_chemical_formula_structural   Cd3Pt4AuO14
_chemical_formula_sum   'Cd3 Pt4 Au1 O14'
_cell_volume   264.36350917
_cell_formula_units_Z   1
loop_
 _symmetry_equiv_pos_site_id
 _symmetry_equiv_pos_as_xyz
  1  'x, y, z'
loop_
 _atom_site_type_symbol
 _atom_site_label
 _atom_site_symmetry_multiplicity
 _atom_site_fract_x
 _atom_site_fract_y
 _atom_site_fract_z
 _atom_site_occupancy
  Cd  Cd0  1  0.125000  0.125000  0.625000  1
  Cd  Cd1  1  0.625000  0.125000  0.125000  1
  Cd  Cd2  1  0.125000  0.125000  0.125000  1
  Pt  Pt3  1  0.625000  0.625000  0.125000  1
  Pt  Pt4  1  0.625000  0.125000  0.625000  1
  Pt  Pt5  1  0.125000  0.625000  0.625000  1
  Pt  Pt6  1  0.625000  0.625000  0.625000  1
  Au  Au7  1  0.125000  0.625000  0.125000  1
  O  O8  1  0.241392  0.275824  0.241392  1
  O  O9  1  0.008608  0.974176  0.008608  1
  O  O10  1  0.540512  0.961332  0.540512  1
  O  O11  1  0.293736  0.705846  0.293736  1
  O  O12  1  0.543318  0.544154  0.956264  1
  O  O13  1  0.956264  0.544154  0.543318  1
  O  O14  1  0.540512  0.961332  0.957642  1
  O  O15  1  0.957642  0.961332  0.540512  1
  O  O16  1  0.956264  0.544154  0.956264  1
  O  O17  1  0.709488  0.288668  0.292358  1
  O  O18  1  0.293736  0.705846  0.706682  1
  O  O19  1  0.709488  0.288668  0.709488  1
  O  O20  1  0.292358  0.288668  0.709488  1
  O  O21  1  0.706682  0.705846  0.293736  1
