# generated using pymatgen
data_Tb7Ho(Ta3Ge4)4
_symmetry_space_group_name_H-M   'P 1'
_cell_length_a   7.01162911
_cell_length_b   7.18039301
_cell_length_c   13.55991235
_cell_angle_alpha   89.99304237
_cell_angle_beta   90.01835371
_cell_angle_gamma   89.99678041
_symmetry_Int_Tables_number   1
_chemical_formula_structural   Tb7Ho(Ta3Ge4)4
_chemical_formula_sum   'Tb7 Ho1 Ta12 Ge16'
_cell_volume   682.69073242
_cell_formula_units_Z   1
loop_
 _symmetry_equiv_pos_site_id
 _symmetry_equiv_pos_as_xyz
  1  'x, y, z'
loop_
 _atom_site_type_symbol
 _atom_site_label
 _atom_site_symmetry_multiplicity
 _atom_site_fract_x
 _atom_site_fract_y
 _atom_site_fract_z
 _atom_site_occupancy
  Tb  Tb0  1  0.495381  0.326396  0.094586  1
  Tb  Tb1  1  0.995383  0.173375  0.405380  1
  Tb  Tb2  1  0.504670  0.673404  0.594624  1
  Tb  Tb3  1  0.004653  0.826673  0.905498  1
  Tb  Tb4  1  0.504569  0.673624  0.905481  1
  Tb  Tb5  1  0.004651  0.826625  0.594653  1
  Tb  Tb6  1  0.495291  0.326431  0.405192  1
  Ho  Ho7  1  0.995016  0.173850  0.094808  1
  Ta  Ta8  1  0.664308  0.015442  0.750108  1
  Ta  Ta9  1  0.164220  0.484430  0.750067  1
  Ta  Ta10  1  0.335668  0.984794  0.249829  1
  Ta  Ta11  1  0.835869  0.515440  0.249899  1
  Ta  Ta12  1  0.839690  0.329677  0.626486  1
  Ta  Ta13  1  0.339560  0.170201  0.873610  1
  Ta  Ta14  1  0.160472  0.670368  0.126397  1
  Ta  Ta15  1  0.660550  0.830022  0.373416  1
  Ta  Ta16  1  0.160170  0.670242  0.373457  1
  Ta  Ta17  1  0.660451  0.829907  0.126354  1
  Ta  Ta18  1  0.839995  0.329414  0.873711  1
  Ta  Ta19  1  0.339682  0.170194  0.626481  1
  Ge  Ge20  1  0.805478  0.638865  0.750107  1
  Ge  Ge21  1  0.305482  0.861128  0.750031  1
  Ge  Ge22  1  0.194193  0.360587  0.249594  1
  Ge  Ge23  1  0.694959  0.139046  0.249827  1
  Ge  Ge24  1  0.539599  0.379236  0.750104  1
  Ge  Ge25  1  0.039587  0.120677  0.750039  1
  Ge  Ge26  1  0.460417  0.620857  0.249887  1
  Ge  Ge27  1  0.960538  0.879465  0.249711  1
  Ge  Ge28  1  0.675154  0.039212  0.541630  1
  Ge  Ge29  1  0.175161  0.460536  0.958605  1
  Ge  Ge30  1  0.323674  0.961444  0.041742  1
  Ge  Ge31  1  0.824663  0.539184  0.458371  1
  Ge  Ge32  1  0.324874  0.960778  0.458308  1
  Ge  Ge33  1  0.825171  0.538414  0.041801  1
  Ge  Ge34  1  0.675585  0.039270  0.958583  1
  Ge  Ge35  1  0.175216  0.460792  0.541621  1
