# generated using pymatgen
data_Ca2Dy3Cd7Ga12(SnO6)8
_symmetry_space_group_name_H-M   'P 1'
_cell_length_a   10.96842400
_cell_length_b   11.01740645
_cell_length_c   11.03423378
_cell_angle_alpha   109.58408749
_cell_angle_beta   109.47696760
_cell_angle_gamma   109.44665788
_symmetry_Int_Tables_number   1
_chemical_formula_structural   Ca2Dy3Cd7Ga12(SnO6)8
_chemical_formula_sum   'Ca2 Dy3 Cd7 Ga12 Sn8 O48'
_cell_volume   1025.27001502
_cell_formula_units_Z   1
loop_
 _symmetry_equiv_pos_site_id
 _symmetry_equiv_pos_as_xyz
  1  'x, y, z'
loop_
 _atom_site_type_symbol
 _atom_site_label
 _atom_site_symmetry_multiplicity
 _atom_site_fract_x
 _atom_site_fract_y
 _atom_site_fract_z
 _atom_site_occupancy
  Ca  Ca0  1  0.127056  0.376943  0.749504  1
  Ca  Ca1  1  0.874911  0.624536  0.252767  1
  Dy  Dy2  1  0.249381  0.374808  0.125003  1
  Dy  Dy3  1  0.750880  0.625201  0.875103  1
  Dy  Dy4  1  0.749880  0.124453  0.374949  1
  Cd  Cd5  1  0.127327  0.250522  0.377867  1
  Cd  Cd6  1  0.373307  0.750668  0.122889  1
  Cd  Cd7  1  0.249726  0.875308  0.625065  1
  Cd  Cd8  1  0.875321  0.750370  0.622038  1
  Cd  Cd9  1  0.623824  0.247565  0.876477  1
  Cd  Cd10  1  0.372860  0.122294  0.249884  1
  Cd  Cd11  1  0.624583  0.877363  0.748739  1
  Ga  Ga12  1  0.249352  0.626882  0.377454  1
  Ga  Ga13  1  0.751126  0.374426  0.624104  1
  Ga  Ga14  1  0.749834  0.874541  0.125630  1
  Ga  Ga15  1  0.376444  0.252085  0.625623  1
  Ga  Ga16  1  0.623952  0.750342  0.373967  1
  Ga  Ga17  1  0.250257  0.124361  0.873240  1
  Ga  Ga18  1  0.122613  0.748218  0.875060  1
  Ga  Ga19  1  0.877083  0.251207  0.127069  1
  Ga  Ga20  1  0.622522  0.372484  0.248989  1
  Ga  Ga21  1  0.378117  0.625639  0.751467  1
  Ga  Ga22  1  0.876453  0.125992  0.749674  1
  Ga  Ga23  1  0.122982  0.874402  0.248002  1
  Sn  Sn24  1  0.999848  0.000479  0.999951  1
  Sn  Sn25  1  0.498556  0.998959  0.499962  1
  Sn  Sn26  1  0.001266  0.501520  0.500334  1
  Sn  Sn27  1  0.498293  0.999499  0.998442  1
  Sn  Sn28  1  0.500155  0.499799  0.000832  1
  Sn  Sn29  1  0.500187  0.499938  0.499289  1
  Sn  Sn30  1  0.001574  0.999944  0.500889  1
  Sn  Sn31  1  0.999853  0.499599  0.999904  1
  O  O32  1  0.468669  0.374559  0.287911  1
  O  O33  1  0.531558  0.623742  0.711154  1
  O  O34  1  0.586068  0.180530  0.210965  1
  O  O35  1  0.911867  0.122250  0.593859  1
  O  O36  1  0.298525  0.479178  0.372447  1
  O  O37  1  0.317405  0.915731  0.294177  1
  O  O38  1  0.421108  0.818817  0.795201  1
  O  O39  1  0.081800  0.877970  0.398918  1
  O  O40  1  0.702105  0.521122  0.627374  1
  O  O41  1  0.682530  0.084045  0.705677  1
  O  O42  1  0.029056  0.317943  0.906138  1
  O  O43  1  0.201016  0.573916  0.180833  1
  O  O44  1  0.123530  0.024456  0.204236  1
  O  O45  1  0.970762  0.681033  0.092190  1
  O  O46  1  0.798488  0.425493  0.819165  1
  O  O47  1  0.874738  0.976346  0.794943  1
  O  O48  1  0.605312  0.926339  0.128382  1
  O  O49  1  0.184099  0.479279  0.598616  1
  O  O50  1  0.401167  0.082416  0.876682  1
  O  O51  1  0.815972  0.520131  0.401090  1
  O  O52  1  0.894787  0.023023  0.321175  1
  O  O53  1  0.380006  0.582948  0.901691  1
  O  O54  1  0.097751  0.975900  0.681582  1
  O  O55  1  0.620674  0.417180  0.099816  1
  O  O56  1  0.376833  0.295595  0.475994  1
  O  O57  1  0.586497  0.905142  0.375137  1
  O  O58  1  0.624971  0.705316  0.523476  1
  O  O59  1  0.420809  0.102695  0.625882  1
  O  O60  1  0.123325  0.597456  0.917218  1
  O  O61  1  0.030721  0.212173  0.125163  1
  O  O62  1  0.874947  0.400108  0.081711  1
  O  O63  1  0.969166  0.788851  0.876241  1
  O  O64  1  0.316766  0.901190  0.022800  1
  O  O65  1  0.913413  0.288632  0.318584  1
  O  O66  1  0.683205  0.099046  0.977494  1
  O  O67  1  0.079939  0.705192  0.682276  1
  O  O68  1  0.183043  0.207718  0.586333  1
  O  O69  1  0.469070  0.594419  0.181677  1
  O  O70  1  0.816966  0.792629  0.414016  1
  O  O71  1  0.530694  0.407216  0.819093  1
  O  O72  1  0.295170  0.320019  0.923281  1
  O  O73  1  0.704686  0.679901  0.076830  1
  O  O74  1  0.201287  0.127778  0.020621  1
  O  O75  1  0.798374  0.872585  0.979043  1
  O  O76  1  0.897777  0.370978  0.575672  1
  O  O77  1  0.096356  0.623000  0.415640  1
  O  O78  1  0.605551  0.178759  0.477019  1
  O  O79  1  0.401918  0.818910  0.524404  1
