# generated using pymatgen
data_Nd4CoNi3B16
_symmetry_space_group_name_H-M   'P 1'
_cell_length_a   6.93723257
_cell_length_b   6.93723162
_cell_length_c   6.93723233
_cell_angle_alpha   112.72517668
_cell_angle_beta   112.67369987
_cell_angle_gamma   103.19147692
_symmetry_Int_Tables_number   1
_chemical_formula_structural   Nd4CoNi3B16
_chemical_formula_sum   'Nd4 Co1 Ni3 B16'
_cell_volume   254.72145283
_cell_formula_units_Z   1
loop_
 _symmetry_equiv_pos_site_id
 _symmetry_equiv_pos_as_xyz
  1  'x, y, z'
loop_
 _atom_site_type_symbol
 _atom_site_label
 _atom_site_symmetry_multiplicity
 _atom_site_fract_x
 _atom_site_fract_y
 _atom_site_fract_z
 _atom_site_occupancy
  Nd  Nd0  1  0.791593  0.793488  0.998105  1
  Nd  Nd1  1  0.204617  0.206512  0.998105  1
  Nd  Nd2  1  0.752103  0.251196  0.500907  1
  Nd  Nd3  1  0.249711  0.748804  0.500907  1
  Co  Co4  1  0.271791  0.500000  0.771791  1
  Ni  Ni5  1  0.727020  0.500000  0.227020  1
  Ni  Ni6  1  0.500321  0.729229  0.229550  1
  Ni  Ni7  1  0.500321  0.270771  0.771092  1
  B  B8  1  0.275509  0.112383  0.387892  1
  B  B9  1  0.724447  0.888356  0.612803  1
  B  B10  1  0.275509  0.887617  0.163126  1
  B  B11  1  0.724447  0.111644  0.836090  1
  B  B12  1  0.112306  0.721347  0.833653  1
  B  B13  1  0.887756  0.276505  0.164262  1
  B  B14  1  0.112306  0.278653  0.390959  1
  B  B15  1  0.887756  0.723495  0.611251  1
  B  B16  1  0.114258  0.116142  0.532371  1
  B  B17  1  0.584131  0.584197  0.470823  1
  B  B18  1  0.114258  0.581887  0.998115  1
  B  B19  1  0.584131  0.113308  0.999934  1
  B  B20  1  0.886626  0.886692  0.470823  1
  B  B21  1  0.416229  0.418113  0.532371  1
  B  B22  1  0.886627  0.415803  0.999934  1
  B  B23  1  0.416229  0.883859  0.998115  1
