# generated using pymatgen
data_Ta3CrSi3Tc2
_symmetry_space_group_name_H-M   'P 1'
_cell_length_a   6.79118212
_cell_length_b   6.76199834
_cell_length_c   3.29937500
_cell_angle_alpha   90.00000000
_cell_angle_beta   90.00000000
_cell_angle_gamma   119.85794229
_symmetry_Int_Tables_number   1
_chemical_formula_structural   Ta3CrSi3Tc2
_chemical_formula_sum   'Ta3 Cr1 Si3 Tc2'
_cell_volume   131.40220355
_cell_formula_units_Z   1
loop_
 _symmetry_equiv_pos_site_id
 _symmetry_equiv_pos_as_xyz
  1  'x, y, z'
loop_
 _atom_site_type_symbol
 _atom_site_label
 _atom_site_symmetry_multiplicity
 _atom_site_fract_x
 _atom_site_fract_y
 _atom_site_fract_z
 _atom_site_occupancy
  Ta  Ta0  1  0.000000  0.586041  0.500000  1
  Ta  Ta1  1  0.607363  0.007857  0.500000  1
  Ta  Ta2  1  0.392637  0.400494  0.500000  1
  Cr  Cr3  1  0.000000  0.255857  0.000000  1
  Si  Si4  1  0.666718  0.333754  0.000000  1
  Si  Si5  1  0.000000  0.006114  0.500000  1
  Si  Si6  1  0.333282  0.667037  0.000000  1
  Tc  Tc7  1  0.255392  0.999119  0.000000  1
  Tc  Tc8  1  0.744608  0.743726  0.000000  1
