# generated using pymatgen
data_Y12Ho4MgIn3Pd4
_symmetry_space_group_name_H-M   'P 1'
_cell_length_a   9.77950719
_cell_length_b   9.75783159
_cell_length_c   9.75783100
_cell_angle_alpha   59.99999861
_cell_angle_beta   60.07329052
_cell_angle_gamma   60.07329279
_symmetry_Int_Tables_number   1
_chemical_formula_structural   Y12Ho4MgIn3Pd4
_chemical_formula_sum   'Y12 Ho4 Mg1 In3 Pd4'
_cell_volume   659.15690210
_cell_formula_units_Z   1
loop_
 _symmetry_equiv_pos_site_id
 _symmetry_equiv_pos_as_xyz
  1  'x, y, z'
loop_
 _atom_site_type_symbol
 _atom_site_label
 _atom_site_symmetry_multiplicity
 _atom_site_fract_x
 _atom_site_fract_y
 _atom_site_fract_z
 _atom_site_occupancy
  Y  Y0  1  0.808972  0.190591  0.190591  1
  Y  Y1  1  0.187751  0.811804  0.811804  1
  Y  Y2  1  0.187751  0.811804  0.188643  1
  Y  Y3  1  0.808972  0.190591  0.809847  1
  Y  Y4  1  0.187751  0.188643  0.811804  1
  Y  Y5  1  0.808972  0.809847  0.190591  1
  Y  Y6  1  0.935570  0.564542  0.564542  1
  Y  Y7  1  0.564196  0.936143  0.936143  1
  Y  Y8  1  0.564196  0.936143  0.563518  1
  Y  Y9  1  0.935570  0.564542  0.935345  1
  Y  Y10  1  0.564196  0.563518  0.936143  1
  Y  Y11  1  0.935570  0.935345  0.564542  1
  Ho  Ho12  1  0.351778  0.350870  0.350870  1
  Ho  Ho13  1  0.351778  0.350870  0.946482  1
  Ho  Ho14  1  0.351778  0.946482  0.350870  1
  Ho  Ho15  1  0.944049  0.351984  0.351984  1
  Mg  Mg16  1  0.265448  0.578184  0.578184  1
  In  In17  1  0.582290  0.583493  0.583493  1
  In  In18  1  0.582290  0.583493  0.250722  1
  In  In19  1  0.582290  0.250722  0.583493  1
  Pd  Pd20  1  0.143987  0.144729  0.144729  1
  Pd  Pd21  1  0.143987  0.144729  0.566555  1
  Pd  Pd22  1  0.143987  0.566555  0.144729  1
  Pd  Pd23  1  0.566867  0.144378  0.144378  1
