# generated using pymatgen
data_BaHgPd4
_symmetry_space_group_name_H-M   'P 1'
_cell_length_a   5.68525601
_cell_length_b   5.68525550
_cell_length_c   4.57069900
_cell_angle_alpha   90.00000000
_cell_angle_beta   90.00000000
_cell_angle_gamma   120.35322907
_symmetry_Int_Tables_number   1
_chemical_formula_structural   BaHgPd4
_chemical_formula_sum   'Ba1 Hg1 Pd4'
_cell_volume   127.48421724
_cell_formula_units_Z   1
loop_
 _symmetry_equiv_pos_site_id
 _symmetry_equiv_pos_as_xyz
  1  'x, y, z'
loop_
 _atom_site_type_symbol
 _atom_site_label
 _atom_site_symmetry_multiplicity
 _atom_site_fract_x
 _atom_site_fract_y
 _atom_site_fract_z
 _atom_site_occupancy
  Ba  Ba0  1  0.000000  0.000000  0.000000  1
  Hg  Hg1  1  0.500000  0.500000  0.500000  1
  Pd  Pd2  1  0.000000  0.500000  0.500000  1
  Pd  Pd3  1  0.323530  0.676470  0.000000  1
  Pd  Pd4  1  0.676470  0.323530  0.000000  1
  Pd  Pd5  1  0.500000  0.000000  0.500000  1
