# generated using pymatgen
data_CsGa2Br7
_symmetry_space_group_name_H-M   'P 1'
_cell_length_a   11.65246200
_cell_length_b   11.37375509
_cell_length_c   15.27193600
_cell_angle_alpha   55.93051332
_cell_angle_beta   90.00000000
_cell_angle_gamma   90.00000000
_symmetry_Int_Tables_number   1
_chemical_formula_structural   CsGa2Br7
_chemical_formula_sum   'Cs4 Ga8 Br28'
_cell_volume   1676.61809106
_cell_formula_units_Z   4
loop_
 _symmetry_equiv_pos_site_id
 _symmetry_equiv_pos_as_xyz
  1  'x, y, z'
loop_
 _atom_site_type_symbol
 _atom_site_label
 _atom_site_symmetry_multiplicity
 _atom_site_fract_x
 _atom_site_fract_y
 _atom_site_fract_z
 _atom_site_occupancy
  Cs  Cs0  1  0.382049  0.887810  0.382705  1
  Cs  Cs1  1  0.882049  0.112190  0.117295  1
  Cs  Cs2  1  0.617951  0.112190  0.617295  1
  Cs  Cs3  1  0.117951  0.887810  0.882705  1
  Ga  Ga4  1  0.286611  0.598652  0.798897  1
  Ga  Ga5  1  0.786611  0.401348  0.701103  1
  Ga  Ga6  1  0.713389  0.401348  0.201103  1
  Ga  Ga7  1  0.213389  0.598652  0.298897  1
  Ga  Ga8  1  0.216215  0.173479  0.545316  1
  Ga  Ga9  1  0.716215  0.826521  0.954684  1
  Ga  Ga10  1  0.783785  0.826521  0.454684  1
  Ga  Ga11  1  0.283785  0.173479  0.045316  1
  Br  Br12  1  0.405142  0.379071  0.916069  1
  Br  Br13  1  0.905142  0.620929  0.583931  1
  Br  Br14  1  0.594858  0.620929  0.083931  1
  Br  Br15  1  0.094858  0.379071  0.416069  1
  Br  Br16  1  0.135005  0.155412  0.949826  1
  Br  Br17  1  0.635005  0.844588  0.550174  1
  Br  Br18  1  0.864995  0.844588  0.050174  1
  Br  Br19  1  0.364995  0.155412  0.449826  1
  Br  Br20  1  0.213025  0.209236  0.171650  1
  Br  Br21  1  0.713025  0.790764  0.328350  1
  Br  Br22  1  0.786975  0.790764  0.828350  1
  Br  Br23  1  0.286975  0.209236  0.671650  1
  Br  Br24  1  0.416210  0.988412  0.113805  1
  Br  Br25  1  0.916210  0.011588  0.386195  1
  Br  Br26  1  0.583790  0.011588  0.886195  1
  Br  Br27  1  0.083790  0.988412  0.613805  1
  Br  Br28  1  0.224891  0.613977  0.140633  1
  Br  Br29  1  0.724891  0.386023  0.359367  1
  Br  Br30  1  0.775109  0.386023  0.859367  1
  Br  Br31  1  0.275109  0.613977  0.640633  1
  Br  Br32  1  0.105684  0.775778  0.294550  1
  Br  Br33  1  0.605684  0.224222  0.205450  1
  Br  Br34  1  0.894316  0.224222  0.705450  1
  Br  Br35  1  0.394316  0.775778  0.794550  1
  Br  Br36  1  0.391275  0.564215  0.379414  1
  Br  Br37  1  0.891275  0.435785  0.120586  1
  Br  Br38  1  0.608725  0.435785  0.620586  1
  Br  Br39  1  0.108725  0.564215  0.879414  1
