# generated using pymatgen
data_Zr3MnPd11Pt
_symmetry_space_group_name_H-M   'P 1'
_cell_length_a   5.69350462
_cell_length_b   5.69350505
_cell_length_c   9.26480900
_cell_angle_alpha   90.00000000
_cell_angle_beta   90.00000000
_cell_angle_gamma   120.05335537
_symmetry_Int_Tables_number   1
_chemical_formula_structural   Zr3MnPd11Pt
_chemical_formula_sum   'Zr3 Mn1 Pd11 Pt1'
_cell_volume   259.95174808
_cell_formula_units_Z   1
loop_
 _symmetry_equiv_pos_site_id
 _symmetry_equiv_pos_as_xyz
  1  'x, y, z'
loop_
 _atom_site_type_symbol
 _atom_site_label
 _atom_site_symmetry_multiplicity
 _atom_site_fract_x
 _atom_site_fract_y
 _atom_site_fract_z
 _atom_site_occupancy
  Zr  Zr0  1  0.000498  0.999502  0.497565  1
  Zr  Zr1  1  0.000498  0.999502  0.002435  1
  Zr  Zr2  1  0.666197  0.333803  0.750000  1
  Mn  Mn3  1  0.333309  0.666691  0.250000  1
  Pd  Pd4  1  0.499345  0.500655  0.497998  1
  Pd  Pd5  1  0.499550  0.998544  0.498307  1
  Pd  Pd6  1  0.001456  0.500450  0.498307  1
  Pd  Pd7  1  0.499345  0.500655  0.002002  1
  Pd  Pd8  1  0.499550  0.998544  0.001693  1
  Pd  Pd9  1  0.001456  0.500450  0.001693  1
  Pd  Pd10  1  0.830245  0.169755  0.250000  1
  Pd  Pd11  1  0.830736  0.661415  0.250000  1
  Pd  Pd12  1  0.338585  0.169264  0.250000  1
  Pd  Pd13  1  0.169259  0.338905  0.750000  1
  Pd  Pd14  1  0.661095  0.830741  0.750000  1
  Pt  Pt15  1  0.168874  0.831126  0.750000  1
