# generated using pymatgen
data_CaLaY5FeBr12
_symmetry_space_group_name_H-M   'P 1'
_cell_length_a   9.10367610
_cell_length_b   9.36864458
_cell_length_c   9.37564383
_cell_angle_alpha   106.86552766
_cell_angle_beta   106.20960879
_cell_angle_gamma   107.18540311
_symmetry_Int_Tables_number   1
_chemical_formula_structural   CaLaY5FeBr12
_chemical_formula_sum   'Ca1 La1 Y5 Fe1 Br12'
_cell_volume   670.33626101
_cell_formula_units_Z   1
loop_
 _symmetry_equiv_pos_site_id
 _symmetry_equiv_pos_as_xyz
  1  'x, y, z'
loop_
 _atom_site_type_symbol
 _atom_site_label
 _atom_site_symmetry_multiplicity
 _atom_site_fract_x
 _atom_site_fract_y
 _atom_site_fract_z
 _atom_site_occupancy
  Ca  Ca0  1  0.501573  0.499731  0.498198  1
  La  La1  1  0.712559  0.904557  0.978273  1
  Y  Y2  1  0.285336  0.096664  0.023265  1
  Y  Y3  1  0.022059  0.314018  0.105968  1
  Y  Y4  1  0.106904  0.025003  0.312629  1
  Y  Y5  1  0.896345  0.975765  0.689388  1
  Y  Y6  1  0.975044  0.686154  0.893764  1
  Fe  Fe7  1  0.979941  0.993431  0.000112  1
  Br  Br8  1  0.682804  0.234241  0.076549  1
  Br  Br9  1  0.373804  0.449031  0.155438  1
  Br  Br10  1  0.073426  0.680953  0.215263  1
  Br  Br11  1  0.789630  0.931259  0.333981  1
  Br  Br12  1  0.455861  0.156964  0.369185  1
  Br  Br13  1  0.153112  0.372527  0.453948  1
  Br  Br14  1  0.851867  0.627877  0.547211  1
  Br  Br15  1  0.541685  0.838482  0.610327  1
  Br  Br16  1  0.223847  0.074512  0.688609  1
  Br  Br17  1  0.931690  0.320347  0.785464  1
  Br  Br18  1  0.624519  0.530865  0.831883  1
  Br  Br19  1  0.317993  0.787620  0.930543  1
