# generated using pymatgen
data_Dy11ScTc4
_symmetry_space_group_name_H-M   'P 1'
_cell_length_a   6.23033118
_cell_length_b   7.38867056
_cell_length_c   9.14066937
_cell_angle_alpha   89.91918360
_cell_angle_beta   90.28460206
_cell_angle_gamma   89.91598072
_symmetry_Int_Tables_number   1
_chemical_formula_structural   Dy11ScTc4
_chemical_formula_sum   'Dy11 Sc1 Tc4'
_cell_volume   420.77426964
_cell_formula_units_Z   1
loop_
 _symmetry_equiv_pos_site_id
 _symmetry_equiv_pos_as_xyz
  1  'x, y, z'
loop_
 _atom_site_type_symbol
 _atom_site_label
 _atom_site_symmetry_multiplicity
 _atom_site_fract_x
 _atom_site_fract_y
 _atom_site_fract_z
 _atom_site_occupancy
  Dy  Dy0  1  0.628678  0.043249  0.253464  1
  Dy  Dy1  1  0.375256  0.960780  0.747908  1
  Dy  Dy2  1  0.124785  0.456840  0.747571  1
  Dy  Dy3  1  0.870983  0.540138  0.253292  1
  Dy  Dy4  1  0.162317  0.175872  0.062862  1
  Dy  Dy5  1  0.838418  0.823918  0.936989  1
  Dy  Dy6  1  0.660842  0.322697  0.934606  1
  Dy  Dy7  1  0.838819  0.823406  0.562328  1
  Dy  Dy8  1  0.339113  0.676338  0.063263  1
  Dy  Dy9  1  0.158519  0.177970  0.439103  1
  Dy  Dy10  1  0.341400  0.673886  0.439213  1
  Sc  Sc11  1  0.660517  0.328609  0.565374  1
  Tc  Tc12  1  0.462655  0.385360  0.255073  1
  Tc  Tc13  1  0.543781  0.608992  0.745083  1
  Tc  Tc14  1  0.952705  0.116780  0.745092  1
  Tc  Tc15  1  0.041212  0.885164  0.248778  1
