# generated using pymatgen
data_HfTaV3Tc
_symmetry_space_group_name_H-M   'P 1'
_cell_length_a   5.16130677
_cell_length_b   5.16130633
_cell_length_c   5.10315263
_cell_angle_alpha   59.62231866
_cell_angle_beta   59.62232157
_cell_angle_gamma   60.00000046
_symmetry_Int_Tables_number   1
_chemical_formula_structural   HfTaV3Tc
_chemical_formula_sum   'Hf1 Ta1 V3 Tc1'
_cell_volume   95.57403238
_cell_formula_units_Z   1
loop_
 _symmetry_equiv_pos_site_id
 _symmetry_equiv_pos_as_xyz
  1  'x, y, z'
loop_
 _atom_site_type_symbol
 _atom_site_label
 _atom_site_symmetry_multiplicity
 _atom_site_fract_x
 _atom_site_fract_y
 _atom_site_fract_z
 _atom_site_occupancy
  Hf  Hf0  1  0.249657  0.249657  0.251030  1
  Ta  Ta1  1  0.000529  0.000529  0.998414  1
  V  V2  1  0.624938  0.124925  0.625199  1
  V  V3  1  0.124925  0.624938  0.625199  1
  V  V4  1  0.624938  0.624938  0.625199  1
  Tc  Tc5  1  0.625014  0.625014  0.124959  1
