# generated using pymatgen
data_Pr5Sn15IrRh7
_symmetry_space_group_name_H-M   'P 1'
_cell_length_a   4.55063300
_cell_length_b   7.31856588
_cell_length_c   18.79574714
_cell_angle_alpha   89.91281158
_cell_angle_beta   90.00000000
_cell_angle_gamma   90.00000000
_symmetry_Int_Tables_number   1
_chemical_formula_structural   Pr5Sn15IrRh7
_chemical_formula_sum   'Pr5 Sn15 Ir1 Rh7'
_cell_volume   625.97485663
_cell_formula_units_Z   1
loop_
 _symmetry_equiv_pos_site_id
 _symmetry_equiv_pos_as_xyz
  1  'x, y, z'
loop_
 _atom_site_type_symbol
 _atom_site_label
 _atom_site_symmetry_multiplicity
 _atom_site_fract_x
 _atom_site_fract_y
 _atom_site_fract_z
 _atom_site_occupancy
  Pr  Pr0  1  0.500000  0.002187  0.856081  1
  Pr  Pr1  1  0.500000  0.500398  0.357352  1
  Pr  Pr2  1  0.000000  0.001314  0.143573  1
  Pr  Pr3  1  0.000000  0.500138  0.641544  1
  Pr  Pr4  1  0.500000  0.495440  0.930420  1
  Sn  Sn5  1  0.000000  0.717894  0.806384  1
  Sn  Sn6  1  0.000000  0.779884  0.305158  1
  Sn  Sn7  1  0.500000  0.278033  0.194285  1
  Sn  Sn8  1  0.500000  0.218233  0.693774  1
  Sn  Sn9  1  0.000000  0.853500  0.969732  1
  Sn  Sn10  1  0.000000  0.632500  0.468520  1
  Sn  Sn11  1  0.500000  0.133418  0.032279  1
  Sn  Sn12  1  0.500000  0.366313  0.530325  1
  Sn  Sn13  1  0.000000  0.304329  0.819419  1
  Sn  Sn14  1  0.000000  0.198535  0.317602  1
  Sn  Sn15  1  0.500000  0.696994  0.185067  1
  Sn  Sn16  1  0.500000  0.807016  0.679159  1
  Sn  Sn17  1  0.500000  0.018799  0.432906  1
  Sn  Sn18  1  0.000000  0.511099  0.067695  1
  Sn  Sn19  1  0.000000  0.981765  0.568233  1
  Ir  Ir20  1  0.000000  0.229983  0.965560  1
  Rh  Rh21  1  0.000000  0.247475  0.464491  1
  Rh  Rh22  1  0.500000  0.764959  0.044678  1
  Rh  Rh23  1  0.500000  0.750962  0.533368  1
  Rh  Rh24  1  0.000000  0.018571  0.715895  1
  Rh  Rh25  1  0.000000  0.482679  0.213168  1
  Rh  Rh26  1  0.500000  0.986363  0.288957  1
  Rh  Rh27  1  0.500000  0.521215  0.774377  1
