# generated using pymatgen
data_Pr2Pa(GaPt)3
_symmetry_space_group_name_H-M   'P 1'
_cell_length_a   7.40342300
_cell_length_b   7.40720776
_cell_length_c   4.00585100
_cell_angle_alpha   90.00000000
_cell_angle_beta   90.00000000
_cell_angle_gamma   119.98310359
_symmetry_Int_Tables_number   1
_chemical_formula_structural   Pr2Pa(GaPt)3
_chemical_formula_sum   'Pr2 Pa1 Ga3 Pt3'
_cell_volume   190.27705924
_cell_formula_units_Z   1
loop_
 _symmetry_equiv_pos_site_id
 _symmetry_equiv_pos_as_xyz
  1  'x, y, z'
loop_
 _atom_site_type_symbol
 _atom_site_label
 _atom_site_symmetry_multiplicity
 _atom_site_fract_x
 _atom_site_fract_y
 _atom_site_fract_z
 _atom_site_occupancy
  Pr  Pr0  1  0.002564  0.590063  0.000000  1
  Pr  Pr1  1  0.412501  0.409937  0.000000  1
  Pa  Pa2  1  0.585061  0.000000  0.000000  1
  Ga  Ga3  1  0.238897  0.000000  0.500000  1
  Ga  Ga4  1  0.003778  0.249746  0.500000  1
  Ga  Ga5  1  0.754032  0.750254  0.500000  1
  Pt  Pt6  1  0.360516  0.696665  0.500000  1
  Pt  Pt7  1  0.663854  0.303335  0.500000  1
  Pt  Pt8  1  0.978796  0.000000  0.000000  1
