# generated using pymatgen
data_Ca13Pt6
_symmetry_space_group_name_H-M   'P 1'
_cell_length_a   6.83342203
_cell_length_b   7.43650720
_cell_length_c   22.03725094
_cell_angle_alpha   81.33364617
_cell_angle_beta   81.31859211
_cell_angle_gamma   90.04639577
_symmetry_Int_Tables_number   1
_chemical_formula_structural   Ca13Pt6
_chemical_formula_sum   'Ca26 Pt12'
_cell_volume   1094.07464755
_cell_formula_units_Z   2
loop_
 _symmetry_equiv_pos_site_id
 _symmetry_equiv_pos_as_xyz
  1  'x, y, z'
loop_
 _atom_site_type_symbol
 _atom_site_label
 _atom_site_symmetry_multiplicity
 _atom_site_fract_x
 _atom_site_fract_y
 _atom_site_fract_z
 _atom_site_occupancy
  Ca  Ca0  1  0.255699  0.891922  0.013654  1
  Ca  Ca1  1  0.228095  0.390356  0.015258  1
  Ca  Ca2  1  0.757319  0.275817  0.137990  1
  Ca  Ca3  1  0.599348  0.772962  0.137873  1
  Ca  Ca4  1  0.098118  0.887870  0.176811  1
  Ca  Ca5  1  0.218056  0.387015  0.177849  1
  Ca  Ca6  1  0.503086  0.985804  0.283190  1
  Ca  Ca7  1  0.708924  0.485057  0.283886  1
  Ca  Ca8  1  0.015333  0.820038  0.340014  1
  Ca  Ca9  1  0.141127  0.319247  0.340578  1
  Ca  Ca10  1  0.428145  0.634136  0.427603  1
  Ca  Ca11  1  0.642836  0.133970  0.428219  1
  Ca  Ca12  1  0.937061  0.749749  0.499758  1
  Ca  Ca13  1  0.062938  0.250251  0.500242  1
  Ca  Ca14  1  0.357163  0.866029  0.571781  1
  Ca  Ca15  1  0.571855  0.365864  0.572397  1
  Ca  Ca16  1  0.858873  0.680754  0.659422  1
  Ca  Ca17  1  0.984668  0.179963  0.659986  1
  Ca  Ca18  1  0.291076  0.514943  0.716114  1
  Ca  Ca19  1  0.496913  0.014195  0.716810  1
  Ca  Ca20  1  0.781943  0.612985  0.822151  1
  Ca  Ca21  1  0.901881  0.112129  0.823190  1
  Ca  Ca22  1  0.400652  0.227038  0.862128  1
  Ca  Ca23  1  0.242681  0.724184  0.862010  1
  Ca  Ca24  1  0.771905  0.609644  0.984743  1
  Ca  Ca25  1  0.744301  0.108077  0.986345  1
  Pt  Pt26  1  0.978709  0.619869  0.093323  1
  Pt  Pt27  1  0.424521  0.117303  0.094190  1
  Pt  Pt28  1  0.899474  0.146075  0.259051  1
  Pt  Pt29  1  0.336424  0.645670  0.259397  1
  Pt  Pt30  1  0.820414  0.489946  0.419432  1
  Pt  Pt31  1  0.258713  0.989427  0.420080  1
  Pt  Pt32  1  0.741287  0.010573  0.579920  1
  Pt  Pt33  1  0.179586  0.510054  0.580568  1
  Pt  Pt34  1  0.663575  0.354330  0.740603  1
  Pt  Pt35  1  0.100525  0.853924  0.740949  1
  Pt  Pt36  1  0.575479  0.882696  0.905810  1
  Pt  Pt37  1  0.021291  0.380130  0.906677  1
