# generated using pymatgen
data_SmPuO5
_symmetry_space_group_name_H-M   'P 1'
_cell_length_a   12.44661500
_cell_length_b   5.55203419
_cell_length_c   7.42574501
_cell_angle_alpha   64.37325735
_cell_angle_beta   90.00000000
_cell_angle_gamma   90.00000000
_symmetry_Int_Tables_number   1
_chemical_formula_structural   SmPuO5
_chemical_formula_sum   'Sm4 Pu4 O20'
_cell_volume   462.67084842
_cell_formula_units_Z   4
loop_
 _symmetry_equiv_pos_site_id
 _symmetry_equiv_pos_as_xyz
  1  'x, y, z'
loop_
 _atom_site_type_symbol
 _atom_site_label
 _atom_site_symmetry_multiplicity
 _atom_site_fract_x
 _atom_site_fract_y
 _atom_site_fract_z
 _atom_site_occupancy
  Sm  Sm0  1  0.568844  0.694105  0.161682  1
  Sm  Sm1  1  0.431156  0.305895  0.838318  1
  Sm  Sm2  1  0.068844  0.305895  0.338318  1
  Sm  Sm3  1  0.931156  0.694105  0.661682  1
  Pu  Pu4  1  0.888475  0.985467  0.141553  1
  Pu  Pu5  1  0.111525  0.014533  0.858447  1
  Pu  Pu6  1  0.388475  0.014533  0.358447  1
  Pu  Pu7  1  0.611525  0.985467  0.641553  1
  O  O8  1  0.943060  0.649685  0.343379  1
  O  O9  1  0.056940  0.350315  0.656621  1
  O  O10  1  0.443060  0.350315  0.156621  1
  O  O11  1  0.556940  0.649685  0.843379  1
  O  O12  1  0.405650  0.905809  0.119760  1
  O  O13  1  0.594350  0.094191  0.880240  1
  O  O14  1  0.905650  0.094191  0.380240  1
  O  O15  1  0.094350  0.905809  0.619760  1
  O  O16  1  0.959363  0.857286  0.910243  1
  O  O17  1  0.040637  0.142714  0.089757  1
  O  O18  1  0.459363  0.142714  0.589757  1
  O  O19  1  0.540637  0.857286  0.410243  1
  O  O20  1  0.747236  0.839140  0.194319  1
  O  O21  1  0.252764  0.160860  0.805681  1
  O  O22  1  0.247236  0.160860  0.305681  1
  O  O23  1  0.752764  0.839140  0.694319  1
  O  O24  1  0.155643  0.684083  0.061977  1
  O  O25  1  0.844357  0.315917  0.938023  1
  O  O26  1  0.655643  0.315917  0.438023  1
  O  O27  1  0.344357  0.684083  0.561977  1
