# generated using pymatgen
data_RbLa(AlTe2)4
_symmetry_space_group_name_H-M   'P 1'
_cell_length_a   8.48400300
_cell_length_b   8.48400300
_cell_length_c   6.74676900
_cell_angle_alpha   90.00000000
_cell_angle_beta   90.00000000
_cell_angle_gamma   90.00000000
_symmetry_Int_Tables_number   1
_chemical_formula_structural   RbLa(AlTe2)4
_chemical_formula_sum   'Rb1 La1 Al4 Te8'
_cell_volume   485.62100969
_cell_formula_units_Z   1
loop_
 _symmetry_equiv_pos_site_id
 _symmetry_equiv_pos_as_xyz
  1  'x, y, z'
loop_
 _atom_site_type_symbol
 _atom_site_label
 _atom_site_symmetry_multiplicity
 _atom_site_fract_x
 _atom_site_fract_y
 _atom_site_fract_z
 _atom_site_occupancy
  Rb  Rb0  1  0.000000  0.000000  0.000000  1
  La  La1  1  0.500000  0.500000  0.000000  1
  Al  Al2  1  0.500000  0.000000  0.500000  1
  Al  Al3  1  0.000000  0.500000  0.500000  1
  Al  Al4  1  0.000000  0.500000  0.000000  1
  Al  Al5  1  0.500000  0.000000  0.000000  1
  Te  Te6  1  0.659396  0.817546  0.249115  1
  Te  Te7  1  0.340604  0.182454  0.249115  1
  Te  Te8  1  0.817546  0.659396  0.750885  1
  Te  Te9  1  0.659396  0.182454  0.750885  1
  Te  Te10  1  0.340604  0.817546  0.750885  1
  Te  Te11  1  0.182454  0.340604  0.750885  1
  Te  Te12  1  0.182454  0.659396  0.249115  1
  Te  Te13  1  0.817546  0.340604  0.249115  1
