# generated using pymatgen
data_TmPu3(GaPd)4
_symmetry_space_group_name_H-M   'P 1'
_cell_length_a   4.47714200
_cell_length_b   6.90064896
_cell_length_c   7.76414549
_cell_angle_alpha   89.73730018
_cell_angle_beta   90.00000000
_cell_angle_gamma   90.00000000
_symmetry_Int_Tables_number   1
_chemical_formula_structural   TmPu3(GaPd)4
_chemical_formula_sum   'Tm1 Pu3 Ga4 Pd4'
_cell_volume   239.87219227
_cell_formula_units_Z   1
loop_
 _symmetry_equiv_pos_site_id
 _symmetry_equiv_pos_as_xyz
  1  'x, y, z'
loop_
 _atom_site_type_symbol
 _atom_site_label
 _atom_site_symmetry_multiplicity
 _atom_site_fract_x
 _atom_site_fract_y
 _atom_site_fract_z
 _atom_site_occupancy
  Tm  Tm0  1  0.750000  0.518711  0.800549  1
  Pu  Pu1  1  0.250000  0.980055  0.300115  1
  Pu  Pu2  1  0.250000  0.482518  0.196978  1
  Pu  Pu3  1  0.750000  0.018874  0.700930  1
  Ga  Ga4  1  0.250000  0.327246  0.576747  1
  Ga  Ga5  1  0.250000  0.823337  0.922899  1
  Ga  Ga6  1  0.750000  0.674345  0.425931  1
  Ga  Ga7  1  0.750000  0.175708  0.075682  1
  Pd  Pd8  1  0.250000  0.225486  0.899940  1
  Pd  Pd9  1  0.250000  0.718410  0.600634  1
  Pd  Pd10  1  0.750000  0.774998  0.095438  1
  Pd  Pd11  1  0.750000  0.280310  0.404160  1
