# generated using pymatgen
data_Nd3Ni4Sb5Pd2
_symmetry_space_group_name_H-M   'P 1'
_cell_length_a   4.34172700
_cell_length_b   9.96876500
_cell_length_c   13.15583900
_cell_angle_alpha   90.00000000
_cell_angle_beta   90.00000000
_cell_angle_gamma   90.00000000
_symmetry_Int_Tables_number   1
_chemical_formula_structural   Nd3Ni4Sb5Pd2
_chemical_formula_sum   'Nd6 Ni8 Sb10 Pd4'
_cell_volume   569.40650006
_cell_formula_units_Z   2
loop_
 _symmetry_equiv_pos_site_id
 _symmetry_equiv_pos_as_xyz
  1  'x, y, z'
loop_
 _atom_site_type_symbol
 _atom_site_label
 _atom_site_symmetry_multiplicity
 _atom_site_fract_x
 _atom_site_fract_y
 _atom_site_fract_z
 _atom_site_occupancy
  Nd  Nd0  1  0.000000  0.242531  0.000000  1
  Nd  Nd1  1  0.500000  0.757469  0.500000  1
  Nd  Nd2  1  0.000000  0.249041  0.324708  1
  Nd  Nd3  1  0.500000  0.750959  0.175292  1
  Nd  Nd4  1  0.000000  0.249041  0.675292  1
  Nd  Nd5  1  0.500000  0.750959  0.824708  1
  Ni  Ni6  1  0.000000  0.992074  0.154654  1
  Ni  Ni7  1  0.500000  0.007926  0.345346  1
  Ni  Ni8  1  0.000000  0.992074  0.845346  1
  Ni  Ni9  1  0.500000  0.007926  0.654654  1
  Ni  Ni10  1  0.000000  0.616242  0.320663  1
  Ni  Ni11  1  0.500000  0.383758  0.179337  1
  Ni  Ni12  1  0.000000  0.616242  0.679337  1
  Ni  Ni13  1  0.500000  0.383758  0.820663  1
  Sb  Sb14  1  0.000000  0.509529  0.139785  1
  Sb  Sb15  1  0.500000  0.490471  0.360215  1
  Sb  Sb16  1  0.000000  0.509529  0.860215  1
  Sb  Sb17  1  0.500000  0.490471  0.639785  1
  Sb  Sb18  1  0.000000  0.870351  0.328085  1
  Sb  Sb19  1  0.500000  0.129649  0.171915  1
  Sb  Sb20  1  0.000000  0.870351  0.671915  1
  Sb  Sb21  1  0.500000  0.129649  0.828085  1
  Sb  Sb22  1  0.000000  0.827811  0.000000  1
  Sb  Sb23  1  0.500000  0.172189  0.500000  1
  Pd  Pd24  1  0.500000  0.988440  0.000000  1
  Pd  Pd25  1  0.000000  0.011560  0.500000  1
  Pd  Pd26  1  0.500000  0.510693  0.000000  1
  Pd  Pd27  1  0.000000  0.489307  0.500000  1
