# generated using pymatgen
data_Nd(FeRe2)4
_symmetry_space_group_name_H-M   'P 1'
_cell_length_a   4.83620612
_cell_length_b   6.77299835
_cell_length_c   6.77299744
_cell_angle_alpha   82.67693283
_cell_angle_beta   69.08264391
_cell_angle_gamma   69.08264017
_symmetry_Int_Tables_number   1
_chemical_formula_structural   Nd(FeRe2)4
_chemical_formula_sum   'Nd1 Fe4 Re8'
_cell_volume   193.57534394
_cell_formula_units_Z   1
loop_
 _symmetry_equiv_pos_site_id
 _symmetry_equiv_pos_as_xyz
  1  'x, y, z'
loop_
 _atom_site_type_symbol
 _atom_site_label
 _atom_site_symmetry_multiplicity
 _atom_site_fract_x
 _atom_site_fract_y
 _atom_site_fract_z
 _atom_site_occupancy
  Nd  Nd0  1  0.000000  0.000000  0.000000  1
  Fe  Fe1  1  0.000000  0.000000  0.500000  1
  Fe  Fe2  1  0.500000  0.000000  0.500000  1
  Fe  Fe3  1  0.500000  0.500000  0.000000  1
  Fe  Fe4  1  0.000000  0.500000  0.000000  1
  Re  Re5  1  0.000000  0.357666  0.642334  1
  Re  Re6  1  0.000000  0.642334  0.357666  1
  Re  Re7  1  0.642334  0.357666  0.357666  1
  Re  Re8  1  0.357666  0.642334  0.642334  1
  Re  Re9  1  0.500000  0.782595  0.217405  1
  Re  Re10  1  0.500000  0.217405  0.782595  1
  Re  Re11  1  0.717405  0.782595  0.782595  1
  Re  Re12  1  0.282595  0.217405  0.217405  1
