# generated using pymatgen
data_Pr4Ga10(CuPt)3
_symmetry_space_group_name_H-M   'P 1'
_cell_length_a   8.61473359
_cell_length_b   8.57974610
_cell_length_c   8.57974507
_cell_angle_alpha   138.90523044
_cell_angle_beta   106.06822482
_cell_angle_gamma   88.20028335
_symmetry_Int_Tables_number   1
_chemical_formula_structural   Pr4Ga10(CuPt)3
_chemical_formula_sum   'Pr4 Ga10 Cu3 Pt3'
_cell_volume   384.46275501
_cell_formula_units_Z   1
loop_
 _symmetry_equiv_pos_site_id
 _symmetry_equiv_pos_as_xyz
  1  'x, y, z'
loop_
 _atom_site_type_symbol
 _atom_site_label
 _atom_site_symmetry_multiplicity
 _atom_site_fract_x
 _atom_site_fract_y
 _atom_site_fract_z
 _atom_site_occupancy
  Pr  Pr0  1  0.865122  0.633380  0.231741  1
  Pr  Pr1  1  0.132506  0.366738  0.765769  1
  Pr  Pr2  1  0.399400  0.133939  0.265461  1
  Pr  Pr3  1  0.600281  0.866880  0.733401  1
  Ga  Ga4  1  0.495002  0.748272  0.249544  1
  Ga  Ga5  1  0.495002  0.245458  0.746731  1
  Ga  Ga6  1  0.223266  0.969135  0.739659  1
  Ga  Ga7  1  0.779556  0.529500  0.754101  1
  Ga  Ga8  1  0.779556  0.025456  0.250057  1
  Ga  Ga9  1  0.223266  0.483607  0.254131  1
  Ga  Ga10  1  0.052787  0.897488  0.155300  1
  Ga  Ga11  1  0.957410  0.105846  0.851564  1
  Ga  Ga12  1  0.748610  0.398073  0.350538  1
  Ga  Ga13  1  0.252205  0.602322  0.649882  1
  Cu  Cu14  1  0.000150  0.749830  0.751638  1
  Cu  Cu15  1  0.000150  0.248512  0.250320  1
  Cu  Cu16  1  0.250023  0.863049  0.386975  1
  Pt  Pt17  1  0.745922  0.135133  0.610786  1
  Pt  Pt18  1  0.473744  0.360552  0.113192  1
  Pt  Pt19  1  0.526041  0.636831  0.889210  1
