# generated using pymatgen
data_Ho2Er10ZnInCo4
_symmetry_space_group_name_H-M   'P 1'
_cell_length_a   8.26907195
_cell_length_b   8.26954139
_cell_length_c   8.27044092
_cell_angle_alpha   111.70506608
_cell_angle_beta   110.26329525
_cell_angle_gamma   106.48198967
_symmetry_Int_Tables_number   1
_chemical_formula_structural   Ho2Er10ZnInCo4
_chemical_formula_sum   'Ho2 Er10 Zn1 In1 Co4'
_cell_volume   434.44223514
_cell_formula_units_Z   1
loop_
 _symmetry_equiv_pos_site_id
 _symmetry_equiv_pos_as_xyz
  1  'x, y, z'
loop_
 _atom_site_type_symbol
 _atom_site_label
 _atom_site_symmetry_multiplicity
 _atom_site_fract_x
 _atom_site_fract_y
 _atom_site_fract_z
 _atom_site_occupancy
  Ho  Ho0  1  0.186538  0.289185  0.475751  1
  Ho  Ho1  1  0.813462  0.710815  0.524249  1
  Er  Er2  1  0.186949  0.711046  0.897985  1
  Er  Er3  1  0.813051  0.288954  0.102015  1
  Er  Er4  1  0.314448  0.618805  0.303735  1
  Er  Er5  1  0.685552  0.381195  0.696265  1
  Er  Er6  1  0.315111  0.010682  0.696294  1
  Er  Er7  1  0.684889  0.989318  0.303706  1
  Er  Er8  1  0.425571  0.222224  0.202718  1
  Er  Er9  1  0.574429  0.777776  0.797282  1
  Er  Er10  1  0.019498  0.222852  0.797255  1
  Er  Er11  1  0.980502  0.777148  0.202745  1
  Zn  Zn12  1  0.000000  0.000000  0.000000  1
  In  In13  1  0.500000  0.500000  0.000000  1
  Co  Co14  1  0.113043  0.613046  0.499970  1
  Co  Co15  1  0.886957  0.386954  0.500030  1
  Co  Co16  1  0.376102  0.999709  0.375803  1
  Co  Co17  1  0.623898  0.000291  0.624197  1
