# generated using pymatgen
data_Y4Ho8Co4BiRu
_symmetry_space_group_name_H-M   'P 1'
_cell_length_a   8.30393572
_cell_length_b   8.30383735
_cell_length_c   8.30393710
_cell_angle_alpha   111.01469881
_cell_angle_beta   110.59812602
_cell_angle_gamma   106.83336867
_symmetry_Int_Tables_number   1
_chemical_formula_structural   Y4Ho8Co4BiRu
_chemical_formula_sum   'Y4 Ho8 Co4 Bi1 Ru1'
_cell_volume   440.07772746
_cell_formula_units_Z   1
loop_
 _symmetry_equiv_pos_site_id
 _symmetry_equiv_pos_as_xyz
  1  'x, y, z'
loop_
 _atom_site_type_symbol
 _atom_site_label
 _atom_site_symmetry_multiplicity
 _atom_site_fract_x
 _atom_site_fract_y
 _atom_site_fract_z
 _atom_site_occupancy
  Y  Y0  1  0.816328  0.714397  0.530723  1
  Y  Y1  1  0.183672  0.285603  0.469277  1
  Y  Y2  1  0.183675  0.714397  0.898068  1
  Y  Y3  1  0.816325  0.285603  0.101932  1
  Ho  Ho4  1  0.688309  0.378969  0.690661  1
  Ho  Ho5  1  0.311691  0.621031  0.309339  1
  Ho  Ho6  1  0.688324  0.997640  0.309316  1
  Ho  Ho7  1  0.311676  0.002360  0.690684  1
  Ho  Ho8  1  0.593603  0.789252  0.804372  1
  Ho  Ho9  1  0.406397  0.210748  0.195628  1
  Ho  Ho10  1  0.984880  0.789252  0.195649  1
  Ho  Ho11  1  0.015120  0.210748  0.804351  1
  Co  Co12  1  0.623288  0.000000  0.623288  1
  Co  Co13  1  0.376712  0.000000  0.376712  1
  Co  Co14  1  0.111377  0.611386  0.500009  1
  Co  Co15  1  0.888623  0.388614  0.499991  1
  Bi  Bi16  1  0.500000  0.500000  0.000000  1
  Ru  Ru17  1  0.000000  0.000000  0.000000  1
