# generated using pymatgen
data_Zr3In3Co(NiH)2
_symmetry_space_group_name_H-M   'P 1'
_cell_length_a   7.26370100
_cell_length_b   7.26369937
_cell_length_c   3.57910800
_cell_angle_alpha   90.00000000
_cell_angle_beta   90.00000000
_cell_angle_gamma   120.00000286
_symmetry_Int_Tables_number   1
_chemical_formula_structural   Zr3In3Co(NiH)2
_chemical_formula_sum   'Zr3 In3 Co1 Ni2 H2'
_cell_volume   163.53896422
_cell_formula_units_Z   1
loop_
 _symmetry_equiv_pos_site_id
 _symmetry_equiv_pos_as_xyz
  1  'x, y, z'
loop_
 _atom_site_type_symbol
 _atom_site_label
 _atom_site_symmetry_multiplicity
 _atom_site_fract_x
 _atom_site_fract_y
 _atom_site_fract_z
 _atom_site_occupancy
  Zr  Zr0  1  0.398987  0.404642  0.500000  1
  Zr  Zr1  1  0.595358  0.994346  0.500000  1
  Zr  Zr2  1  0.005654  0.601013  0.500000  1
  In  In3  1  0.738261  0.736453  0.000000  1
  In  In4  1  0.263547  0.001808  0.000000  1
  In  In5  1  0.998192  0.261739  0.000000  1
  Co  Co6  1  0.333333  0.666667  0.000000  1
  Ni  Ni7  1  0.000000  0.000000  0.500000  1
  Ni  Ni8  1  0.666667  0.333333  0.000000  1
  H  H9  1  0.333333  0.666667  0.500000  1
  H  H10  1  0.666667  0.333333  0.500000  1
