# generated using pymatgen
data_Si(S8F)3
_symmetry_space_group_name_H-M   'P 1'
_cell_length_a   14.72615011
_cell_length_b   14.72615022
_cell_length_c   14.72614997
_cell_angle_alpha   118.71083838
_cell_angle_beta   118.71083646
_cell_angle_gamma   118.71083924
_symmetry_Int_Tables_number   1
_chemical_formula_structural   Si(S8F)3
_chemical_formula_sum   'Si1 S24 F3'
_cell_volume   936.27618076
_cell_formula_units_Z   1
loop_
 _symmetry_equiv_pos_site_id
 _symmetry_equiv_pos_as_xyz
  1  'x, y, z'
loop_
 _atom_site_type_symbol
 _atom_site_label
 _atom_site_symmetry_multiplicity
 _atom_site_fract_x
 _atom_site_fract_y
 _atom_site_fract_z
 _atom_site_occupancy
  Si  Si0  1  0.846098  0.846098  0.846098  1
  S  S1  1  0.806268  0.529253  0.529253  1
  S  S2  1  0.529253  0.529253  0.806268  1
  S  S3  1  0.529253  0.806268  0.529253  1
  S  S4  1  0.247378  0.380097  0.634111  1
  S  S5  1  0.348939  0.952749  0.348939  1
  S  S6  1  0.348939  0.348939  0.952749  1
  S  S7  1  0.952749  0.348939  0.348939  1
  S  S8  1  0.120597  0.736456  0.252808  1
  S  S9  1  0.252808  0.120597  0.736456  1
  S  S10  1  0.736456  0.252808  0.120597  1
  S  S11  1  0.736456  0.120597  0.252808  1
  S  S12  1  0.252808  0.736456  0.120597  1
  S  S13  1  0.120597  0.252808  0.736456  1
  S  S14  1  0.349437  0.883092  0.535647  1
  S  S15  1  0.535647  0.349437  0.883092  1
  S  S16  1  0.883092  0.535647  0.349437  1
  S  S17  1  0.883092  0.349437  0.535647  1
  S  S18  1  0.535647  0.883092  0.349437  1
  S  S19  1  0.349437  0.535647  0.883092  1
  S  S20  1  0.247378  0.634111  0.380097  1
  S  S21  1  0.380097  0.247378  0.634111  1
  S  S22  1  0.634111  0.380097  0.247378  1
  S  S23  1  0.634111  0.247378  0.380097  1
  S  S24  1  0.380097  0.634111  0.247378  1
  F  F25  1  0.893231  0.995660  0.995660  1
  F  F26  1  0.995660  0.995660  0.893231  1
  F  F27  1  0.995660  0.893231  0.995660  1
