# generated using pymatgen
data_Sc11Os3Ru
_symmetry_space_group_name_H-M   'P 1'
_cell_length_a   9.46249552
_cell_length_b   9.46249586
_cell_length_c   9.47217100
_cell_angle_alpha   59.96617461
_cell_angle_beta   59.96617341
_cell_angle_gamma   60.06766545
_symmetry_Int_Tables_number   1
_chemical_formula_structural   Sc11Os3Ru
_chemical_formula_sum   'Sc22 Os6 Ru2'
_cell_volume   599.71519972
_cell_formula_units_Z   2
loop_
 _symmetry_equiv_pos_site_id
 _symmetry_equiv_pos_as_xyz
  1  'x, y, z'
loop_
 _atom_site_type_symbol
 _atom_site_label
 _atom_site_symmetry_multiplicity
 _atom_site_fract_x
 _atom_site_fract_y
 _atom_site_fract_z
 _atom_site_occupancy
  Sc  Sc0  1  0.843952  0.843952  0.843927  1
  Sc  Sc1  1  0.531830  0.156073  0.156048  1
  Sc  Sc2  1  0.156048  0.156048  0.531830  1
  Sc  Sc3  1  0.156073  0.531830  0.156048  1
  Sc  Sc4  1  0.843952  0.843952  0.468170  1
  Sc  Sc5  1  0.843927  0.468170  0.843952  1
  Sc  Sc6  1  0.468170  0.843927  0.843952  1
  Sc  Sc7  1  0.156048  0.156048  0.156073  1
  Sc  Sc8  1  0.198211  0.801789  0.198211  1
  Sc  Sc9  1  0.198211  0.801789  0.801789  1
  Sc  Sc10  1  0.801789  0.198211  0.198211  1
  Sc  Sc11  1  0.801130  0.801130  0.198870  1
  Sc  Sc12  1  0.198870  0.198870  0.801130  1
  Sc  Sc13  1  0.801789  0.198211  0.801789  1
  Sc  Sc14  1  0.382382  0.382382  0.383949  1
  Sc  Sc15  1  0.148713  0.616051  0.617618  1
  Sc  Sc16  1  0.616051  0.148713  0.617618  1
  Sc  Sc17  1  0.617618  0.617618  0.148713  1
  Sc  Sc18  1  0.383949  0.851287  0.382382  1
  Sc  Sc19  1  0.382382  0.382382  0.851287  1
  Sc  Sc20  1  0.851287  0.383949  0.382382  1
  Sc  Sc21  1  0.617618  0.617618  0.616051  1
  Os  Os22  1  0.500000  0.000000  0.500000  1
  Os  Os23  1  0.000000  0.500000  0.500000  1
  Os  Os24  1  0.500000  0.000000  0.000000  1
  Os  Os25  1  0.000000  0.500000  0.000000  1
  Os  Os26  1  0.500000  0.500000  0.500000  1
  Os  Os27  1  0.000000  0.000000  0.000000  1
  Ru  Ru28  1  0.500000  0.500000  0.000000  1
  Ru  Ru29  1  0.000000  0.000000  0.500000  1
