# generated using pymatgen
data_Pu2InCl7
_symmetry_space_group_name_H-M   'P 1'
_cell_length_a   13.11860400
_cell_length_b   7.08820600
_cell_length_c   12.98528200
_cell_angle_alpha   90.00000000
_cell_angle_beta   90.00000000
_cell_angle_gamma   90.00000000
_symmetry_Int_Tables_number   1
_chemical_formula_structural   Pu2InCl7
_chemical_formula_sum   'Pu8 In4 Cl28'
_cell_volume   1207.46719052
_cell_formula_units_Z   4
loop_
 _symmetry_equiv_pos_site_id
 _symmetry_equiv_pos_as_xyz
  1  'x, y, z'
loop_
 _atom_site_type_symbol
 _atom_site_label
 _atom_site_symmetry_multiplicity
 _atom_site_fract_x
 _atom_site_fract_y
 _atom_site_fract_z
 _atom_site_occupancy
  Pu  Pu0  1  0.262394  0.750000  0.036002  1
  Pu  Pu1  1  0.749001  0.750000  0.163506  1
  Pu  Pu2  1  0.249001  0.750000  0.336493  1
  Pu  Pu3  1  0.762394  0.750000  0.463998  1
  Pu  Pu4  1  0.237606  0.250000  0.536001  1
  Pu  Pu5  1  0.751000  0.250000  0.663507  1
  Pu  Pu6  1  0.251000  0.250000  0.836494  1
  Pu  Pu7  1  0.737606  0.250000  0.963999  1
  In  In8  1  0.038761  0.250000  0.198741  1
  In  In9  1  0.538761  0.250000  0.301258  1
  In  In10  1  0.461239  0.750000  0.698742  1
  In  In11  1  0.961239  0.750000  0.801259  1
  Cl  Cl12  1  0.873242  0.506793  0.044768  1
  Cl  Cl13  1  0.873242  0.993207  0.044768  1
  Cl  Cl14  1  0.615886  0.010312  0.083192  1
  Cl  Cl15  1  0.615886  0.489688  0.083192  1
  Cl  Cl16  1  0.103442  0.750000  0.182511  1
  Cl  Cl17  1  0.329412  0.505547  0.190199  1
  Cl  Cl18  1  0.329412  0.994453  0.190199  1
  Cl  Cl19  1  0.829412  0.505547  0.309801  1
  Cl  Cl20  1  0.829412  0.994453  0.309801  1
  Cl  Cl21  1  0.603442  0.750000  0.317489  1
  Cl  Cl22  1  0.115886  0.010312  0.416808  1
  Cl  Cl23  1  0.115886  0.489688  0.416808  1
  Cl  Cl24  1  0.373242  0.506793  0.455232  1
  Cl  Cl25  1  0.373242  0.993207  0.455232  1
  Cl  Cl26  1  0.626759  0.006793  0.544768  1
  Cl  Cl27  1  0.626759  0.493207  0.544768  1
  Cl  Cl28  1  0.884114  0.510312  0.583192  1
  Cl  Cl29  1  0.884114  0.989689  0.583192  1
  Cl  Cl30  1  0.396558  0.250000  0.682511  1
  Cl  Cl31  1  0.170588  0.005547  0.690199  1
  Cl  Cl32  1  0.170588  0.494453  0.690199  1
  Cl  Cl33  1  0.670588  0.005547  0.809801  1
  Cl  Cl34  1  0.670588  0.494453  0.809801  1
  Cl  Cl35  1  0.896558  0.250000  0.817489  1
  Cl  Cl36  1  0.384114  0.510312  0.916808  1
  Cl  Cl37  1  0.384114  0.989689  0.916808  1
  Cl  Cl38  1  0.126759  0.006793  0.955232  1
  Cl  Cl39  1  0.126759  0.493207  0.955232  1
