# generated using pymatgen
data_Tb2LuHf(Co4P3)2
_symmetry_space_group_name_H-M   'P 1'
_cell_length_a   3.71211600
_cell_length_b   10.66774800
_cell_length_c   12.37021900
_cell_angle_alpha   90.00000000
_cell_angle_beta   90.00000000
_cell_angle_gamma   90.00000000
_symmetry_Int_Tables_number   1
_chemical_formula_structural   Tb2LuHf(Co4P3)2
_chemical_formula_sum   'Tb4 Lu2 Hf2 Co16 P12'
_cell_volume   489.85965847
_cell_formula_units_Z   2
loop_
 _symmetry_equiv_pos_site_id
 _symmetry_equiv_pos_as_xyz
  1  'x, y, z'
loop_
 _atom_site_type_symbol
 _atom_site_label
 _atom_site_symmetry_multiplicity
 _atom_site_fract_x
 _atom_site_fract_y
 _atom_site_fract_z
 _atom_site_occupancy
  Tb  Tb0  1  0.000000  0.500000  0.528533  1
  Tb  Tb1  1  0.500000  0.000000  0.470314  1
  Tb  Tb2  1  0.000000  0.678271  0.795526  1
  Tb  Tb3  1  0.000000  0.321729  0.795526  1
  Lu  Lu4  1  0.500000  0.822564  0.204163  1
  Lu  Lu5  1  0.500000  0.177436  0.204163  1
  Hf  Hf6  1  0.500000  0.500000  0.157524  1
  Hf  Hf7  1  0.000000  0.000000  0.842988  1
  Co  Co8  1  0.500000  0.500000  0.703583  1
  Co  Co9  1  0.000000  0.000000  0.294747  1
  Co  Co10  1  0.000000  0.500000  0.988606  1
  Co  Co11  1  0.500000  0.000000  0.014897  1
  Co  Co12  1  0.500000  0.331129  0.995458  1
  Co  Co13  1  0.500000  0.668871  0.995458  1
  Co  Co14  1  0.000000  0.167413  0.008507  1
  Co  Co15  1  0.000000  0.832587  0.008507  1
  Co  Co16  1  0.500000  0.294489  0.431027  1
  Co  Co17  1  0.500000  0.705511  0.431027  1
  Co  Co18  1  0.000000  0.204471  0.565514  1
  Co  Co19  1  0.000000  0.795529  0.565514  1
  Co  Co20  1  0.500000  0.878246  0.702616  1
  Co  Co21  1  0.500000  0.121754  0.702616  1
  Co  Co22  1  0.000000  0.623246  0.295620  1
  Co  Co23  1  0.000000  0.376754  0.295620  1
  P  P24  1  0.500000  0.500000  0.885345  1
  P  P25  1  0.000000  0.000000  0.118022  1
  P  P26  1  0.500000  0.500000  0.361109  1
  P  P27  1  0.000000  0.000000  0.638454  1
  P  P28  1  0.500000  0.309086  0.614565  1
  P  P29  1  0.500000  0.690914  0.614565  1
  P  P30  1  0.000000  0.189318  0.381810  1
  P  P31  1  0.000000  0.810682  0.381810  1
  P  P32  1  0.500000  0.839021  0.894164  1
  P  P33  1  0.500000  0.160979  0.894164  1
  P  P34  1  0.000000  0.662856  0.108967  1
  P  P35  1  0.000000  0.337144  0.108967  1
