# generated using pymatgen
data_Er2Tm17MgIr12
_symmetry_space_group_name_H-M   'P 1'
_cell_length_a   10.72491203
_cell_length_b   10.72483900
_cell_length_c   6.26704802
_cell_angle_alpha   89.99700481
_cell_angle_beta   90.00821696
_cell_angle_gamma   89.99949793
_symmetry_Int_Tables_number   1
_chemical_formula_structural   Er2Tm17MgIr12
_chemical_formula_sum   'Er2 Tm17 Mg1 Ir12'
_cell_volume   720.85437267
_cell_formula_units_Z   1
loop_
 _symmetry_equiv_pos_site_id
 _symmetry_equiv_pos_as_xyz
  1  'x, y, z'
loop_
 _atom_site_type_symbol
 _atom_site_label
 _atom_site_symmetry_multiplicity
 _atom_site_fract_x
 _atom_site_fract_y
 _atom_site_fract_z
 _atom_site_occupancy
  Er  Er0  1  0.283950  0.084698  0.377660  1
  Er  Er1  1  0.290651  0.912192  0.878861  1
  Tm  Tm2  1  0.709074  0.087624  0.879203  1
  Tm  Tm3  1  0.715795  0.915576  0.377864  1
  Tm  Tm4  1  0.588437  0.791940  0.877421  1
  Tm  Tm5  1  0.587190  0.208011  0.376097  1
  Tm  Tm6  1  0.413114  0.791927  0.376095  1
  Tm  Tm7  1  0.411865  0.208114  0.877442  1
  Tm  Tm8  1  0.207924  0.412992  0.623940  1
  Tm  Tm9  1  0.207943  0.588211  0.122590  1
  Tm  Tm10  1  0.792039  0.411732  0.122544  1
  Tm  Tm11  1  0.792075  0.587044  0.623885  1
  Tm  Tm12  1  0.912398  0.709041  0.120819  1
  Tm  Tm13  1  0.915610  0.284282  0.622053  1
  Tm  Tm14  1  0.084261  0.715612  0.622014  1
  Tm  Tm15  1  0.087501  0.291083  0.120751  1
  Tm  Tm16  1  0.999827  0.000061  0.000061  1
  Tm  Tm17  1  0.500037  0.500007  0.000011  1
  Tm  Tm18  1  0.500051  0.499999  0.500046  1
  Mg  Mg19  1  0.999810  0.999950  0.500185  1
  Ir  Ir20  1  0.846024  0.154874  0.246622  1
  Ir  Ir21  1  0.845106  0.846015  0.753357  1
  Ir  Ir22  1  0.154649  0.154271  0.753774  1
  Ir  Ir23  1  0.153706  0.844766  0.246984  1
  Ir  Ir24  1  0.654029  0.346279  0.748820  1
  Ir  Ir25  1  0.653716  0.654036  0.251192  1
  Ir  Ir26  1  0.346342  0.346212  0.251064  1
  Ir  Ir27  1  0.346019  0.653460  0.748659  1
  Ir  Ir28  1  0.500410  0.999993  0.124506  1
  Ir  Ir29  1  0.500432  0.000004  0.620848  1
  Ir  Ir30  1  0.000001  0.499974  0.875480  1
  Ir  Ir31  1  0.000013  0.500019  0.379150  1
