# generated using pymatgen
data_MnAgF6
_symmetry_space_group_name_H-M   'P 1'
_cell_length_a   5.30785342
_cell_length_b   5.21853768
_cell_length_c   14.22965605
_cell_angle_alpha   93.76987419
_cell_angle_beta   85.92968726
_cell_angle_gamma   122.31100824
_symmetry_Int_Tables_number   1
_chemical_formula_structural   MnAgF6
_chemical_formula_sum   'Mn3 Ag3 F18'
_cell_volume   332.09888829
_cell_formula_units_Z   3
loop_
 _symmetry_equiv_pos_site_id
 _symmetry_equiv_pos_as_xyz
  1  'x, y, z'
loop_
 _atom_site_type_symbol
 _atom_site_label
 _atom_site_symmetry_multiplicity
 _atom_site_fract_x
 _atom_site_fract_y
 _atom_site_fract_z
 _atom_site_occupancy
  Mn  Mn0  1  0.332365  0.666094  0.166655  1
  Mn  Mn1  1  0.000117  0.000022  0.500040  1
  Mn  Mn2  1  0.667599  0.333892  0.833339  1
  Ag  Ag3  1  0.999976  0.999996  0.999987  1
  Ag  Ag4  1  0.666358  0.333162  0.333338  1
  Ag  Ag5  1  0.333654  0.666830  0.666674  1
  F  F6  1  0.057522  0.659843  0.095535  1
  F  F7  1  0.326931  0.360350  0.089658  1
  F  F8  1  0.634943  0.958741  0.089376  1
  F  F9  1  0.029850  0.372676  0.243980  1
  F  F10  1  0.338729  0.972101  0.243709  1
  F  F11  1  0.607602  0.672100  0.237760  1
  F  F12  1  0.724800  0.993829  0.428980  1
  F  F13  1  0.993967  0.694009  0.423010  1
  F  F14  1  0.302210  0.292907  0.422546  1
  F  F15  1  0.697834  0.707141  0.577433  1
  F  F16  1  0.006105  0.306029  0.576981  1
  F  F17  1  0.275243  0.006181  0.571002  1
  F  F18  1  0.392334  0.327875  0.762250  1
  F  F19  1  0.661240  0.027864  0.756303  1
  F  F20  1  0.970102  0.627304  0.756023  1
  F  F21  1  0.365060  0.041274  0.910629  1
  F  F22  1  0.673022  0.639627  0.910333  1
  F  F23  1  0.942434  0.340152  0.904458  1
