# generated using pymatgen
data_NdSiPRu2
_symmetry_space_group_name_H-M   'P 1'
_cell_length_a   5.72920314
_cell_length_b   5.72920377
_cell_length_c   5.72920409
_cell_angle_alpha   137.48253506
_cell_angle_beta   137.48254259
_cell_angle_gamma   61.69644356
_symmetry_Int_Tables_number   1
_chemical_formula_structural   NdSiPRu2
_chemical_formula_sum   'Nd1 Si1 P1 Ru2'
_cell_volume   84.89954754
_cell_formula_units_Z   1
loop_
 _symmetry_equiv_pos_site_id
 _symmetry_equiv_pos_as_xyz
  1  'x, y, z'
loop_
 _atom_site_type_symbol
 _atom_site_label
 _atom_site_symmetry_multiplicity
 _atom_site_fract_x
 _atom_site_fract_y
 _atom_site_fract_z
 _atom_site_occupancy
  Nd  Nd0  1  0.001668  0.001668  0.000000  1
  Si  Si1  1  0.369114  0.369114  0.000000  1
  P  P2  1  0.634070  0.634070  0.000000  1
  Ru  Ru3  1  0.247574  0.747574  0.500000  1
  Ru  Ru4  1  0.747574  0.247574  0.500000  1
