# generated using pymatgen
data_Nd3Re2P6Rh7
_symmetry_space_group_name_H-M   'P 1'
_cell_length_a   4.01100600
_cell_length_b   11.32303800
_cell_length_c   12.87144200
_cell_angle_alpha   90.00000000
_cell_angle_beta   90.00000000
_cell_angle_gamma   90.00000000
_symmetry_Int_Tables_number   1
_chemical_formula_structural   Nd3Re2P6Rh7
_chemical_formula_sum   'Nd6 Re4 P12 Rh14'
_cell_volume   584.57936408
_cell_formula_units_Z   2
loop_
 _symmetry_equiv_pos_site_id
 _symmetry_equiv_pos_as_xyz
  1  'x, y, z'
loop_
 _atom_site_type_symbol
 _atom_site_label
 _atom_site_symmetry_multiplicity
 _atom_site_fract_x
 _atom_site_fract_y
 _atom_site_fract_z
 _atom_site_occupancy
  Nd  Nd0  1  0.000000  0.500000  0.518610  1
  Nd  Nd1  1  0.500000  0.000000  0.481390  1
  Nd  Nd2  1  0.500000  0.817252  0.202405  1
  Nd  Nd3  1  0.500000  0.182748  0.202405  1
  Nd  Nd4  1  0.000000  0.682748  0.797595  1
  Nd  Nd5  1  0.000000  0.317252  0.797595  1
  Re  Re6  1  0.500000  0.500000  0.155566  1
  Re  Re7  1  0.000000  0.000000  0.844434  1
  Re  Re8  1  0.000000  0.500000  0.988274  1
  Re  Re9  1  0.500000  0.000000  0.011726  1
  P  P10  1  0.500000  0.500000  0.878401  1
  P  P11  1  0.000000  0.000000  0.121599  1
  P  P12  1  0.500000  0.500000  0.338393  1
  P  P13  1  0.000000  0.000000  0.661607  1
  P  P14  1  0.500000  0.310078  0.616841  1
  P  P15  1  0.500000  0.689922  0.616841  1
  P  P16  1  0.000000  0.189922  0.383159  1
  P  P17  1  0.000000  0.810078  0.383159  1
  P  P18  1  0.500000  0.850418  0.892556  1
  P  P19  1  0.500000  0.149582  0.892556  1
  P  P20  1  0.000000  0.649582  0.107444  1
  P  P21  1  0.000000  0.350418  0.107444  1
  Rh  Rh22  1  0.500000  0.500000  0.693485  1
  Rh  Rh23  1  0.000000  0.000000  0.306515  1
  Rh  Rh24  1  0.500000  0.330682  0.984795  1
  Rh  Rh25  1  0.500000  0.669318  0.984795  1
  Rh  Rh26  1  0.000000  0.169318  0.015205  1
  Rh  Rh27  1  0.000000  0.830682  0.015205  1
  Rh  Rh28  1  0.500000  0.291091  0.429794  1
  Rh  Rh29  1  0.500000  0.708909  0.429794  1
  Rh  Rh30  1  0.000000  0.208909  0.570206  1
  Rh  Rh31  1  0.000000  0.791091  0.570206  1
  Rh  Rh32  1  0.500000  0.877253  0.710829  1
  Rh  Rh33  1  0.500000  0.122747  0.710829  1
  Rh  Rh34  1  0.000000  0.622747  0.289171  1
  Rh  Rh35  1  0.000000  0.377253  0.289171  1
