# generated using pymatgen
data_Ho3ZnIn3NiRh
_symmetry_space_group_name_H-M   'P 1'
_cell_length_a   7.68263400
_cell_length_b   7.68263382
_cell_length_c   3.72521100
_cell_angle_alpha   90.00000000
_cell_angle_beta   90.00000000
_cell_angle_gamma   120.00000079
_symmetry_Int_Tables_number   1
_chemical_formula_structural   Ho3ZnIn3NiRh
_chemical_formula_sum   'Ho3 Zn1 In3 Ni1 Rh1'
_cell_volume   190.41527418
_cell_formula_units_Z   1
loop_
 _symmetry_equiv_pos_site_id
 _symmetry_equiv_pos_as_xyz
  1  'x, y, z'
loop_
 _atom_site_type_symbol
 _atom_site_label
 _atom_site_symmetry_multiplicity
 _atom_site_fract_x
 _atom_site_fract_y
 _atom_site_fract_z
 _atom_site_occupancy
  Ho  Ho0  1  0.977679  0.391369  0.500000  1
  Ho  Ho1  1  0.608631  0.586308  0.500000  1
  Ho  Ho2  1  0.413692  0.022321  0.500000  1
  Zn  Zn3  1  0.333333  0.666667  0.000000  1
  In  In4  1  0.252964  0.258569  0.000000  1
  In  In5  1  0.005605  0.747036  0.000000  1
  In  In6  1  0.741431  0.994395  0.000000  1
  Ni  Ni7  1  0.000000  0.000000  0.500000  1
  Rh  Rh8  1  0.666667  0.333333  0.000000  1
