# generated using pymatgen
data_NaLa4P12Ru9Rh10
_symmetry_space_group_name_H-M   'P 1'
_cell_length_a   12.74441342
_cell_length_b   12.74441286
_cell_length_c   4.00068200
_cell_angle_alpha   90.00000000
_cell_angle_beta   90.00000000
_cell_angle_gamma   120.02940161
_symmetry_Int_Tables_number   1
_chemical_formula_structural   NaLa4P12Ru9Rh10
_chemical_formula_sum   'Na1 La4 P12 Ru9 Rh10'
_cell_volume   562.56874812
_cell_formula_units_Z   1
loop_
 _symmetry_equiv_pos_site_id
 _symmetry_equiv_pos_as_xyz
  1  'x, y, z'
loop_
 _atom_site_type_symbol
 _atom_site_label
 _atom_site_symmetry_multiplicity
 _atom_site_fract_x
 _atom_site_fract_y
 _atom_site_fract_z
 _atom_site_occupancy
  Na  Na0  1  0.186579  0.186579  0.500000  1
  La  La1  1  0.818451  0.000988  0.500000  1
  La  La2  1  0.000988  0.818451  0.500000  1
  La  La3  1  0.332342  0.666425  0.000000  1
  La  La4  1  0.666425  0.332342  0.000000  1
  P  P5  1  0.814352  0.814352  0.000000  1
  P  P6  1  0.187216  0.003561  0.000000  1
  P  P7  1  0.003561  0.187216  0.000000  1
  P  P8  1  0.170225  0.477583  0.500000  1
  P  P9  1  0.519250  0.689412  0.500000  1
  P  P10  1  0.310185  0.832077  0.500000  1
  P  P11  1  0.689412  0.519250  0.500000  1
  P  P12  1  0.832077  0.310185  0.500000  1
  P  P13  1  0.477583  0.170225  0.500000  1
  P  P14  1  0.372278  0.372278  0.000000  1
  P  P15  1  0.625910  0.000059  0.000000  1
  P  P16  1  0.000059  0.625910  0.000000  1
  Ru  Ru17  1  0.711890  0.711890  0.500000  1
  Ru  Ru18  1  0.285319  0.000409  0.500000  1
  Ru  Ru19  1  0.000409  0.285319  0.500000  1
  Ru  Ru20  1  0.362882  0.486364  0.500000  1
  Ru  Ru21  1  0.512662  0.875167  0.500000  1
  Ru  Ru22  1  0.124400  0.636132  0.500000  1
  Ru  Ru23  1  0.875167  0.512662  0.500000  1
  Ru  Ru24  1  0.636132  0.124400  0.500000  1
  Ru  Ru25  1  0.486364  0.362882  0.500000  1
  Rh  Rh26  1  0.551223  0.551223  0.000000  1
  Rh  Rh27  1  0.446688  0.996964  0.000000  1
  Rh  Rh28  1  0.996964  0.446688  0.000000  1
  Rh  Rh29  1  0.184857  0.376903  0.000000  1
  Rh  Rh30  1  0.623276  0.805368  0.000000  1
  Rh  Rh31  1  0.194162  0.817794  0.000000  1
  Rh  Rh32  1  0.805368  0.623276  0.000000  1
  Rh  Rh33  1  0.817794  0.194162  0.000000  1
  Rh  Rh34  1  0.376903  0.184857  0.000000  1
  Rh  Rh35  1  0.000647  0.000647  0.000000  1
