# generated using pymatgen
data_GdTmI6
_symmetry_space_group_name_H-M   'P 1'
_cell_length_a   9.08958314
_cell_length_b   9.08958362
_cell_length_c   9.08958264
_cell_angle_alpha   50.37773590
_cell_angle_beta   50.37773098
_cell_angle_gamma   50.37773089
_symmetry_Int_Tables_number   1
_chemical_formula_structural   GdTmI6
_chemical_formula_sum   'Gd1 Tm1 I6'
_cell_volume   410.39827947
_cell_formula_units_Z   1
loop_
 _symmetry_equiv_pos_site_id
 _symmetry_equiv_pos_as_xyz
  1  'x, y, z'
loop_
 _atom_site_type_symbol
 _atom_site_label
 _atom_site_symmetry_multiplicity
 _atom_site_fract_x
 _atom_site_fract_y
 _atom_site_fract_z
 _atom_site_occupancy
  Gd  Gd0  1  0.166577  0.166577  0.166577  1
  Tm  Tm1  1  0.833591  0.833591  0.833591  1
  I  I2  1  0.208641  0.580698  0.934452  1
  I  I3  1  0.934452  0.208641  0.580698  1
  I  I4  1  0.580698  0.934452  0.208641  1
  I  I5  1  0.784427  0.431840  0.059774  1
  I  I6  1  0.059774  0.784427  0.431840  1
  I  I7  1  0.431840  0.059774  0.784427  1
