# generated using pymatgen
data_Er2Al9FePd2
_symmetry_space_group_name_H-M   'P 1'
_cell_length_a   7.55442019
_cell_length_b   7.55444838
_cell_length_c   9.39958100
_cell_angle_alpha   90.00000000
_cell_angle_beta   90.00000000
_cell_angle_gamma   119.77784926
_symmetry_Int_Tables_number   1
_chemical_formula_structural   Er2Al9FePd2
_chemical_formula_sum   'Er4 Al18 Fe2 Pd4'
_cell_volume   465.59773690
_cell_formula_units_Z   2
loop_
 _symmetry_equiv_pos_site_id
 _symmetry_equiv_pos_as_xyz
  1  'x, y, z'
loop_
 _atom_site_type_symbol
 _atom_site_label
 _atom_site_symmetry_multiplicity
 _atom_site_fract_x
 _atom_site_fract_y
 _atom_site_fract_z
 _atom_site_occupancy
  Er  Er0  1  0.993853  0.664866  0.250000  1
  Er  Er1  1  0.006147  0.335134  0.750000  1
  Er  Er2  1  0.664865  0.993860  0.250000  1
  Er  Er3  1  0.335135  0.006140  0.750000  1
  Al  Al4  1  0.112580  0.112580  0.250000  1
  Al  Al5  1  0.887420  0.887420  0.750000  1
  Al  Al6  1  0.999076  0.322768  0.075274  1
  Al  Al7  1  0.000924  0.677232  0.924726  1
  Al  Al8  1  0.000924  0.677232  0.575274  1
  Al  Al9  1  0.322766  0.999077  0.424725  1
  Al  Al10  1  0.999076  0.322768  0.424726  1
  Al  Al11  1  0.677234  0.000923  0.575275  1
  Al  Al12  1  0.677234  0.000923  0.924725  1
  Al  Al13  1  0.322766  0.999077  0.075275  1
  Al  Al14  1  0.322397  0.322396  0.553007  1
  Al  Al15  1  0.677603  0.677604  0.446993  1
  Al  Al16  1  0.677603  0.677604  0.053007  1
  Al  Al17  1  0.322397  0.322396  0.946993  1
  Al  Al18  1  0.340885  0.544168  0.250000  1
  Al  Al19  1  0.659115  0.455832  0.750000  1
  Al  Al20  1  0.544167  0.340883  0.250000  1
  Al  Al21  1  0.455833  0.659117  0.750000  1
  Fe  Fe22  1  0.000000  0.000000  0.000000  1
  Fe  Fe23  1  0.000000  0.000000  0.500000  1
  Pd  Pd24  1  0.672809  0.327175  0.999993  1
  Pd  Pd25  1  0.327191  0.672825  0.000007  1
  Pd  Pd26  1  0.327191  0.672825  0.499993  1
  Pd  Pd27  1  0.672809  0.327175  0.500007  1
