# generated using pymatgen
data_Zr2Co(PIr)3
_symmetry_space_group_name_H-M   'P 1'
_cell_length_a   12.61622774
_cell_length_b   12.71855611
_cell_length_c   3.84287200
_cell_angle_alpha   90.00000000
_cell_angle_beta   90.00000000
_cell_angle_gamma   119.90344783
_symmetry_Int_Tables_number   1
_chemical_formula_structural   Zr2Co(PIr)3
_chemical_formula_sum   'Zr8 Co4 P12 Ir12'
_cell_volume   534.53432026
_cell_formula_units_Z   4
loop_
 _symmetry_equiv_pos_site_id
 _symmetry_equiv_pos_as_xyz
  1  'x, y, z'
loop_
 _atom_site_type_symbol
 _atom_site_label
 _atom_site_symmetry_multiplicity
 _atom_site_fract_x
 _atom_site_fract_y
 _atom_site_fract_z
 _atom_site_occupancy
  Zr  Zr0  1  0.449333  0.446498  0.000000  1
  Zr  Zr1  1  0.554147  0.996052  0.000000  1
  Zr  Zr2  1  0.999966  0.554563  0.000000  1
  Zr  Zr3  1  0.666360  0.331267  0.000000  1
  Zr  Zr4  1  0.340477  0.670708  0.000000  1
  Zr  Zr5  1  0.816939  0.824694  0.500000  1
  Zr  Zr6  1  0.174861  0.999594  0.500000  1
  Zr  Zr7  1  0.998116  0.174229  0.500000  1
  Co  Co8  1  0.722206  0.000119  0.500000  1
  Co  Co9  1  0.999281  0.720932  0.500000  1
  Co  Co10  1  0.627011  0.823882  0.000000  1
  Co  Co11  1  0.279931  0.280239  0.500000  1
  P  P12  1  0.650592  0.663011  0.000000  1
  P  P13  1  0.349966  0.999576  0.000000  1
  P  P14  1  0.999982  0.349409  0.000000  1
  P  P15  1  0.477055  0.309981  0.500000  1
  P  P16  1  0.688149  0.163630  0.500000  1
  P  P17  1  0.835107  0.523191  0.500000  1
  P  P18  1  0.529486  0.834898  0.500000  1
  P  P19  1  0.165856  0.687650  0.500000  1
  P  P20  1  0.812889  0.992090  0.000000  1
  P  P21  1  0.998053  0.824084  0.000000  1
  P  P22  1  0.317168  0.480909  0.500000  1
  P  P23  1  0.173729  0.175442  0.000000  1
  Ir  Ir24  1  0.190759  0.365451  0.000000  1
  Ir  Ir25  1  0.174991  0.810687  0.000000  1
  Ir  Ir26  1  0.821733  0.636913  0.000000  1
  Ir  Ir27  1  0.809128  0.176970  0.000000  1
  Ir  Ir28  1  0.364090  0.189107  0.000000  1
  Ir  Ir29  1  0.141487  0.496616  0.500000  1
  Ir  Ir30  1  0.357323  0.859737  0.500000  1
  Ir  Ir31  1  0.518745  0.645719  0.500000  1
  Ir  Ir32  1  0.642679  0.500522  0.500000  1
  Ir  Ir33  1  0.863422  0.357355  0.500000  1
  Ir  Ir34  1  0.492732  0.134963  0.500000  1
  Ir  Ir35  1  0.996250  0.999313  0.000000  1
