# generated using pymatgen
data_CaLa2(DySi2)2
_symmetry_space_group_name_H-M   'P 1'
_cell_length_a   7.89738400
_cell_length_b   7.89738400
_cell_length_c   14.40883700
_cell_angle_alpha   90.00000000
_cell_angle_beta   90.00000000
_cell_angle_gamma   90.00000000
_symmetry_Int_Tables_number   1
_chemical_formula_structural   CaLa2(DySi2)2
_chemical_formula_sum   'Ca4 La8 Dy8 Si16'
_cell_volume   898.66005820
_cell_formula_units_Z   4
loop_
 _symmetry_equiv_pos_site_id
 _symmetry_equiv_pos_as_xyz
  1  'x, y, z'
loop_
 _atom_site_type_symbol
 _atom_site_label
 _atom_site_symmetry_multiplicity
 _atom_site_fract_x
 _atom_site_fract_y
 _atom_site_fract_z
 _atom_site_occupancy
  Ca  Ca0  1  0.685582  0.685582  0.500000  1
  Ca  Ca1  1  0.814418  0.185582  0.750000  1
  Ca  Ca2  1  0.185582  0.814418  0.250000  1
  Ca  Ca3  1  0.314418  0.314418  0.000000  1
  La  La4  1  0.991877  0.640515  0.039468  1
  La  La5  1  0.008123  0.359485  0.539468  1
  La  La6  1  0.640515  0.991877  0.960532  1
  La  La7  1  0.140515  0.508123  0.789468  1
  La  La8  1  0.859485  0.491877  0.289468  1
  La  La9  1  0.508123  0.140515  0.210532  1
  La  La10  1  0.491877  0.859485  0.710532  1
  La  La11  1  0.359485  0.008123  0.460532  1
  Dy  Dy12  1  0.366707  0.494319  0.375909  1
  Dy  Dy13  1  0.866707  0.005681  0.374091  1
  Dy  Dy14  1  0.994319  0.133293  0.125909  1
  Dy  Dy15  1  0.005681  0.866707  0.625909  1
  Dy  Dy16  1  0.633293  0.505681  0.875909  1
  Dy  Dy17  1  0.494319  0.366707  0.624091  1
  Dy  Dy18  1  0.505681  0.633293  0.124091  1
  Dy  Dy19  1  0.133293  0.994319  0.874091  1
  Si  Si20  1  0.074939  0.711066  0.441212  1
  Si  Si21  1  0.925061  0.288934  0.941212  1
  Si  Si22  1  0.711066  0.074939  0.558788  1
  Si  Si23  1  0.211067  0.425061  0.191212  1
  Si  Si24  1  0.788934  0.574939  0.691212  1
  Si  Si25  1  0.425061  0.211067  0.808788  1
  Si  Si26  1  0.574939  0.788934  0.308788  1
  Si  Si27  1  0.288934  0.925061  0.058788  1
  Si  Si28  1  0.848709  0.787528  0.812733  1
  Si  Si29  1  0.151291  0.212472  0.312733  1
  Si  Si30  1  0.787528  0.848709  0.187267  1
  Si  Si31  1  0.287528  0.651291  0.562733  1
  Si  Si32  1  0.712472  0.348709  0.062733  1
  Si  Si33  1  0.651291  0.287528  0.437267  1
  Si  Si34  1  0.348709  0.712472  0.937267  1
  Si  Si35  1  0.212472  0.151291  0.687267  1
