# generated using pymatgen
data_Ca4Cd3Au10
_symmetry_space_group_name_H-M   'P 1'
_cell_length_a   8.58301674
_cell_length_b   8.58301753
_cell_length_c   10.44847000
_cell_angle_alpha   90.00000000
_cell_angle_beta   90.00000000
_cell_angle_gamma   107.43078522
_symmetry_Int_Tables_number   1
_chemical_formula_structural   Ca4Cd3Au10
_chemical_formula_sum   'Ca8 Cd6 Au20'
_cell_volume   734.37389418
_cell_formula_units_Z   2
loop_
 _symmetry_equiv_pos_site_id
 _symmetry_equiv_pos_as_xyz
  1  'x, y, z'
loop_
 _atom_site_type_symbol
 _atom_site_label
 _atom_site_symmetry_multiplicity
 _atom_site_fract_x
 _atom_site_fract_y
 _atom_site_fract_z
 _atom_site_occupancy
  Ca  Ca0  1  0.697579  0.302421  0.000000  1
  Ca  Ca1  1  0.197579  0.802421  0.500000  1
  Ca  Ca2  1  0.802984  0.802984  0.299877  1
  Ca  Ca3  1  0.302984  0.302984  0.200123  1
  Ca  Ca4  1  0.802421  0.197579  0.500000  1
  Ca  Ca5  1  0.302421  0.697579  0.000000  1
  Ca  Ca6  1  0.697016  0.697016  0.799877  1
  Ca  Ca7  1  0.197016  0.197016  0.700123  1
  Cd  Cd8  1  0.520758  0.020758  0.250000  1
  Cd  Cd9  1  0.979242  0.479242  0.750000  1
  Cd  Cd10  1  0.000000  0.000000  0.000000  1
  Cd  Cd11  1  0.020758  0.520758  0.250000  1
  Cd  Cd12  1  0.479242  0.979242  0.750000  1
  Cd  Cd13  1  0.500000  0.500000  0.500000  1
  Au  Au14  1  0.151582  0.434943  0.484179  1
  Au  Au15  1  0.901949  0.901949  0.596846  1
  Au  Au16  1  0.565057  0.848418  0.515821  1
  Au  Au17  1  0.884235  0.169220  0.207042  1
  Au  Au18  1  0.384235  0.669220  0.292958  1
  Au  Au19  1  0.669220  0.384235  0.292958  1
  Au  Au20  1  0.401949  0.401949  0.903154  1
  Au  Au21  1  0.934943  0.651582  0.015821  1
  Au  Au22  1  0.330780  0.615765  0.707042  1
  Au  Au23  1  0.348418  0.065057  0.984179  1
  Au  Au24  1  0.598051  0.598051  0.096846  1
  Au  Au25  1  0.651582  0.934943  0.015821  1
  Au  Au26  1  0.098051  0.098051  0.403154  1
  Au  Au27  1  0.615765  0.330780  0.707042  1
  Au  Au28  1  0.115765  0.830780  0.792958  1
  Au  Au29  1  0.065057  0.348418  0.984179  1
  Au  Au30  1  0.848418  0.565057  0.515821  1
  Au  Au31  1  0.169220  0.884235  0.207042  1
  Au  Au32  1  0.434943  0.151582  0.484179  1
  Au  Au33  1  0.830780  0.115765  0.792958  1
