# generated using pymatgen
data_Ho16MgAl2CdPd4
_symmetry_space_group_name_H-M   'P 1'
_cell_length_a   9.60441027
_cell_length_b   9.63613552
_cell_length_c   9.61169500
_cell_angle_alpha   60.08386263
_cell_angle_beta   59.97490314
_cell_angle_gamma   60.11111642
_symmetry_Int_Tables_number   1
_chemical_formula_structural   Ho16MgAl2CdPd4
_chemical_formula_sum   'Ho16 Mg1 Al2 Cd1 Pd4'
_cell_volume   629.81680162
_cell_formula_units_Z   1
loop_
 _symmetry_equiv_pos_site_id
 _symmetry_equiv_pos_as_xyz
  1  'x, y, z'
loop_
 _atom_site_type_symbol
 _atom_site_label
 _atom_site_symmetry_multiplicity
 _atom_site_fract_x
 _atom_site_fract_y
 _atom_site_fract_z
 _atom_site_occupancy
  Ho  Ho0  1  0.353498  0.354928  0.350734  1
  Ho  Ho1  1  0.353498  0.354928  0.940841  1
  Ho  Ho2  1  0.357539  0.933117  0.354673  1
  Ho  Ho3  1  0.935488  0.357866  0.353324  1
  Ho  Ho4  1  0.809551  0.191111  0.189897  1
  Ho  Ho5  1  0.193031  0.808060  0.808386  1
  Ho  Ho6  1  0.193031  0.808060  0.190524  1
  Ho  Ho7  1  0.809551  0.191111  0.809440  1
  Ho  Ho8  1  0.188772  0.187292  0.811968  1
  Ho  Ho9  1  0.805798  0.806108  0.194047  1
  Ho  Ho10  1  0.933133  0.565418  0.565765  1
  Ho  Ho11  1  0.566450  0.929756  0.937242  1
  Ho  Ho12  1  0.566450  0.929756  0.566553  1
  Ho  Ho13  1  0.933133  0.565418  0.935684  1
  Ho  Ho14  1  0.567027  0.566713  0.933130  1
  Ho  Ho15  1  0.936718  0.934091  0.564595  1
  Mg  Mg16  1  0.577064  0.268920  0.577007  1
  Al  Al17  1  0.581232  0.583391  0.577514  1
  Al  Al18  1  0.581232  0.583391  0.257862  1
  Cd  Cd19  1  0.258552  0.581573  0.579937  1
  Pd  Pd20  1  0.144575  0.144070  0.145744  1
  Pd  Pd21  1  0.144575  0.144070  0.565612  1
  Pd  Pd22  1  0.142755  0.568458  0.144393  1
  Pd  Pd23  1  0.567347  0.142392  0.145131  1
