# generated using pymatgen
data_Sr5Ca2La(RhO6)2
_symmetry_space_group_name_H-M   'P 1'
_cell_length_a   6.82552809
_cell_length_b   6.82552830
_cell_length_c   6.86279938
_cell_angle_alpha   91.10593947
_cell_angle_beta   91.10595302
_cell_angle_gamma   91.75840428
_symmetry_Int_Tables_number   1
_chemical_formula_structural   Sr5Ca2La(RhO6)2
_chemical_formula_sum   'Sr5 Ca2 La1 Rh2 O12'
_cell_volume   319.44956364
_cell_formula_units_Z   1
loop_
 _symmetry_equiv_pos_site_id
 _symmetry_equiv_pos_as_xyz
  1  'x, y, z'
loop_
 _atom_site_type_symbol
 _atom_site_label
 _atom_site_symmetry_multiplicity
 _atom_site_fract_x
 _atom_site_fract_y
 _atom_site_fract_z
 _atom_site_occupancy
  Sr  Sr0  1  0.117231  0.382769  0.750000  1
  Sr  Sr1  1  0.250217  0.884489  0.617968  1
  Sr  Sr2  1  0.615511  0.249783  0.882032  1
  Sr  Sr3  1  0.384065  0.750110  0.113417  1
  Sr  Sr4  1  0.749890  0.115935  0.386583  1
  Ca  Ca5  1  0.749534  0.750466  0.750000  1
  Ca  Ca6  1  0.252547  0.247453  0.250000  1
  La  La7  1  0.887622  0.612378  0.250000  1
  Rh  Rh8  1  0.998693  0.000567  0.002438  1
  Rh  Rh9  1  0.499433  0.501307  0.497562  1
  O  O10  1  0.448458  0.582759  0.784825  1
  O  O11  1  0.588072  0.787154  0.444695  1
  O  O12  1  0.950699  0.296563  0.089503  1
  O  O13  1  0.556285  0.423376  0.209079  1
  O  O14  1  0.203437  0.549301  0.410497  1
  O  O15  1  0.042846  0.706905  0.927954  1
  O  O16  1  0.793095  0.457154  0.572046  1
  O  O17  1  0.712846  0.911928  0.055305  1
  O  O18  1  0.076624  0.943715  0.290921  1
  O  O19  1  0.917241  0.051542  0.715175  1
  O  O20  1  0.417342  0.211687  0.549251  1
  O  O21  1  0.288313  0.082658  0.950749  1
