# generated using pymatgen
data_Er11LuGa9Si9Sn2
_symmetry_space_group_name_H-M   'P 1'
_cell_length_a   5.96192964
_cell_length_b   5.96193032
_cell_length_c   18.83988600
_cell_angle_alpha   90.00000000
_cell_angle_beta   90.00000000
_cell_angle_gamma   103.01467153
_symmetry_Int_Tables_number   1
_chemical_formula_structural   Er11LuGa9Si9Sn2
_chemical_formula_sum   'Er11 Lu1 Ga9 Si9 Sn2'
_cell_volume   652.45453869
_cell_formula_units_Z   1
loop_
 _symmetry_equiv_pos_site_id
 _symmetry_equiv_pos_as_xyz
  1  'x, y, z'
loop_
 _atom_site_type_symbol
 _atom_site_label
 _atom_site_symmetry_multiplicity
 _atom_site_fract_x
 _atom_site_fract_y
 _atom_site_fract_z
 _atom_site_occupancy
  Er  Er0  1  0.663166  0.663166  0.500000  1
  Er  Er1  1  0.340256  0.340256  0.254603  1
  Er  Er2  1  0.340256  0.340256  0.745397  1
  Er  Er3  1  0.200263  0.803629  0.137316  1
  Er  Er4  1  0.200230  0.803117  0.622938  1
  Er  Er5  1  0.200263  0.803629  0.862684  1
  Er  Er6  1  0.200230  0.803117  0.377062  1
  Er  Er7  1  0.803629  0.200263  0.137316  1
  Er  Er8  1  0.803117  0.200230  0.622938  1
  Er  Er9  1  0.803117  0.200230  0.377062  1
  Er  Er10  1  0.803629  0.200263  0.862684  1
  Lu  Lu11  1  0.640502  0.640502  0.000000  1
  Ga  Ga12  1  0.313797  0.313797  0.895352  1
  Ga  Ga13  1  0.325031  0.325031  0.404070  1
  Ga  Ga14  1  0.677758  0.677758  0.350881  1
  Ga  Ga15  1  0.676348  0.676348  0.846499  1
  Ga  Ga16  1  0.313797  0.313797  0.104648  1
  Ga  Ga17  1  0.325031  0.325031  0.595930  1
  Ga  Ga18  1  0.676348  0.676348  0.153501  1
  Ga  Ga19  1  0.677758  0.677758  0.649119  1
  Ga  Ga20  1  0.023313  0.023313  0.000000  1
  Si  Si21  1  0.486506  0.089256  0.500000  1
  Si  Si22  1  0.912739  0.519561  0.254813  1
  Si  Si23  1  0.912739  0.519561  0.745187  1
  Si  Si24  1  0.519561  0.912739  0.254813  1
  Si  Si25  1  0.519561  0.912739  0.745187  1
  Si  Si26  1  0.089256  0.486506  0.500000  1
  Si  Si27  1  0.054235  0.054235  0.500000  1
  Si  Si28  1  0.948206  0.948206  0.255455  1
  Si  Si29  1  0.948206  0.948206  0.744545  1
  Sn  Sn30  1  0.511180  0.089977  0.000000  1
  Sn  Sn31  1  0.089977  0.511180  0.000000  1
