# generated using pymatgen
data_Au2ICl
_symmetry_space_group_name_H-M   'P 1'
_cell_length_a   4.50221500
_cell_length_b   4.50221500
_cell_length_c   13.34917300
_cell_angle_alpha   90.00000000
_cell_angle_beta   90.00000000
_cell_angle_gamma   90.00000000
_symmetry_Int_Tables_number   1
_chemical_formula_structural   Au2ICl
_chemical_formula_sum   'Au4 I2 Cl2'
_cell_volume   270.58693451
_cell_formula_units_Z   2
loop_
 _symmetry_equiv_pos_site_id
 _symmetry_equiv_pos_as_xyz
  1  'x, y, z'
loop_
 _atom_site_type_symbol
 _atom_site_label
 _atom_site_symmetry_multiplicity
 _atom_site_fract_x
 _atom_site_fract_y
 _atom_site_fract_z
 _atom_site_occupancy
  Au  Au0  1  0.239248  0.739248  0.747085  1
  Au  Au1  1  0.760752  0.739248  0.247085  1
  Au  Au2  1  0.239248  0.260752  0.247085  1
  Au  Au3  1  0.760752  0.260752  0.747085  1
  I  I4  1  0.500000  0.000000  0.896590  1
  I  I5  1  0.500000  0.000000  0.396590  1
  Cl  Cl6  1  0.000000  0.500000  0.109240  1
  Cl  Cl7  1  0.000000  0.500000  0.609240  1
