# generated using pymatgen
data_TbEr(AlCu)5
_symmetry_space_group_name_H-M   'P 1'
_cell_length_a   4.09738700
_cell_length_b   5.29883500
_cell_length_c   9.00573100
_cell_angle_alpha   90.00000000
_cell_angle_beta   90.00000000
_cell_angle_gamma   90.00000000
_symmetry_Int_Tables_number   1
_chemical_formula_structural   TbEr(AlCu)5
_chemical_formula_sum   'Tb1 Er1 Al5 Cu5'
_cell_volume   195.52682670
_cell_formula_units_Z   1
loop_
 _symmetry_equiv_pos_site_id
 _symmetry_equiv_pos_as_xyz
  1  'x, y, z'
loop_
 _atom_site_type_symbol
 _atom_site_label
 _atom_site_symmetry_multiplicity
 _atom_site_fract_x
 _atom_site_fract_y
 _atom_site_fract_z
 _atom_site_occupancy
  Tb  Tb0  1  0.000000  0.500000  0.000000  1
  Er  Er1  1  0.000000  0.000000  0.500000  1
  Al  Al2  1  0.500000  0.000000  0.000000  1
  Al  Al3  1  0.500000  0.750122  0.261738  1
  Al  Al4  1  0.500000  0.249878  0.738262  1
  Al  Al5  1  0.500000  0.249878  0.261738  1
  Al  Al6  1  0.500000  0.750122  0.738262  1
  Cu  Cu7  1  0.000000  0.500000  0.339794  1
  Cu  Cu8  1  0.000000  0.000000  0.830334  1
  Cu  Cu9  1  0.000000  0.000000  0.169666  1
  Cu  Cu10  1  0.000000  0.500000  0.660206  1
  Cu  Cu11  1  0.500000  0.500000  0.500000  1
