# generated using pymatgen
data_NdY3Lu2(AlPt2)2
_symmetry_space_group_name_H-M   'P 1'
_cell_length_a   4.49663600
_cell_length_b   7.37434709
_cell_length_c   8.16147853
_cell_angle_alpha   90.12074194
_cell_angle_beta   90.00000000
_cell_angle_gamma   90.00000000
_symmetry_Int_Tables_number   1
_chemical_formula_structural   NdY3Lu2(AlPt2)2
_chemical_formula_sum   'Nd1 Y3 Lu2 Al2 Pt4'
_cell_volume   270.63202446
_cell_formula_units_Z   1
loop_
 _symmetry_equiv_pos_site_id
 _symmetry_equiv_pos_as_xyz
  1  'x, y, z'
loop_
 _atom_site_type_symbol
 _atom_site_label
 _atom_site_symmetry_multiplicity
 _atom_site_fract_x
 _atom_site_fract_y
 _atom_site_fract_z
 _atom_site_occupancy
  Nd  Nd0  1  0.250000  0.511729  0.829565  1
  Y  Y1  1  0.750000  0.438808  0.178379  1
  Y  Y2  1  0.250000  0.058773  0.674949  1
  Y  Y3  1  0.750000  0.989678  0.329875  1
  Lu  Lu4  1  0.750000  0.868319  0.933639  1
  Lu  Lu5  1  0.250000  0.633020  0.432020  1
  Al  Al6  1  0.750000  0.354343  0.564876  1
  Al  Al7  1  0.250000  0.143066  0.068332  1
  Pt  Pt8  1  0.750000  0.723845  0.612711  1
  Pt  Pt9  1  0.750000  0.234053  0.879661  1
  Pt  Pt10  1  0.250000  0.261895  0.378346  1
  Pt  Pt11  1  0.250000  0.782469  0.117647  1
