# generated using pymatgen
data_Eu3NbGa3(SiO7)2
_symmetry_space_group_name_H-M   'P 1'
_cell_length_a   8.38709100
_cell_length_b   8.38709050
_cell_length_c   5.15792000
_cell_angle_alpha   90.00000000
_cell_angle_beta   90.00000000
_cell_angle_gamma   120.00000593
_symmetry_Int_Tables_number   1
_chemical_formula_structural   Eu3NbGa3(SiO7)2
_chemical_formula_sum   'Eu3 Nb1 Ga3 Si2 O14'
_cell_volume   314.21570781
_cell_formula_units_Z   1
loop_
 _symmetry_equiv_pos_site_id
 _symmetry_equiv_pos_as_xyz
  1  'x, y, z'
loop_
 _atom_site_type_symbol
 _atom_site_label
 _atom_site_symmetry_multiplicity
 _atom_site_fract_x
 _atom_site_fract_y
 _atom_site_fract_z
 _atom_site_occupancy
  Eu  Eu0  1  0.419489  0.000000  0.000000  1
  Eu  Eu1  1  0.580511  0.580511  0.000000  1
  Eu  Eu2  1  0.000000  0.419489  0.000000  1
  Nb  Nb3  1  0.000000  0.000000  0.000000  1
  Ga  Ga4  1  0.744415  0.000000  0.500000  1
  Ga  Ga5  1  0.255585  0.255585  0.500000  1
  Ga  Ga6  1  0.000000  0.744415  0.500000  1
  Si  Si7  1  0.666667  0.333333  0.538696  1
  Si  Si8  1  0.333333  0.666667  0.461304  1
  O  O9  1  0.666667  0.333333  0.224872  1
  O  O10  1  0.333333  0.666667  0.775128  1
  O  O11  1  0.161541  0.683334  0.326016  1
  O  O12  1  0.521793  0.838459  0.326016  1
  O  O13  1  0.316666  0.478207  0.326016  1
  O  O14  1  0.838459  0.521793  0.673984  1
  O  O15  1  0.683334  0.161541  0.673984  1
  O  O16  1  0.478207  0.316666  0.673984  1
  O  O17  1  0.131077  0.904996  0.765532  1
  O  O18  1  0.773919  0.868923  0.765532  1
  O  O19  1  0.095004  0.226081  0.765532  1
  O  O20  1  0.868923  0.773919  0.234468  1
  O  O21  1  0.904996  0.131077  0.234468  1
  O  O22  1  0.226081  0.095004  0.234468  1
