# generated using pymatgen
data_YEr15(Tl3Co)2
_symmetry_space_group_name_H-M   'P 1'
_cell_length_a   10.25565400
_cell_length_b   10.26619168
_cell_length_c   7.04212002
_cell_angle_alpha   90.03405447
_cell_angle_beta   90.00000000
_cell_angle_gamma   119.96605129
_symmetry_Int_Tables_number   1
_chemical_formula_structural   YEr15(Tl3Co)2
_chemical_formula_sum   'Y1 Er15 Tl6 Co2'
_cell_volume   642.32547527
_cell_formula_units_Z   1
loop_
 _symmetry_equiv_pos_site_id
 _symmetry_equiv_pos_as_xyz
  1  'x, y, z'
loop_
 _atom_site_type_symbol
 _atom_site_label
 _atom_site_symmetry_multiplicity
 _atom_site_fract_x
 _atom_site_fract_y
 _atom_site_fract_z
 _atom_site_occupancy
  Y  Y0  1  0.535693  0.071386  0.792161  1
  Er  Er1  1  0.926501  0.463169  0.792421  1
  Er  Er2  1  0.536669  0.463169  0.792421  1
  Er  Er3  1  0.462794  0.925586  0.292467  1
  Er  Er4  1  0.073685  0.536980  0.293199  1
  Er  Er5  1  0.463297  0.536980  0.293199  1
  Er  Er6  1  0.821985  0.643971  0.495935  1
  Er  Er7  1  0.356741  0.178962  0.494626  1
  Er  Er8  1  0.822222  0.178962  0.494626  1
  Er  Er9  1  0.178490  0.356980  0.996632  1
  Er  Er10  1  0.643576  0.820880  0.996874  1
  Er  Er11  1  0.177305  0.820880  0.996874  1
  Er  Er12  1  0.666920  0.333838  0.183334  1
  Er  Er13  1  0.332887  0.665775  0.683828  1
  Er  Er14  1  0.000257  0.000512  0.778035  1
  Er  Er15  1  0.000009  0.000017  0.277986  1
  Tl  Tl16  1  0.836646  0.673292  0.041664  1
  Tl  Tl17  1  0.325697  0.162810  0.041606  1
  Tl  Tl18  1  0.837112  0.162810  0.041606  1
  Tl  Tl19  1  0.163100  0.326201  0.542494  1
  Tl  Tl20  1  0.673960  0.837512  0.542361  1
  Tl  Tl21  1  0.163553  0.837512  0.542361  1
  Co  Co22  1  0.667596  0.335190  0.563538  1
  Co  Co23  1  0.333308  0.666618  0.065658  1
