# generated using pymatgen
data_NdEr3(LuPt)4
_symmetry_space_group_name_H-M   'P 1'
_cell_length_a   4.74693500
_cell_length_b   7.10902724
_cell_length_c   8.64113012
_cell_angle_alpha   90.02450254
_cell_angle_beta   90.00000000
_cell_angle_gamma   90.00000000
_symmetry_Int_Tables_number   1
_chemical_formula_structural   NdEr3(LuPt)4
_chemical_formula_sum   'Nd1 Er3 Lu4 Pt4'
_cell_volume   291.60432987
_cell_formula_units_Z   1
loop_
 _symmetry_equiv_pos_site_id
 _symmetry_equiv_pos_as_xyz
  1  'x, y, z'
loop_
 _atom_site_type_symbol
 _atom_site_label
 _atom_site_symmetry_multiplicity
 _atom_site_fract_x
 _atom_site_fract_y
 _atom_site_fract_z
 _atom_site_occupancy
  Nd  Nd0  1  0.750000  0.512877  0.826744  1
  Er  Er1  1  0.250000  0.985958  0.329098  1
  Er  Er2  1  0.250000  0.486030  0.172233  1
  Er  Er3  1  0.750000  0.014126  0.669108  1
  Lu  Lu4  1  0.250000  0.354686  0.573413  1
  Lu  Lu5  1  0.250000  0.857558  0.923775  1
  Lu  Lu6  1  0.750000  0.644245  0.422386  1
  Lu  Lu7  1  0.750000  0.143543  0.077177  1
  Pt  Pt8  1  0.250000  0.249189  0.907038  1
  Pt  Pt9  1  0.250000  0.755733  0.593769  1
  Pt  Pt10  1  0.750000  0.749481  0.100596  1
  Pt  Pt11  1  0.750000  0.246574  0.404664  1
