# generated using pymatgen
data_Hf3ScSi6Rh7
_symmetry_space_group_name_H-M   'P 1'
_cell_length_a   6.96421696
_cell_length_b   6.96421855
_cell_length_c   6.99181500
_cell_angle_alpha   109.55151152
_cell_angle_beta   109.55151617
_cell_angle_gamma   109.39080539
_symmetry_Int_Tables_number   1
_chemical_formula_structural   Hf3ScSi6Rh7
_chemical_formula_sum   'Hf3 Sc1 Si6 Rh7'
_cell_volume   260.78428875
_cell_formula_units_Z   1
loop_
 _symmetry_equiv_pos_site_id
 _symmetry_equiv_pos_as_xyz
  1  'x, y, z'
loop_
 _atom_site_type_symbol
 _atom_site_label
 _atom_site_symmetry_multiplicity
 _atom_site_fract_x
 _atom_site_fract_y
 _atom_site_fract_z
 _atom_site_occupancy
  Hf  Hf0  1  0.500000  0.500000  0.500000  1
  Hf  Hf1  1  0.000000  0.500000  0.000000  1
  Hf  Hf2  1  0.500000  0.000000  0.000000  1
  Sc  Sc3  1  0.000000  0.000000  0.500000  1
  Si  Si4  1  0.000000  0.318619  0.320377  1
  Si  Si5  1  0.000000  0.681381  0.679623  1
  Si  Si6  1  0.318619  0.000000  0.320377  1
  Si  Si7  1  0.681381  0.000000  0.679623  1
  Si  Si8  1  0.318619  0.318619  0.998243  1
  Si  Si9  1  0.681381  0.681381  0.001757  1
  Rh  Rh10  1  0.498633  0.749316  0.249316  1
  Rh  Rh11  1  0.501367  0.250684  0.750684  1
  Rh  Rh12  1  0.250684  0.501367  0.750684  1
  Rh  Rh13  1  0.749316  0.498633  0.249316  1
  Rh  Rh14  1  0.749316  0.250684  0.500000  1
  Rh  Rh15  1  0.250684  0.749316  0.500000  1
  Rh  Rh16  1  0.000000  0.000000  0.000000  1
