# generated using pymatgen
data_Ho4Lu6IrRu3
_symmetry_space_group_name_H-M   'P 1'
_cell_length_a   6.24395942
_cell_length_b   7.25096680
_cell_length_c   8.33568838
_cell_angle_alpha   97.04897787
_cell_angle_beta   112.15880153
_cell_angle_gamma   90.06661744
_symmetry_Int_Tables_number   1
_chemical_formula_structural   Ho4Lu6IrRu3
_chemical_formula_sum   'Ho4 Lu6 Ir1 Ru3'
_cell_volume   346.41809233
_cell_formula_units_Z   1
loop_
 _symmetry_equiv_pos_site_id
 _symmetry_equiv_pos_as_xyz
  1  'x, y, z'
loop_
 _atom_site_type_symbol
 _atom_site_label
 _atom_site_symmetry_multiplicity
 _atom_site_fract_x
 _atom_site_fract_y
 _atom_site_fract_z
 _atom_site_occupancy
  Ho  Ho0  1  0.524062  0.083116  0.812005  1
  Ho  Ho1  1  0.476325  0.918681  0.187231  1
  Ho  Ho2  1  0.713069  0.416539  0.187190  1
  Ho  Ho3  1  0.287574  0.583300  0.809725  1
  Lu  Lu4  1  0.295197  0.314181  0.435924  1
  Lu  Lu5  1  0.704151  0.683765  0.565726  1
  Lu  Lu6  1  0.860278  0.184230  0.565340  1
  Lu  Lu7  1  0.138092  0.817424  0.435442  1
  Lu  Lu8  1  0.079653  0.248894  0.998808  1
  Lu  Lu9  1  0.920484  0.750067  0.000123  1
  Ir  Ir10  1  0.318663  0.576015  0.223240  1
  Ru  Ru11  1  0.679613  0.424660  0.778824  1
  Ru  Ru12  1  0.101483  0.922979  0.779541  1
  Ru  Ru13  1  0.901355  0.076147  0.220881  1
