# generated using pymatgen
data_PrSmGeO5
_symmetry_space_group_name_H-M   'P 1'
_cell_length_a   8.44937452
_cell_length_b   8.44935750
_cell_length_c   10.99243713
_cell_angle_alpha   61.32925923
_cell_angle_beta   61.32900244
_cell_angle_gamma   49.77324284
_symmetry_Int_Tables_number   1
_chemical_formula_structural   PrSmGeO5
_chemical_formula_sum   'Pr4 Sm4 Ge4 O20'
_cell_volume   508.50801228
_cell_formula_units_Z   4
loop_
 _symmetry_equiv_pos_site_id
 _symmetry_equiv_pos_as_xyz
  1  'x, y, z'
loop_
 _atom_site_type_symbol
 _atom_site_label
 _atom_site_symmetry_multiplicity
 _atom_site_fract_x
 _atom_site_fract_y
 _atom_site_fract_z
 _atom_site_occupancy
  Pr  Pr0  1  0.720666  0.207744  0.964262  1
  Pr  Pr1  1  0.792257  0.279333  0.535736  1
  Pr  Pr2  1  0.279334  0.792256  0.035738  1
  Pr  Pr3  1  0.207743  0.720667  0.464264  1
  Sm  Sm4  1  0.985969  0.734935  0.837307  1
  Sm  Sm5  1  0.265063  0.014033  0.662695  1
  Sm  Sm6  1  0.014031  0.265065  0.162693  1
  Sm  Sm7  1  0.734937  0.985967  0.337305  1
  Ge  Ge8  1  0.777013  0.593329  0.691867  1
  Ge  Ge9  1  0.406675  0.222978  0.808128  1
  Ge  Ge10  1  0.222987  0.406671  0.308133  1
  Ge  Ge11  1  0.593325  0.777022  0.191872  1
  O  O12  1  0.779823  0.631683  0.058931  1
  O  O13  1  0.368320  0.220173  0.441069  1
  O  O14  1  0.220177  0.368317  0.941069  1
  O  O15  1  0.631680  0.779827  0.558931  1
  O  O16  1  0.585246  0.588477  0.360149  1
  O  O17  1  0.411528  0.414752  0.139852  1
  O  O18  1  0.414754  0.411523  0.639851  1
  O  O19  1  0.588472  0.585248  0.860148  1
  O  O20  1  0.948683  0.654316  0.678666  1
  O  O21  1  0.345681  0.051318  0.821334  1
  O  O22  1  0.051317  0.345684  0.321334  1
  O  O23  1  0.654319  0.948682  0.178666  1
  O  O24  1  0.889769  0.078526  0.393484  1
  O  O25  1  0.921475  0.110231  0.106516  1
  O  O26  1  0.110231  0.921474  0.606516  1
  O  O27  1  0.078525  0.889769  0.893484  1
  O  O28  1  0.084707  0.672835  0.323668  1
  O  O29  1  0.327166  0.915300  0.176329  1
  O  O30  1  0.915293  0.327165  0.676332  1
  O  O31  1  0.672834  0.084700  0.823671  1
