# generated using pymatgen
data_Dy3Th11(TcRu2)2
_symmetry_space_group_name_H-M   'P 1'
_cell_length_a   9.83024459
_cell_length_b   9.92669944
_cell_length_c   6.41269997
_cell_angle_alpha   90.00894710
_cell_angle_beta   89.87423036
_cell_angle_gamma   120.37530981
_symmetry_Int_Tables_number   1
_chemical_formula_structural   Dy3Th11(TcRu2)2
_chemical_formula_sum   'Dy3 Th11 Tc2 Ru4'
_cell_volume   539.86421000
_cell_formula_units_Z   1
loop_
 _symmetry_equiv_pos_site_id
 _symmetry_equiv_pos_as_xyz
  1  'x, y, z'
loop_
 _atom_site_type_symbol
 _atom_site_label
 _atom_site_symmetry_multiplicity
 _atom_site_fract_x
 _atom_site_fract_y
 _atom_site_fract_z
 _atom_site_occupancy
  Dy  Dy0  1  0.462029  0.536874  0.294836  1
  Dy  Dy1  1  0.073085  0.535302  0.299619  1
  Dy  Dy2  1  0.925060  0.461687  0.800242  1
  Th  Th3  1  0.250369  0.127236  0.509904  1
  Th  Th4  1  0.542633  0.081940  0.797418  1
  Th  Th5  1  0.749292  0.873621  0.013673  1
  Th  Th6  1  0.667383  0.334820  0.274481  1
  Th  Th7  1  0.123525  0.870213  0.009489  1
  Th  Th8  1  0.461802  0.919767  0.297801  1
  Th  Th9  1  0.538723  0.463654  0.798098  1
  Th  Th10  1  0.876104  0.129251  0.512275  1
  Th  Th11  1  0.122966  0.251227  0.013173  1
  Th  Th12  1  0.874448  0.749134  0.511623  1
  Th  Th13  1  0.333164  0.664867  0.771364  1
  Tc  Tc14  1  0.812658  0.634903  0.047564  1
  Tc  Tc15  1  0.812676  0.176920  0.047684  1
  Ru  Ru16  1  0.629540  0.815368  0.547099  1
  Ru  Ru17  1  0.368267  0.186536  0.040893  1
  Ru  Ru18  1  0.186397  0.365883  0.553334  1
  Ru  Ru19  1  0.189880  0.820796  0.543427  1
