# generated using pymatgen
data_Ho3Tm13In4Pt3Rh
_symmetry_space_group_name_H-M   'P 1'
_cell_length_a   9.59380859
_cell_length_b   9.56725555
_cell_length_c   9.59141130
_cell_angle_alpha   60.07353780
_cell_angle_beta   60.06184396
_cell_angle_gamma   60.05852705
_symmetry_Int_Tables_number   1
_chemical_formula_structural   Ho3Tm13In4Pt3Rh
_chemical_formula_sum   'Ho3 Tm13 In4 Pt3 Rh1'
_cell_volume   623.42130952
_cell_formula_units_Z   1
loop_
 _symmetry_equiv_pos_site_id
 _symmetry_equiv_pos_as_xyz
  1  'x, y, z'
loop_
 _atom_site_type_symbol
 _atom_site_label
 _atom_site_symmetry_multiplicity
 _atom_site_fract_x
 _atom_site_fract_y
 _atom_site_fract_z
 _atom_site_occupancy
  Ho  Ho0  1  0.061258  0.060676  0.439262  1
  Ho  Ho1  1  0.436595  0.065024  0.435964  1
  Ho  Ho2  1  0.062453  0.437878  0.062021  1
  Tm  Tm3  1  0.053317  0.646187  0.649776  1
  Tm  Tm4  1  0.437806  0.436549  0.063428  1
  Tm  Tm5  1  0.647821  0.056588  0.647898  1
  Tm  Tm6  1  0.190761  0.807986  0.190634  1
  Tm  Tm7  1  0.186944  0.193120  0.809354  1
  Tm  Tm8  1  0.809340  0.810440  0.189847  1
  Tm  Tm9  1  0.440547  0.059879  0.060157  1
  Tm  Tm10  1  0.808973  0.193220  0.186903  1
  Tm  Tm11  1  0.062766  0.437510  0.438179  1
  Tm  Tm12  1  0.810315  0.191428  0.811187  1
  Tm  Tm13  1  0.189789  0.809923  0.809864  1
  Tm  Tm14  1  0.649976  0.646334  0.052878  1
  Tm  Tm15  1  0.651740  0.647793  0.651954  1
  In  In16  1  0.415764  0.416331  0.415719  1
  In  In17  1  0.748567  0.417718  0.416819  1
  In  In18  1  0.417267  0.748694  0.416562  1
  In  In19  1  0.416711  0.416230  0.749948  1
  Pt  Pt20  1  0.858694  0.857817  0.427661  1
  Pt  Pt21  1  0.856186  0.857689  0.856766  1
  Pt  Pt22  1  0.427663  0.858304  0.858697  1
  Rh  Rh23  1  0.858749  0.426683  0.858522  1
