# generated using pymatgen
data_HoErCdNi7B2
_symmetry_space_group_name_H-M   'P 1'
_cell_length_a   4.99726100
_cell_length_b   4.99726077
_cell_length_c   14.19439600
_cell_angle_alpha   90.00000000
_cell_angle_beta   90.00000000
_cell_angle_gamma   119.99999489
_symmetry_Int_Tables_number   1
_chemical_formula_structural   HoErCdNi7B2
_chemical_formula_sum   'Ho2 Er2 Cd2 Ni14 B4'
_cell_volume   306.98108490
_cell_formula_units_Z   2
loop_
 _symmetry_equiv_pos_site_id
 _symmetry_equiv_pos_as_xyz
  1  'x, y, z'
loop_
 _atom_site_type_symbol
 _atom_site_label
 _atom_site_symmetry_multiplicity
 _atom_site_fract_x
 _atom_site_fract_y
 _atom_site_fract_z
 _atom_site_occupancy
  Ho  Ho0  1  0.666667  0.333333  0.529431  1
  Ho  Ho1  1  0.333333  0.666667  0.029431  1
  Er  Er2  1  0.666667  0.333333  0.756383  1
  Er  Er3  1  0.333333  0.666667  0.256383  1
  Cd  Cd4  1  0.333333  0.666667  0.467877  1
  Cd  Cd5  1  0.666667  0.333333  0.967877  1
  Ni  Ni6  1  0.834601  0.165399  0.351795  1
  Ni  Ni7  1  0.834601  0.669202  0.351795  1
  Ni  Ni8  1  0.000000  0.000000  0.999386  1
  Ni  Ni9  1  0.000000  0.000000  0.499386  1
  Ni  Ni10  1  0.833991  0.667984  0.148137  1
  Ni  Ni11  1  0.166009  0.833991  0.648137  1
  Ni  Ni12  1  0.667984  0.833991  0.648137  1
  Ni  Ni13  1  0.332016  0.166009  0.148137  1
  Ni  Ni14  1  0.833991  0.166009  0.148137  1
  Ni  Ni15  1  0.165399  0.330798  0.851795  1
  Ni  Ni16  1  0.165399  0.834601  0.851795  1
  Ni  Ni17  1  0.166009  0.332016  0.648137  1
  Ni  Ni18  1  0.669202  0.834601  0.851795  1
  Ni  Ni19  1  0.330798  0.165399  0.351795  1
  B  B20  1  0.666667  0.333333  0.249737  1
  B  B21  1  0.333333  0.666667  0.749737  1
  B  B22  1  0.000000  0.000000  0.747389  1
  B  B23  1  0.000000  0.000000  0.247389  1
