# generated using pymatgen
data_U2Al2GaSi2Sn
_symmetry_space_group_name_H-M   'P 1'
_cell_length_a   4.32745000
_cell_length_b   4.28155800
_cell_length_c   8.20022200
_cell_angle_alpha   90.00000000
_cell_angle_beta   90.00000000
_cell_angle_gamma   90.00000000
_symmetry_Int_Tables_number   1
_chemical_formula_structural   U2Al2GaSi2Sn
_chemical_formula_sum   'U2 Al2 Ga1 Si2 Sn1'
_cell_volume   151.93558424
_cell_formula_units_Z   1
loop_
 _symmetry_equiv_pos_site_id
 _symmetry_equiv_pos_as_xyz
  1  'x, y, z'
loop_
 _atom_site_type_symbol
 _atom_site_label
 _atom_site_symmetry_multiplicity
 _atom_site_fract_x
 _atom_site_fract_y
 _atom_site_fract_z
 _atom_site_occupancy
  U  U0  1  0.000000  0.000000  0.224250  1
  U  U1  1  0.000000  0.000000  0.775750  1
  Al  Al2  1  0.500000  0.500000  0.227384  1
  Al  Al3  1  0.500000  0.500000  0.772616  1
  Ga  Ga4  1  0.000000  0.500000  0.500000  1
  Si  Si5  1  0.000000  0.500000  0.000000  1
  Si  Si6  1  0.500000  0.000000  0.000000  1
  Sn  Sn7  1  0.500000  0.000000  0.500000  1
