# generated using pymatgen
data_CsBaSbS3
_symmetry_space_group_name_H-M   'P 1'
_cell_length_a   9.23207000
_cell_length_b   9.84993090
_cell_length_c   9.44338764
_cell_angle_alpha   72.93892926
_cell_angle_beta   90.00000000
_cell_angle_gamma   90.00000000
_symmetry_Int_Tables_number   1
_chemical_formula_structural   CsBaSbS3
_chemical_formula_sum   'Cs4 Ba4 Sb4 S12'
_cell_volume   820.94603680
_cell_formula_units_Z   4
loop_
 _symmetry_equiv_pos_site_id
 _symmetry_equiv_pos_as_xyz
  1  'x, y, z'
loop_
 _atom_site_type_symbol
 _atom_site_label
 _atom_site_symmetry_multiplicity
 _atom_site_fract_x
 _atom_site_fract_y
 _atom_site_fract_z
 _atom_site_occupancy
  Cs  Cs0  1  0.083690  0.589786  0.291149  1
  Cs  Cs1  1  0.583690  0.410214  0.208851  1
  Cs  Cs2  1  0.916310  0.410214  0.708851  1
  Cs  Cs3  1  0.416310  0.589786  0.791149  1
  Ba  Ba4  1  0.715508  0.925603  0.032385  1
  Ba  Ba5  1  0.215508  0.074397  0.467615  1
  Ba  Ba6  1  0.284492  0.074397  0.967615  1
  Ba  Ba7  1  0.784492  0.925603  0.532385  1
  Sb  Sb8  1  0.455949  0.765021  0.355702  1
  Sb  Sb9  1  0.955949  0.234979  0.144298  1
  Sb  Sb10  1  0.544051  0.234979  0.644298  1
  Sb  Sb11  1  0.044051  0.765021  0.855702  1
  S  S12  1  0.202183  0.327210  0.106319  1
  S  S13  1  0.702183  0.672790  0.393681  1
  S  S14  1  0.797817  0.672790  0.893681  1
  S  S15  1  0.297817  0.327210  0.606319  1
  S  S16  1  0.010995  0.978230  0.217991  1
  S  S17  1  0.510995  0.021770  0.282009  1
  S  S18  1  0.989005  0.021770  0.782009  1
  S  S19  1  0.489005  0.978230  0.717991  1
  S  S20  1  0.407985  0.751673  0.106386  1
  S  S21  1  0.907985  0.248327  0.393614  1
  S  S22  1  0.592015  0.248327  0.893614  1
  S  S23  1  0.092015  0.751673  0.606386  1
