# generated using pymatgen
data_Pr3Ho5Np4O24
_symmetry_space_group_name_H-M   'P 1'
_cell_length_a   5.63036500
_cell_length_b   7.93868123
_cell_length_c   11.88321153
_cell_angle_alpha   74.25683439
_cell_angle_beta   90.00000000
_cell_angle_gamma   90.00000000
_symmetry_Int_Tables_number   1
_chemical_formula_structural   Pr3Ho5Np4O24
_chemical_formula_sum   'Pr3 Ho5 Np4 O24'
_cell_volume   511.22712392
_cell_formula_units_Z   1
loop_
 _symmetry_equiv_pos_site_id
 _symmetry_equiv_pos_as_xyz
  1  'x, y, z'
loop_
 _atom_site_type_symbol
 _atom_site_label
 _atom_site_symmetry_multiplicity
 _atom_site_fract_x
 _atom_site_fract_y
 _atom_site_fract_z
 _atom_site_occupancy
  Pr  Pr0  1  0.747722  0.000000  0.750000  1
  Pr  Pr1  1  0.693741  0.500000  0.750000  1
  Pr  Pr2  1  0.303804  0.500000  0.250000  1
  Ho  Ho3  1  0.253695  0.000000  0.250000  1
  Ho  Ho4  1  0.187480  0.794867  0.577858  1
  Ho  Ho5  1  0.815187  0.794684  0.080864  1
  Ho  Ho6  1  0.187480  0.205133  0.922142  1
  Ho  Ho7  1  0.815187  0.205316  0.419136  1
  Np  Np8  1  0.254756  0.720843  0.888586  1
  Np  Np9  1  0.744087  0.727390  0.385194  1
  Np  Np10  1  0.254756  0.279157  0.611414  1
  Np  Np11  1  0.744087  0.272610  0.114806  1
  O  O12  1  0.054635  0.942885  0.901897  1
  O  O13  1  0.551898  0.840269  0.937333  1
  O  O14  1  0.954568  0.946541  0.396109  1
  O  O15  1  0.441659  0.795772  0.727682  1
  O  O16  1  0.443871  0.848292  0.431374  1
  O  O17  1  0.973766  0.717201  0.766948  1
  O  O18  1  0.550608  0.803734  0.225987  1
  O  O19  1  0.878276  0.635238  0.550425  1
  O  O20  1  0.375032  0.480822  0.888518  1
  O  O21  1  0.028877  0.723360  0.265265  1
  O  O22  1  0.375032  0.519178  0.611482  1
  O  O23  1  0.878276  0.364762  0.949575  1
  O  O24  1  0.118287  0.629241  0.052789  1
  O  O25  1  0.627534  0.486257  0.384843  1
  O  O26  1  0.973766  0.282799  0.733052  1
  O  O27  1  0.627534  0.513743  0.115157  1
  O  O28  1  0.118287  0.370759  0.447211  1
  O  O29  1  0.441659  0.204228  0.772318  1
  O  O30  1  0.028877  0.276640  0.234735  1
  O  O31  1  0.551898  0.159731  0.562667  1
  O  O32  1  0.550608  0.196266  0.274013  1
  O  O33  1  0.054635  0.057115  0.598103  1
  O  O34  1  0.443871  0.151708  0.068626  1
  O  O35  1  0.954568  0.053459  0.103891  1
