# generated using pymatgen
data_PmReSi2Rh
_symmetry_space_group_name_H-M   'P 1'
_cell_length_a   5.74617414
_cell_length_b   5.74617450
_cell_length_c   5.74617475
_cell_angle_alpha   136.61776871
_cell_angle_beta   136.61776367
_cell_angle_gamma   63.02668866
_symmetry_Int_Tables_number   1
_chemical_formula_structural   PmReSi2Rh
_chemical_formula_sum   'Pm1 Re1 Si2 Rh1'
_cell_volume   88.38335304
_cell_formula_units_Z   1
loop_
 _symmetry_equiv_pos_site_id
 _symmetry_equiv_pos_as_xyz
  1  'x, y, z'
loop_
 _atom_site_type_symbol
 _atom_site_label
 _atom_site_symmetry_multiplicity
 _atom_site_fract_x
 _atom_site_fract_y
 _atom_site_fract_z
 _atom_site_occupancy
  Pm  Pm0  1  0.000000  0.000000  0.000000  1
  Re  Re1  1  0.250000  0.750000  0.500000  1
  Si  Si2  1  0.368392  0.368392  0.000000  1
  Si  Si3  1  0.631607  0.631607  0.000000  1
  Rh  Rh4  1  0.750000  0.250000  0.500000  1
