# generated using pymatgen
data_Tb3NdSc4(WO6)4
_symmetry_space_group_name_H-M   'P 1'
_cell_length_a   5.35624300
_cell_length_b   7.58528253
_cell_length_c   11.25728343
_cell_angle_alpha   78.39410740
_cell_angle_beta   90.00000000
_cell_angle_gamma   90.00000000
_symmetry_Int_Tables_number   1
_chemical_formula_structural   Tb3NdSc4(WO6)4
_chemical_formula_sum   'Tb3 Nd1 Sc4 W4 O24'
_cell_volume   448.01676593
_cell_formula_units_Z   1
loop_
 _symmetry_equiv_pos_site_id
 _symmetry_equiv_pos_as_xyz
  1  'x, y, z'
loop_
 _atom_site_type_symbol
 _atom_site_label
 _atom_site_symmetry_multiplicity
 _atom_site_fract_x
 _atom_site_fract_y
 _atom_site_fract_z
 _atom_site_occupancy
  Tb  Tb0  1  0.770456  0.000000  0.750000  1
  Tb  Tb1  1  0.232034  0.000000  0.250000  1
  Tb  Tb2  1  0.309583  0.500000  0.250000  1
  Nd  Nd3  1  0.693405  0.500000  0.750000  1
  Sc  Sc4  1  0.202890  0.777938  0.592503  1
  Sc  Sc5  1  0.799746  0.775781  0.093742  1
  Sc  Sc6  1  0.202890  0.222062  0.907497  1
  Sc  Sc7  1  0.799746  0.224219  0.406258  1
  W  W8  1  0.267909  0.735660  0.891301  1
  W  W9  1  0.731987  0.734608  0.388846  1
  W  W10  1  0.267909  0.264340  0.608699  1
  W  W11  1  0.731987  0.265392  0.111154  1
  O  O12  1  0.089997  0.963213  0.892377  1
  O  O13  1  0.575021  0.831134  0.938971  1
  O  O14  1  0.905782  0.965008  0.386846  1
  O  O15  1  0.463553  0.794806  0.726766  1
  O  O16  1  0.427245  0.833094  0.438599  1
  O  O17  1  0.997337  0.718566  0.772989  1
  O  O18  1  0.533868  0.790619  0.226416  1
  O  O19  1  0.867086  0.657231  0.546467  1
  O  O20  1  0.351919  0.493012  0.887878  1
  O  O21  1  0.007462  0.711070  0.274032  1
  O  O22  1  0.351919  0.506988  0.612122  1
  O  O23  1  0.867086  0.342769  0.953533  1
  O  O24  1  0.137129  0.656148  0.050278  1
  O  O25  1  0.638329  0.492892  0.386133  1
  O  O26  1  0.997337  0.281434  0.727011  1
  O  O27  1  0.638329  0.507108  0.113867  1
  O  O28  1  0.137129  0.343852  0.449722  1
  O  O29  1  0.463553  0.205194  0.773234  1
  O  O30  1  0.007462  0.288930  0.225968  1
  O  O31  1  0.575021  0.168866  0.561029  1
  O  O32  1  0.533868  0.209381  0.273584  1
  O  O33  1  0.089997  0.036787  0.607623  1
  O  O34  1  0.427245  0.166906  0.061401  1
  O  O35  1  0.905782  0.034992  0.113154  1
