# generated using pymatgen
data_Rb8ScTi4Fe3(PO4)12
_symmetry_space_group_name_H-M   'P 1'
_cell_length_a   10.05200900
_cell_length_b   10.05200900
_cell_length_c   10.05200900
_cell_angle_alpha   90.00000000
_cell_angle_beta   90.00000000
_cell_angle_gamma   90.00000000
_symmetry_Int_Tables_number   1
_chemical_formula_structural   Rb8ScTi4Fe3(PO4)12
_chemical_formula_sum   'Rb8 Sc1 Ti4 Fe3 P12 O48'
_cell_volume   1015.68398876
_cell_formula_units_Z   1
loop_
 _symmetry_equiv_pos_site_id
 _symmetry_equiv_pos_as_xyz
  1  'x, y, z'
loop_
 _atom_site_type_symbol
 _atom_site_label
 _atom_site_symmetry_multiplicity
 _atom_site_fract_x
 _atom_site_fract_y
 _atom_site_fract_z
 _atom_site_occupancy
  Rb  Rb0  1  0.072370  0.071469  0.070787  1
  Rb  Rb1  1  0.209713  0.709833  0.790349  1
  Rb  Rb2  1  0.290167  0.290349  0.290287  1
  Rb  Rb3  1  0.429213  0.927630  0.571469  1
  Rb  Rb4  1  0.571283  0.428717  0.928717  1
  Rb  Rb5  1  0.709651  0.790287  0.209833  1
  Rb  Rb6  1  0.790451  0.209549  0.709549  1
  Rb  Rb7  1  0.928531  0.570787  0.427630  1
  Sc  Sc8  1  0.085866  0.914134  0.414134  1
  Ti  Ti9  1  0.141518  0.358381  0.642539  1
  Ti  Ti10  1  0.358988  0.641012  0.141012  1
  Ti  Ti11  1  0.641619  0.142539  0.358482  1
  Ti  Ti12  1  0.857461  0.858482  0.858381  1
  Fe  Fe13  1  0.415348  0.086822  0.913457  1
  Fe  Fe14  1  0.586543  0.584652  0.586822  1
  Fe  Fe15  1  0.913178  0.413457  0.084652  1
  P  P16  1  0.043895  0.725397  0.121907  1
  P  P17  1  0.125430  0.046131  0.732885  1
  P  P18  1  0.228330  0.374456  0.956071  1
  P  P19  1  0.274603  0.621907  0.456105  1
  P  P20  1  0.378093  0.956105  0.225397  1
  P  P21  1  0.455435  0.271036  0.625473  1
  P  P22  1  0.543929  0.771670  0.874456  1
  P  P23  1  0.625544  0.456071  0.271670  1
  P  P24  1  0.728964  0.125473  0.044565  1
  P  P25  1  0.767115  0.874570  0.546131  1
  P  P26  1  0.874527  0.544565  0.771036  1
  P  P27  1  0.953869  0.232885  0.374570  1
  O  O28  1  0.998565  0.582298  0.143571  1
  O  O29  1  0.009594  0.964335  0.797232  1
  O  O30  1  0.017474  0.807635  0.247880  1
  O  O31  1  0.035665  0.297232  0.490406  1
  O  O32  1  0.085405  0.351253  0.002334  1
  O  O33  1  0.083346  0.195465  0.736446  1
  O  O34  1  0.149172  0.999387  0.590468  1
  O  O35  1  0.193829  0.732078  0.082332  1
  O  O36  1  0.192365  0.747880  0.482526  1
  O  O37  1  0.206739  0.507738  0.537000  1
  O  O38  1  0.233293  0.417134  0.806762  1
  O  O39  1  0.252120  0.982526  0.307635  1
  O  O40  1  0.249373  0.020977  0.818624  1
  O  O41  1  0.267922  0.582332  0.306171  1
  O  O42  1  0.295488  0.488746  0.037989  1
  O  O43  1  0.313188  0.249498  0.980646  1
  O  O44  1  0.305770  0.265315  0.584865  1
  O  O45  1  0.356429  0.001435  0.082298  1
  O  O46  1  0.417668  0.806171  0.232078  1
  O  O47  1  0.417702  0.643571  0.501435  1
  O  O48  1  0.462011  0.704512  0.988746  1
  O  O49  1  0.481006  0.186927  0.750941  1
  O  O50  1  0.492262  0.037000  0.293261  1
  O  O51  1  0.502293  0.413846  0.647997  1
  O  O52  1  0.497666  0.914595  0.851253  1
  O  O53  1  0.511254  0.537989  0.204512  1
  O  O54  1  0.519354  0.686812  0.749498  1
  O  O55  1  0.536273  0.204181  0.510539  1
  O  O56  1  0.586154  0.147997  0.997707  1
  O  O57  1  0.582866  0.306762  0.266707  1
  O  O58  1  0.648747  0.502334  0.414595  1
  O  O59  1  0.693238  0.766707  0.917134  1
  O  O60  1  0.681376  0.750627  0.520977  1
  O  O61  1  0.702768  0.990406  0.464335  1
  O  O62  1  0.734685  0.084865  0.194230  1
  O  O63  1  0.749059  0.518994  0.686927  1
  O  O64  1  0.750502  0.480646  0.186812  1
  O  O65  1  0.763554  0.916654  0.695465  1
  O  O66  1  0.795819  0.010539  0.963727  1
  O  O67  1  0.813073  0.250941  0.018994  1
  O  O68  1  0.804535  0.236446  0.416654  1
  O  O69  1  0.852003  0.497707  0.913846  1
  O  O70  1  0.915135  0.694230  0.765315  1
  O  O71  1  0.909532  0.850828  0.499387  1
  O  O72  1  0.963000  0.793261  0.007738  1
  O  O73  1  0.979023  0.318624  0.250627  1
  O  O74  1  0.989461  0.463727  0.704181  1
  O  O75  1  0.000613  0.090468  0.350828  1
