# generated using pymatgen
data_Nb9Co10B10Mo
_symmetry_space_group_name_H-M   'P 1'
_cell_length_a   3.27915500
_cell_length_b   5.90953101
_cell_length_c   17.02859659
_cell_angle_alpha   89.81156344
_cell_angle_beta   90.00000000
_cell_angle_gamma   90.00000000
_symmetry_Int_Tables_number   1
_chemical_formula_structural   Nb9Co10B10Mo
_chemical_formula_sum   'Nb9 Co10 B10 Mo1'
_cell_volume   329.98292669
_cell_formula_units_Z   1
loop_
 _symmetry_equiv_pos_site_id
 _symmetry_equiv_pos_as_xyz
  1  'x, y, z'
loop_
 _atom_site_type_symbol
 _atom_site_label
 _atom_site_symmetry_multiplicity
 _atom_site_fract_x
 _atom_site_fract_y
 _atom_site_fract_z
 _atom_site_occupancy
  Nb  Nb0  1  0.000000  0.472885  0.320723  1
  Nb  Nb1  1  0.000000  0.470612  0.680490  1
  Nb  Nb2  1  0.500000  0.528022  0.178752  1
  Nb  Nb3  1  0.500000  0.527938  0.821751  1
  Nb  Nb4  1  0.000000  0.977480  0.375343  1
  Nb  Nb5  1  0.000000  0.977398  0.625207  1
  Nb  Nb6  1  0.500000  0.025772  0.123476  1
  Nb  Nb7  1  0.000000  0.354055  0.500304  1
  Nb  Nb8  1  0.500000  0.645399  0.999549  1
  Co  Co9  1  0.000000  0.857721  0.225828  1
  Co  Co10  1  0.000000  0.854190  0.773099  1
  Co  Co11  1  0.500000  0.142890  0.273569  1
  Co  Co12  1  0.500000  0.140186  0.728197  1
  Co  Co13  1  0.000000  0.352403  0.071145  1
  Co  Co14  1  0.000000  0.351992  0.927597  1
  Co  Co15  1  0.500000  0.650041  0.429151  1
  Co  Co16  1  0.500000  0.648836  0.572504  1
  Co  Co17  1  0.000000  0.992475  0.999086  1
  Co  Co18  1  0.500000  0.005321  0.500446  1
  B  B19  1  0.000000  0.229743  0.202737  1
  B  B20  1  0.000000  0.223181  0.800474  1
  B  B21  1  0.500000  0.770987  0.297040  1
  B  B22  1  0.500000  0.769202  0.703529  1
  B  B23  1  0.000000  0.732594  0.100249  1
  B  B24  1  0.000000  0.743287  0.897931  1
  B  B25  1  0.500000  0.270223  0.399301  1
  B  B26  1  0.500000  0.270159  0.601690  1
  B  B27  1  0.000000  0.765583  0.500688  1
  B  B28  1  0.500000  0.228297  0.994770  1
  Mo  Mo29  1  0.500000  0.021128  0.875375  1
