# generated using pymatgen
data_Sc6Ta3TiAl12Os7
_symmetry_space_group_name_H-M   'P 1'
_cell_length_a   8.87981306
_cell_length_b   8.87981354
_cell_length_c   8.86687272
_cell_angle_alpha   59.95171577
_cell_angle_beta   59.95171449
_cell_angle_gamma   60.00000658
_symmetry_Int_Tables_number   1
_chemical_formula_structural   Sc6Ta3TiAl12Os7
_chemical_formula_sum   'Sc6 Ta3 Ti1 Al12 Os7'
_cell_volume   494.02146937
_cell_formula_units_Z   1
loop_
 _symmetry_equiv_pos_site_id
 _symmetry_equiv_pos_as_xyz
  1  'x, y, z'
loop_
 _atom_site_type_symbol
 _atom_site_label
 _atom_site_symmetry_multiplicity
 _atom_site_fract_x
 _atom_site_fract_y
 _atom_site_fract_z
 _atom_site_occupancy
  Sc  Sc0  1  0.712562  0.712562  0.289878  1
  Sc  Sc1  1  0.284997  0.712562  0.289878  1
  Sc  Sc2  1  0.712562  0.284997  0.289878  1
  Sc  Sc3  1  0.288978  0.288978  0.711220  1
  Sc  Sc4  1  0.710824  0.288978  0.711220  1
  Sc  Sc5  1  0.288978  0.710824  0.711220  1
  Ta  Ta6  1  0.878635  0.362630  0.880098  1
  Ta  Ta7  1  0.362630  0.878635  0.880098  1
  Ta  Ta8  1  0.878635  0.878635  0.880098  1
  Ti  Ti9  1  0.879988  0.879988  0.360035  1
  Al  Al10  1  0.120864  0.120864  0.637409  1
  Al  Al11  1  0.119733  0.637591  0.122944  1
  Al  Al12  1  0.637591  0.119733  0.122944  1
  Al  Al13  1  0.119733  0.119733  0.122944  1
  Al  Al14  1  0.662192  0.662192  0.013426  1
  Al  Al15  1  0.665331  0.009670  0.659670  1
  Al  Al16  1  0.009670  0.665331  0.659670  1
  Al  Al17  1  0.665331  0.665331  0.659670  1
  Al  Al18  1  0.335298  0.335298  0.994106  1
  Al  Al19  1  0.335200  0.994805  0.334795  1
  Al  Al20  1  0.994805  0.335200  0.334795  1
  Al  Al21  1  0.335200  0.335200  0.334795  1
  Os  Os22  1  0.000087  0.000087  0.999740  1
  Os  Os23  1  0.998116  0.998116  0.503523  1
  Os  Os24  1  0.500246  0.998116  0.503523  1
  Os  Os25  1  0.998116  0.500246  0.503523  1
  Os  Os26  1  0.503218  0.503218  0.996301  1
  Os  Os27  1  0.997263  0.503218  0.996301  1
  Os  Os28  1  0.503218  0.997263  0.996301  1
