# generated using pymatgen
data_Li2Y3Si2AgHg
_symmetry_space_group_name_H-M   'P 1'
_cell_length_a   7.30953600
_cell_length_b   7.19577190
_cell_length_c   4.18471800
_cell_angle_alpha   90.00000000
_cell_angle_beta   90.00000000
_cell_angle_gamma   120.52436924
_symmetry_Int_Tables_number   1
_chemical_formula_structural   Li2Y3Si2AgHg
_chemical_formula_sum   'Li2 Y3 Si2 Ag1 Hg1'
_cell_volume   189.60287749
_cell_formula_units_Z   1
loop_
 _symmetry_equiv_pos_site_id
 _symmetry_equiv_pos_as_xyz
  1  'x, y, z'
loop_
 _atom_site_type_symbol
 _atom_site_label
 _atom_site_symmetry_multiplicity
 _atom_site_fract_x
 _atom_site_fract_y
 _atom_site_fract_z
 _atom_site_occupancy
  Li  Li0  1  0.753936  0.750777  0.500000  1
  Li  Li1  1  0.003159  0.249223  0.500000  1
  Y  Y2  1  0.999545  0.573498  0.000000  1
  Y  Y3  1  0.568060  0.000000  0.000000  1
  Y  Y4  1  0.426046  0.426502  0.000000  1
  Si  Si5  1  0.332772  0.661290  0.500000  1
  Si  Si6  1  0.671484  0.338710  0.500000  1
  Ag  Ag7  1  0.260903  0.000000  0.500000  1
  Hg  Hg8  1  0.984095  0.000000  0.000000  1
