# generated using pymatgen
data_Sc6Nb3Al13Fe7
_symmetry_space_group_name_H-M   'P 1'
_cell_length_a   8.66187778
_cell_length_b   8.66281891
_cell_length_c   8.66090094
_cell_angle_alpha   59.73407648
_cell_angle_beta   59.72380174
_cell_angle_gamma   59.72225682
_symmetry_Int_Tables_number   1
_chemical_formula_structural   Sc6Nb3Al13Fe7
_chemical_formula_sum   'Sc6 Nb3 Al13 Fe7'
_cell_volume   456.68360112
_cell_formula_units_Z   1
loop_
 _symmetry_equiv_pos_site_id
 _symmetry_equiv_pos_as_xyz
  1  'x, y, z'
loop_
 _atom_site_type_symbol
 _atom_site_label
 _atom_site_symmetry_multiplicity
 _atom_site_fract_x
 _atom_site_fract_y
 _atom_site_fract_z
 _atom_site_occupancy
  Sc  Sc0  1  0.709202  0.709109  0.285527  1
  Sc  Sc1  1  0.293328  0.707937  0.293375  1
  Sc  Sc2  1  0.707964  0.293400  0.293334  1
  Sc  Sc3  1  0.293319  0.293426  0.707936  1
  Sc  Sc4  1  0.709206  0.285543  0.709146  1
  Sc  Sc5  1  0.285502  0.709124  0.709165  1
  Nb  Nb6  1  0.879469  0.879421  0.358826  1
  Nb  Nb7  1  0.879363  0.358959  0.879375  1
  Nb  Nb8  1  0.358764  0.879417  0.879483  1
  Al  Al9  1  0.882500  0.882593  0.882559  1
  Al  Al10  1  0.119464  0.119420  0.640851  1
  Al  Al11  1  0.119423  0.640870  0.119434  1
  Al  Al12  1  0.640839  0.119399  0.119448  1
  Al  Al13  1  0.120304  0.120197  0.120232  1
  Al  Al14  1  0.668121  0.668216  0.001909  1
  Al  Al15  1  0.668111  0.001941  0.668186  1
  Al  Al16  1  0.001878  0.668166  0.668150  1
  Al  Al17  1  0.663271  0.663309  0.663260  1
  Al  Al18  1  0.334685  0.334527  0.998492  1
  Al  Al19  1  0.334694  0.998473  0.334574  1
  Al  Al20  1  0.998540  0.334588  0.334623  1
  Al  Al21  1  0.334604  0.334541  0.334606  1
  Fe  Fe22  1  0.001787  0.001926  0.001855  1
  Fe  Fe23  1  0.998066  0.998111  0.496861  1
  Fe  Fe24  1  0.503458  0.995708  0.503428  1
  Fe  Fe25  1  0.995725  0.503362  0.503456  1
  Fe  Fe26  1  0.503463  0.503344  0.995728  1
  Fe  Fe27  1  0.998083  0.496846  0.998085  1
  Fe  Fe28  1  0.496868  0.998130  0.998097  1
