# generated using pymatgen
data_Tm5Lu7Co5Sn
_symmetry_space_group_name_H-M   'P 1'
_cell_length_a   8.10346547
_cell_length_b   8.10353929
_cell_length_c   8.10346530
_cell_angle_alpha   106.64248663
_cell_angle_beta   111.02383270
_cell_angle_gamma   110.78357694
_symmetry_Int_Tables_number   1
_chemical_formula_structural   Tm5Lu7Co5Sn
_chemical_formula_sum   'Tm5 Lu7 Co5 Sn1'
_cell_volume   408.88829854
_cell_formula_units_Z   1
loop_
 _symmetry_equiv_pos_site_id
 _symmetry_equiv_pos_as_xyz
  1  'x, y, z'
loop_
 _atom_site_type_symbol
 _atom_site_label
 _atom_site_symmetry_multiplicity
 _atom_site_fract_x
 _atom_site_fract_y
 _atom_site_fract_z
 _atom_site_occupancy
  Tm  Tm0  1  0.472956  0.286854  0.185800  1
  Tm  Tm1  1  0.101054  0.286854  0.813899  1
  Tm  Tm2  1  0.898668  0.713042  0.185813  1
  Tm  Tm3  1  0.527228  0.713042  0.814374  1
  Tm  Tm4  1  0.304804  0.618391  0.313587  1
  Lu  Lu5  1  0.305136  0.991562  0.686424  1
  Lu  Lu6  1  0.694865  0.381143  0.686278  1
  Lu  Lu7  1  0.695029  0.008758  0.313730  1
  Lu  Lu8  1  0.194161  0.213005  0.407382  1
  Lu  Lu9  1  0.806128  0.786971  0.592830  1
  Lu  Lu10  1  0.194140  0.786971  0.980841  1
  Lu  Lu11  1  0.805623  0.213005  0.018846  1
  Co  Co12  1  0.500109  0.613448  0.113339  1
  Co  Co13  1  0.499980  0.386436  0.886456  1
  Co  Co14  1  0.373951  0.000256  0.373988  1
  Co  Co15  1  0.626268  0.000256  0.626306  1
  Co  Co16  1  0.000016  0.000030  0.000014  1
  Sn  Sn17  1  0.999884  0.499977  0.500092  1
