# generated using pymatgen
data_Hf2Ti3Pt
_symmetry_space_group_name_H-M   'P 1'
_cell_length_a   5.51016800
_cell_length_b   5.51016760
_cell_length_c   8.40082200
_cell_angle_alpha   90.00000000
_cell_angle_beta   90.00000000
_cell_angle_gamma   120.00000243
_symmetry_Int_Tables_number   1
_chemical_formula_structural   Hf2Ti3Pt
_chemical_formula_sum   'Hf4 Ti6 Pt2'
_cell_volume   220.89305040
_cell_formula_units_Z   2
loop_
 _symmetry_equiv_pos_site_id
 _symmetry_equiv_pos_as_xyz
  1  'x, y, z'
loop_
 _atom_site_type_symbol
 _atom_site_label
 _atom_site_symmetry_multiplicity
 _atom_site_fract_x
 _atom_site_fract_y
 _atom_site_fract_z
 _atom_site_occupancy
  Hf  Hf0  1  0.666667  0.333334  0.063732  1
  Hf  Hf1  1  0.666667  0.333334  0.436268  1
  Hf  Hf2  1  0.333334  0.666668  0.563732  1
  Hf  Hf3  1  0.333334  0.666668  0.936267  1
  Ti  Ti4  1  0.170823  0.341646  0.250000  1
  Ti  Ti5  1  0.170823  0.829177  0.250000  1
  Ti  Ti6  1  0.658353  0.829177  0.250000  1
  Ti  Ti7  1  0.341647  0.170823  0.750000  1
  Ti  Ti8  1  0.829177  0.170823  0.750000  1
  Ti  Ti9  1  0.829177  0.658353  0.750000  1
  Pt  Pt10  1  0.000000  0.000000  0.000000  1
  Pt  Pt11  1  0.000000  0.000000  0.500000  1
