# generated using pymatgen
data_Sr2Os6Pb2O19
_symmetry_space_group_name_H-M   'P 1'
_cell_length_a   8.05391996
_cell_length_b   8.05391953
_cell_length_c   8.02973169
_cell_angle_alpha   109.43056287
_cell_angle_beta   109.50585720
_cell_angle_gamma   109.59894800
_symmetry_Int_Tables_number   1
_chemical_formula_structural   Sr2Os6Pb2O19
_chemical_formula_sum   'Sr2 Os6 Pb2 O19'
_cell_volume   400.34922895
_cell_formula_units_Z   1
loop_
 _symmetry_equiv_pos_site_id
 _symmetry_equiv_pos_as_xyz
  1  'x, y, z'
loop_
 _atom_site_type_symbol
 _atom_site_label
 _atom_site_symmetry_multiplicity
 _atom_site_fract_x
 _atom_site_fract_y
 _atom_site_fract_z
 _atom_site_occupancy
  Sr  Sr0  1  0.307232  0.999534  0.999987  1
  Sr  Sr1  1  0.999547  0.307246  0.000013  1
  Os  Os2  1  0.636077  0.500003  0.138944  1
  Os  Os3  1  0.499660  0.862553  0.361878  1
  Os  Os4  1  0.862553  0.362553  0.500000  1
  Os  Os5  1  0.137742  0.637741  0.500000  1
  Os  Os6  1  0.500676  0.137782  0.638122  1
  Os  Os7  1  0.361060  0.497134  0.861056  1
  Pb  Pb8  1  0.998653  0.999204  0.288908  1
  Pb  Pb9  1  0.710295  0.709744  0.711092  1
  O  O10  1  0.992589  0.992589  0.000000  1
  O  O11  1  0.331167  0.331167  0.000000  1
  O  O12  1  0.665770  0.665770  0.000000  1
  O  O13  1  0.350672  0.706462  0.064175  1
  O  O14  1  0.932946  0.639799  0.285635  1
  O  O15  1  0.644143  0.355797  0.290975  1
  O  O16  1  0.334821  0.002466  0.333559  1
  O  O17  1  0.997593  0.332233  0.330963  1
  O  O18  1  0.704467  0.065760  0.349283  1
  O  O19  1  0.645524  0.712976  0.353046  1
  O  O20  1  0.289323  0.644747  0.355116  1
  O  O21  1  0.289633  0.934210  0.644884  1
  O  O22  1  0.359929  0.292477  0.646954  1
  O  O23  1  0.716474  0.355181  0.650715  1
  O  O24  1  0.668907  0.001262  0.666440  1
  O  O25  1  0.001269  0.666630  0.669038  1
  O  O26  1  0.064820  0.353166  0.709023  1
  O  O27  1  0.354164  0.647312  0.714365  1
  O  O28  1  0.642286  0.286496  0.935824  1
