# generated using pymatgen
data_Tb3Sn3Ir2Pd
_symmetry_space_group_name_H-M   'P 1'
_cell_length_a   7.59303800
_cell_length_b   7.59303904
_cell_length_c   3.91551100
_cell_angle_alpha   90.00000000
_cell_angle_beta   90.00000000
_cell_angle_gamma   119.99999547
_symmetry_Int_Tables_number   1
_chemical_formula_structural   Tb3Sn3Ir2Pd
_chemical_formula_sum   'Tb3 Sn3 Ir2 Pd1'
_cell_volume   195.50159549
_cell_formula_units_Z   1
loop_
 _symmetry_equiv_pos_site_id
 _symmetry_equiv_pos_as_xyz
  1  'x, y, z'
loop_
 _atom_site_type_symbol
 _atom_site_label
 _atom_site_symmetry_multiplicity
 _atom_site_fract_x
 _atom_site_fract_y
 _atom_site_fract_z
 _atom_site_occupancy
  Tb  Tb0  1  0.601432  0.011769  0.000000  1
  Tb  Tb1  1  0.988231  0.589663  0.000000  1
  Tb  Tb2  1  0.410337  0.398568  0.000000  1
  Sn  Sn3  1  0.258293  0.998553  0.500000  1
  Sn  Sn4  1  0.001447  0.259740  0.500000  1
  Sn  Sn5  1  0.740260  0.741707  0.500000  1
  Ir  Ir6  1  0.666667  0.333333  0.500000  1
  Ir  Ir7  1  0.000000  0.000000  0.000000  1
  Pd  Pd8  1  0.333333  0.666667  0.500000  1
