# generated using pymatgen
data_Sm4Lu4Sc12Si15Os
_symmetry_space_group_name_H-M   'P 1'
_cell_length_a   7.10388022
_cell_length_b   7.44562428
_cell_length_c   13.96739524
_cell_angle_alpha   90.04634809
_cell_angle_beta   89.91224437
_cell_angle_gamma   90.09584822
_symmetry_Int_Tables_number   1
_chemical_formula_structural   Sm4Lu4Sc12Si15Os
_chemical_formula_sum   'Sm4 Lu4 Sc12 Si15 Os1'
_cell_volume   738.77282462
_cell_formula_units_Z   1
loop_
 _symmetry_equiv_pos_site_id
 _symmetry_equiv_pos_as_xyz
  1  'x, y, z'
loop_
 _atom_site_type_symbol
 _atom_site_label
 _atom_site_symmetry_multiplicity
 _atom_site_fract_x
 _atom_site_fract_y
 _atom_site_fract_z
 _atom_site_occupancy
  Sm  Sm0  1  0.513017  0.324652  0.092769  1
  Sm  Sm1  1  0.010922  0.177441  0.406581  1
  Sm  Sm2  1  0.512654  0.325141  0.403421  1
  Sm  Sm3  1  0.489132  0.673975  0.596694  1
  Lu  Lu4  1  0.013543  0.180151  0.094578  1
  Lu  Lu5  1  0.989774  0.827453  0.903484  1
  Lu  Lu6  1  0.486789  0.678512  0.902231  1
  Lu  Lu7  1  0.989196  0.827478  0.599659  1
  Sc  Sc8  1  0.155994  0.498573  0.751314  1
  Sc  Sc9  1  0.839385  0.497015  0.248529  1
  Sc  Sc10  1  0.340701  0.006451  0.248563  1
  Sc  Sc11  1  0.667159  0.994942  0.750957  1
  Sc  Sc12  1  0.315429  0.169837  0.629278  1
  Sc  Sc13  1  0.674784  0.828206  0.373573  1
  Sc  Sc14  1  0.170486  0.680060  0.374101  1
  Sc  Sc15  1  0.673711  0.826009  0.123510  1
  Sc  Sc16  1  0.835957  0.319235  0.630204  1
  Sc  Sc17  1  0.313130  0.169632  0.872789  1
  Sc  Sc18  1  0.838795  0.315305  0.872703  1
  Sc  Sc19  1  0.171374  0.679997  0.123969  1
  Si  Si20  1  0.970062  0.885902  0.247860  1
  Si  Si21  1  0.468988  0.620495  0.248609  1
  Si  Si22  1  0.528141  0.387125  0.753194  1
  Si  Si23  1  0.283200  0.863919  0.752446  1
  Si  Si24  1  0.717819  0.128657  0.246763  1
  Si  Si25  1  0.212473  0.373804  0.247460  1
  Si  Si26  1  0.779547  0.626381  0.753535  1
  Si  Si27  1  0.154282  0.472614  0.539769  1
  Si  Si28  1  0.846714  0.542166  0.463788  1
  Si  Si29  1  0.347851  0.964714  0.460945  1
  Si  Si30  1  0.849095  0.536792  0.037127  1
  Si  Si31  1  0.656468  0.033048  0.540394  1
  Si  Si32  1  0.160063  0.470977  0.961051  1
  Si  Si33  1  0.654527  0.028152  0.959108  1
  Si  Si34  1  0.342734  0.963619  0.038441  1
  Os  Os35  1  0.026110  0.101575  0.750603  1
