# generated using pymatgen
data_Ho15ErIn4OsRh3
_symmetry_space_group_name_H-M   'P 1'
_cell_length_a   9.60851159
_cell_length_b   9.64046919
_cell_length_c   9.60851175
_cell_angle_alpha   60.04819986
_cell_angle_beta   59.87650879
_cell_angle_gamma   60.04820458
_symmetry_Int_Tables_number   1
_chemical_formula_structural   Ho15ErIn4OsRh3
_chemical_formula_sum   'Ho15 Er1 In4 Os1 Rh3'
_cell_volume   629.22200423
_cell_formula_units_Z   1
loop_
 _symmetry_equiv_pos_site_id
 _symmetry_equiv_pos_as_xyz
  1  'x, y, z'
loop_
 _atom_site_type_symbol
 _atom_site_label
 _atom_site_symmetry_multiplicity
 _atom_site_fract_x
 _atom_site_fract_y
 _atom_site_fract_z
 _atom_site_occupancy
  Ho  Ho0  1  0.188197  0.191889  0.811694  1
  Ho  Ho1  1  0.438171  0.060856  0.062071  1
  Ho  Ho2  1  0.437422  0.061939  0.437422  1
  Ho  Ho3  1  0.058672  0.437249  0.058672  1
  Ho  Ho4  1  0.649021  0.049897  0.649021  1
  Ho  Ho5  1  0.190913  0.809576  0.810942  1
  Ho  Ho6  1  0.062071  0.060856  0.438171  1
  Ho  Ho7  1  0.811694  0.191889  0.188197  1
  Ho  Ho8  1  0.810942  0.809576  0.190913  1
  Ho  Ho9  1  0.649126  0.649114  0.049274  1
  Ho  Ho10  1  0.651616  0.650963  0.651616  1
  Ho  Ho11  1  0.060020  0.436652  0.443516  1
  Ho  Ho12  1  0.049274  0.649114  0.649126  1
  Ho  Ho13  1  0.809988  0.192554  0.809988  1
  Ho  Ho14  1  0.443516  0.436652  0.060020  1
  Er  Er15  1  0.190147  0.810880  0.190147  1
  In  In16  1  0.417362  0.748371  0.417362  1
  In  In17  1  0.417250  0.416518  0.749269  1
  In  In18  1  0.749269  0.416518  0.417250  1
  In  In19  1  0.417072  0.416419  0.417072  1
  Os  Os20  1  0.857548  0.426287  0.857548  1
  Rh  Rh21  1  0.858370  0.858593  0.424768  1
  Rh  Rh22  1  0.424768  0.858593  0.858370  1
  Rh  Rh23  1  0.857569  0.859046  0.857569  1
