# generated using pymatgen
data_Tm8Lu4InCo4Os
_symmetry_space_group_name_H-M   'P 1'
_cell_length_a   8.13141063
_cell_length_b   8.13141180
_cell_length_c   8.13141128
_cell_angle_alpha   111.43218005
_cell_angle_beta   111.04193229
_cell_angle_gamma   105.99474486
_symmetry_Int_Tables_number   1
_chemical_formula_structural   Tm8Lu4InCo4Os
_chemical_formula_sum   'Tm8 Lu4 In1 Co4 Os1'
_cell_volume   412.74239710
_cell_formula_units_Z   1
loop_
 _symmetry_equiv_pos_site_id
 _symmetry_equiv_pos_as_xyz
  1  'x, y, z'
loop_
 _atom_site_type_symbol
 _atom_site_label
 _atom_site_symmetry_multiplicity
 _atom_site_fract_x
 _atom_site_fract_y
 _atom_site_fract_z
 _atom_site_occupancy
  Tm  Tm0  1  0.182217  0.277611  0.459827  1
  Tm  Tm1  1  0.817783  0.722389  0.540173  1
  Tm  Tm2  1  0.182217  0.722389  0.904606  1
  Tm  Tm3  1  0.817783  0.277611  0.095394  1
  Tm  Tm4  1  0.314615  0.620337  0.305722  1
  Tm  Tm5  1  0.685385  0.379663  0.694278  1
  Tm  Tm6  1  0.314615  0.008892  0.694278  1
  Tm  Tm7  1  0.685385  0.991108  0.305722  1
  Lu  Lu8  1  0.417102  0.222997  0.194104  1
  Lu  Lu9  1  0.582898  0.777003  0.805896  1
  Lu  Lu10  1  0.028893  0.222997  0.805896  1
  Lu  Lu11  1  0.971107  0.777003  0.194104  1
  In  In12  1  0.500000  0.500000  0.000000  1
  Co  Co13  1  0.374342  0.000000  0.374342  1
  Co  Co14  1  0.625658  0.000000  0.625658  1
  Co  Co15  1  0.112158  0.612158  0.500000  1
  Co  Co16  1  0.887842  0.387842  0.500000  1
  Os  Os17  1  0.000000  0.000000  0.000000  1
