# generated using pymatgen
data_MgSc4Cu(B2Rh5)2
_symmetry_space_group_name_H-M   'P 1'
_cell_length_a   9.40223400
_cell_length_b   3.06682300
_cell_length_c   9.40223400
_cell_angle_alpha   90.00000000
_cell_angle_beta   90.00000000
_cell_angle_gamma   90.00000000
_symmetry_Int_Tables_number   1
_chemical_formula_structural   MgSc4Cu(B2Rh5)2
_chemical_formula_sum   'Mg1 Sc4 Cu1 B4 Rh10'
_cell_volume   271.11329970
_cell_formula_units_Z   1
loop_
 _symmetry_equiv_pos_site_id
 _symmetry_equiv_pos_as_xyz
  1  'x, y, z'
loop_
 _atom_site_type_symbol
 _atom_site_label
 _atom_site_symmetry_multiplicity
 _atom_site_fract_x
 _atom_site_fract_y
 _atom_site_fract_z
 _atom_site_occupancy
  Mg  Mg0  1  0.000000  0.000000  0.000000  1
  Sc  Sc1  1  0.675298  0.000000  0.176026  1
  Sc  Sc2  1  0.176026  0.000000  0.324702  1
  Sc  Sc3  1  0.823974  0.000000  0.675298  1
  Sc  Sc4  1  0.324702  0.000000  0.823974  1
  Cu  Cu5  1  0.500001  0.000000  0.500001  1
  B  B6  1  0.376573  0.000000  0.129320  1
  B  B7  1  0.870681  0.000000  0.376573  1
  B  B8  1  0.129320  0.000000  0.623427  1
  B  B9  1  0.623427  0.000000  0.870681  1
  Rh  Rh10  1  0.500001  0.499999  0.000000  1
  Rh  Rh11  1  0.221008  0.499999  0.073370  1
  Rh  Rh12  1  0.926630  0.499999  0.221008  1
  Rh  Rh13  1  0.431832  0.499999  0.284197  1
  Rh  Rh14  1  0.715803  0.499999  0.431832  1
  Rh  Rh15  1  0.000000  0.499999  0.500001  1
  Rh  Rh16  1  0.284197  0.499999  0.568169  1
  Rh  Rh17  1  0.568169  0.499999  0.715803  1
  Rh  Rh18  1  0.073370  0.499999  0.778992  1
  Rh  Rh19  1  0.778992  0.499999  0.926630  1
