# generated using pymatgen
data_Tb2Y4RhI10
_symmetry_space_group_name_H-M   'P 1'
_cell_length_a   7.74400642
_cell_length_b   9.69858625
_cell_length_c   9.81264334
_cell_angle_alpha   107.40132687
_cell_angle_beta   97.11628286
_cell_angle_gamma   104.73582006
_symmetry_Int_Tables_number   1
_chemical_formula_structural   Tb2Y4RhI10
_chemical_formula_sum   'Tb2 Y4 Rh1 I10'
_cell_volume   663.97064682
_cell_formula_units_Z   1
loop_
 _symmetry_equiv_pos_site_id
 _symmetry_equiv_pos_as_xyz
  1  'x, y, z'
loop_
 _atom_site_type_symbol
 _atom_site_label
 _atom_site_symmetry_multiplicity
 _atom_site_fract_x
 _atom_site_fract_y
 _atom_site_fract_z
 _atom_site_occupancy
  Tb  Tb0  1  0.529575  0.220890  0.417528  1
  Tb  Tb1  1  0.470425  0.779110  0.582472  1
  Y  Y2  1  0.146733  0.371811  0.331853  1
  Y  Y3  1  0.853267  0.628189  0.668147  1
  Y  Y4  1  0.613687  0.541258  0.257305  1
  Y  Y5  1  0.386313  0.458742  0.742695  1
  Rh  Rh6  1  0.500000  0.500000  0.500000  1
  I  I7  1  0.145862  0.045587  0.225673  1
  I  I8  1  0.854138  0.954413  0.774327  1
  I  I9  1  0.238102  0.410699  0.035267  1
  I  I10  1  0.761898  0.589301  0.964733  1
  I  I11  1  0.715566  0.239704  0.152352  1
  I  I12  1  0.284434  0.760296  0.847648  1
  I  I13  1  0.047699  0.683415  0.408323  1
  I  I14  1  0.952301  0.316585  0.591677  1
  I  I15  1  0.413455  0.127606  0.678549  1
  I  I16  1  0.586545  0.872394  0.321451  1
