# generated using pymatgen
data_LaU2Tc3
_symmetry_space_group_name_H-M   'P 1'
_cell_length_a   6.06796200
_cell_length_b   6.06796266
_cell_length_c   8.05357500
_cell_angle_alpha   90.00000000
_cell_angle_beta   90.00000000
_cell_angle_gamma   119.99999642
_symmetry_Int_Tables_number   1
_chemical_formula_structural   LaU2Tc3
_chemical_formula_sum   'La2 U4 Tc6'
_cell_volume   256.80596471
_cell_formula_units_Z   2
loop_
 _symmetry_equiv_pos_site_id
 _symmetry_equiv_pos_as_xyz
  1  'x, y, z'
loop_
 _atom_site_type_symbol
 _atom_site_label
 _atom_site_symmetry_multiplicity
 _atom_site_fract_x
 _atom_site_fract_y
 _atom_site_fract_z
 _atom_site_occupancy
  La  La0  1  0.000000  0.000000  0.500000  1
  La  La1  1  0.000000  0.000000  0.000000  1
  U  U2  1  0.333333  0.666667  0.500000  1
  U  U3  1  0.666667  0.333333  0.000000  1
  U  U4  1  0.666667  0.333333  0.500000  1
  U  U5  1  0.333333  0.666667  0.000000  1
  Tc  Tc6  1  0.498403  0.498403  0.750000  1
  Tc  Tc7  1  0.000000  0.498403  0.250000  1
  Tc  Tc8  1  0.501597  0.501597  0.250000  1
  Tc  Tc9  1  0.501597  0.000000  0.750000  1
  Tc  Tc10  1  0.000000  0.501597  0.750000  1
  Tc  Tc11  1  0.498403  0.000000  0.250000  1
