# generated using pymatgen
data_CaEu9Si5Pb
_symmetry_space_group_name_H-M   'P 1'
_cell_length_a   9.35887703
_cell_length_b   9.35887673
_cell_length_c   9.35887700
_cell_angle_alpha   130.65634710
_cell_angle_beta   130.65635358
_cell_angle_gamma   72.35964049
_symmetry_Int_Tables_number   1
_chemical_formula_structural   CaEu9Si5Pb
_chemical_formula_sum   'Ca1 Eu9 Si5 Pb1'
_cell_volume   461.15013650
_cell_formula_units_Z   1
loop_
 _symmetry_equiv_pos_site_id
 _symmetry_equiv_pos_as_xyz
  1  'x, y, z'
loop_
 _atom_site_type_symbol
 _atom_site_label
 _atom_site_symmetry_multiplicity
 _atom_site_fract_x
 _atom_site_fract_y
 _atom_site_fract_z
 _atom_site_occupancy
  Ca  Ca0  1  0.510506  0.510506  0.000000  1
  Eu  Eu1  1  0.827451  0.309130  0.853093  1
  Eu  Eu2  1  0.191676  0.672011  0.147100  1
  Eu  Eu3  1  0.456037  0.974358  0.146907  1
  Eu  Eu4  1  0.309130  0.456037  0.481678  1
  Eu  Eu5  1  0.044575  0.191676  0.519665  1
  Eu  Eu6  1  0.524911  0.044575  0.852900  1
  Eu  Eu7  1  0.672011  0.524911  0.480335  1
  Eu  Eu8  1  0.974358  0.827451  0.518322  1
  Eu  Eu9  1  0.988982  0.988982  0.000000  1
  Si  Si10  1  0.112091  0.610567  0.722291  1
  Si  Si11  1  0.888276  0.389801  0.277709  1
  Si  Si12  1  0.610567  0.888276  0.498475  1
  Si  Si13  1  0.389801  0.112091  0.501525  1
  Si  Si14  1  0.250353  0.250353  0.000000  1
  Pb  Pb15  1  0.749275  0.749275  0.000000  1
