# generated using pymatgen
data_Y3Ho7(InBi2)2
_symmetry_space_group_name_H-M   'P 1'
_cell_length_a   9.06205572
_cell_length_b   9.06872033
_cell_length_c   6.49760100
_cell_angle_alpha   90.00000000
_cell_angle_beta   90.00000000
_cell_angle_gamma   119.81902122
_symmetry_Int_Tables_number   1
_chemical_formula_structural   Y3Ho7(InBi2)2
_chemical_formula_sum   'Y3 Ho7 In2 Bi4'
_cell_volume   463.28210908
_cell_formula_units_Z   1
loop_
 _symmetry_equiv_pos_site_id
 _symmetry_equiv_pos_as_xyz
  1  'x, y, z'
loop_
 _atom_site_type_symbol
 _atom_site_label
 _atom_site_symmetry_multiplicity
 _atom_site_fract_x
 _atom_site_fract_y
 _atom_site_fract_z
 _atom_site_occupancy
  Y  Y0  1  0.761412  0.761492  0.750000  1
  Y  Y1  1  0.236171  0.998288  0.750000  1
  Y  Y2  1  0.234521  0.234742  0.250000  1
  Ho  Ho3  1  0.668867  0.328830  0.003694  1
  Ho  Ho4  1  0.328908  0.668819  0.003708  1
  Ho  Ho5  1  0.328908  0.668819  0.496292  1
  Ho  Ho6  1  0.668867  0.328830  0.496306  1
  Ho  Ho7  1  0.998161  0.236240  0.750000  1
  Ho  Ho8  1  0.765005  0.008394  0.250000  1
  Ho  Ho9  1  0.008180  0.764683  0.250000  1
  In  In10  1  0.396385  0.001223  0.250000  1
  In  In11  1  0.001301  0.396414  0.250000  1
  Bi  Bi12  1  0.393402  0.393762  0.750000  1
  Bi  Bi13  1  0.603469  0.997180  0.750000  1
  Bi  Bi14  1  0.996949  0.602818  0.750000  1
  Bi  Bi15  1  0.609492  0.609464  0.250000  1
