# generated using pymatgen
data_YTm19(Cd3Pt)2
_symmetry_space_group_name_H-M   'P 1'
_cell_length_a   9.54573737
_cell_length_b   9.55036774
_cell_length_c   9.72202300
_cell_angle_alpha   90.00000000
_cell_angle_beta   90.00000000
_cell_angle_gamma   120.01605689
_symmetry_Int_Tables_number   1
_chemical_formula_structural   YTm19(Cd3Pt)2
_chemical_formula_sum   'Y1 Tm19 Cd6 Pt2'
_cell_volume   767.44376222
_cell_formula_units_Z   1
loop_
 _symmetry_equiv_pos_site_id
 _symmetry_equiv_pos_as_xyz
  1  'x, y, z'
loop_
 _atom_site_type_symbol
 _atom_site_label
 _atom_site_symmetry_multiplicity
 _atom_site_fract_x
 _atom_site_fract_y
 _atom_site_fract_z
 _atom_site_occupancy
  Y  Y0  1  0.084633  0.542317  0.250000  1
  Tm  Tm1  1  0.209269  0.792383  0.941995  1
  Tm  Tm2  1  0.209269  0.416887  0.941995  1
  Tm  Tm3  1  0.582582  0.791291  0.942867  1
  Tm  Tm4  1  0.789809  0.207635  0.056333  1
  Tm  Tm5  1  0.789809  0.582174  0.056333  1
  Tm  Tm6  1  0.417476  0.208738  0.056589  1
  Tm  Tm7  1  0.789809  0.207635  0.443667  1
  Tm  Tm8  1  0.789809  0.582174  0.443667  1
  Tm  Tm9  1  0.417476  0.208738  0.443411  1
  Tm  Tm10  1  0.209269  0.792383  0.558005  1
  Tm  Tm11  1  0.209269  0.416887  0.558005  1
  Tm  Tm12  1  0.582582  0.791291  0.557133  1
  Tm  Tm13  1  0.542377  0.457936  0.750000  1
  Tm  Tm14  1  0.542377  0.084440  0.750000  1
  Tm  Tm15  1  0.916038  0.458018  0.750000  1
  Tm  Tm16  1  0.459305  0.542076  0.250000  1
  Tm  Tm17  1  0.459305  0.917229  0.250000  1
  Tm  Tm18  1  0.999849  0.999924  0.000029  1
  Tm  Tm19  1  0.999849  0.999924  0.499971  1
  Cd  Cd20  1  0.885292  0.114352  0.750000  1
  Cd  Cd21  1  0.885292  0.770941  0.750000  1
  Cd  Cd22  1  0.229367  0.114685  0.750000  1
  Cd  Cd23  1  0.115055  0.887478  0.250000  1
  Cd  Cd24  1  0.115055  0.227575  0.250000  1
  Cd  Cd25  1  0.770948  0.885473  0.250000  1
  Pt  Pt26  1  0.332888  0.666445  0.750000  1
  Pt  Pt27  1  0.665942  0.332971  0.250000  1
