# generated using pymatgen
data_Dy6Al24AgOs3Ru3Pt
_symmetry_space_group_name_H-M   'P 1'
_cell_length_a   8.83214291
_cell_length_b   8.81854299
_cell_length_c   9.55716800
_cell_angle_alpha   89.84493779
_cell_angle_beta   89.79796906
_cell_angle_gamma   119.86666871
_symmetry_Int_Tables_number   1
_chemical_formula_structural   Dy6Al24AgOs3Ru3Pt
_chemical_formula_sum   'Dy6 Al24 Ag1 Os3 Ru3 Pt1'
_cell_volume   645.50000368
_cell_formula_units_Z   1
loop_
 _symmetry_equiv_pos_site_id
 _symmetry_equiv_pos_as_xyz
  1  'x, y, z'
loop_
 _atom_site_type_symbol
 _atom_site_label
 _atom_site_symmetry_multiplicity
 _atom_site_fract_x
 _atom_site_fract_y
 _atom_site_fract_z
 _atom_site_occupancy
  Dy  Dy0  1  0.190371  0.806515  0.250064  1
  Dy  Dy1  1  0.194271  0.386449  0.250035  1
  Dy  Dy2  1  0.612792  0.804012  0.254080  1
  Dy  Dy3  1  0.809629  0.193485  0.749936  1
  Dy  Dy4  1  0.805729  0.613551  0.749965  1
  Dy  Dy5  1  0.387208  0.195988  0.745920  1
  Al  Al6  1  0.560367  0.437612  0.249964  1
  Al  Al7  1  0.559902  0.122676  0.246616  1
  Al  Al8  1  0.871009  0.436188  0.256251  1
  Al  Al9  1  0.439633  0.562388  0.750036  1
  Al  Al10  1  0.440098  0.877324  0.753384  1
  Al  Al11  1  0.128991  0.563812  0.743749  1
  Al  Al12  1  0.325488  0.167412  0.421453  1
  Al  Al13  1  0.842557  0.166673  0.422234  1
  Al  Al14  1  0.836235  0.673115  0.424693  1
  Al  Al15  1  0.674512  0.832588  0.578547  1
  Al  Al16  1  0.157443  0.833327  0.577766  1
  Al  Al17  1  0.163765  0.326885  0.575307  1
  Al  Al18  1  0.674007  0.836429  0.922250  1
  Al  Al19  1  0.172632  0.850165  0.918628  1
  Al  Al20  1  0.172289  0.323106  0.919624  1
  Al  Al21  1  0.325993  0.163571  0.077750  1
  Al  Al22  1  0.827368  0.149835  0.081372  1
  Al  Al23  1  0.827711  0.676894  0.080376  1
  Al  Al24  1  0.669625  0.337947  0.524353  1
  Al  Al25  1  0.330375  0.662053  0.475647  1
  Al  Al26  1  0.344153  0.673842  0.026654  1
  Al  Al27  1  0.655847  0.326158  0.973346  1
  Al  Al28  1  0.000340  0.000569  0.250412  1
  Al  Al29  1  0.999660  0.999431  0.749588  1
  Ag  Ag30  1  0.000000  0.500000  0.000000  1
  Os  Os31  1  0.500000  0.500000  0.500000  1
  Os  Os32  1  0.000000  0.500000  0.500000  1
  Os  Os33  1  0.500000  0.500000  0.000000  1
  Ru  Ru34  1  0.000000  0.000000  0.500000  1
  Ru  Ru35  1  0.000000  0.000000  0.000000  1
  Ru  Ru36  1  0.500000  0.000000  0.000000  1
  Pt  Pt37  1  0.500000  0.000000  0.500000  1
