# generated using pymatgen
data_K4Er6SiBr18
_symmetry_space_group_name_H-M   'P 1'
_cell_length_a   10.85249284
_cell_length_b   10.97152141
_cell_length_c   11.07893700
_cell_angle_alpha   118.48772648
_cell_angle_beta   100.40062410
_cell_angle_gamma   103.71008085
_symmetry_Int_Tables_number   1
_chemical_formula_structural   K4Er6SiBr18
_chemical_formula_sum   'K4 Er6 Si1 Br18'
_cell_volume   1057.72400516
_cell_formula_units_Z   1
loop_
 _symmetry_equiv_pos_site_id
 _symmetry_equiv_pos_as_xyz
  1  'x, y, z'
loop_
 _atom_site_type_symbol
 _atom_site_label
 _atom_site_symmetry_multiplicity
 _atom_site_fract_x
 _atom_site_fract_y
 _atom_site_fract_z
 _atom_site_occupancy
  K  K0  1  0.652423  0.537059  0.227376  1
  K  K1  1  0.347577  0.462941  0.772624  1
  K  K2  1  0.687646  0.227385  0.564596  1
  K  K3  1  0.312354  0.772615  0.435404  1
  Er  Er4  1  0.173462  0.063941  0.264066  1
  Er  Er5  1  0.826538  0.936059  0.735934  1
  Er  Er6  1  0.843241  0.147033  0.153785  1
  Er  Er7  1  0.156759  0.852967  0.846215  1
  Er  Er8  1  0.166122  0.272647  0.050443  1
  Er  Er9  1  0.833878  0.727353  0.949557  1
  Si  Si10  1  0.000000  0.000000  0.000000  1
  Br  Br11  1  0.011797  0.418663  0.201722  1
  Br  Br12  1  0.988203  0.581337  0.798278  1
  Br  Br13  1  0.335143  0.338157  0.315839  1
  Br  Br14  1  0.664857  0.661843  0.684161  1
  Br  Br15  1  0.337606  0.537927  0.104265  1
  Br  Br16  1  0.662394  0.462073  0.895735  1
  Br  Br17  1  0.005791  0.792199  0.213672  1
  Br  Br18  1  0.994209  0.207801  0.786328  1
  Br  Br19  1  0.696375  0.291134  0.303576  1
  Br  Br20  1  0.303625  0.708866  0.696424  1
  Br  Br21  1  0.319674  0.126961  0.899249  1
  Br  Br22  1  0.680326  0.873039  0.100751  1
  Br  Br23  1  0.018907  0.209154  0.416560  1
  Br  Br24  1  0.981093  0.790846  0.583440  1
  Br  Br25  1  0.323994  0.917609  0.110199  1
  Br  Br26  1  0.676006  0.082391  0.889801  1
  Br  Br27  1  0.348922  0.124811  0.519117  1
  Br  Br28  1  0.651078  0.875189  0.480883  1
