# generated using pymatgen
data_Tb6TmScO12
_symmetry_space_group_name_H-M   'P 1'
_cell_length_a   6.67762743
_cell_length_b   6.67762725
_cell_length_c   6.67762848
_cell_angle_alpha   92.43206927
_cell_angle_beta   92.43205492
_cell_angle_gamma   92.43205656
_symmetry_Int_Tables_number   1
_chemical_formula_structural   Tb6TmScO12
_chemical_formula_sum   'Tb6 Tm1 Sc1 O12'
_cell_volume   296.93200321
_cell_formula_units_Z   1
loop_
 _symmetry_equiv_pos_site_id
 _symmetry_equiv_pos_as_xyz
  1  'x, y, z'
loop_
 _atom_site_type_symbol
 _atom_site_label
 _atom_site_symmetry_multiplicity
 _atom_site_fract_x
 _atom_site_fract_y
 _atom_site_fract_z
 _atom_site_occupancy
  Tb  Tb0  1  0.743924  0.930333  0.439350  1
  Tb  Tb1  1  0.930333  0.439350  0.743924  1
  Tb  Tb2  1  0.439350  0.743924  0.930333  1
  Tb  Tb3  1  0.256076  0.069667  0.560650  1
  Tb  Tb4  1  0.069667  0.560650  0.256076  1
  Tb  Tb5  1  0.560650  0.256076  0.069667  1
  Tm  Tm6  1  0.000000  0.000000  0.000000  1
  Sc  Sc7  1  0.500000  0.500000  0.500000  1
  O  O8  1  0.592590  0.463929  0.804766  1
  O  O9  1  0.463929  0.804766  0.592590  1
  O  O10  1  0.804766  0.592590  0.463929  1
  O  O11  1  0.407410  0.536071  0.195234  1
  O  O12  1  0.536071  0.195234  0.407410  1
  O  O13  1  0.195234  0.407410  0.536071  1
  O  O14  1  0.068883  0.909531  0.313595  1
  O  O15  1  0.909531  0.313595  0.068883  1
  O  O16  1  0.686405  0.931117  0.090469  1
  O  O17  1  0.090469  0.686405  0.931117  1
  O  O18  1  0.931117  0.090469  0.686405  1
  O  O19  1  0.313595  0.068883  0.909531  1
