# generated using pymatgen
data_Lu5NiBiSb
_symmetry_space_group_name_H-M   'P 1'
_cell_length_a   8.36451629
_cell_length_b   8.36451543
_cell_length_c   8.82151448
_cell_angle_alpha   124.02374004
_cell_angle_beta   124.02373616
_cell_angle_gamma   79.61780113
_symmetry_Int_Tables_number   1
_chemical_formula_structural   Lu5NiBiSb
_chemical_formula_sum   'Lu10 Ni2 Bi2 Sb2'
_cell_volume   415.95878144
_cell_formula_units_Z   2
loop_
 _symmetry_equiv_pos_site_id
 _symmetry_equiv_pos_as_xyz
  1  'x, y, z'
loop_
 _atom_site_type_symbol
 _atom_site_label
 _atom_site_symmetry_multiplicity
 _atom_site_fract_x
 _atom_site_fract_y
 _atom_site_fract_z
 _atom_site_occupancy
  Lu  Lu0  1  0.000000  0.000000  0.000000  1
  Lu  Lu1  1  0.500000  0.500000  0.000000  1
  Lu  Lu2  1  0.770579  0.270579  0.766918  1
  Lu  Lu3  1  0.229421  0.729421  0.233082  1
  Lu  Lu4  1  0.503662  0.003662  0.233082  1
  Lu  Lu5  1  0.314097  0.452106  0.500000  1
  Lu  Lu6  1  0.047894  0.185903  0.500000  1
  Lu  Lu7  1  0.496338  0.996338  0.766918  1
  Lu  Lu8  1  0.685903  0.547894  0.500000  1
  Lu  Lu9  1  0.952106  0.814097  0.500000  1
  Ni  Ni10  1  0.627267  0.872733  0.500000  1
  Ni  Ni11  1  0.372733  0.127267  0.500000  1
  Bi  Bi12  1  0.250000  0.250000  0.000000  1
  Bi  Bi13  1  0.750000  0.750000  0.000000  1
  Sb  Sb14  1  0.149272  0.649272  0.798545  1
  Sb  Sb15  1  0.850728  0.350728  0.201455  1
