# generated using pymatgen
data_Ho4Tm16Bi11Os
_symmetry_space_group_name_H-M   'P 1'
_cell_length_a   8.07257520
_cell_length_b   9.42836800
_cell_length_c   11.93209110
_cell_angle_alpha   90.00000000
_cell_angle_beta   90.44634999
_cell_angle_gamma   90.00000000
_symmetry_Int_Tables_number   1
_chemical_formula_structural   Ho4Tm16Bi11Os
_chemical_formula_sum   'Ho4 Tm16 Bi11 Os1'
_cell_volume   908.13833095
_cell_formula_units_Z   1
loop_
 _symmetry_equiv_pos_site_id
 _symmetry_equiv_pos_as_xyz
  1  'x, y, z'
loop_
 _atom_site_type_symbol
 _atom_site_label
 _atom_site_symmetry_multiplicity
 _atom_site_fract_x
 _atom_site_fract_y
 _atom_site_fract_z
 _atom_site_occupancy
  Ho  Ho0  1  0.315718  0.250000  0.221429  1
  Ho  Ho1  1  0.811477  0.250000  0.282722  1
  Ho  Ho2  1  0.648662  0.750000  0.795633  1
  Ho  Ho3  1  0.202215  0.750000  0.727307  1
  Tm  Tm4  1  0.356556  0.750000  0.196244  1
  Tm  Tm5  1  0.849323  0.750000  0.283885  1
  Tm  Tm6  1  0.652466  0.250000  0.782294  1
  Tm  Tm7  1  0.147543  0.250000  0.719160  1
  Tm  Tm8  1  0.676487  0.573866  0.053414  1
  Tm  Tm9  1  0.192479  0.934519  0.436371  1
  Tm  Tm10  1  0.314838  0.030840  0.941638  1
  Tm  Tm11  1  0.807612  0.435272  0.559403  1
  Tm  Tm12  1  0.314838  0.469160  0.941638  1
  Tm  Tm13  1  0.807612  0.064728  0.559403  1
  Tm  Tm14  1  0.676487  0.926134  0.053414  1
  Tm  Tm15  1  0.192479  0.565481  0.436371  1
  Tm  Tm16  1  0.478174  0.250000  0.488063  1
  Tm  Tm17  1  0.983703  0.250000  0.008485  1
  Tm  Tm18  1  0.525794  0.750000  0.508946  1
  Tm  Tm19  1  0.050894  0.750000  0.992669  1
  Bi  Bi20  1  0.909534  0.750000  0.545906  1
  Bi  Bi21  1  0.594305  0.250000  0.040462  1
  Bi  Bi22  1  0.095967  0.250000  0.459273  1
  Bi  Bi23  1  0.565187  0.994801  0.326053  1
  Bi  Bi24  1  0.059049  0.501030  0.176485  1
  Bi  Bi25  1  0.434224  0.492039  0.670412  1
  Bi  Bi26  1  0.931942  0.001826  0.825604  1
  Bi  Bi27  1  0.434224  0.007961  0.670412  1
  Bi  Bi28  1  0.931942  0.498174  0.825604  1
  Bi  Bi29  1  0.565187  0.505199  0.326053  1
  Bi  Bi30  1  0.059049  0.998970  0.176485  1
  Os  Os31  1  0.414033  0.750000  0.968761  1
