# generated using pymatgen
data_Ba8Dy4Al3FeO20
_symmetry_space_group_name_H-M   'P 1'
_cell_length_a   6.09905205
_cell_length_b   7.77345435
_cell_length_c   12.71320650
_cell_angle_alpha   91.71126486
_cell_angle_beta   89.98583263
_cell_angle_gamma   90.00136776
_symmetry_Int_Tables_number   1
_chemical_formula_structural   Ba8Dy4Al3FeO20
_chemical_formula_sum   'Ba8 Dy4 Al3 Fe1 O20'
_cell_volume   602.47321634
_cell_formula_units_Z   1
loop_
 _symmetry_equiv_pos_site_id
 _symmetry_equiv_pos_as_xyz
  1  'x, y, z'
loop_
 _atom_site_type_symbol
 _atom_site_label
 _atom_site_symmetry_multiplicity
 _atom_site_fract_x
 _atom_site_fract_y
 _atom_site_fract_z
 _atom_site_occupancy
  Ba  Ba0  1  0.758801  0.481234  0.348899  1
  Ba  Ba1  1  0.739035  0.984511  0.845669  1
  Ba  Ba2  1  0.242267  0.516650  0.651311  1
  Ba  Ba3  1  0.259817  0.020220  0.154376  1
  Ba  Ba4  1  0.755791  0.995594  0.378765  1
  Ba  Ba5  1  0.742607  0.492739  0.876735  1
  Ba  Ba6  1  0.246872  0.006671  0.619871  1
  Ba  Ba7  1  0.257178  0.502776  0.123273  1
  Dy  Dy8  1  0.751034  0.267107  0.626072  1
  Dy  Dy9  1  0.749898  0.766050  0.129165  1
  Dy  Dy10  1  0.250308  0.733045  0.374125  1
  Dy  Dy11  1  0.250476  0.231646  0.873198  1
  Al  Al12  1  0.737825  0.744989  0.580635  1
  Al  Al13  1  0.763341  0.243714  0.081116  1
  Al  Al14  1  0.262680  0.255621  0.419016  1
  Fe  Fe15  1  0.234628  0.756619  0.917833  1
  O  O16  1  0.760645  0.963999  0.629247  1
  O  O17  1  0.740329  0.462003  0.131718  1
  O  O18  1  0.240086  0.036816  0.370051  1
  O  O19  1  0.264225  0.526172  0.867381  1
  O  O20  1  0.737716  0.073300  0.171640  1
  O  O21  1  0.764699  0.573630  0.670274  1
  O  O22  1  0.270106  0.936957  0.823012  1
  O  O23  1  0.238106  0.426792  0.329469  1
  O  O24  1  0.539912  0.746026  0.271422  1
  O  O25  1  0.963140  0.246922  0.767770  1
  O  O26  1  0.465483  0.254522  0.730910  1
  O  O27  1  0.041432  0.753217  0.230857  1
  O  O28  1  0.551555  0.223468  0.982566  1
  O  O29  1  0.948537  0.724384  0.481704  1
  O  O30  1  0.445402  0.777221  0.027258  1
  O  O31  1  0.050258  0.276709  0.516832  1
  O  O32  1  0.027118  0.230924  0.018365  1
  O  O33  1  0.473076  0.731968  0.518807  1
  O  O34  1  0.949745  0.768000  0.978531  1
  O  O35  1  0.525874  0.267783  0.482125  1
