# generated using pymatgen
data_YbBiOs2O7
_symmetry_space_group_name_H-M   'P 1'
_cell_length_a   7.28926187
_cell_length_b   7.28926263
_cell_length_c   7.27324700
_cell_angle_alpha   60.07265012
_cell_angle_beta   60.07264673
_cell_angle_gamma   60.07279120
_symmetry_Int_Tables_number   1
_chemical_formula_structural   YbBiOs2O7
_chemical_formula_sum   'Yb2 Bi2 Os4 O14'
_cell_volume   273.71296947
_cell_formula_units_Z   2
loop_
 _symmetry_equiv_pos_site_id
 _symmetry_equiv_pos_as_xyz
  1  'x, y, z'
loop_
 _atom_site_type_symbol
 _atom_site_label
 _atom_site_symmetry_multiplicity
 _atom_site_fract_x
 _atom_site_fract_y
 _atom_site_fract_z
 _atom_site_occupancy
  Yb  Yb0  1  0.125000  0.125000  0.625000  1
  Yb  Yb1  1  0.125000  0.125000  0.125000  1
  Bi  Bi2  1  0.625000  0.125000  0.125000  1
  Bi  Bi3  1  0.125000  0.625000  0.125000  1
  Os  Os4  1  0.125000  0.625000  0.625000  1
  Os  Os5  1  0.625000  0.125000  0.625000  1
  Os  Os6  1  0.625000  0.625000  0.125000  1
  Os  Os7  1  0.625000  0.625000  0.625000  1
  O  O8  1  0.702684  0.702684  0.297316  1
  O  O9  1  0.302141  0.302141  0.697859  1
  O  O10  1  0.695317  0.300392  0.705860  1
  O  O11  1  0.300392  0.695317  0.298431  1
  O  O12  1  0.300392  0.695317  0.705860  1
  O  O13  1  0.695317  0.300392  0.298431  1
  O  O14  1  0.547316  0.547316  0.952684  1
  O  O15  1  0.947859  0.947859  0.552141  1
  O  O16  1  0.554683  0.949608  0.544140  1
  O  O17  1  0.949608  0.554683  0.951569  1
  O  O18  1  0.949608  0.554683  0.544140  1
  O  O19  1  0.554683  0.949608  0.951569  1
  O  O20  1  0.246380  0.246380  0.253620  1
  O  O21  1  0.003620  0.003620  0.996380  1
