# generated using pymatgen
data_NdLu9(AlSb2)2
_symmetry_space_group_name_H-M   'P 1'
_cell_length_a   8.64238300
_cell_length_b   8.66306797
_cell_length_c   6.27831000
_cell_angle_alpha   90.00000000
_cell_angle_beta   90.00000000
_cell_angle_gamma   119.88532868
_symmetry_Int_Tables_number   1
_chemical_formula_structural   NdLu9(AlSb2)2
_chemical_formula_sum   'Nd1 Lu9 Al2 Sb4'
_cell_volume   407.54848987
_cell_formula_units_Z   1
loop_
 _symmetry_equiv_pos_site_id
 _symmetry_equiv_pos_as_xyz
  1  'x, y, z'
loop_
 _atom_site_type_symbol
 _atom_site_label
 _atom_site_symmetry_multiplicity
 _atom_site_fract_x
 _atom_site_fract_y
 _atom_site_fract_z
 _atom_site_occupancy
  Nd  Nd0  1  0.010260  0.768265  0.750000  1
  Lu  Lu1  1  0.340425  0.681066  0.001134  1
  Lu  Lu2  1  0.660317  0.319879  0.499536  1
  Lu  Lu3  1  0.660317  0.319879  0.000464  1
  Lu  Lu4  1  0.340425  0.681066  0.498866  1
  Lu  Lu5  1  0.244788  0.001623  0.250000  1
  Lu  Lu6  1  0.756647  0.999103  0.750000  1
  Lu  Lu7  1  0.988628  0.229981  0.250000  1
  Lu  Lu8  1  0.753557  0.767550  0.250000  1
  Lu  Lu9  1  0.246276  0.233297  0.750000  1
  Al  Al10  1  0.599437  0.000726  0.250000  1
  Al  Al11  1  0.407882  0.003954  0.750000  1
  Sb  Sb12  1  0.993688  0.605699  0.250000  1
  Sb  Sb13  1  0.388744  0.395128  0.250000  1
  Sb  Sb14  1  0.602006  0.602009  0.750000  1
  Sb  Sb15  1  0.006603  0.390774  0.750000  1
