# generated using pymatgen
data_La2Tb3TcBi2
_symmetry_space_group_name_H-M   'P 1'
_cell_length_a   8.29251700
_cell_length_b   9.41003300
_cell_length_c   12.46387900
_cell_angle_alpha   90.00000000
_cell_angle_beta   90.00000000
_cell_angle_gamma   90.00000000
_symmetry_Int_Tables_number   1
_chemical_formula_structural   La2Tb3TcBi2
_chemical_formula_sum   'La8 Tb12 Tc4 Bi8'
_cell_volume   972.59210790
_cell_formula_units_Z   4
loop_
 _symmetry_equiv_pos_site_id
 _symmetry_equiv_pos_as_xyz
  1  'x, y, z'
loop_
 _atom_site_type_symbol
 _atom_site_label
 _atom_site_symmetry_multiplicity
 _atom_site_fract_x
 _atom_site_fract_y
 _atom_site_fract_z
 _atom_site_occupancy
  La  La0  1  0.850118  0.750000  0.798713  1
  La  La1  1  0.149882  0.250000  0.201287  1
  La  La2  1  0.350118  0.250000  0.701287  1
  La  La3  1  0.649882  0.750000  0.298713  1
  La  La4  1  0.382577  0.750000  0.689930  1
  La  La5  1  0.617423  0.250000  0.310070  1
  La  La6  1  0.882577  0.250000  0.810070  1
  La  La7  1  0.117423  0.750000  0.189930  1
  Tb  Tb8  1  0.942600  0.750000  0.504680  1
  Tb  Tb9  1  0.057400  0.250000  0.495320  1
  Tb  Tb10  1  0.442600  0.250000  0.995320  1
  Tb  Tb11  1  0.557400  0.750000  0.004680  1
  Tb  Tb12  1  0.677810  0.037045  0.566477  1
  Tb  Tb13  1  0.322190  0.962955  0.433523  1
  Tb  Tb14  1  0.177810  0.962955  0.933523  1
  Tb  Tb15  1  0.322190  0.537045  0.433523  1
  Tb  Tb16  1  0.822190  0.037045  0.066477  1
  Tb  Tb17  1  0.677810  0.462955  0.566477  1
  Tb  Tb18  1  0.822190  0.462955  0.066477  1
  Tb  Tb19  1  0.177810  0.537045  0.933523  1
  Tc  Tc20  1  0.572545  0.750000  0.509884  1
  Tc  Tc21  1  0.427455  0.250000  0.490116  1
  Tc  Tc22  1  0.072545  0.250000  0.990116  1
  Tc  Tc23  1  0.927455  0.750000  0.009884  1
  Bi  Bi24  1  0.571735  0.493019  0.833283  1
  Bi  Bi25  1  0.428265  0.506981  0.166717  1
  Bi  Bi26  1  0.071735  0.506981  0.666717  1
  Bi  Bi27  1  0.428265  0.993019  0.166717  1
  Bi  Bi28  1  0.928265  0.493019  0.333283  1
  Bi  Bi29  1  0.571735  0.006981  0.833283  1
  Bi  Bi30  1  0.928265  0.006981  0.333283  1
  Bi  Bi31  1  0.071735  0.993019  0.666717  1
