# generated using pymatgen
data_Ca4TlSb3Pt4
_symmetry_space_group_name_H-M   'P 1'
_cell_length_a   4.65476600
_cell_length_b   7.40041190
_cell_length_c   8.07076600
_cell_angle_alpha   90.51409951
_cell_angle_beta   90.00000000
_cell_angle_gamma   90.00000000
_symmetry_Int_Tables_number   1
_chemical_formula_structural   Ca4TlSb3Pt4
_chemical_formula_sum   'Ca4 Tl1 Sb3 Pt4'
_cell_volume   278.00398376
_cell_formula_units_Z   1
loop_
 _symmetry_equiv_pos_site_id
 _symmetry_equiv_pos_as_xyz
  1  'x, y, z'
loop_
 _atom_site_type_symbol
 _atom_site_label
 _atom_site_symmetry_multiplicity
 _atom_site_fract_x
 _atom_site_fract_y
 _atom_site_fract_z
 _atom_site_occupancy
  Ca  Ca0  1  0.750000  0.509191  0.194659  1
  Ca  Ca1  1  0.750000  0.010783  0.303211  1
  Ca  Ca2  1  0.250000  0.490786  0.803770  1
  Ca  Ca3  1  0.250000  0.987348  0.699221  1
  Tl  Tl4  1  0.250000  0.311996  0.411319  1
  Sb  Sb5  1  0.750000  0.179558  0.913144  1
  Sb  Sb6  1  0.750000  0.680584  0.583979  1
  Sb  Sb7  1  0.250000  0.815088  0.088914  1
  Pt  Pt8  1  0.750000  0.304009  0.602757  1
  Pt  Pt9  1  0.750000  0.796057  0.909768  1
  Pt  Pt10  1  0.250000  0.718196  0.411361  1
  Pt  Pt11  1  0.250000  0.196403  0.077897  1
