# generated using pymatgen
data_LiDy3SiS7
_symmetry_space_group_name_H-M   'P 1'
_cell_length_a   9.88505300
_cell_length_b   9.88508408
_cell_length_c   5.66451000
_cell_angle_alpha   90.00002911
_cell_angle_beta   90.00000580
_cell_angle_gamma   119.99990648
_symmetry_Int_Tables_number   1
_chemical_formula_structural   LiDy3SiS7
_chemical_formula_sum   'Li2 Dy6 Si2 S14'
_cell_volume   479.35002982
_cell_formula_units_Z   2
loop_
 _symmetry_equiv_pos_site_id
 _symmetry_equiv_pos_as_xyz
  1  'x, y, z'
loop_
 _atom_site_type_symbol
 _atom_site_label
 _atom_site_symmetry_multiplicity
 _atom_site_fract_x
 _atom_site_fract_y
 _atom_site_fract_z
 _atom_site_occupancy
  Li  Li0  1  0.000000  0.000000  0.993409  1
  Li  Li1  1  0.000001  0.000001  0.493408  1
  Dy  Dy2  1  0.357223  0.230355  0.259730  1
  Dy  Dy3  1  0.769645  0.126867  0.259728  1
  Dy  Dy4  1  0.873133  0.642779  0.259728  1
  Dy  Dy5  1  0.642779  0.769646  0.759731  1
  Dy  Dy6  1  0.126868  0.357222  0.759729  1
  Dy  Dy7  1  0.230355  0.873133  0.759728  1
  Si  Si8  1  0.333333  0.666668  0.345956  1
  Si  Si9  1  0.666669  0.333333  0.845958  1
  S  S10  1  0.089242  0.248265  0.230879  1
  S  S11  1  0.751735  0.840975  0.230873  1
  S  S12  1  0.159025  0.910761  0.230876  1
  S  S13  1  0.666669  0.333335  0.474389  1
  S  S14  1  0.106619  0.586205  0.497243  1
  S  S15  1  0.413798  0.520416  0.497239  1
  S  S16  1  0.479586  0.893380  0.497242  1
  S  S17  1  0.910758  0.751734  0.730882  1
  S  S18  1  0.840976  0.089239  0.730880  1
  S  S19  1  0.248265  0.159025  0.730880  1
  S  S20  1  0.333331  0.666666  0.974389  1
  S  S21  1  0.893379  0.413794  0.997243  1
  S  S22  1  0.520414  0.106619  0.997242  1
  S  S23  1  0.586200  0.479584  0.997240  1
