# generated using pymatgen
data_Pa4Sn2Os3Pt
_symmetry_space_group_name_H-M   'P 1'
_cell_length_a   7.71195142
_cell_length_b   7.71195104
_cell_length_c   7.26674100
_cell_angle_alpha   90.00000000
_cell_angle_beta   90.00000000
_cell_angle_gamma   89.93791926
_symmetry_Int_Tables_number   1
_chemical_formula_structural   Pa4Sn2Os3Pt
_chemical_formula_sum   'Pa8 Sn4 Os6 Pt2'
_cell_volume   432.18329404
_cell_formula_units_Z   2
loop_
 _symmetry_equiv_pos_site_id
 _symmetry_equiv_pos_as_xyz
  1  'x, y, z'
loop_
 _atom_site_type_symbol
 _atom_site_label
 _atom_site_symmetry_multiplicity
 _atom_site_fract_x
 _atom_site_fract_y
 _atom_site_fract_z
 _atom_site_occupancy
  Pa  Pa0  1  0.677449  0.322551  0.506551  1
  Pa  Pa1  1  0.322551  0.677449  0.506551  1
  Pa  Pa2  1  0.170351  0.170351  0.997624  1
  Pa  Pa3  1  0.829649  0.829649  0.997624  1
  Pa  Pa4  1  0.842033  0.842033  0.502556  1
  Pa  Pa5  1  0.157967  0.157967  0.502556  1
  Pa  Pa6  1  0.335060  0.664940  0.991261  1
  Pa  Pa7  1  0.664940  0.335060  0.991261  1
  Sn  Sn8  1  0.500000  0.000000  0.248205  1
  Sn  Sn9  1  0.000000  0.500000  0.749528  1
  Sn  Sn10  1  0.500000  0.000000  0.749528  1
  Sn  Sn11  1  0.000000  0.500000  0.248205  1
  Os  Os12  1  0.862423  0.137577  0.236264  1
  Os  Os13  1  0.137577  0.862423  0.236264  1
  Os  Os14  1  0.363829  0.363829  0.740003  1
  Os  Os15  1  0.636171  0.636171  0.740003  1
  Os  Os16  1  0.134567  0.865433  0.761928  1
  Os  Os17  1  0.865433  0.134567  0.761928  1
  Pt  Pt18  1  0.630884  0.630884  0.266083  1
  Pt  Pt19  1  0.369116  0.369116  0.266083  1
