# generated using pymatgen
data_Hf4GaSi3Mo4
_symmetry_space_group_name_H-M   'P 1'
_cell_length_a   3.49809100
_cell_length_b   6.99331172
_cell_length_c   8.28529999
_cell_angle_alpha   90.38157204
_cell_angle_beta   90.00000000
_cell_angle_gamma   90.00000000
_symmetry_Int_Tables_number   1
_chemical_formula_structural   Hf4GaSi3Mo4
_chemical_formula_sum   'Hf4 Ga1 Si3 Mo4'
_cell_volume   202.68079405
_cell_formula_units_Z   1
loop_
 _symmetry_equiv_pos_site_id
 _symmetry_equiv_pos_as_xyz
  1  'x, y, z'
loop_
 _atom_site_type_symbol
 _atom_site_label
 _atom_site_symmetry_multiplicity
 _atom_site_fract_x
 _atom_site_fract_y
 _atom_site_fract_z
 _atom_site_occupancy
  Hf  Hf0  1  0.250000  0.046079  0.330517  1
  Hf  Hf1  1  0.750000  0.948683  0.666807  1
  Hf  Hf2  1  0.250000  0.544021  0.168111  1
  Hf  Hf3  1  0.750000  0.456289  0.838439  1
  Ga  Ga4  1  0.250000  0.254498  0.637888  1
  Si  Si5  1  0.750000  0.746131  0.362186  1
  Si  Si6  1  0.250000  0.756739  0.862951  1
  Si  Si7  1  0.750000  0.242895  0.136986  1
  Mo  Mo8  1  0.750000  0.372629  0.431130  1
  Mo  Mo9  1  0.250000  0.634821  0.560387  1
  Mo  Mo10  1  0.750000  0.866030  0.063706  1
  Mo  Mo11  1  0.250000  0.131185  0.940892  1
