# generated using pymatgen
data_Nd8Er11TmSn16
_symmetry_space_group_name_H-M   'P 1'
_cell_length_a   8.10972100
_cell_length_b   8.26297711
_cell_length_c   15.58144500
_cell_angle_alpha   90.00000000
_cell_angle_beta   90.00000000
_cell_angle_gamma   89.99061132
_symmetry_Int_Tables_number   1
_chemical_formula_structural   Nd8Er11TmSn16
_chemical_formula_sum   'Nd8 Er11 Tm1 Sn16'
_cell_volume   1044.11945567
_cell_formula_units_Z   1
loop_
 _symmetry_equiv_pos_site_id
 _symmetry_equiv_pos_as_xyz
  1  'x, y, z'
loop_
 _atom_site_type_symbol
 _atom_site_label
 _atom_site_symmetry_multiplicity
 _atom_site_fract_x
 _atom_site_fract_y
 _atom_site_fract_z
 _atom_site_occupancy
  Nd  Nd0  1  0.516853  0.320969  0.902770  1
  Nd  Nd1  1  0.017011  0.179128  0.597242  1
  Nd  Nd2  1  0.483077  0.679164  0.402828  1
  Nd  Nd3  1  0.983020  0.820949  0.097195  1
  Nd  Nd4  1  0.483077  0.679164  0.097172  1
  Nd  Nd5  1  0.983020  0.820949  0.402805  1
  Nd  Nd6  1  0.516853  0.320969  0.597230  1
  Nd  Nd7  1  0.017011  0.179128  0.902758  1
  Er  Er8  1  0.363007  0.836268  0.877154  1
  Er  Er9  1  0.863151  0.663596  0.622798  1
  Er  Er10  1  0.636943  0.163677  0.377196  1
  Er  Er11  1  0.136898  0.336307  0.122716  1
  Er  Er12  1  0.636943  0.163677  0.122804  1
  Er  Er13  1  0.136898  0.336307  0.377284  1
  Er  Er14  1  0.363007  0.836268  0.622846  1
  Er  Er15  1  0.863151  0.663596  0.877202  1
  Er  Er16  1  0.696354  0.996101  0.750000  1
  Er  Er17  1  0.803586  0.496061  0.250000  1
  Er  Er18  1  0.303572  0.003905  0.250000  1
  Tm  Tm19  1  0.196497  0.504049  0.750000  1
  Sn  Sn20  1  0.301126  0.040310  0.042199  1
  Sn  Sn21  1  0.801064  0.459587  0.457785  1
  Sn  Sn22  1  0.698898  0.959667  0.542254  1
  Sn  Sn23  1  0.198926  0.540362  0.957579  1
  Sn  Sn24  1  0.698898  0.959667  0.957746  1
  Sn  Sn25  1  0.198926  0.540362  0.542421  1
  Sn  Sn26  1  0.301126  0.040310  0.457801  1
  Sn  Sn27  1  0.801064  0.459587  0.042215  1
  Sn  Sn28  1  0.561694  0.624407  0.750000  1
  Sn  Sn29  1  0.062109  0.875165  0.750000  1
  Sn  Sn30  1  0.437951  0.375425  0.250000  1
  Sn  Sn31  1  0.938037  0.124536  0.250000  1
  Sn  Sn32  1  0.325301  0.142661  0.750000  1
  Sn  Sn33  1  0.825392  0.357774  0.750000  1
  Sn  Sn34  1  0.674751  0.857660  0.250000  1
  Sn  Sn35  1  0.174807  0.642290  0.250000  1
