# generated using pymatgen
data_Y3ErTm2FeBi2
_symmetry_space_group_name_H-M   'P 1'
_cell_length_a   8.27689100
_cell_length_b   8.28047697
_cell_length_c   4.17934700
_cell_angle_alpha   90.00000000
_cell_angle_beta   90.00000000
_cell_angle_gamma   119.98567943
_symmetry_Int_Tables_number   1
_chemical_formula_structural   Y3ErTm2FeBi2
_chemical_formula_sum   'Y3 Er1 Tm2 Fe1 Bi2'
_cell_volume   248.09859461
_cell_formula_units_Z   1
loop_
 _symmetry_equiv_pos_site_id
 _symmetry_equiv_pos_as_xyz
  1  'x, y, z'
loop_
 _atom_site_type_symbol
 _atom_site_label
 _atom_site_symmetry_multiplicity
 _atom_site_fract_x
 _atom_site_fract_y
 _atom_site_fract_z
 _atom_site_occupancy
  Y  Y0  1  0.608954  0.000000  0.000000  1
  Y  Y1  1  0.999750  0.608137  0.000000  1
  Y  Y2  1  0.391613  0.391863  0.000000  1
  Er  Er3  1  0.228835  0.000000  0.500000  1
  Tm  Tm4  1  0.999920  0.228536  0.500000  1
  Tm  Tm5  1  0.771384  0.771464  0.500000  1
  Fe  Fe6  1  0.999074  0.000000  0.000000  1
  Bi  Bi7  1  0.333372  0.666275  0.500000  1
  Bi  Bi8  1  0.667098  0.333725  0.500000  1
