# generated using pymatgen
data_Li4Pr3ErSi8
_symmetry_space_group_name_H-M   'P 1'
_cell_length_a   3.87071500
_cell_length_b   7.71982877
_cell_length_c   10.45016318
_cell_angle_alpha   89.84872772
_cell_angle_beta   90.00000000
_cell_angle_gamma   90.00000000
_symmetry_Int_Tables_number   1
_chemical_formula_structural   Li4Pr3ErSi8
_chemical_formula_sum   'Li4 Pr3 Er1 Si8'
_cell_volume   312.26292359
_cell_formula_units_Z   1
loop_
 _symmetry_equiv_pos_site_id
 _symmetry_equiv_pos_as_xyz
  1  'x, y, z'
loop_
 _atom_site_type_symbol
 _atom_site_label
 _atom_site_symmetry_multiplicity
 _atom_site_fract_x
 _atom_site_fract_y
 _atom_site_fract_z
 _atom_site_occupancy
  Li  Li0  1  0.250000  0.994048  0.389556  1
  Li  Li1  1  0.750000  0.003804  0.610711  1
  Li  Li2  1  0.250000  0.495078  0.106821  1
  Li  Li3  1  0.750000  0.510564  0.890657  1
  Pr  Pr4  1  0.750000  0.862777  0.135176  1
  Pr  Pr5  1  0.250000  0.637614  0.637208  1
  Pr  Pr6  1  0.750000  0.358492  0.364884  1
  Er  Er7  1  0.250000  0.134267  0.864453  1
  Si  Si8  1  0.750000  0.271343  0.062461  1
  Si  Si9  1  0.250000  0.734405  0.929021  1
  Si  Si10  1  0.750000  0.772769  0.429769  1
  Si  Si11  1  0.250000  0.220596  0.577237  1
  Si  Si12  1  0.750000  0.845440  0.822848  1
  Si  Si13  1  0.250000  0.164759  0.172209  1
  Si  Si14  1  0.750000  0.330787  0.684508  1
  Si  Si15  1  0.250000  0.663257  0.322481  1
