# generated using pymatgen
data_Pr2EuEr4FeI12
_symmetry_space_group_name_H-M   'P 1'
_cell_length_a   9.91979734
_cell_length_b   9.73158371
_cell_length_c   9.89738533
_cell_angle_alpha   106.10741457
_cell_angle_beta   106.55488689
_cell_angle_gamma   107.24997630
_symmetry_Int_Tables_number   1
_chemical_formula_structural   Pr2EuEr4FeI12
_chemical_formula_sum   'Pr2 Eu1 Er4 Fe1 I12'
_cell_volume   803.38275747
_cell_formula_units_Z   1
loop_
 _symmetry_equiv_pos_site_id
 _symmetry_equiv_pos_as_xyz
  1  'x, y, z'
loop_
 _atom_site_type_symbol
 _atom_site_label
 _atom_site_symmetry_multiplicity
 _atom_site_fract_x
 _atom_site_fract_y
 _atom_site_fract_z
 _atom_site_occupancy
  Pr  Pr0  1  0.588680  0.774891  0.521697  1
  Pr  Pr1  1  0.411320  0.225109  0.478303  1
  Eu  Eu2  1  0.000000  0.000000  0.000000  1
  Er  Er3  1  0.796541  0.524730  0.595251  1
  Er  Er4  1  0.523712  0.595685  0.796170  1
  Er  Er5  1  0.203459  0.475270  0.404749  1
  Er  Er6  1  0.476288  0.404315  0.203830  1
  Fe  Fe7  1  0.500000  0.500000  0.500000  1
  I  I8  1  0.733588  0.191374  0.577824  1
  I  I9  1  0.959100  0.872567  0.645890  1
  I  I10  1  0.572794  0.719612  0.174311  1
  I  I11  1  0.132754  0.365321  0.053976  1
  I  I12  1  0.643282  0.951887  0.879601  1
  I  I13  1  0.867246  0.634679  0.946024  1
  I  I14  1  0.040900  0.127433  0.354110  1
  I  I15  1  0.815837  0.427742  0.280046  1
  I  I16  1  0.356718  0.048113  0.120399  1
  I  I17  1  0.266412  0.808626  0.422176  1
  I  I18  1  0.184163  0.572258  0.719954  1
  I  I19  1  0.427206  0.280388  0.825689  1
