# generated using pymatgen
data_Rb4NaScTe4
_symmetry_space_group_name_H-M   'P 1'
_cell_length_a   9.27237233
_cell_length_b   9.27237301
_cell_length_c   9.27237217
_cell_angle_alpha   131.79533223
_cell_angle_beta   129.33848129
_cell_angle_gamma   72.52003977
_symmetry_Int_Tables_number   1
_chemical_formula_structural   Rb4NaScTe4
_chemical_formula_sum   'Rb4 Na1 Sc1 Te4'
_cell_volume   449.24925163
_cell_formula_units_Z   1
loop_
 _symmetry_equiv_pos_site_id
 _symmetry_equiv_pos_as_xyz
  1  'x, y, z'
loop_
 _atom_site_type_symbol
 _atom_site_label
 _atom_site_symmetry_multiplicity
 _atom_site_fract_x
 _atom_site_fract_y
 _atom_site_fract_z
 _atom_site_occupancy
  Rb  Rb0  1  0.473062  0.140473  0.322863  1
  Rb  Rb1  1  0.817610  0.650199  0.177137  1
  Rb  Rb2  1  0.526938  0.849801  0.667411  1
  Rb  Rb3  1  0.182390  0.359527  0.832589  1
  Na  Na4  1  0.000000  0.750000  0.750000  1
  Sc  Sc5  1  0.000000  0.250000  0.250000  1
  Te  Te6  1  0.092055  0.922399  0.230291  1
  Te  Te7  1  0.907945  0.138234  0.830342  1
  Te  Te8  1  0.307892  0.577601  0.669658  1
  Te  Te9  1  0.692108  0.361766  0.269709  1
