# generated using pymatgen
data_Pa4Ga12Mo
_symmetry_space_group_name_H-M   'P 1'
_cell_length_a   7.49809650
_cell_length_b   7.49809626
_cell_length_c   7.49809600
_cell_angle_alpha   109.47122533
_cell_angle_beta   109.47122468
_cell_angle_gamma   109.47121341
_symmetry_Int_Tables_number   1
_chemical_formula_structural   Pa4Ga12Mo
_chemical_formula_sum   'Pa4 Ga12 Mo1'
_cell_volume   324.51227935
_cell_formula_units_Z   1
loop_
 _symmetry_equiv_pos_site_id
 _symmetry_equiv_pos_as_xyz
  1  'x, y, z'
loop_
 _atom_site_type_symbol
 _atom_site_label
 _atom_site_symmetry_multiplicity
 _atom_site_fract_x
 _atom_site_fract_y
 _atom_site_fract_z
 _atom_site_occupancy
  Pa  Pa0  1  0.000000  0.000000  0.500000  1
  Pa  Pa1  1  0.000000  0.500000  0.000000  1
  Pa  Pa2  1  0.500000  0.000000  0.000000  1
  Pa  Pa3  1  0.500000  0.500000  0.500000  1
  Ga  Ga4  1  0.703579  0.703579  0.000000  1
  Ga  Ga5  1  0.296421  0.000000  0.296421  1
  Ga  Ga6  1  0.000000  0.296421  0.296421  1
  Ga  Ga7  1  0.296421  0.296421  0.000000  1
  Ga  Ga8  1  0.703579  0.000000  0.703579  1
  Ga  Ga9  1  0.000000  0.703579  0.703579  1
  Ga  Ga10  1  0.750000  0.250000  0.500000  1
  Ga  Ga11  1  0.750000  0.500000  0.250000  1
  Ga  Ga12  1  0.500000  0.250000  0.750000  1
  Ga  Ga13  1  0.250000  0.500000  0.750000  1
  Ga  Ga14  1  0.250000  0.750000  0.500000  1
  Ga  Ga15  1  0.500000  0.750000  0.250000  1
  Mo  Mo16  1  0.000000  0.000000  0.000000  1
