# generated using pymatgen
data_Zr6Ti2Nb2Si5Ge
_symmetry_space_group_name_H-M   'P 1'
_cell_length_a   7.86230874
_cell_length_b   7.86247664
_cell_length_c   5.36365902
_cell_angle_alpha   90.00512583
_cell_angle_beta   90.00343703
_cell_angle_gamma   120.07551178
_symmetry_Int_Tables_number   1
_chemical_formula_structural   Zr6Ti2Nb2Si5Ge
_chemical_formula_sum   'Zr6 Ti2 Nb2 Si5 Ge1'
_cell_volume   286.92625413
_cell_formula_units_Z   1
loop_
 _symmetry_equiv_pos_site_id
 _symmetry_equiv_pos_as_xyz
  1  'x, y, z'
loop_
 _atom_site_type_symbol
 _atom_site_label
 _atom_site_symmetry_multiplicity
 _atom_site_fract_x
 _atom_site_fract_y
 _atom_site_fract_z
 _atom_site_occupancy
  Zr  Zr0  1  0.749833  0.749829  0.753012  1
  Zr  Zr1  1  0.251915  0.996847  0.753157  1
  Zr  Zr2  1  0.996836  0.251909  0.753158  1
  Zr  Zr3  1  0.251382  0.251375  0.246784  1
  Zr  Zr4  1  0.747035  0.000116  0.246990  1
  Zr  Zr5  1  0.000105  0.747026  0.246991  1
  Ti  Ti6  1  0.332859  0.668190  0.499205  1
  Ti  Ti7  1  0.668187  0.332859  0.499206  1
  Nb  Nb8  1  0.668630  0.332966  0.001538  1
  Nb  Nb9  1  0.332967  0.668631  0.001536  1
  Si  Si10  1  0.602961  0.999714  0.745562  1
  Si  Si11  1  0.999683  0.602945  0.745562  1
  Si  Si12  1  0.604276  0.604260  0.253830  1
  Si  Si13  1  0.396665  0.000571  0.254501  1
  Si  Si14  1  0.000539  0.396648  0.254502  1
  Ge  Ge15  1  0.396130  0.396113  0.744467  1
