# generated using pymatgen
data_LuZn2AgPd2
_symmetry_space_group_name_H-M   'P 1'
_cell_length_a   5.19857252
_cell_length_b   5.23065411
_cell_length_c   5.23065200
_cell_angle_alpha   64.07985847
_cell_angle_beta   60.20266940
_cell_angle_gamma   60.20267621
_symmetry_Int_Tables_number   1
_chemical_formula_structural   LuZn2AgPd2
_chemical_formula_sum   'Lu1 Zn2 Ag1 Pd2'
_cell_volume   103.63678559
_cell_formula_units_Z   1
loop_
 _symmetry_equiv_pos_site_id
 _symmetry_equiv_pos_as_xyz
  1  'x, y, z'
loop_
 _atom_site_type_symbol
 _atom_site_label
 _atom_site_symmetry_multiplicity
 _atom_site_fract_x
 _atom_site_fract_y
 _atom_site_fract_z
 _atom_site_occupancy
  Lu  Lu0  1  0.989613  0.010387  0.010387  1
  Zn  Zn1  1  0.132357  0.618289  0.618289  1
  Zn  Zn2  1  0.631064  0.618289  0.618289  1
  Ag  Ag3  1  0.240804  0.259196  0.259196  1
  Pd  Pd4  1  0.628081  0.623950  0.119888  1
  Pd  Pd5  1  0.628081  0.119888  0.623950  1
