# generated using pymatgen
data_Tb3HfCo8(SiP2)2
_symmetry_space_group_name_H-M   'P 1'
_cell_length_a   3.75399400
_cell_length_b   10.75242500
_cell_length_c   12.49355600
_cell_angle_alpha   90.00000000
_cell_angle_beta   90.00000000
_cell_angle_gamma   90.00000000
_symmetry_Int_Tables_number   1
_chemical_formula_structural   Tb3HfCo8(SiP2)2
_chemical_formula_sum   'Tb6 Hf2 Co16 Si4 P8'
_cell_volume   504.29662760
_cell_formula_units_Z   2
loop_
 _symmetry_equiv_pos_site_id
 _symmetry_equiv_pos_as_xyz
  1  'x, y, z'
loop_
 _atom_site_type_symbol
 _atom_site_label
 _atom_site_symmetry_multiplicity
 _atom_site_fract_x
 _atom_site_fract_y
 _atom_site_fract_z
 _atom_site_occupancy
  Tb  Tb0  1  0.000000  0.500000  0.531203  1
  Tb  Tb1  1  0.500000  0.000000  0.468797  1
  Tb  Tb2  1  0.500000  0.821463  0.207627  1
  Tb  Tb3  1  0.500000  0.178537  0.207627  1
  Tb  Tb4  1  0.000000  0.678537  0.792373  1
  Tb  Tb5  1  0.000000  0.321463  0.792373  1
  Hf  Hf6  1  0.500000  0.500000  0.153882  1
  Hf  Hf7  1  0.000000  0.000000  0.846118  1
  Co  Co8  1  0.500000  0.500000  0.698844  1
  Co  Co9  1  0.000000  0.000000  0.301156  1
  Co  Co10  1  0.000000  0.500000  0.991254  1
  Co  Co11  1  0.500000  0.000000  0.008746  1
  Co  Co12  1  0.500000  0.329346  0.996530  1
  Co  Co13  1  0.500000  0.670654  0.996530  1
  Co  Co14  1  0.000000  0.170654  0.003470  1
  Co  Co15  1  0.000000  0.829346  0.003470  1
  Co  Co16  1  0.500000  0.293550  0.434258  1
  Co  Co17  1  0.500000  0.706450  0.434258  1
  Co  Co18  1  0.000000  0.206450  0.565742  1
  Co  Co19  1  0.000000  0.793550  0.565742  1
  Co  Co20  1  0.500000  0.878071  0.703889  1
  Co  Co21  1  0.500000  0.121929  0.703889  1
  Co  Co22  1  0.000000  0.621929  0.296111  1
  Co  Co23  1  0.000000  0.378071  0.296111  1
  Si  Si24  1  0.500000  0.500000  0.885786  1
  Si  Si25  1  0.000000  0.000000  0.114214  1
  Si  Si26  1  0.500000  0.500000  0.359848  1
  Si  Si27  1  0.000000  0.000000  0.640152  1
  P  P28  1  0.500000  0.306050  0.615006  1
  P  P29  1  0.500000  0.693950  0.615006  1
  P  P30  1  0.000000  0.193950  0.384994  1
  P  P31  1  0.000000  0.806050  0.384994  1
  P  P32  1  0.500000  0.838201  0.894331  1
  P  P33  1  0.500000  0.161799  0.894331  1
  P  P34  1  0.000000  0.661799  0.105669  1
  P  P35  1  0.000000  0.338201  0.105669  1
