# generated using pymatgen
data_Sr3InCoO6
_symmetry_space_group_name_H-M   'P 1'
_cell_length_a   6.72271769
_cell_length_b   6.72271788
_cell_length_c   6.72271842
_cell_angle_alpha   92.16582622
_cell_angle_beta   92.16582966
_cell_angle_gamma   92.16582137
_symmetry_Int_Tables_number   1
_chemical_formula_structural   Sr3InCoO6
_chemical_formula_sum   'Sr6 In2 Co2 O12'
_cell_volume   303.16477450
_cell_formula_units_Z   2
loop_
 _symmetry_equiv_pos_site_id
 _symmetry_equiv_pos_as_xyz
  1  'x, y, z'
loop_
 _atom_site_type_symbol
 _atom_site_label
 _atom_site_symmetry_multiplicity
 _atom_site_fract_x
 _atom_site_fract_y
 _atom_site_fract_z
 _atom_site_occupancy
  Sr  Sr0  1  0.882778  0.617222  0.250000  1
  Sr  Sr1  1  0.250000  0.882778  0.617222  1
  Sr  Sr2  1  0.617222  0.250000  0.882778  1
  Sr  Sr3  1  0.750000  0.117222  0.382778  1
  Sr  Sr4  1  0.382778  0.750000  0.117222  1
  Sr  Sr5  1  0.117222  0.382778  0.750000  1
  In  In6  1  0.250000  0.250000  0.250000  1
  In  In7  1  0.750000  0.750000  0.750000  1
  Co  Co8  1  0.500000  0.500000  0.500000  1
  Co  Co9  1  0.000000  0.000000  0.000000  1
  O  O10  1  0.219638  0.541895  0.412490  1
  O  O11  1  0.412490  0.219638  0.541895  1
  O  O12  1  0.541895  0.412490  0.219638  1
  O  O13  1  0.912490  0.041895  0.719638  1
  O  O14  1  0.719638  0.912490  0.041895  1
  O  O15  1  0.041895  0.719638  0.912490  1
  O  O16  1  0.780362  0.458105  0.587510  1
  O  O17  1  0.587510  0.780362  0.458105  1
  O  O18  1  0.458105  0.587510  0.780362  1
  O  O19  1  0.087510  0.958105  0.280362  1
  O  O20  1  0.280362  0.087510  0.958105  1
  O  O21  1  0.958105  0.280362  0.087510  1
