# generated using pymatgen
data_LiZr6Fe2Os3
_symmetry_space_group_name_H-M   'P 1'
_cell_length_a   4.60369900
_cell_length_b   6.56031400
_cell_length_c   13.84163800
_cell_angle_alpha   90.00000000
_cell_angle_beta   90.00020305
_cell_angle_gamma   90.00000000
_symmetry_Int_Tables_number   1
_chemical_formula_structural   LiZr6Fe2Os3
_chemical_formula_sum   'Li2 Zr12 Fe4 Os6'
_cell_volume   418.04115066
_cell_formula_units_Z   2
loop_
 _symmetry_equiv_pos_site_id
 _symmetry_equiv_pos_as_xyz
  1  'x, y, z'
loop_
 _atom_site_type_symbol
 _atom_site_label
 _atom_site_symmetry_multiplicity
 _atom_site_fract_x
 _atom_site_fract_y
 _atom_site_fract_z
 _atom_site_occupancy
  Li  Li0  1  0.000276  0.500000  0.666391  1
  Li  Li1  1  0.500286  0.000000  0.833785  1
  Zr  Zr2  1  0.499972  0.252006  0.004561  1
  Zr  Zr3  1  0.499972  0.747995  0.004561  1
  Zr  Zr4  1  0.999814  0.249792  0.167672  1
  Zr  Zr5  1  0.999814  0.750208  0.167672  1
  Zr  Zr6  1  0.499815  0.250297  0.332054  1
  Zr  Zr7  1  0.499815  0.749703  0.332054  1
  Zr  Zr8  1  0.999984  0.247937  0.495397  1
  Zr  Zr9  1  0.999984  0.752062  0.495397  1
  Zr  Zr10  1  0.500183  0.247279  0.662953  1
  Zr  Zr11  1  0.500183  0.752721  0.662953  1
  Zr  Zr12  1  0.000180  0.252703  0.837425  1
  Zr  Zr13  1  0.000180  0.747297  0.837425  1
  Fe  Fe14  1  0.000031  0.500000  0.001931  1
  Fe  Fe15  1  0.499792  0.000000  0.167537  1
  Fe  Fe16  1  0.999769  0.500000  0.331854  1
  Fe  Fe17  1  0.499998  0.000000  0.498249  1
  Os  Os18  1  0.999976  0.000000  0.998861  1
  Os  Os19  1  0.499787  0.500000  0.166793  1
  Os  Os20  1  0.999785  0.000000  0.332876  1
  Os  Os21  1  0.499979  0.500000  0.501202  1
  Os  Os22  1  0.000206  0.000000  0.667641  1
  Os  Os23  1  0.500212  0.500000  0.832759  1
