# generated using pymatgen
data_ErZnSiIr2
_symmetry_space_group_name_H-M   'P 1'
_cell_length_a   4.03785200
_cell_length_b   4.03785200
_cell_length_c   10.57820400
_cell_angle_alpha   90.00000000
_cell_angle_beta   90.00000000
_cell_angle_gamma   90.00000000
_symmetry_Int_Tables_number   1
_chemical_formula_structural   ErZnSiIr2
_chemical_formula_sum   'Er2 Zn2 Si2 Ir4'
_cell_volume   172.46966960
_cell_formula_units_Z   2
loop_
 _symmetry_equiv_pos_site_id
 _symmetry_equiv_pos_as_xyz
  1  'x, y, z'
loop_
 _atom_site_type_symbol
 _atom_site_label
 _atom_site_symmetry_multiplicity
 _atom_site_fract_x
 _atom_site_fract_y
 _atom_site_fract_z
 _atom_site_occupancy
  Er  Er0  1  0.000000  0.500000  0.247207  1
  Er  Er1  1  0.500000  0.000000  0.752793  1
  Zn  Zn2  1  0.000000  0.000000  0.500000  1
  Zn  Zn3  1  0.500000  0.500000  0.500000  1
  Si  Si4  1  0.000000  0.500000  0.877367  1
  Si  Si5  1  0.500000  0.000000  0.122633  1
  Ir  Ir6  1  0.000000  0.000000  0.000000  1
  Ir  Ir7  1  0.500000  0.500000  0.000000  1
  Ir  Ir8  1  0.000000  0.500000  0.657332  1
  Ir  Ir9  1  0.500000  0.000000  0.342668  1
