# generated using pymatgen
data_La2PrCdSn2Pt3
_symmetry_space_group_name_H-M   'P 1'
_cell_length_a   7.68149908
_cell_length_b   7.74291965
_cell_length_c   4.20429000
_cell_angle_alpha   90.00000000
_cell_angle_beta   90.00000000
_cell_angle_gamma   120.26483865
_symmetry_Int_Tables_number   1
_chemical_formula_structural   La2PrCdSn2Pt3
_chemical_formula_sum   'La2 Pr1 Cd1 Sn2 Pt3'
_cell_volume   215.97766301
_cell_formula_units_Z   1
loop_
 _symmetry_equiv_pos_site_id
 _symmetry_equiv_pos_as_xyz
  1  'x, y, z'
loop_
 _atom_site_type_symbol
 _atom_site_label
 _atom_site_symmetry_multiplicity
 _atom_site_fract_x
 _atom_site_fract_y
 _atom_site_fract_z
 _atom_site_occupancy
  La  La0  1  0.590331  0.588586  0.000000  1
  La  La1  1  0.409669  0.998255  0.000000  1
  Pr  Pr2  1  0.000000  0.414805  0.000000  1
  Cd  Cd3  1  0.000000  0.747340  0.500000  1
  Sn  Sn4  1  0.246537  0.247518  0.500000  1
  Sn  Sn5  1  0.753463  0.000981  0.500000  1
  Pt  Pt6  1  0.659736  0.325880  0.500000  1
  Pt  Pt7  1  0.000000  0.010488  0.000000  1
  Pt  Pt8  1  0.340264  0.666146  0.500000  1
