# generated using pymatgen
data_TmTh4Si4Hg
_symmetry_space_group_name_H-M   'P 1'
_cell_length_a   7.63731900
_cell_length_b   7.63731900
_cell_length_c   4.19974400
_cell_angle_alpha   90.00000000
_cell_angle_beta   90.00000000
_cell_angle_gamma   90.00000000
_symmetry_Int_Tables_number   1
_chemical_formula_structural   TmTh4Si4Hg
_chemical_formula_sum   'Tm1 Th4 Si4 Hg1'
_cell_volume   244.96536220
_cell_formula_units_Z   1
loop_
 _symmetry_equiv_pos_site_id
 _symmetry_equiv_pos_as_xyz
  1  'x, y, z'
loop_
 _atom_site_type_symbol
 _atom_site_label
 _atom_site_symmetry_multiplicity
 _atom_site_fract_x
 _atom_site_fract_y
 _atom_site_fract_z
 _atom_site_occupancy
  Tm  Tm0  1  0.000000  0.000000  0.000000  1
  Th  Th1  1  0.668977  0.193135  0.500000  1
  Th  Th2  1  0.331023  0.806865  0.500000  1
  Th  Th3  1  0.193135  0.331023  0.500000  1
  Th  Th4  1  0.806865  0.668977  0.500000  1
  Si  Si5  1  0.094966  0.628147  0.000000  1
  Si  Si6  1  0.905034  0.371853  0.000000  1
  Si  Si7  1  0.628147  0.905034  0.000000  1
  Si  Si8  1  0.371853  0.094966  0.000000  1
  Hg  Hg9  1  0.500000  0.500000  0.000000  1
