# generated using pymatgen
data_Tb3Tm5(AgPt)2
_symmetry_space_group_name_H-M   'P 1'
_cell_length_a   9.51524944
_cell_length_b   9.51525040
_cell_length_c   9.51525000
_cell_angle_alpha   59.99999445
_cell_angle_beta   59.99999110
_cell_angle_gamma   59.99999541
_symmetry_Int_Tables_number   1
_chemical_formula_structural   Tb3Tm5(AgPt)2
_chemical_formula_sum   'Tb6 Tm10 Ag4 Pt4'
_cell_volume   609.17986783
_cell_formula_units_Z   2
loop_
 _symmetry_equiv_pos_site_id
 _symmetry_equiv_pos_as_xyz
  1  'x, y, z'
loop_
 _atom_site_type_symbol
 _atom_site_label
 _atom_site_symmetry_multiplicity
 _atom_site_fract_x
 _atom_site_fract_y
 _atom_site_fract_z
 _atom_site_occupancy
  Tb  Tb0  1  0.936004  0.563996  0.563996  1
  Tb  Tb1  1  0.563996  0.936004  0.936004  1
  Tb  Tb2  1  0.563996  0.936004  0.563996  1
  Tb  Tb3  1  0.936004  0.563996  0.936004  1
  Tb  Tb4  1  0.563996  0.563996  0.936004  1
  Tb  Tb5  1  0.936004  0.936004  0.563996  1
  Tm  Tm6  1  0.355885  0.355885  0.355885  1
  Tm  Tm7  1  0.355885  0.355885  0.932346  1
  Tm  Tm8  1  0.355885  0.932346  0.355885  1
  Tm  Tm9  1  0.932346  0.355885  0.355885  1
  Tm  Tm10  1  0.812082  0.187918  0.187918  1
  Tm  Tm11  1  0.187918  0.812082  0.812082  1
  Tm  Tm12  1  0.187918  0.812082  0.187918  1
  Tm  Tm13  1  0.812082  0.187918  0.812082  1
  Tm  Tm14  1  0.187918  0.187918  0.812082  1
  Tm  Tm15  1  0.812082  0.812082  0.187918  1
  Ag  Ag16  1  0.581785  0.581785  0.581785  1
  Ag  Ag17  1  0.581785  0.581785  0.254644  1
  Ag  Ag18  1  0.581785  0.254644  0.581785  1
  Ag  Ag19  1  0.254644  0.581785  0.581785  1
  Pt  Pt20  1  0.144609  0.144609  0.144609  1
  Pt  Pt21  1  0.144609  0.144609  0.566176  1
  Pt  Pt22  1  0.144609  0.566176  0.144609  1
  Pt  Pt23  1  0.566176  0.144609  0.144609  1
