# generated using pymatgen
data_Ho2Lu3(GaSi)2
_symmetry_space_group_name_H-M   'P 1'
_cell_length_a   7.32687300
_cell_length_b   7.62464000
_cell_length_c   14.67150100
_cell_angle_alpha   90.00000000
_cell_angle_beta   90.00000000
_cell_angle_gamma   90.00000000
_symmetry_Int_Tables_number   1
_chemical_formula_structural   Ho2Lu3(GaSi)2
_chemical_formula_sum   'Ho8 Lu12 Ga8 Si8'
_cell_volume   819.62001353
_cell_formula_units_Z   4
loop_
 _symmetry_equiv_pos_site_id
 _symmetry_equiv_pos_as_xyz
  1  'x, y, z'
loop_
 _atom_site_type_symbol
 _atom_site_label
 _atom_site_symmetry_multiplicity
 _atom_site_fract_x
 _atom_site_fract_y
 _atom_site_fract_z
 _atom_site_occupancy
  Ho  Ho0  1  0.014481  0.179619  0.099397  1
  Ho  Ho1  1  0.985519  0.820381  0.900603  1
  Ho  Ho2  1  0.485519  0.679619  0.900603  1
  Ho  Ho3  1  0.985519  0.820381  0.599397  1
  Ho  Ho4  1  0.514481  0.320381  0.099397  1
  Ho  Ho5  1  0.014481  0.179619  0.400603  1
  Ho  Ho6  1  0.514481  0.320381  0.400603  1
  Ho  Ho7  1  0.485519  0.679619  0.599397  1
  Lu  Lu8  1  0.161500  0.507622  0.750000  1
  Lu  Lu9  1  0.838500  0.492378  0.250000  1
  Lu  Lu10  1  0.338500  0.007622  0.250000  1
  Lu  Lu11  1  0.661500  0.992378  0.750000  1
  Lu  Lu12  1  0.328178  0.174868  0.623342  1
  Lu  Lu13  1  0.671822  0.825132  0.376658  1
  Lu  Lu14  1  0.171822  0.674868  0.376658  1
  Lu  Lu15  1  0.671822  0.825132  0.123342  1
  Lu  Lu16  1  0.828178  0.325132  0.623342  1
  Lu  Lu17  1  0.328178  0.174868  0.876658  1
  Lu  Lu18  1  0.828178  0.325132  0.876658  1
  Lu  Lu19  1  0.171822  0.674868  0.123342  1
  Ga  Ga20  1  0.159810  0.468176  0.539846  1
  Ga  Ga21  1  0.840190  0.531824  0.460154  1
  Ga  Ga22  1  0.340190  0.968176  0.460154  1
  Ga  Ga23  1  0.840190  0.531824  0.039846  1
  Ga  Ga24  1  0.659810  0.031824  0.539846  1
  Ga  Ga25  1  0.159810  0.468176  0.960154  1
  Ga  Ga26  1  0.659810  0.031824  0.960154  1
  Ga  Ga27  1  0.340190  0.968176  0.039846  1
  Si  Si28  1  0.031827  0.106008  0.750000  1
  Si  Si29  1  0.968173  0.893992  0.250000  1
  Si  Si30  1  0.468173  0.606008  0.250000  1
  Si  Si31  1  0.531827  0.393992  0.750000  1
  Si  Si32  1  0.277399  0.874447  0.750000  1
  Si  Si33  1  0.722601  0.125553  0.250000  1
  Si  Si34  1  0.222601  0.374447  0.250000  1
  Si  Si35  1  0.777399  0.625553  0.750000  1
