# generated using pymatgen
data_LiPr8Er8Sc3(Si7Pd)2
_symmetry_space_group_name_H-M   'P 1'
_cell_length_a   7.33989500
_cell_length_b   7.74605549
_cell_length_c   14.70464800
_cell_angle_alpha   90.00000000
_cell_angle_beta   90.00000000
_cell_angle_gamma   90.04589695
_symmetry_Int_Tables_number   1
_chemical_formula_structural   LiPr8Er8Sc3(Si7Pd)2
_chemical_formula_sum   'Li1 Pr8 Er8 Sc3 Si14 Pd2'
_cell_volume   836.03593360
_cell_formula_units_Z   1
loop_
 _symmetry_equiv_pos_site_id
 _symmetry_equiv_pos_as_xyz
  1  'x, y, z'
loop_
 _atom_site_type_symbol
 _atom_site_label
 _atom_site_symmetry_multiplicity
 _atom_site_fract_x
 _atom_site_fract_y
 _atom_site_fract_z
 _atom_site_occupancy
  Li  Li0  1  0.656060  0.991096  0.750000  1
  Pr  Pr1  1  0.012253  0.174944  0.403621  1
  Pr  Pr2  1  0.513622  0.325941  0.403215  1
  Pr  Pr3  1  0.484150  0.687506  0.899606  1
  Pr  Pr4  1  0.484150  0.687506  0.600394  1
  Pr  Pr5  1  0.977095  0.822519  0.599206  1
  Pr  Pr6  1  0.977095  0.822519  0.900794  1
  Pr  Pr7  1  0.513622  0.325941  0.096785  1
  Pr  Pr8  1  0.012253  0.174944  0.096379  1
  Er  Er9  1  0.331144  0.174060  0.626272  1
  Er  Er10  1  0.683044  0.824167  0.372990  1
  Er  Er11  1  0.182452  0.672669  0.374120  1
  Er  Er12  1  0.821504  0.316659  0.874383  1
  Er  Er13  1  0.821504  0.316659  0.625617  1
  Er  Er14  1  0.331144  0.174060  0.873728  1
  Er  Er15  1  0.182452  0.672669  0.125880  1
  Er  Er16  1  0.683044  0.824167  0.127010  1
  Sc  Sc17  1  0.842853  0.486209  0.250000  1
  Sc  Sc18  1  0.340431  0.012914  0.250000  1
  Sc  Sc19  1  0.154625  0.506699  0.750000  1
  Si  Si20  1  0.268909  0.873503  0.750000  1
  Si  Si21  1  0.033503  0.110318  0.750000  1
  Si  Si22  1  0.523271  0.401252  0.750000  1
  Si  Si23  1  0.149375  0.467333  0.542345  1
  Si  Si24  1  0.715866  0.130526  0.250000  1
  Si  Si25  1  0.851190  0.531335  0.037462  1
  Si  Si26  1  0.350882  0.969536  0.040554  1
  Si  Si27  1  0.149375  0.467333  0.957655  1
  Si  Si28  1  0.649117  0.037069  0.533015  1
  Si  Si29  1  0.350882  0.969536  0.459446  1
  Si  Si30  1  0.851190  0.531335  0.462538  1
  Si  Si31  1  0.782658  0.611052  0.750000  1
  Si  Si32  1  0.214123  0.370222  0.250000  1
  Si  Si33  1  0.649117  0.037069  0.966985  1
  Pd  Pd34  1  0.477573  0.605778  0.250000  1
  Pd  Pd35  1  0.978472  0.892955  0.250000  1
