# generated using pymatgen
data_MgCu6Sb5Rh12
_symmetry_space_group_name_H-M   'P 1'
_cell_length_a   4.38523500
_cell_length_b   6.20657700
_cell_length_c   13.19898900
_cell_angle_alpha   90.00005374
_cell_angle_beta   89.99936954
_cell_angle_gamma   89.99993694
_symmetry_Int_Tables_number   1
_chemical_formula_structural   MgCu6Sb5Rh12
_chemical_formula_sum   'Mg1 Cu6 Sb5 Rh12'
_cell_volume   359.24082602
_cell_formula_units_Z   1
loop_
 _symmetry_equiv_pos_site_id
 _symmetry_equiv_pos_as_xyz
  1  'x, y, z'
loop_
 _atom_site_type_symbol
 _atom_site_label
 _atom_site_symmetry_multiplicity
 _atom_site_fract_x
 _atom_site_fract_y
 _atom_site_fract_z
 _atom_site_occupancy
  Mg  Mg0  1  0.999998  0.500001  0.000000  1
  Cu  Cu1  1  0.999999  0.000001  0.000000  1
  Cu  Cu2  1  0.499995  0.500000  0.157929  1
  Cu  Cu3  1  0.000008  0.000001  0.334641  1
  Cu  Cu4  1  0.499998  0.499999  0.500000  1
  Cu  Cu5  1  0.999999  0.000000  0.665355  1
  Cu  Cu6  1  0.500004  0.500000  0.842077  1
  Sb  Sb7  1  0.499997  0.000000  0.163819  1
  Sb  Sb8  1  0.000004  0.500000  0.330768  1
  Sb  Sb9  1  0.499999  0.000000  0.500000  1
  Sb  Sb10  1  0.999998  0.500000  0.669233  1
  Sb  Sb11  1  0.500002  0.000000  0.836183  1
  Rh  Rh12  1  0.499998  0.243431  0.000002  1
  Rh  Rh13  1  0.499998  0.756569  0.000001  1
  Rh  Rh14  1  0.000005  0.246134  0.170764  1
  Rh  Rh15  1  0.000004  0.753866  0.170763  1
  Rh  Rh16  1  0.500056  0.250476  0.333944  1
  Rh  Rh17  1  0.500056  0.749524  0.333944  1
  Rh  Rh18  1  0.000001  0.250210  0.500000  1
  Rh  Rh19  1  0.000000  0.749789  0.500000  1
  Rh  Rh20  1  0.499946  0.250478  0.666056  1
  Rh  Rh21  1  0.499947  0.749522  0.666056  1
  Rh  Rh22  1  0.999991  0.246133  0.829237  1
  Rh  Rh23  1  0.999993  0.753865  0.829236  1
