# generated using pymatgen
data_SrLi6Pr5(WO6)4
_symmetry_space_group_name_H-M   'P 1'
_cell_length_a   11.01962217
_cell_length_b   11.04192227
_cell_length_c   11.02782748
_cell_angle_alpha   109.61063782
_cell_angle_beta   109.52670522
_cell_angle_gamma   109.27990712
_symmetry_Int_Tables_number   1
_chemical_formula_structural   SrLi6Pr5(WO6)4
_chemical_formula_sum   'Sr2 Li12 Pr10 W8 O48'
_cell_volume   1032.89766948
_cell_formula_units_Z   2
loop_
 _symmetry_equiv_pos_site_id
 _symmetry_equiv_pos_as_xyz
  1  'x, y, z'
loop_
 _atom_site_type_symbol
 _atom_site_label
 _atom_site_symmetry_multiplicity
 _atom_site_fract_x
 _atom_site_fract_y
 _atom_site_fract_z
 _atom_site_occupancy
  Sr  Sr0  1  0.749860  0.375619  0.124991  1
  Sr  Sr1  1  0.375167  0.249531  0.124973  1
  Li  Li2  1  0.874579  0.750927  0.124183  1
  Li  Li3  1  0.249397  0.873108  0.124052  1
  Li  Li4  1  0.874210  0.124096  0.249537  1
  Li  Li5  1  0.375280  0.625455  0.249492  1
  Li  Li6  1  0.751133  0.625596  0.375656  1
  Li  Li7  1  0.624532  0.250052  0.375705  1
  Li  Li8  1  0.375755  0.750260  0.625516  1
  Li  Li9  1  0.249913  0.375391  0.625686  1
  Li  Li10  1  0.123870  0.873423  0.748646  1
  Li  Li11  1  0.624793  0.375192  0.748634  1
  Li  Li12  1  0.125245  0.250388  0.876188  1
  Li  Li13  1  0.751021  0.125881  0.876224  1
  Pr  Pr14  1  0.624121  0.873964  0.248020  1
  Pr  Pr15  1  0.125441  0.375485  0.250957  1
  Pr  Pr16  1  0.249457  0.124930  0.374639  1
  Pr  Pr17  1  0.125248  0.749795  0.374715  1
  Pr  Pr18  1  0.749614  0.874220  0.625388  1
  Pr  Pr19  1  0.875683  0.251084  0.625287  1
  Pr  Pr20  1  0.375163  0.125236  0.750419  1
  Pr  Pr21  1  0.875435  0.625445  0.750854  1
  Pr  Pr22  1  0.250165  0.625485  0.874973  1
  Pr  Pr23  1  0.624728  0.749376  0.875007  1
  W  W24  1  0.001657  0.003155  0.000924  1
  W  W25  1  0.502417  0.004289  0.999542  1
  W  W26  1  0.497285  0.495356  0.999571  1
  W  W27  1  0.999205  0.497766  0.000927  1
  W  W28  1  0.000242  0.000325  0.500216  1
  W  W29  1  0.498881  0.496895  0.498712  1
  W  W30  1  0.499971  0.999881  0.500173  1
  W  W31  1  0.999801  0.501815  0.498729  1
  O  O32  1  0.912049  0.328272  0.020200  1
  O  O33  1  0.108086  0.191895  0.020125  1
  O  O34  1  0.407315  0.882208  0.076996  1
  O  O35  1  0.669904  0.694823  0.077255  1
  O  O36  1  0.670906  0.974141  0.089793  1
  O  O37  1  0.418905  0.615653  0.089767  1
  O  O38  1  0.927065  0.599000  0.113069  1
  O  O39  1  0.185884  0.013995  0.113046  1
  O  O40  1  0.578986  0.184304  0.173185  1
  O  O41  1  0.594090  0.488783  0.173153  1
  O  O42  1  0.172294  0.579176  0.194662  1
  O  O43  1  0.022329  0.115545  0.194659  1
  O  O44  1  0.386261  0.485287  0.314284  1
  O  O45  1  0.928009  0.328978  0.314316  1
  O  O46  1  0.306670  0.921478  0.328692  1
  O  O47  1  0.022016  0.907303  0.328678  1
  O  O48  1  0.912774  0.584978  0.392500  1
  O  O49  1  0.479743  0.307553  0.392518  1
  O  O50  1  0.523117  0.828984  0.407454  1
  O  O51  1  0.884356  0.078503  0.407453  1
  O  O52  1  0.807146  0.829456  0.421706  1
  O  O53  1  0.614565  0.092214  0.421641  1
  O  O54  1  0.305830  0.385029  0.478674  1
  O  O55  1  0.172793  0.593670  0.478651  1
  O  O56  1  0.692987  0.614293  0.522652  1
  O  O57  1  0.829642  0.408322  0.522628  1
  O  O58  1  0.192839  0.170987  0.577650  1
  O  O59  1  0.384784  0.906678  0.577661  1
  O  O60  1  0.115677  0.922443  0.592814  1
  O  O61  1  0.477141  0.170362  0.592792  1
  O  O62  1  0.524617  0.695502  0.618545  1
  O  O63  1  0.093879  0.423014  0.618536  1
  O  O64  1  0.977363  0.092886  0.671186  1
  O  O65  1  0.693813  0.078259  0.671177  1
  O  O66  1  0.616091  0.525232  0.696106  1
  O  O67  1  0.079979  0.670823  0.696118  1
  O  O68  1  0.976281  0.884507  0.805544  1
  O  O69  1  0.829232  0.420978  0.805512  1
  O  O70  1  0.408285  0.526748  0.829135  1
  O  O71  1  0.421051  0.802388  0.829305  1
  O  O72  1  0.804126  0.975271  0.884317  1
  O  O73  1  0.080109  0.408993  0.884292  1
  O  O74  1  0.573305  0.386264  0.900707  1
  O  O75  1  0.327509  0.014416  0.900617  1
  O  O76  1  0.326009  0.306882  0.915156  1
  O  O77  1  0.589306  0.108420  0.915170  1
  O  O78  1  0.093284  0.670115  0.975661  1
  O  O79  1  0.882338  0.805581  0.975704  1
