# generated using pymatgen
data_Tb6Y10Cd4Co3Ni
_symmetry_space_group_name_H-M   'P 1'
_cell_length_a   9.52766620
_cell_length_b   9.55558766
_cell_length_c   9.55558753
_cell_angle_alpha   59.94546166
_cell_angle_beta   60.03722575
_cell_angle_gamma   60.03722346
_symmetry_Int_Tables_number   1
_chemical_formula_structural   Tb6Y10Cd4Co3Ni
_chemical_formula_sum   'Tb6 Y10 Cd4 Co3 Ni1'
_cell_volume   615.24902326
_cell_formula_units_Z   1
loop_
 _symmetry_equiv_pos_site_id
 _symmetry_equiv_pos_as_xyz
  1  'x, y, z'
loop_
 _atom_site_type_symbol
 _atom_site_label
 _atom_site_symmetry_multiplicity
 _atom_site_fract_x
 _atom_site_fract_y
 _atom_site_fract_z
 _atom_site_occupancy
  Tb  Tb0  1  0.593427  0.597947  0.597947  1
  Tb  Tb1  1  0.595453  0.599447  0.207452  1
  Tb  Tb2  1  0.595453  0.207452  0.599447  1
  Tb  Tb3  1  0.210657  0.597109  0.597109  1
  Tb  Tb4  1  0.064570  0.438498  0.438498  1
  Tb  Tb5  1  0.436416  0.061774  0.061774  1
  Y  Y6  1  0.438852  0.059949  0.439280  1
  Y  Y7  1  0.064724  0.437332  0.057544  1
  Y  Y8  1  0.438852  0.439280  0.059949  1
  Y  Y9  1  0.064724  0.057544  0.437332  1
  Y  Y10  1  0.187816  0.812798  0.812798  1
  Y  Y11  1  0.810358  0.188102  0.188102  1
  Y  Y12  1  0.810510  0.189510  0.813231  1
  Y  Y13  1  0.187359  0.811881  0.188588  1
  Y  Y14  1  0.810510  0.813231  0.189510  1
  Y  Y15  1  0.187359  0.188588  0.811881  1
  Cd  Cd16  1  0.830310  0.829604  0.829604  1
  Cd  Cd17  1  0.830630  0.830850  0.507787  1
  Cd  Cd18  1  0.830630  0.507787  0.830850  1
  Cd  Cd19  1  0.506736  0.830709  0.830709  1
  Co  Co20  1  0.391388  0.392673  0.392673  1
  Co  Co21  1  0.394173  0.390724  0.824452  1
  Co  Co22  1  0.394173  0.824452  0.390724  1
  Ni  Ni23  1  0.824920  0.392757  0.392757  1
