# generated using pymatgen
data_TbTm2Mg(Co4P3)2
_symmetry_space_group_name_H-M   'P 1'
_cell_length_a   3.72360200
_cell_length_b   10.60860400
_cell_length_c   12.24936000
_cell_angle_alpha   90.00000000
_cell_angle_beta   90.00000000
_cell_angle_gamma   90.00000000
_symmetry_Int_Tables_number   1
_chemical_formula_structural   TbTm2Mg(Co4P3)2
_chemical_formula_sum   'Tb2 Tm4 Mg2 Co16 P12'
_cell_volume   483.87690221
_cell_formula_units_Z   2
loop_
 _symmetry_equiv_pos_site_id
 _symmetry_equiv_pos_as_xyz
  1  'x, y, z'
loop_
 _atom_site_type_symbol
 _atom_site_label
 _atom_site_symmetry_multiplicity
 _atom_site_fract_x
 _atom_site_fract_y
 _atom_site_fract_z
 _atom_site_occupancy
  Tb  Tb0  1  0.000000  0.500000  0.526329  1
  Tb  Tb1  1  0.500000  0.000000  0.473671  1
  Tm  Tm2  1  0.500000  0.822511  0.206114  1
  Tm  Tm3  1  0.500000  0.177489  0.206114  1
  Tm  Tm4  1  0.000000  0.677489  0.793886  1
  Tm  Tm5  1  0.000000  0.322511  0.793886  1
  Mg  Mg6  1  0.500000  0.500000  0.156295  1
  Mg  Mg7  1  0.000000  0.000000  0.843705  1
  Co  Co8  1  0.500000  0.500000  0.706576  1
  Co  Co9  1  0.000000  0.000000  0.293424  1
  Co  Co10  1  0.000000  0.500000  0.988487  1
  Co  Co11  1  0.500000  0.000000  0.011513  1
  Co  Co12  1  0.500000  0.332488  0.996676  1
  Co  Co13  1  0.500000  0.667512  0.996676  1
  Co  Co14  1  0.000000  0.167512  0.003324  1
  Co  Co15  1  0.000000  0.832488  0.003324  1
  Co  Co16  1  0.500000  0.296158  0.431579  1
  Co  Co17  1  0.500000  0.703842  0.431579  1
  Co  Co18  1  0.000000  0.203842  0.568421  1
  Co  Co19  1  0.000000  0.796158  0.568421  1
  Co  Co20  1  0.500000  0.877160  0.706722  1
  Co  Co21  1  0.500000  0.122840  0.706722  1
  Co  Co22  1  0.000000  0.622840  0.293278  1
  Co  Co23  1  0.000000  0.377160  0.293278  1
  P  P24  1  0.500000  0.500000  0.884839  1
  P  P25  1  0.000000  0.000000  0.115161  1
  P  P26  1  0.500000  0.500000  0.355147  1
  P  P27  1  0.000000  0.000000  0.644853  1
  P  P28  1  0.500000  0.309544  0.616520  1
  P  P29  1  0.500000  0.690456  0.616520  1
  P  P30  1  0.000000  0.190456  0.383480  1
  P  P31  1  0.000000  0.809544  0.383480  1
  P  P32  1  0.500000  0.838056  0.892237  1
  P  P33  1  0.500000  0.161944  0.892237  1
  P  P34  1  0.000000  0.661944  0.107763  1
  P  P35  1  0.000000  0.338056  0.107763  1
