# generated using pymatgen
data_RbTm(SbAu)2
_symmetry_space_group_name_H-M   'P 1'
_cell_length_a   4.60812400
_cell_length_b   4.60812448
_cell_length_c   19.47610300
_cell_angle_alpha   90.00000000
_cell_angle_beta   90.00000000
_cell_angle_gamma   119.99999657
_symmetry_Int_Tables_number   1
_chemical_formula_structural   RbTm(SbAu)2
_chemical_formula_sum   'Rb2 Tm2 Sb4 Au4'
_cell_volume   358.16328813
_cell_formula_units_Z   2
loop_
 _symmetry_equiv_pos_site_id
 _symmetry_equiv_pos_as_xyz
  1  'x, y, z'
loop_
 _atom_site_type_symbol
 _atom_site_label
 _atom_site_symmetry_multiplicity
 _atom_site_fract_x
 _atom_site_fract_y
 _atom_site_fract_z
 _atom_site_occupancy
  Rb  Rb0  1  0.000000  0.000000  0.500000  1
  Rb  Rb1  1  0.000000  0.000000  0.000000  1
  Tm  Tm2  1  0.000000  0.000000  0.250000  1
  Tm  Tm3  1  0.000000  0.000000  0.750000  1
  Sb  Sb4  1  0.333333  0.666667  0.362411  1
  Sb  Sb5  1  0.666667  0.333333  0.637589  1
  Sb  Sb6  1  0.666667  0.333333  0.862411  1
  Sb  Sb7  1  0.333333  0.666667  0.137589  1
  Au  Au8  1  0.666667  0.333333  0.330007  1
  Au  Au9  1  0.333333  0.666667  0.669993  1
  Au  Au10  1  0.333333  0.666667  0.830007  1
  Au  Au11  1  0.666667  0.333333  0.169993  1
