# generated using pymatgen
data_YTmMg(PRh2)6
_symmetry_space_group_name_H-M   'P 1'
_cell_length_a   9.70346100
_cell_length_b   9.70346048
_cell_length_c   3.89016800
_cell_angle_alpha   90.00000000
_cell_angle_beta   90.00000000
_cell_angle_gamma   119.99999153
_symmetry_Int_Tables_number   1
_chemical_formula_structural   YTmMg(PRh2)6
_chemical_formula_sum   'Y1 Tm1 Mg1 P6 Rh12'
_cell_volume   317.21398959
_cell_formula_units_Z   1
loop_
 _symmetry_equiv_pos_site_id
 _symmetry_equiv_pos_as_xyz
  1  'x, y, z'
loop_
 _atom_site_type_symbol
 _atom_site_label
 _atom_site_symmetry_multiplicity
 _atom_site_fract_x
 _atom_site_fract_y
 _atom_site_fract_z
 _atom_site_occupancy
  Y  Y0  1  0.666667  0.333333  0.246511  1
  Tm  Tm1  1  0.333333  0.666667  0.753573  1
  Mg  Mg2  1  0.000000  0.000000  0.499814  1
  P  P3  1  0.401938  0.285142  0.746703  1
  P  P4  1  0.714858  0.116796  0.746703  1
  P  P5  1  0.883204  0.598062  0.746703  1
  P  P6  1  0.597367  0.714585  0.253347  1
  P  P7  1  0.285415  0.882782  0.253347  1
  P  P8  1  0.117218  0.402633  0.253347  1
  Rh  Rh9  1  0.452952  0.065580  0.748552  1
  Rh  Rh10  1  0.934420  0.387372  0.748552  1
  Rh  Rh11  1  0.612628  0.547048  0.748552  1
  Rh  Rh12  1  0.545323  0.931943  0.251523  1
  Rh  Rh13  1  0.068057  0.613380  0.251523  1
  Rh  Rh14  1  0.386620  0.454677  0.251523  1
  Rh  Rh15  1  0.161365  0.289663  0.754300  1
  Rh  Rh16  1  0.710337  0.871703  0.754300  1
  Rh  Rh17  1  0.128297  0.838635  0.754300  1
  Rh  Rh18  1  0.838932  0.710945  0.245609  1
  Rh  Rh19  1  0.289055  0.127987  0.245609  1
  Rh  Rh20  1  0.872013  0.161068  0.245609  1
