# generated using pymatgen
data_Y2U(Co3P2)3
_symmetry_space_group_name_H-M   'P 1'
_cell_length_a   3.70140600
_cell_length_b   10.49329079
_cell_length_c   12.18569507
_cell_angle_alpha   90.46156035
_cell_angle_beta   90.00000000
_cell_angle_gamma   90.00000000
_symmetry_Int_Tables_number   1
_chemical_formula_structural   Y2U(Co3P2)3
_chemical_formula_sum   'Y4 U2 Co18 P12'
_cell_volume   473.27618040
_cell_formula_units_Z   2
loop_
 _symmetry_equiv_pos_site_id
 _symmetry_equiv_pos_as_xyz
  1  'x, y, z'
loop_
 _atom_site_type_symbol
 _atom_site_label
 _atom_site_symmetry_multiplicity
 _atom_site_fract_x
 _atom_site_fract_y
 _atom_site_fract_z
 _atom_site_occupancy
  Y  Y0  1  0.500000  0.999535  0.479101  1
  Y  Y1  1  0.500000  0.185931  0.204711  1
  Y  Y2  1  0.000000  0.683888  0.794757  1
  Y  Y3  1  0.000000  0.316040  0.794076  1
  U  U4  1  0.000000  0.497901  0.529866  1
  U  U5  1  0.500000  0.823517  0.209296  1
  Co  Co6  1  0.500000  0.499623  0.161820  1
  Co  Co7  1  0.000000  0.001195  0.841013  1
  Co  Co8  1  0.500000  0.499118  0.691966  1
  Co  Co9  1  0.000000  0.988680  0.291746  1
  Co  Co10  1  0.000000  0.502655  0.985341  1
  Co  Co11  1  0.500000  0.001396  0.013325  1
  Co  Co12  1  0.500000  0.336324  0.993554  1
  Co  Co13  1  0.500000  0.667862  0.997368  1
  Co  Co14  1  0.000000  0.169216  0.005277  1
  Co  Co15  1  0.000000  0.834912  0.003781  1
  Co  Co16  1  0.500000  0.299235  0.431627  1
  Co  Co17  1  0.500000  0.696484  0.430884  1
  Co  Co18  1  0.000000  0.200779  0.567224  1
  Co  Co19  1  0.000000  0.797332  0.569874  1
  Co  Co20  1  0.500000  0.879757  0.711831  1
  Co  Co21  1  0.500000  0.119679  0.710283  1
  Co  Co22  1  0.000000  0.621423  0.292363  1
  Co  Co23  1  0.000000  0.379254  0.293028  1
  P  P24  1  0.500000  0.501386  0.878817  1
  P  P25  1  0.000000  0.002061  0.113548  1
  P  P26  1  0.500000  0.497432  0.346093  1
  P  P27  1  0.000000  0.999155  0.656433  1
  P  P28  1  0.500000  0.304681  0.615032  1
  P  P29  1  0.500000  0.692689  0.615810  1
  P  P30  1  0.000000  0.183801  0.382132  1
  P  P31  1  0.000000  0.807846  0.388093  1
  P  P32  1  0.500000  0.847382  0.893578  1
  P  P33  1  0.500000  0.154134  0.893404  1
  P  P34  1  0.000000  0.656480  0.106881  1
  P  P35  1  0.000000  0.351218  0.106069  1
