# generated using pymatgen
data_TbCeAl20Fe3Rh
_symmetry_space_group_name_H-M   'P 1'
_cell_length_a   6.79188806
_cell_length_b   6.78154795
_cell_length_c   9.02594100
_cell_angle_alpha   90.19667944
_cell_angle_beta   89.99258483
_cell_angle_gamma   96.99469019
_symmetry_Int_Tables_number   1
_chemical_formula_structural   TbCeAl20Fe3Rh
_chemical_formula_sum   'Tb1 Ce1 Al20 Fe3 Rh1'
_cell_volume   412.63391396
_cell_formula_units_Z   1
loop_
 _symmetry_equiv_pos_site_id
 _symmetry_equiv_pos_as_xyz
  1  'x, y, z'
loop_
 _atom_site_type_symbol
 _atom_site_label
 _atom_site_symmetry_multiplicity
 _atom_site_fract_x
 _atom_site_fract_y
 _atom_site_fract_z
 _atom_site_occupancy
  Tb  Tb0  1  0.874619  0.128106  0.748455  1
  Ce  Ce1  1  0.121645  0.874418  0.251985  1
  Al  Al2  1  0.626351  0.375353  0.549334  1
  Al  Al3  1  0.374857  0.623835  0.451401  1
  Al  Al4  1  0.372969  0.619008  0.051294  1
  Al  Al5  1  0.628146  0.380192  0.948143  1
  Al  Al6  1  0.225462  0.227381  0.500146  1
  Al  Al7  1  0.773803  0.773134  0.501761  1
  Al  Al8  1  0.777405  0.769115  0.002101  1
  Al  Al9  1  0.221954  0.230972  0.996487  1
  Al  Al10  1  0.846006  0.162390  0.100107  1
  Al  Al11  1  0.153636  0.838174  0.898500  1
  Al  Al12  1  0.158450  0.841905  0.599087  1
  Al  Al13  1  0.841091  0.158870  0.402582  1
  Al  Al14  1  0.864521  0.584841  0.749098  1
  Al  Al15  1  0.135235  0.412066  0.250865  1
  Al  Al16  1  0.413352  0.138088  0.745027  1
  Al  Al17  1  0.589377  0.862259  0.254782  1
  Al  Al18  1  0.220220  0.479784  0.748862  1
  Al  Al19  1  0.778651  0.518652  0.251121  1
  Al  Al20  1  0.521279  0.776950  0.744177  1
  Al  Al21  1  0.479847  0.223692  0.255626  1
  Fe  Fe22  1  0.000937  0.501099  0.499790  1
  Fe  Fe23  1  0.000714  0.500921  0.000138  1
  Fe  Fe24  1  0.499194  0.999383  0.499873  1
  Rh  Rh25  1  0.500272  0.999411  0.999258  1
