# generated using pymatgen
data_Ga2TcMo5
_symmetry_space_group_name_H-M   'P 1'
_cell_length_a   4.97369100
_cell_length_b   4.94994600
_cell_length_c   4.94994600
_cell_angle_alpha   90.00000000
_cell_angle_beta   90.00000000
_cell_angle_gamma   90.00000000
_symmetry_Int_Tables_number   1
_chemical_formula_structural   Ga2TcMo5
_chemical_formula_sum   'Ga2 Tc1 Mo5'
_cell_volume   121.86520481
_cell_formula_units_Z   1
loop_
 _symmetry_equiv_pos_site_id
 _symmetry_equiv_pos_as_xyz
  1  'x, y, z'
loop_
 _atom_site_type_symbol
 _atom_site_label
 _atom_site_symmetry_multiplicity
 _atom_site_fract_x
 _atom_site_fract_y
 _atom_site_fract_z
 _atom_site_occupancy
  Ga  Ga0  1  0.003320  0.000000  0.000000  1
  Ga  Ga1  1  0.496680  0.500000  0.500000  1
  Tc  Tc2  1  0.250000  0.000000  0.500000  1
  Mo  Mo3  1  0.750000  0.000000  0.500000  1
  Mo  Mo4  1  0.998197  0.500000  0.250117  1
  Mo  Mo5  1  0.998197  0.500000  0.749883  1
  Mo  Mo6  1  0.501803  0.750117  0.000000  1
  Mo  Mo7  1  0.501803  0.249883  0.000000  1
