# generated using pymatgen
data_Nb6TlCuS12
_symmetry_space_group_name_H-M   'P 1'
_cell_length_a   5.85327000
_cell_length_b   5.85326955
_cell_length_c   13.52356700
_cell_angle_alpha   90.00000000
_cell_angle_beta   90.00000000
_cell_angle_gamma   120.00000252
_symmetry_Int_Tables_number   1
_chemical_formula_structural   Nb6TlCuS12
_chemical_formula_sum   'Nb6 Tl1 Cu1 S12'
_cell_volume   401.25361678
_cell_formula_units_Z   1
loop_
 _symmetry_equiv_pos_site_id
 _symmetry_equiv_pos_as_xyz
  1  'x, y, z'
loop_
 _atom_site_type_symbol
 _atom_site_label
 _atom_site_symmetry_multiplicity
 _atom_site_fract_x
 _atom_site_fract_y
 _atom_site_fract_z
 _atom_site_occupancy
  Nb  Nb0  1  0.333333  0.666667  0.031244  1
  Nb  Nb1  1  0.666667  0.333333  0.467349  1
  Nb  Nb2  1  0.333333  0.666667  0.468756  1
  Nb  Nb3  1  0.000000  0.000000  0.031596  1
  Nb  Nb4  1  0.666667  0.333333  0.032651  1
  Nb  Nb5  1  0.000000  0.000000  0.468404  1
  Tl  Tl6  1  0.666667  0.333333  0.750000  1
  Cu  Cu7  1  0.333333  0.666667  0.250000  1
  S  S8  1  0.995363  0.667240  0.145548  1
  S  S9  1  0.666181  0.667978  0.583191  1
  S  S10  1  0.995363  0.328123  0.354452  1
  S  S11  1  0.332760  0.328123  0.145548  1
  S  S12  1  0.332022  0.998203  0.583191  1
  S  S13  1  0.332022  0.333819  0.916809  1
  S  S14  1  0.671877  0.667240  0.354452  1
  S  S15  1  0.001797  0.667978  0.916809  1
  S  S16  1  0.666181  0.998203  0.916809  1
  S  S17  1  0.332760  0.004637  0.354452  1
  S  S18  1  0.671877  0.004637  0.145548  1
  S  S19  1  0.001797  0.333819  0.583191  1
