# generated using pymatgen
data_Pr4Ga24Ir2Pt7
_symmetry_space_group_name_H-M   'P 1'
_cell_length_a   7.56538999
_cell_length_b   7.62275658
_cell_length_c   13.42564200
_cell_angle_alpha   84.88728881
_cell_angle_beta   100.56937686
_cell_angle_gamma   119.65084916
_symmetry_Int_Tables_number   1
_chemical_formula_structural   Pr4Ga24Ir2Pt7
_chemical_formula_sum   'Pr4 Ga24 Ir2 Pt7'
_cell_volume   661.44516823
_cell_formula_units_Z   1
loop_
 _symmetry_equiv_pos_site_id
 _symmetry_equiv_pos_as_xyz
  1  'x, y, z'
loop_
 _atom_site_type_symbol
 _atom_site_label
 _atom_site_symmetry_multiplicity
 _atom_site_fract_x
 _atom_site_fract_y
 _atom_site_fract_z
 _atom_site_occupancy
  Pr  Pr0  1  0.731272  0.998905  0.189388  1
  Pr  Pr1  1  0.269112  0.001994  0.810428  1
  Pr  Pr2  1  0.062502  0.667752  0.190348  1
  Pr  Pr3  1  0.935486  0.331595  0.809561  1
  Ga  Ga4  1  0.806567  0.868044  0.818090  1
  Ga  Ga5  1  0.194536  0.130678  0.181910  1
  Ga  Ga6  1  0.982278  0.669073  0.943322  1
  Ga  Ga7  1  0.024823  0.334074  0.057196  1
  Ga  Ga8  1  0.399141  0.663196  0.819288  1
  Ga  Ga9  1  0.597980  0.335539  0.182572  1
  Ga  Ga10  1  0.883459  0.665584  0.673301  1
  Ga  Ga11  1  0.116557  0.334733  0.325347  1
  Ga  Ga12  1  0.602409  0.463433  0.816409  1
  Ga  Ga13  1  0.399126  0.540981  0.181870  1
  Ga  Ga14  1  0.231615  0.339314  0.669850  1
  Ga  Ga15  1  0.768790  0.661250  0.330081  1
  Ga  Ga16  1  0.854948  0.332966  0.556699  1
  Ga  Ga17  1  0.185951  0.998186  0.557571  1
  Ga  Ga18  1  0.814969  0.001650  0.442534  1
  Ga  Ga19  1  0.351118  0.996400  0.055950  1
  Ga  Ga20  1  0.645720  0.996807  0.944025  1
  Ga  Ga21  1  0.557743  0.993864  0.672522  1
  Ga  Ga22  1  0.442571  0.005462  0.328222  1
  Ga  Ga23  1  0.523273  0.669275  0.559945  1
  Ga  Ga24  1  0.475968  0.331309  0.439823  1
  Ga  Ga25  1  0.684992  0.670843  0.047659  1
  Ga  Ga26  1  0.311280  0.332521  0.952006  1
  Ga  Ga27  1  0.145114  0.665773  0.443654  1
  Ir  Ir28  1  0.329498  0.669238  0.000605  1
  Ir  Ir29  1  0.000160  0.999990  0.000003  1
  Pt  Pt30  1  0.548686  0.328375  0.635371  1
  Pt  Pt31  1  0.451276  0.671160  0.364251  1
  Pt  Pt32  1  0.886360  0.004122  0.637888  1
  Pt  Pt33  1  0.114202  0.996210  0.362277  1
  Pt  Pt34  1  0.670288  0.329901  0.999422  1
  Pt  Pt35  1  0.208701  0.666485  0.638482  1
  Pt  Pt36  1  0.791527  0.333319  0.362129  1
