# generated using pymatgen
data_Gd4Y(SiB4)2
_symmetry_space_group_name_H-M   'P 1'
_cell_length_a   7.27301100
_cell_length_b   7.27301100
_cell_length_c   8.19374800
_cell_angle_alpha   90.00000000
_cell_angle_beta   90.00000000
_cell_angle_gamma   90.00000000
_symmetry_Int_Tables_number   1
_chemical_formula_structural   Gd4Y(SiB4)2
_chemical_formula_sum   'Gd8 Y2 Si4 B16'
_cell_volume   433.42213975
_cell_formula_units_Z   2
loop_
 _symmetry_equiv_pos_site_id
 _symmetry_equiv_pos_as_xyz
  1  'x, y, z'
loop_
 _atom_site_type_symbol
 _atom_site_label
 _atom_site_symmetry_multiplicity
 _atom_site_fract_x
 _atom_site_fract_y
 _atom_site_fract_z
 _atom_site_occupancy
  Gd  Gd0  1  0.680555  0.180555  0.224745  1
  Gd  Gd1  1  0.319445  0.819445  0.775255  1
  Gd  Gd2  1  0.319445  0.819445  0.224745  1
  Gd  Gd3  1  0.819445  0.680555  0.224745  1
  Gd  Gd4  1  0.819445  0.680555  0.775255  1
  Gd  Gd5  1  0.680555  0.180555  0.775255  1
  Gd  Gd6  1  0.180555  0.319445  0.775255  1
  Gd  Gd7  1  0.180555  0.319445  0.224745  1
  Y  Y8  1  0.000000  0.000000  0.500000  1
  Y  Y9  1  0.500000  0.500000  0.500000  1
  Si  Si10  1  0.114509  0.614509  0.500000  1
  Si  Si11  1  0.885491  0.385491  0.500000  1
  Si  Si12  1  0.385491  0.114509  0.500000  1
  Si  Si13  1  0.614509  0.885491  0.500000  1
  B  B14  1  0.172142  0.039364  0.000000  1
  B  B15  1  0.827858  0.960636  0.000000  1
  B  B16  1  0.960636  0.172142  0.000000  1
  B  B17  1  0.327858  0.539364  0.000000  1
  B  B18  1  0.039364  0.827858  0.000000  1
  B  B19  1  0.672142  0.460636  0.000000  1
  B  B20  1  0.539364  0.672142  0.000000  1
  B  B21  1  0.460636  0.327858  0.000000  1
  B  B22  1  0.090434  0.590434  0.000000  1
  B  B23  1  0.909566  0.409566  0.000000  1
  B  B24  1  0.409566  0.090434  0.000000  1
  B  B25  1  0.590434  0.909566  0.000000  1
  B  B26  1  0.000000  0.000000  0.159596  1
  B  B27  1  0.000000  0.000000  0.840404  1
  B  B28  1  0.500000  0.500000  0.840404  1
  B  B29  1  0.500000  0.500000  0.159596  1
