# generated using pymatgen
data_LiPuO4
_symmetry_space_group_name_H-M   'P 1'
_cell_length_a   5.18674600
_cell_length_b   5.81072182
_cell_length_c   6.06903212
_cell_angle_alpha   61.93997720
_cell_angle_beta   90.00000000
_cell_angle_gamma   90.00000000
_symmetry_Int_Tables_number   1
_chemical_formula_structural   LiPuO4
_chemical_formula_sum   'Li2 Pu2 O8'
_cell_volume   161.41251822
_cell_formula_units_Z   2
loop_
 _symmetry_equiv_pos_site_id
 _symmetry_equiv_pos_as_xyz
  1  'x, y, z'
loop_
 _atom_site_type_symbol
 _atom_site_label
 _atom_site_symmetry_multiplicity
 _atom_site_fract_x
 _atom_site_fract_y
 _atom_site_fract_z
 _atom_site_occupancy
  Li  Li0  1  0.000000  0.500000  0.500000  1
  Li  Li1  1  0.500000  0.500000  0.000000  1
  Pu  Pu2  1  0.500000  0.000000  0.500000  1
  Pu  Pu3  1  0.000000  0.000000  0.000000  1
  O  O4  1  0.693405  0.852779  0.814744  1
  O  O5  1  0.806595  0.852779  0.314744  1
  O  O6  1  0.329436  0.686010  0.627025  1
  O  O7  1  0.829436  0.313990  0.872975  1
  O  O8  1  0.170564  0.686010  0.127025  1
  O  O9  1  0.670564  0.313990  0.372975  1
  O  O10  1  0.193405  0.147221  0.685256  1
  O  O11  1  0.306595  0.147221  0.185256  1
