# generated using pymatgen
data_Lu4Fe5Ni13(MoP6)2
_symmetry_space_group_name_H-M   'P 1'
_cell_length_a   3.67787100
_cell_length_b   10.33565377
_cell_length_c   11.92318714
_cell_angle_alpha   89.57231630
_cell_angle_beta   90.00000000
_cell_angle_gamma   90.00000000
_symmetry_Int_Tables_number   1
_chemical_formula_structural   Lu4Fe5Ni13(MoP6)2
_chemical_formula_sum   'Lu4 Fe5 Ni13 Mo2 P12'
_cell_volume   453.22588577
_cell_formula_units_Z   1
loop_
 _symmetry_equiv_pos_site_id
 _symmetry_equiv_pos_as_xyz
  1  'x, y, z'
loop_
 _atom_site_type_symbol
 _atom_site_label
 _atom_site_symmetry_multiplicity
 _atom_site_fract_x
 _atom_site_fract_y
 _atom_site_fract_z
 _atom_site_occupancy
  Lu  Lu0  1  0.250000  0.576507  0.706037  1
  Lu  Lu1  1  0.250000  0.922327  0.204680  1
  Lu  Lu2  1  0.750000  0.417468  0.292259  1
  Lu  Lu3  1  0.750000  0.084808  0.790999  1
  Fe  Fe4  1  0.750000  0.376650  0.800440  1
  Fe  Fe5  1  0.250000  0.463289  0.933185  1
  Fe  Fe6  1  0.250000  0.037614  0.431073  1
  Fe  Fe7  1  0.750000  0.533900  0.072015  1
  Fe  Fe8  1  0.750000  0.966406  0.570297  1
  Ni  Ni9  1  0.750000  0.290666  0.010976  1
  Ni  Ni10  1  0.750000  0.212900  0.508732  1
  Ni  Ni11  1  0.250000  0.405983  0.485798  1
  Ni  Ni12  1  0.250000  0.097285  0.984109  1
  Ni  Ni13  1  0.750000  0.586303  0.512516  1
  Ni  Ni14  1  0.750000  0.913255  0.009955  1
  Ni  Ni15  1  0.250000  0.221558  0.177425  1
  Ni  Ni16  1  0.250000  0.277463  0.673172  1
  Ni  Ni17  1  0.750000  0.772645  0.821678  1
  Ni  Ni18  1  0.750000  0.724562  0.321476  1
  Ni  Ni19  1  0.250000  0.883094  0.705523  1
  Ni  Ni20  1  0.250000  0.616060  0.205594  1
  Ni  Ni21  1  0.750000  0.122046  0.298606  1
  Mo  Mo22  1  0.250000  0.708089  0.991603  1
  Mo  Mo23  1  0.250000  0.790912  0.491613  1
  P  P24  1  0.250000  0.422140  0.112694  1
  P  P25  1  0.250000  0.076710  0.611222  1
  P  P26  1  0.750000  0.568715  0.887624  1
  P  P27  1  0.750000  0.926763  0.388584  1
  P  P28  1  0.250000  0.269962  0.862281  1
  P  P29  1  0.250000  0.234225  0.368382  1
  P  P30  1  0.750000  0.735808  0.132561  1
  P  P31  1  0.750000  0.764030  0.633106  1
  P  P32  1  0.250000  0.594842  0.391578  1
  P  P33  1  0.250000  0.905797  0.890967  1
  P  P34  1  0.750000  0.395478  0.613565  1
  P  P35  1  0.750000  0.103739  0.107672  1
