# generated using pymatgen
data_HfZr3Mn2(B2Ru5)2
_symmetry_space_group_name_H-M   'P 1'
_cell_length_a   9.35213711
_cell_length_b   9.35213711
_cell_length_c   3.08437900
_cell_angle_alpha   90.00000000
_cell_angle_beta   90.00000000
_cell_angle_gamma   90.11978516
_symmetry_Int_Tables_number   1
_chemical_formula_structural   HfZr3Mn2(B2Ru5)2
_chemical_formula_sum   'Hf1 Zr3 Mn2 B4 Ru10'
_cell_volume   269.76681163
_cell_formula_units_Z   1
loop_
 _symmetry_equiv_pos_site_id
 _symmetry_equiv_pos_as_xyz
  1  'x, y, z'
loop_
 _atom_site_type_symbol
 _atom_site_label
 _atom_site_symmetry_multiplicity
 _atom_site_fract_x
 _atom_site_fract_y
 _atom_site_fract_z
 _atom_site_occupancy
  Hf  Hf0  1  0.676605  0.176605  0.000000  1
  Zr  Zr1  1  0.323820  0.823820  0.000000  1
  Zr  Zr2  1  0.176465  0.323311  0.000000  1
  Zr  Zr3  1  0.823311  0.676465  0.000000  1
  Mn  Mn4  1  0.999619  0.000154  0.000000  1
  Mn  Mn5  1  0.500154  0.499619  0.000000  1
  B  B6  1  0.123762  0.623762  0.000000  1
  B  B7  1  0.875592  0.375592  0.000000  1
  B  B8  1  0.623728  0.876633  0.000000  1
  B  B9  1  0.376633  0.123728  0.000000  1
  Ru  Ru10  1  0.214366  0.070518  0.500000  1
  Ru  Ru11  1  0.785852  0.930671  0.500000  1
  Ru  Ru12  1  0.070388  0.785848  0.500000  1
  Ru  Ru13  1  0.713570  0.428325  0.500000  1
  Ru  Ru14  1  0.928325  0.213570  0.500000  1
  Ru  Ru15  1  0.285848  0.570388  0.500000  1
  Ru  Ru16  1  0.570518  0.714366  0.500000  1
  Ru  Ru17  1  0.430671  0.285852  0.500000  1
  Ru  Ru18  1  0.501034  0.001034  0.500000  1
  Ru  Ru19  1  0.999739  0.499739  0.500000  1
