# generated using pymatgen
data_Tb8MgHgPt2
_symmetry_space_group_name_H-M   'P 1'
_cell_length_a   9.73612572
_cell_length_b   9.73612569
_cell_length_c   9.73131400
_cell_angle_alpha   60.01634697
_cell_angle_beta   60.01634710
_cell_angle_gamma   60.22447128
_symmetry_Int_Tables_number   1
_chemical_formula_structural   Tb8MgHgPt2
_chemical_formula_sum   'Tb16 Mg2 Hg2 Pt4'
_cell_volume   653.53342597
_cell_formula_units_Z   2
loop_
 _symmetry_equiv_pos_site_id
 _symmetry_equiv_pos_as_xyz
  1  'x, y, z'
loop_
 _atom_site_type_symbol
 _atom_site_label
 _atom_site_symmetry_multiplicity
 _atom_site_fract_x
 _atom_site_fract_y
 _atom_site_fract_z
 _atom_site_occupancy
  Tb  Tb0  1  0.351043  0.351043  0.348398  1
  Tb  Tb1  1  0.351043  0.351043  0.949517  1
  Tb  Tb2  1  0.355242  0.941155  0.351801  1
  Tb  Tb3  1  0.941155  0.355242  0.351801  1
  Tb  Tb4  1  0.811206  0.188346  0.190282  1
  Tb  Tb5  1  0.188346  0.811206  0.810166  1
  Tb  Tb6  1  0.188346  0.811206  0.190282  1
  Tb  Tb7  1  0.811206  0.188346  0.810166  1
  Tb  Tb8  1  0.188667  0.188667  0.811333  1
  Tb  Tb9  1  0.808521  0.808521  0.191479  1
  Tb  Tb10  1  0.933167  0.564061  0.565503  1
  Tb  Tb11  1  0.564061  0.933167  0.937271  1
  Tb  Tb12  1  0.564061  0.933167  0.565503  1
  Tb  Tb13  1  0.933167  0.564061  0.937271  1
  Tb  Tb14  1  0.564288  0.564288  0.935712  1
  Tb  Tb15  1  0.935097  0.935097  0.564903  1
  Mg  Mg16  1  0.579064  0.267586  0.576674  1
  Mg  Mg17  1  0.267586  0.579064  0.576674  1
  Hg  Hg18  1  0.583315  0.583315  0.588891  1
  Hg  Hg19  1  0.583315  0.583315  0.244476  1
  Pt  Pt20  1  0.142823  0.142823  0.145867  1
  Pt  Pt21  1  0.142823  0.142823  0.568489  1
  Pt  Pt22  1  0.141320  0.571137  0.143773  1
  Pt  Pt23  1  0.571137  0.141320  0.143773  1
