# generated using pymatgen
data_Y2Ga9Co2Pd
_symmetry_space_group_name_H-M   'P 1'
_cell_length_a   7.47190245
_cell_length_b   7.47190197
_cell_length_c   9.42708800
_cell_angle_alpha   90.00000000
_cell_angle_beta   90.00000000
_cell_angle_gamma   119.54109660
_symmetry_Int_Tables_number   1
_chemical_formula_structural   Y2Ga9Co2Pd
_chemical_formula_sum   'Y4 Ga18 Co4 Pd2'
_cell_volume   457.88910105
_cell_formula_units_Z   2
loop_
 _symmetry_equiv_pos_site_id
 _symmetry_equiv_pos_as_xyz
  1  'x, y, z'
loop_
 _atom_site_type_symbol
 _atom_site_label
 _atom_site_symmetry_multiplicity
 _atom_site_fract_x
 _atom_site_fract_y
 _atom_site_fract_z
 _atom_site_occupancy
  Y  Y0  1  0.677151  0.996726  0.750000  1
  Y  Y1  1  0.322849  0.003274  0.250000  1
  Y  Y2  1  0.996726  0.677151  0.750000  1
  Y  Y3  1  0.003274  0.322849  0.250000  1
  Ga  Ga4  1  0.000969  0.654578  0.075151  1
  Ga  Ga5  1  0.654578  0.000969  0.424849  1
  Ga  Ga6  1  0.000969  0.654578  0.424849  1
  Ga  Ga7  1  0.999031  0.345422  0.924849  1
  Ga  Ga8  1  0.654578  0.000969  0.075151  1
  Ga  Ga9  1  0.345422  0.999031  0.924849  1
  Ga  Ga10  1  0.656598  0.656598  0.563173  1
  Ga  Ga11  1  0.343402  0.343402  0.063173  1
  Ga  Ga12  1  0.656598  0.656598  0.936827  1
  Ga  Ga13  1  0.343402  0.343402  0.436827  1
  Ga  Ga14  1  0.142008  0.142008  0.750000  1
  Ga  Ga15  1  0.857992  0.857992  0.250000  1
  Ga  Ga16  1  0.665659  0.443396  0.250000  1
  Ga  Ga17  1  0.334341  0.556604  0.750000  1
  Ga  Ga18  1  0.443396  0.665659  0.250000  1
  Ga  Ga19  1  0.556604  0.334341  0.750000  1
  Ga  Ga20  1  0.345422  0.999031  0.575151  1
  Ga  Ga21  1  0.999031  0.345422  0.575151  1
  Co  Co22  1  0.670641  0.329359  0.000000  1
  Co  Co23  1  0.329359  0.670641  0.500000  1
  Co  Co24  1  0.329359  0.670641  0.000000  1
  Co  Co25  1  0.670641  0.329359  0.500000  1
  Pd  Pd26  1  0.000000  0.000000  0.000000  1
  Pd  Pd27  1  0.000000  0.000000  0.500000  1
