# generated using pymatgen
data_Y2Tm8Si5P
_symmetry_space_group_name_H-M   'P 1'
_cell_length_a   8.30591036
_cell_length_b   8.32308117
_cell_length_c   6.20686300
_cell_angle_alpha   90.00000000
_cell_angle_beta   90.00000000
_cell_angle_gamma   120.01809128
_symmetry_Int_Tables_number   1
_chemical_formula_structural   Y2Tm8Si5P
_chemical_formula_sum   'Y2 Tm8 Si5 P1'
_cell_volume   371.53091810
_cell_formula_units_Z   1
loop_
 _symmetry_equiv_pos_site_id
 _symmetry_equiv_pos_as_xyz
  1  'x, y, z'
loop_
 _atom_site_type_symbol
 _atom_site_label
 _atom_site_symmetry_multiplicity
 _atom_site_fract_x
 _atom_site_fract_y
 _atom_site_fract_z
 _atom_site_occupancy
  Y  Y0  1  0.754706  0.999799  0.750000  1
  Y  Y1  1  0.243814  0.243077  0.750000  1
  Tm  Tm2  1  0.000594  0.755950  0.750000  1
  Tm  Tm3  1  0.001155  0.244744  0.250000  1
  Tm  Tm4  1  0.757550  0.755849  0.250000  1
  Tm  Tm5  1  0.243288  0.999493  0.250000  1
  Tm  Tm6  1  0.333494  0.667620  0.499963  1
  Tm  Tm7  1  0.666620  0.332868  0.000114  1
  Tm  Tm8  1  0.666620  0.332868  0.499886  1
  Tm  Tm9  1  0.333494  0.667620  0.000037  1
  Si  Si10  1  0.394348  0.393575  0.250000  1
  Si  Si11  1  0.000821  0.606289  0.250000  1
  Si  Si12  1  0.000148  0.395857  0.750000  1
  Si  Si13  1  0.607092  0.605906  0.750000  1
  Si  Si14  1  0.607424  0.000000  0.250000  1
  P  P15  1  0.388830  0.998486  0.750000  1
