# generated using pymatgen
data_Ti12Ga5Cu3O4
_symmetry_space_group_name_H-M   'P 1'
_cell_length_a   6.80305154
_cell_length_b   6.80305145
_cell_length_c   6.80305165
_cell_angle_alpha   90.16982772
_cell_angle_beta   90.16982551
_cell_angle_gamma   90.16982718
_symmetry_Int_Tables_number   1
_chemical_formula_structural   Ti12Ga5Cu3O4
_chemical_formula_sum   'Ti12 Ga5 Cu3 O4'
_cell_volume   314.85134296
_cell_formula_units_Z   1
loop_
 _symmetry_equiv_pos_site_id
 _symmetry_equiv_pos_as_xyz
  1  'x, y, z'
loop_
 _atom_site_type_symbol
 _atom_site_label
 _atom_site_symmetry_multiplicity
 _atom_site_fract_x
 _atom_site_fract_y
 _atom_site_fract_z
 _atom_site_occupancy
  Ti  Ti0  1  0.790690  0.959538  0.374800  1
  Ti  Ti1  1  0.709501  0.041274  0.874454  1
  Ti  Ti2  1  0.210978  0.458578  0.123782  1
  Ti  Ti3  1  0.290316  0.542055  0.624562  1
  Ti  Ti4  1  0.959538  0.374800  0.790690  1
  Ti  Ti5  1  0.041274  0.874454  0.709501  1
  Ti  Ti6  1  0.458578  0.123782  0.210978  1
  Ti  Ti7  1  0.542055  0.624562  0.290316  1
  Ti  Ti8  1  0.374800  0.790690  0.959538  1
  Ti  Ti9  1  0.874454  0.709501  0.041274  1
  Ti  Ti10  1  0.123782  0.210978  0.458578  1
  Ti  Ti11  1  0.624562  0.290316  0.542055  1
  Ga  Ga12  1  0.678685  0.678685  0.678685  1
  Ga  Ga13  1  0.570783  0.419554  0.934740  1
  Ga  Ga14  1  0.419554  0.934740  0.570783  1
  Ga  Ga15  1  0.934740  0.570783  0.419554  1
  Ga  Ga16  1  0.073158  0.073158  0.073158  1
  Cu  Cu17  1  0.179168  0.821958  0.319104  1
  Cu  Cu18  1  0.319104  0.179168  0.821958  1
  Cu  Cu19  1  0.821958  0.319104  0.179168  1
  O  O20  1  0.877287  0.125391  0.624408  1
  O  O21  1  0.624408  0.877287  0.125391  1
  O  O22  1  0.125391  0.624408  0.877287  1
  O  O23  1  0.375233  0.375233  0.375233  1
