# generated using pymatgen
data_K3Mn(SO4)3
_symmetry_space_group_name_H-M   'P 1'
_cell_length_a   9.14482494
_cell_length_b   9.14482514
_cell_length_c   9.14482452
_cell_angle_alpha   108.96001256
_cell_angle_beta   108.96001294
_cell_angle_gamma   108.96002006
_symmetry_Int_Tables_number   1
_chemical_formula_structural   K3Mn(SO4)3
_chemical_formula_sum   'K6 Mn2 S6 O24'
_cell_volume   599.59753849
_cell_formula_units_Z   2
loop_
 _symmetry_equiv_pos_site_id
 _symmetry_equiv_pos_as_xyz
  1  'x, y, z'
loop_
 _atom_site_type_symbol
 _atom_site_label
 _atom_site_symmetry_multiplicity
 _atom_site_fract_x
 _atom_site_fract_y
 _atom_site_fract_z
 _atom_site_occupancy
  K  K0  1  0.638488  0.145018  0.789939  1
  K  K1  1  0.789939  0.638488  0.145018  1
  K  K2  1  0.145018  0.789939  0.638488  1
  K  K3  1  0.361512  0.854982  0.210061  1
  K  K4  1  0.210061  0.361512  0.854982  1
  K  K5  1  0.854982  0.210061  0.361512  1
  Mn  Mn6  1  0.000000  0.000000  0.000000  1
  Mn  Mn7  1  0.500000  0.500000  0.500000  1
  S  S8  1  0.881909  0.554964  0.758471  1
  S  S9  1  0.758471  0.881909  0.554964  1
  S  S10  1  0.554964  0.758471  0.881909  1
  S  S11  1  0.118091  0.445036  0.241529  1
  S  S12  1  0.241529  0.118091  0.445036  1
  S  S13  1  0.445036  0.241529  0.118091  1
  O  O14  1  0.737023  0.521318  0.587579  1
  O  O15  1  0.587579  0.737023  0.521318  1
  O  O16  1  0.521318  0.587579  0.737023  1
  O  O17  1  0.262977  0.478682  0.412421  1
  O  O18  1  0.412421  0.262977  0.478682  1
  O  O19  1  0.478682  0.412421  0.262977  1
  O  O20  1  0.806257  0.473152  0.847993  1
  O  O21  1  0.847993  0.806257  0.473152  1
  O  O22  1  0.473152  0.847993  0.806257  1
  O  O23  1  0.193743  0.526848  0.152007  1
  O  O24  1  0.152007  0.193743  0.526848  1
  O  O25  1  0.526848  0.152007  0.193743  1
  O  O26  1  0.986026  0.480992  0.698223  1
  O  O27  1  0.698223  0.986026  0.480992  1
  O  O28  1  0.480992  0.698223  0.986026  1
  O  O29  1  0.013974  0.519008  0.301777  1
  O  O30  1  0.301777  0.013974  0.519008  1
  O  O31  1  0.519008  0.301777  0.013974  1
  O  O32  1  0.996246  0.750024  0.873777  1
  O  O33  1  0.873777  0.996246  0.750024  1
  O  O34  1  0.750024  0.873777  0.996246  1
  O  O35  1  0.003754  0.249976  0.126223  1
  O  O36  1  0.126223  0.003754  0.249976  1
  O  O37  1  0.249976  0.126223  0.003754  1
