# generated using pymatgen
data_Ce17(ScIr4)3
_symmetry_space_group_name_H-M   'P 1'
_cell_length_a   11.06816600
_cell_length_b   11.06816600
_cell_length_c   6.13219800
_cell_angle_alpha   90.00000000
_cell_angle_beta   90.00000000
_cell_angle_gamma   90.00000000
_symmetry_Int_Tables_number   1
_chemical_formula_structural   Ce17(ScIr4)3
_chemical_formula_sum   'Ce17 Sc3 Ir12'
_cell_volume   751.22061489
_cell_formula_units_Z   1
loop_
 _symmetry_equiv_pos_site_id
 _symmetry_equiv_pos_as_xyz
  1  'x, y, z'
loop_
 _atom_site_type_symbol
 _atom_site_label
 _atom_site_symmetry_multiplicity
 _atom_site_fract_x
 _atom_site_fract_y
 _atom_site_fract_z
 _atom_site_occupancy
  Ce  Ce0  1  0.282586  0.086929  0.372622  1
  Ce  Ce1  1  0.283023  0.910740  0.871200  1
  Ce  Ce2  1  0.716977  0.089260  0.871200  1
  Ce  Ce3  1  0.717414  0.913071  0.372622  1
  Ce  Ce4  1  0.589214  0.785356  0.870280  1
  Ce  Ce5  1  0.588633  0.212975  0.365988  1
  Ce  Ce6  1  0.411367  0.787025  0.365988  1
  Ce  Ce7  1  0.410786  0.214644  0.870280  1
  Ce  Ce8  1  0.212975  0.411367  0.634012  1
  Ce  Ce9  1  0.214644  0.589214  0.129720  1
  Ce  Ce10  1  0.785356  0.410786  0.129720  1
  Ce  Ce11  1  0.787025  0.588633  0.634012  1
  Ce  Ce12  1  0.910740  0.716977  0.128800  1
  Ce  Ce13  1  0.913071  0.282586  0.627378  1
  Ce  Ce14  1  0.086929  0.717414  0.627378  1
  Ce  Ce15  1  0.089260  0.283023  0.128800  1
  Ce  Ce16  1  0.500000  0.500000  0.500000  1
  Sc  Sc17  1  0.000000  0.000000  0.500000  1
  Sc  Sc18  1  0.000000  0.000000  0.000000  1
  Sc  Sc19  1  0.500000  0.500000  0.000000  1
  Ir  Ir20  1  0.851050  0.149395  0.249620  1
  Ir  Ir21  1  0.850605  0.851050  0.750380  1
  Ir  Ir22  1  0.149395  0.148950  0.750380  1
  Ir  Ir23  1  0.148950  0.850605  0.249620  1
  Ir  Ir24  1  0.652687  0.344339  0.753854  1
  Ir  Ir25  1  0.655661  0.652687  0.246146  1
  Ir  Ir26  1  0.344339  0.347313  0.246146  1
  Ir  Ir27  1  0.347313  0.655661  0.753854  1
  Ir  Ir28  1  0.500000  0.000000  0.109815  1
  Ir  Ir29  1  0.500000  0.000000  0.610478  1
  Ir  Ir30  1  0.000000  0.500000  0.890185  1
  Ir  Ir31  1  0.000000  0.500000  0.389522  1
