# generated using pymatgen
data_PrSmY2(WN3)4
_symmetry_space_group_name_H-M   'P 1'
_cell_length_a   7.32954866
_cell_length_b   7.32954927
_cell_length_c   6.25350484
_cell_angle_alpha   75.37888260
_cell_angle_beta   75.37889435
_cell_angle_gamma   82.96859813
_symmetry_Int_Tables_number   1
_chemical_formula_structural   PrSmY2(WN3)4
_chemical_formula_sum   'Pr1 Sm1 Y2 W4 N12'
_cell_volume   313.92740305
_cell_formula_units_Z   1
loop_
 _symmetry_equiv_pos_site_id
 _symmetry_equiv_pos_as_xyz
  1  'x, y, z'
loop_
 _atom_site_type_symbol
 _atom_site_label
 _atom_site_symmetry_multiplicity
 _atom_site_fract_x
 _atom_site_fract_y
 _atom_site_fract_z
 _atom_site_occupancy
  Pr  Pr0  1  0.696723  0.303277  0.750000  1
  Sm  Sm1  1  0.300476  0.699524  0.250000  1
  Y  Y2  1  0.088836  0.911164  0.750000  1
  Y  Y3  1  0.913026  0.086974  0.250000  1
  W  W4  1  0.379824  0.198963  0.249196  1
  W  W5  1  0.618637  0.800786  0.752812  1
  W  W6  1  0.801037  0.620176  0.250804  1
  W  W7  1  0.199214  0.381363  0.747188  1
  N  N8  1  0.620041  0.108312  0.164456  1
  N  N9  1  0.365385  0.349002  0.469325  1
  N  N10  1  0.004689  0.216178  0.852877  1
  N  N11  1  0.378430  0.891219  0.841491  1
  N  N12  1  0.783822  0.995311  0.647123  1
  N  N13  1  0.108781  0.621570  0.658509  1
  N  N14  1  0.891688  0.379959  0.335543  1
  N  N15  1  0.635238  0.654181  0.528546  1
  N  N16  1  0.650998  0.634615  0.030675  1
  N  N17  1  0.345819  0.364762  0.971454  1
  N  N18  1  0.999177  0.781839  0.147503  1
  N  N19  1  0.218161  0.000823  0.352497  1
