# generated using pymatgen
data_Yb4Sc4Re(B8Ru)3
_symmetry_space_group_name_H-M   'P 1'
_cell_length_a   3.54471200
_cell_length_b   8.99461156
_cell_length_c   11.35110708
_cell_angle_alpha   90.05698310
_cell_angle_beta   90.00000000
_cell_angle_gamma   90.00000000
_symmetry_Int_Tables_number   1
_chemical_formula_structural   Yb4Sc4Re(B8Ru)3
_chemical_formula_sum   'Yb4 Sc4 Re1 B24 Ru3'
_cell_volume   361.91065882
_cell_formula_units_Z   1
loop_
 _symmetry_equiv_pos_site_id
 _symmetry_equiv_pos_as_xyz
  1  'x, y, z'
loop_
 _atom_site_type_symbol
 _atom_site_label
 _atom_site_symmetry_multiplicity
 _atom_site_fract_x
 _atom_site_fract_y
 _atom_site_fract_z
 _atom_site_occupancy
  Yb  Yb0  1  0.000000  0.323721  0.415095  1
  Yb  Yb1  1  0.000000  0.675369  0.584200  1
  Yb  Yb2  1  0.000000  0.823570  0.086003  1
  Yb  Yb3  1  0.000000  0.178066  0.915374  1
  Sc  Sc4  1  0.000000  0.943090  0.366603  1
  Sc  Sc5  1  0.000000  0.057867  0.631979  1
  Sc  Sc6  1  0.000000  0.442279  0.132666  1
  Sc  Sc7  1  0.000000  0.555222  0.867775  1
  Re  Re8  1  0.000000  0.857902  0.817304  1
  B  B9  1  0.500000  0.554965  0.432302  1
  B  B10  1  0.500000  0.445509  0.567583  1
  B  B11  1  0.500000  0.055378  0.068051  1
  B  B12  1  0.500000  0.946619  0.933636  1
  B  B13  1  0.500000  0.753314  0.417257  1
  B  B14  1  0.500000  0.246705  0.582668  1
  B  B15  1  0.500000  0.252603  0.082881  1
  B  B16  1  0.500000  0.744582  0.919432  1
  B  B17  1  0.500000  0.794707  0.263754  1
  B  B18  1  0.500000  0.205692  0.735861  1
  B  B19  1  0.500000  0.294784  0.236375  1
  B  B20  1  0.500000  0.703323  0.763069  1
  B  B21  1  0.500000  0.629819  0.182999  1
  B  B22  1  0.500000  0.369818  0.816684  1
  B  B23  1  0.500000  0.130157  0.317310  1
  B  B24  1  0.500000  0.870807  0.681403  1
  B  B25  1  0.500000  0.982838  0.212360  1
  B  B26  1  0.500000  0.020126  0.787147  1
  B  B27  1  0.500000  0.482485  0.287626  1
  B  B28  1  0.500000  0.516692  0.712878  1
  B  B29  1  0.500000  0.593101  0.025573  1
  B  B30  1  0.500000  0.405160  0.974921  1
  B  B31  1  0.500000  0.093751  0.474235  1
  B  B32  1  0.500000  0.907061  0.524605  1
  Ru  Ru33  1  0.000000  0.641866  0.317217  1
  Ru  Ru34  1  0.000000  0.358537  0.681089  1
  Ru  Ru35  1  0.000000  0.142516  0.184083  1
