# generated using pymatgen
data_Ho3Hf(Ni4As3)2
_symmetry_space_group_name_H-M   'P 1'
_cell_length_a   3.90121300
_cell_length_b   11.11442700
_cell_length_c   12.77640600
_cell_angle_alpha   90.00000000
_cell_angle_beta   90.00000000
_cell_angle_gamma   90.00000000
_symmetry_Int_Tables_number   1
_chemical_formula_structural   Ho3Hf(Ni4As3)2
_chemical_formula_sum   'Ho6 Hf2 Ni16 As12'
_cell_volume   553.98173301
_cell_formula_units_Z   2
loop_
 _symmetry_equiv_pos_site_id
 _symmetry_equiv_pos_as_xyz
  1  'x, y, z'
loop_
 _atom_site_type_symbol
 _atom_site_label
 _atom_site_symmetry_multiplicity
 _atom_site_fract_x
 _atom_site_fract_y
 _atom_site_fract_z
 _atom_site_occupancy
  Ho  Ho0  1  0.000000  0.500000  0.529998  1
  Ho  Ho1  1  0.500000  0.000000  0.470002  1
  Ho  Ho2  1  0.500000  0.822453  0.205314  1
  Ho  Ho3  1  0.500000  0.177547  0.205314  1
  Ho  Ho4  1  0.000000  0.677547  0.794686  1
  Ho  Ho5  1  0.000000  0.322453  0.794686  1
  Hf  Hf6  1  0.500000  0.500000  0.152493  1
  Hf  Hf7  1  0.000000  0.000000  0.847507  1
  Ni  Ni8  1  0.000000  0.500000  0.984750  1
  Ni  Ni9  1  0.500000  0.000000  0.015250  1
  Ni  Ni10  1  0.500000  0.300707  0.429258  1
  Ni  Ni11  1  0.500000  0.699293  0.429258  1
  Ni  Ni12  1  0.000000  0.199293  0.570742  1
  Ni  Ni13  1  0.000000  0.800707  0.570742  1
  Ni  Ni14  1  0.500000  0.879827  0.705213  1
  Ni  Ni15  1  0.500000  0.120173  0.705213  1
  Ni  Ni16  1  0.000000  0.620173  0.294787  1
  Ni  Ni17  1  0.000000  0.379827  0.294787  1
  Ni  Ni18  1  0.500000  0.336302  0.993244  1
  Ni  Ni19  1  0.500000  0.663698  0.993244  1
  Ni  Ni20  1  0.000000  0.163698  0.006756  1
  Ni  Ni21  1  0.000000  0.836302  0.006756  1
  Ni  Ni22  1  0.500000  0.500000  0.700125  1
  Ni  Ni23  1  0.000000  0.000000  0.299875  1
  As  As24  1  0.500000  0.314065  0.615662  1
  As  As25  1  0.500000  0.685935  0.615662  1
  As  As26  1  0.000000  0.185935  0.384338  1
  As  As27  1  0.000000  0.814065  0.384338  1
  As  As28  1  0.500000  0.500000  0.878630  1
  As  As29  1  0.000000  0.000000  0.121370  1
  As  As30  1  0.500000  0.836457  0.890276  1
  As  As31  1  0.500000  0.163543  0.890276  1
  As  As32  1  0.000000  0.663543  0.109724  1
  As  As33  1  0.000000  0.336457  0.109724  1
  As  As34  1  0.500000  0.500000  0.360289  1
  As  As35  1  0.000000  0.000000  0.639711  1
