# generated using pymatgen
data_DyHo5NbCo17P12
_symmetry_space_group_name_H-M   'P 1'
_cell_length_a   3.69364500
_cell_length_b   10.55624000
_cell_length_c   12.25542500
_cell_angle_alpha   90.00000000
_cell_angle_beta   90.00000000
_cell_angle_gamma   90.00000000
_symmetry_Int_Tables_number   1
_chemical_formula_structural   DyHo5NbCo17P12
_chemical_formula_sum   'Dy1 Ho5 Nb1 Co17 P12'
_cell_volume   477.85131410
_cell_formula_units_Z   1
loop_
 _symmetry_equiv_pos_site_id
 _symmetry_equiv_pos_as_xyz
  1  'x, y, z'
loop_
 _atom_site_type_symbol
 _atom_site_label
 _atom_site_symmetry_multiplicity
 _atom_site_fract_x
 _atom_site_fract_y
 _atom_site_fract_z
 _atom_site_occupancy
  Dy  Dy0  1  0.500000  0.000000  0.477800  1
  Ho  Ho1  1  0.000000  0.500000  0.526899  1
  Ho  Ho2  1  0.500000  0.819584  0.207182  1
  Ho  Ho3  1  0.500000  0.180416  0.207182  1
  Ho  Ho4  1  0.000000  0.683021  0.795810  1
  Ho  Ho5  1  0.000000  0.316979  0.795810  1
  Nb  Nb6  1  0.500000  0.500000  0.154807  1
  Co  Co7  1  0.000000  0.000000  0.838547  1
  Co  Co8  1  0.500000  0.500000  0.701952  1
  Co  Co9  1  0.000000  0.000000  0.296393  1
  Co  Co10  1  0.000000  0.500000  0.983950  1
  Co  Co11  1  0.500000  0.000000  0.014459  1
  Co  Co12  1  0.500000  0.329600  0.989176  1
  Co  Co13  1  0.500000  0.670400  0.989176  1
  Co  Co14  1  0.000000  0.163607  0.003917  1
  Co  Co15  1  0.000000  0.836393  0.003917  1
  Co  Co16  1  0.500000  0.295300  0.433083  1
  Co  Co17  1  0.500000  0.704700  0.433083  1
  Co  Co18  1  0.000000  0.202508  0.569828  1
  Co  Co19  1  0.000000  0.797492  0.569828  1
  Co  Co20  1  0.500000  0.879549  0.708338  1
  Co  Co21  1  0.500000  0.120451  0.708338  1
  Co  Co22  1  0.000000  0.622951  0.294722  1
  Co  Co23  1  0.000000  0.377049  0.294722  1
  P  P24  1  0.500000  0.500000  0.880589  1
  P  P25  1  0.000000  0.000000  0.117297  1
  P  P26  1  0.500000  0.500000  0.356163  1
  P  P27  1  0.000000  0.000000  0.655672  1
  P  P28  1  0.500000  0.309911  0.617467  1
  P  P29  1  0.500000  0.690089  0.617467  1
  P  P30  1  0.000000  0.188201  0.385581  1
  P  P31  1  0.000000  0.811799  0.385581  1
  P  P32  1  0.500000  0.851295  0.889840  1
  P  P33  1  0.500000  0.148705  0.889840  1
  P  P34  1  0.000000  0.661237  0.102792  1
  P  P35  1  0.000000  0.338763  0.102792  1
