# generated using pymatgen
data_TbHo3Ni13Ir
_symmetry_space_group_name_H-M   'P 1'
_cell_length_a   4.92903752
_cell_length_b   4.92903859
_cell_length_c   12.54348157
_cell_angle_alpha   78.66892716
_cell_angle_beta   78.66892377
_cell_angle_gamma   60.00000932
_symmetry_Int_Tables_number   1
_chemical_formula_structural   TbHo3Ni13Ir
_chemical_formula_sum   'Tb1 Ho3 Ni13 Ir1'
_cell_volume   257.03858048
_cell_formula_units_Z   1
loop_
 _symmetry_equiv_pos_site_id
 _symmetry_equiv_pos_as_xyz
  1  'x, y, z'
loop_
 _atom_site_type_symbol
 _atom_site_label
 _atom_site_symmetry_multiplicity
 _atom_site_fract_x
 _atom_site_fract_y
 _atom_site_fract_z
 _atom_site_occupancy
  Tb  Tb0  1  0.949716  0.949716  0.150852  1
  Ho  Ho1  1  0.050313  0.050313  0.849061  1
  Ho  Ho2  1  0.853439  0.853439  0.439684  1
  Ho  Ho3  1  0.146478  0.146478  0.560567  1
  Ni  Ni4  1  0.720693  0.720693  0.837921  1
  Ni  Ni5  1  0.279286  0.279286  0.162143  1
  Ni  Ni6  1  0.612760  0.612760  0.161720  1
  Ni  Ni7  1  0.387222  0.387222  0.838333  1
  Ni  Ni8  1  0.000042  0.500099  0.999760  1
  Ni  Ni9  1  0.500099  0.000042  0.999760  1
  Ni  Ni10  1  0.500099  0.500099  0.999760  1
  Ni  Ni11  1  0.390765  0.390765  0.324139  1
  Ni  Ni12  1  0.894332  0.390765  0.324139  1
  Ni  Ni13  1  0.390765  0.894332  0.324139  1
  Ni  Ni14  1  0.609214  0.609214  0.676028  1
  Ni  Ni15  1  0.105542  0.609214  0.676028  1
  Ni  Ni16  1  0.609214  0.105542  0.676028  1
  Ir  Ir17  1  0.500022  0.500022  0.499935  1
