# generated using pymatgen
data_Zr2Ti2Ge4Mo
_symmetry_space_group_name_H-M   'P 1'
_cell_length_a   6.74898400
_cell_length_b   6.88071800
_cell_length_c   13.17875000
_cell_angle_alpha   90.00000000
_cell_angle_beta   90.00000000
_cell_angle_gamma   90.00000000
_symmetry_Int_Tables_number   1
_chemical_formula_structural   Zr2Ti2Ge4Mo
_chemical_formula_sum   'Zr8 Ti8 Ge16 Mo4'
_cell_volume   611.99289068
_cell_formula_units_Z   4
loop_
 _symmetry_equiv_pos_site_id
 _symmetry_equiv_pos_as_xyz
  1  'x, y, z'
loop_
 _atom_site_type_symbol
 _atom_site_label
 _atom_site_symmetry_multiplicity
 _atom_site_fract_x
 _atom_site_fract_y
 _atom_site_fract_z
 _atom_site_occupancy
  Zr  Zr0  1  0.489676  0.674426  0.091616  1
  Zr  Zr1  1  0.989676  0.825574  0.408384  1
  Zr  Zr2  1  0.510324  0.325574  0.591616  1
  Zr  Zr3  1  0.010324  0.174426  0.908384  1
  Zr  Zr4  1  0.510324  0.325574  0.908384  1
  Zr  Zr5  1  0.010324  0.174426  0.591616  1
  Zr  Zr6  1  0.489676  0.674426  0.408384  1
  Zr  Zr7  1  0.989676  0.825574  0.091616  1
  Ti  Ti8  1  0.661590  0.165426  0.125086  1
  Ti  Ti9  1  0.161590  0.334574  0.374914  1
  Ti  Ti10  1  0.338410  0.834574  0.625086  1
  Ti  Ti11  1  0.838410  0.665426  0.874914  1
  Ti  Ti12  1  0.338410  0.834574  0.874914  1
  Ti  Ti13  1  0.838410  0.665426  0.625086  1
  Ti  Ti14  1  0.661590  0.165426  0.374914  1
  Ti  Ti15  1  0.161590  0.334574  0.125086  1
  Ge  Ge16  1  0.693439  0.853644  0.250000  1
  Ge  Ge17  1  0.193439  0.646356  0.250000  1
  Ge  Ge18  1  0.306561  0.146356  0.750000  1
  Ge  Ge19  1  0.806561  0.353644  0.750000  1
  Ge  Ge20  1  0.680908  0.957930  0.959821  1
  Ge  Ge21  1  0.180908  0.542070  0.540179  1
  Ge  Ge22  1  0.319092  0.042070  0.459821  1
  Ge  Ge23  1  0.819092  0.457930  0.040179  1
  Ge  Ge24  1  0.319092  0.042070  0.040179  1
  Ge  Ge25  1  0.819092  0.457930  0.459821  1
  Ge  Ge26  1  0.680908  0.957930  0.540179  1
  Ge  Ge27  1  0.180908  0.542070  0.959821  1
  Ge  Ge28  1  0.464113  0.380438  0.250000  1
  Ge  Ge29  1  0.964113  0.119562  0.250000  1
  Ge  Ge30  1  0.535887  0.619562  0.750000  1
  Ge  Ge31  1  0.035887  0.880438  0.750000  1
  Mo  Mo32  1  0.334888  0.008973  0.250000  1
  Mo  Mo33  1  0.834888  0.491027  0.250000  1
  Mo  Mo34  1  0.665112  0.991027  0.750000  1
  Mo  Mo35  1  0.165112  0.508973  0.750000  1
