# generated using pymatgen
data_Lu4GaTc2Os5
_symmetry_space_group_name_H-M   'P 1'
_cell_length_a   5.26569949
_cell_length_b   5.31672833
_cell_length_c   8.78296300
_cell_angle_alpha   90.00000000
_cell_angle_beta   90.00000000
_cell_angle_gamma   120.04501839
_symmetry_Int_Tables_number   1
_chemical_formula_structural   Lu4GaTc2Os5
_chemical_formula_sum   'Lu4 Ga1 Tc2 Os5'
_cell_volume   212.85067649
_cell_formula_units_Z   1
loop_
 _symmetry_equiv_pos_site_id
 _symmetry_equiv_pos_as_xyz
  1  'x, y, z'
loop_
 _atom_site_type_symbol
 _atom_site_label
 _atom_site_symmetry_multiplicity
 _atom_site_fract_x
 _atom_site_fract_y
 _atom_site_fract_z
 _atom_site_occupancy
  Lu  Lu0  1  0.337407  0.669283  0.434761  1
  Lu  Lu1  1  0.666453  0.330669  0.561213  1
  Lu  Lu2  1  0.666453  0.330669  0.938787  1
  Lu  Lu3  1  0.337407  0.669283  0.065239  1
  Ga  Ga4  1  0.169221  0.343736  0.750000  1
  Tc  Tc5  1  0.170336  0.836569  0.750000  1
  Tc  Tc6  1  0.341461  0.175084  0.250000  1
  Os  Os7  1  0.832000  0.662707  0.250000  1
  Os  Os8  1  0.650693  0.835014  0.750000  1
  Os  Os9  1  0.001540  0.985788  0.999602  1
  Os  Os10  1  0.825492  0.175412  0.250000  1
  Os  Os11  1  0.001540  0.985788  0.500398  1
