# generated using pymatgen
data_Y3Sc(Si5Pt3)2
_symmetry_space_group_name_H-M   'P 1'
_cell_length_a   8.11931199
_cell_length_b   8.13430406
_cell_length_c   8.13430422
_cell_angle_alpha   136.19925437
_cell_angle_beta   104.23037844
_cell_angle_gamma   91.88773324
_symmetry_Int_Tables_number   1
_chemical_formula_structural   Y3Sc(Si5Pt3)2
_chemical_formula_sum   'Y3 Sc1 Si10 Pt6'
_cell_volume   342.25916719
_cell_formula_units_Z   1
loop_
 _symmetry_equiv_pos_site_id
 _symmetry_equiv_pos_as_xyz
  1  'x, y, z'
loop_
 _atom_site_type_symbol
 _atom_site_label
 _atom_site_symmetry_multiplicity
 _atom_site_fract_x
 _atom_site_fract_y
 _atom_site_fract_z
 _atom_site_occupancy
  Y  Y0  1  0.100477  0.870710  0.229767  1
  Y  Y1  1  0.900069  0.129398  0.770672  1
  Y  Y2  1  0.641755  0.370168  0.271587  1
  Sc  Sc3  1  0.353808  0.630707  0.723101  1
  Si  Si4  1  0.001101  0.750061  0.750624  1
  Si  Si5  1  0.001101  0.250476  0.251039  1
  Si  Si6  1  0.271404  0.022688  0.751690  1
  Si  Si7  1  0.727875  0.478206  0.750197  1
  Si  Si8  1  0.727875  0.977679  0.249669  1
  Si  Si9  1  0.271404  0.519714  0.248716  1
  Si  Si10  1  0.762999  0.611616  0.151384  1
  Si  Si11  1  0.240968  0.393077  0.847891  1
  Si  Si12  1  0.461470  0.112742  0.348728  1
  Si  Si13  1  0.536327  0.884340  0.651988  1
  Pt  Pt14  1  0.500440  0.752887  0.253670  1
  Pt  Pt15  1  0.500440  0.246770  0.747553  1
  Pt  Pt16  1  0.024980  0.637267  0.387713  1
  Pt  Pt17  1  0.977344  0.363913  0.613431  1
  Pt  Pt18  1  0.251091  0.136990  0.114101  1
  Pt  Pt19  1  0.747071  0.860594  0.886479  1
