# generated using pymatgen
data_La2GaPd14
_symmetry_space_group_name_H-M   'P 1'
_cell_length_a   9.02371000
_cell_length_b   9.02371000
_cell_length_c   7.24426000
_cell_angle_alpha   90.00000000
_cell_angle_beta   90.00000000
_cell_angle_gamma   90.00000000
_symmetry_Int_Tables_number   1
_chemical_formula_structural   La2GaPd14
_chemical_formula_sum   'La4 Ga2 Pd28'
_cell_volume   589.88083775
_cell_formula_units_Z   2
loop_
 _symmetry_equiv_pos_site_id
 _symmetry_equiv_pos_as_xyz
  1  'x, y, z'
loop_
 _atom_site_type_symbol
 _atom_site_label
 _atom_site_symmetry_multiplicity
 _atom_site_fract_x
 _atom_site_fract_y
 _atom_site_fract_z
 _atom_site_occupancy
  La  La0  1  0.500000  0.000000  0.938124  1
  La  La1  1  0.000000  0.500000  0.061876  1
  La  La2  1  0.000000  0.000000  0.500000  1
  La  La3  1  0.500000  0.500000  0.500000  1
  Ga  Ga4  1  0.500000  0.000000  0.448659  1
  Ga  Ga5  1  0.000000  0.500000  0.551341  1
  Pd  Pd6  1  0.329245  0.829245  0.622138  1
  Pd  Pd7  1  0.329245  0.170755  0.622138  1
  Pd  Pd8  1  0.670755  0.829245  0.622138  1
  Pd  Pd9  1  0.670755  0.170755  0.622138  1
  Pd  Pd10  1  0.170755  0.670755  0.377862  1
  Pd  Pd11  1  0.170755  0.329245  0.377862  1
  Pd  Pd12  1  0.829245  0.670755  0.377862  1
  Pd  Pd13  1  0.829245  0.329245  0.377862  1
  Pd  Pd14  1  0.500000  0.765399  0.252986  1
  Pd  Pd15  1  0.500000  0.234601  0.252986  1
  Pd  Pd16  1  0.265399  0.000000  0.252986  1
  Pd  Pd17  1  0.734601  0.000000  0.252986  1
  Pd  Pd18  1  0.000000  0.734601  0.747014  1
  Pd  Pd19  1  0.000000  0.265399  0.747014  1
  Pd  Pd20  1  0.234601  0.500000  0.747014  1
  Pd  Pd21  1  0.765399  0.500000  0.747014  1
  Pd  Pd22  1  0.500000  0.348591  0.856479  1
  Pd  Pd23  1  0.500000  0.651409  0.856479  1
  Pd  Pd24  1  0.848591  0.000000  0.856479  1
  Pd  Pd25  1  0.151409  0.000000  0.856479  1
  Pd  Pd26  1  0.000000  0.151409  0.143521  1
  Pd  Pd27  1  0.000000  0.848591  0.143521  1
  Pd  Pd28  1  0.651409  0.500000  0.143521  1
  Pd  Pd29  1  0.348591  0.500000  0.143521  1
  Pd  Pd30  1  0.250000  0.750000  0.000000  1
  Pd  Pd31  1  0.250000  0.250000  0.000000  1
  Pd  Pd32  1  0.750000  0.750000  0.000000  1
  Pd  Pd33  1  0.750000  0.250000  0.000000  1
