# generated using pymatgen
data_Ca3Cd3CuAgAu
_symmetry_space_group_name_H-M   'P 1'
_cell_length_a   7.90941000
_cell_length_b   7.90941138
_cell_length_c   3.94136000
_cell_angle_alpha   90.00000000
_cell_angle_beta   90.00000000
_cell_angle_gamma   120.00000261
_symmetry_Int_Tables_number   1
_chemical_formula_structural   Ca3Cd3CuAgAu
_chemical_formula_sum   'Ca3 Cd3 Cu1 Ag1 Au1'
_cell_volume   213.53298827
_cell_formula_units_Z   1
loop_
 _symmetry_equiv_pos_site_id
 _symmetry_equiv_pos_as_xyz
  1  'x, y, z'
loop_
 _atom_site_type_symbol
 _atom_site_label
 _atom_site_symmetry_multiplicity
 _atom_site_fract_x
 _atom_site_fract_y
 _atom_site_fract_z
 _atom_site_occupancy
  Ca  Ca0  1  0.599819  0.007878  0.000000  1
  Ca  Ca1  1  0.992122  0.591940  0.000000  1
  Ca  Ca2  1  0.408060  0.400181  0.000000  1
  Cd  Cd3  1  0.247563  0.996412  0.500000  1
  Cd  Cd4  1  0.003588  0.251151  0.500000  1
  Cd  Cd5  1  0.748849  0.752437  0.500000  1
  Cu  Cu6  1  0.000000  0.000000  0.000000  1
  Ag  Ag7  1  0.333333  0.666667  0.500000  1
  Au  Au8  1  0.666667  0.333333  0.500000  1
