# generated using pymatgen
data_Y19Ho(Ir2Rh)4
_symmetry_space_group_name_H-M   'P 1'
_cell_length_a   10.93043100
_cell_length_b   10.93043100
_cell_length_c   6.41528900
_cell_angle_alpha   90.00000000
_cell_angle_beta   90.00000000
_cell_angle_gamma   90.00000000
_symmetry_Int_Tables_number   1
_chemical_formula_structural   Y19Ho(Ir2Rh)4
_chemical_formula_sum   'Y19 Ho1 Ir8 Rh4'
_cell_volume   766.46230272
_cell_formula_units_Z   1
loop_
 _symmetry_equiv_pos_site_id
 _symmetry_equiv_pos_as_xyz
  1  'x, y, z'
loop_
 _atom_site_type_symbol
 _atom_site_label
 _atom_site_symmetry_multiplicity
 _atom_site_fract_x
 _atom_site_fract_y
 _atom_site_fract_z
 _atom_site_occupancy
  Y  Y0  1  0.290373  0.088924  0.379918  1
  Y  Y1  1  0.290513  0.910909  0.879905  1
  Y  Y2  1  0.709487  0.089091  0.879905  1
  Y  Y3  1  0.709627  0.911076  0.379918  1
  Y  Y4  1  0.589121  0.790550  0.879844  1
  Y  Y5  1  0.589026  0.209439  0.379880  1
  Y  Y6  1  0.410974  0.790561  0.379880  1
  Y  Y7  1  0.410879  0.209450  0.879844  1
  Y  Y8  1  0.209439  0.410974  0.620120  1
  Y  Y9  1  0.209450  0.589121  0.120156  1
  Y  Y10  1  0.790550  0.410879  0.120156  1
  Y  Y11  1  0.790561  0.589026  0.620120  1
  Y  Y12  1  0.910909  0.709487  0.120095  1
  Y  Y13  1  0.911076  0.290373  0.620082  1
  Y  Y14  1  0.088924  0.709627  0.620082  1
  Y  Y15  1  0.089091  0.290513  0.120095  1
  Y  Y16  1  0.000000  0.000000  0.000000  1
  Y  Y17  1  0.500000  0.500000  0.000000  1
  Y  Y18  1  0.500000  0.500000  0.500000  1
  Ho  Ho19  1  0.000000  0.000000  0.500000  1
  Ir  Ir20  1  0.846436  0.153507  0.251034  1
  Ir  Ir21  1  0.846493  0.846436  0.748966  1
  Ir  Ir22  1  0.153507  0.153564  0.748966  1
  Ir  Ir23  1  0.153564  0.846493  0.251034  1
  Ir  Ir24  1  0.654046  0.345939  0.749977  1
  Ir  Ir25  1  0.654061  0.654046  0.250023  1
  Ir  Ir26  1  0.345939  0.345954  0.250023  1
  Ir  Ir27  1  0.345954  0.654061  0.749977  1
  Rh  Rh28  1  0.500000  0.000000  0.125135  1
  Rh  Rh29  1  0.500000  0.000000  0.625115  1
  Rh  Rh30  1  0.000000  0.500000  0.874865  1
  Rh  Rh31  1  0.000000  0.500000  0.374885  1
