# generated using pymatgen
data_Er3Zr2(In2Ir)2
_symmetry_space_group_name_H-M   'P 1'
_cell_length_a   3.51452500
_cell_length_b   7.96267800
_cell_length_c   17.81443800
_cell_angle_alpha   90.00000000
_cell_angle_beta   90.00000000
_cell_angle_gamma   90.00000000
_symmetry_Int_Tables_number   1
_chemical_formula_structural   Er3Zr2(In2Ir)2
_chemical_formula_sum   'Er6 Zr4 In8 Ir4'
_cell_volume   498.53759786
_cell_formula_units_Z   2
loop_
 _symmetry_equiv_pos_site_id
 _symmetry_equiv_pos_as_xyz
  1  'x, y, z'
loop_
 _atom_site_type_symbol
 _atom_site_label
 _atom_site_symmetry_multiplicity
 _atom_site_fract_x
 _atom_site_fract_y
 _atom_site_fract_z
 _atom_site_occupancy
  Er  Er0  1  0.000000  0.000000  0.000000  1
  Er  Er1  1  0.000000  0.500000  0.500000  1
  Er  Er2  1  0.000000  0.750001  0.782289  1
  Er  Er3  1  0.000000  0.249999  0.217711  1
  Er  Er4  1  0.000000  0.250001  0.717711  1
  Er  Er5  1  0.000000  0.749999  0.282289  1
  Zr  Zr6  1  0.000000  0.876289  0.586492  1
  Zr  Zr7  1  0.000000  0.123711  0.413508  1
  Zr  Zr8  1  0.000000  0.376289  0.913508  1
  Zr  Zr9  1  0.000000  0.623711  0.086492  1
  In  In10  1  0.500000  0.806200  0.438835  1
  In  In11  1  0.500000  0.193800  0.561165  1
  In  In12  1  0.500000  0.306200  0.061165  1
  In  In13  1  0.500000  0.693800  0.938835  1
  In  In14  1  0.500000  0.926154  0.150673  1
  In  In15  1  0.500000  0.073846  0.849327  1
  In  In16  1  0.500000  0.426154  0.349327  1
  In  In17  1  0.500000  0.573846  0.650673  1
  Ir  Ir18  1  0.500000  0.962903  0.691018  1
  Ir  Ir19  1  0.500000  0.037097  0.308982  1
  Ir  Ir20  1  0.500000  0.462903  0.808982  1
  Ir  Ir21  1  0.500000  0.537097  0.191018  1
