# generated using pymatgen
data_AcEu(CdAu)2
_symmetry_space_group_name_H-M   'P 1'
_cell_length_a   4.54843500
_cell_length_b   7.82620307
_cell_length_c   9.10480808
_cell_angle_alpha   89.98514558
_cell_angle_beta   89.99945227
_cell_angle_gamma   89.99985117
_symmetry_Int_Tables_number   1
_chemical_formula_structural   AcEu(CdAu)2
_chemical_formula_sum   'Ac2 Eu2 Cd4 Au4'
_cell_volume   324.10362315
_cell_formula_units_Z   2
loop_
 _symmetry_equiv_pos_site_id
 _symmetry_equiv_pos_as_xyz
  1  'x, y, z'
loop_
 _atom_site_type_symbol
 _atom_site_label
 _atom_site_symmetry_multiplicity
 _atom_site_fract_x
 _atom_site_fract_y
 _atom_site_fract_z
 _atom_site_occupancy
  Ac  Ac0  1  0.749999  0.461189  0.815127  1
  Ac  Ac1  1  0.250000  0.038808  0.315122  1
  Eu  Eu2  1  0.750002  0.961850  0.689210  1
  Eu  Eu3  1  0.250001  0.538153  0.189217  1
  Cd  Cd4  1  0.250000  0.645711  0.558498  1
  Cd  Cd5  1  0.249999  0.137211  0.938775  1
  Cd  Cd6  1  0.750000  0.362785  0.438781  1
  Cd  Cd7  1  0.750000  0.854289  0.058495  1
  Au  Au8  1  0.250000  0.752860  0.873596  1
  Au  Au9  1  0.249999  0.253668  0.624794  1
  Au  Au10  1  0.750000  0.747147  0.373598  1
  Au  Au11  1  0.750000  0.246328  0.124788  1
