# generated using pymatgen
data_KBaFe3NiAs4
_symmetry_space_group_name_H-M   'P 1'
_cell_length_a   7.15221400
_cell_length_b   7.16377372
_cell_length_c   5.55268300
_cell_angle_alpha   90.00000000
_cell_angle_beta   90.00000000
_cell_angle_gamma   134.48505807
_symmetry_Int_Tables_number   1
_chemical_formula_structural   KBaFe3NiAs4
_chemical_formula_sum   'K1 Ba1 Fe3 Ni1 As4'
_cell_volume   202.97313662
_cell_formula_units_Z   1
loop_
 _symmetry_equiv_pos_site_id
 _symmetry_equiv_pos_as_xyz
  1  'x, y, z'
loop_
 _atom_site_type_symbol
 _atom_site_label
 _atom_site_symmetry_multiplicity
 _atom_site_fract_x
 _atom_site_fract_y
 _atom_site_fract_z
 _atom_site_occupancy
  K  K0  1  0.000000  0.000000  0.002151  1
  Ba  Ba1  1  0.500000  0.500000  0.497183  1
  Fe  Fe2  1  0.500000  0.000000  0.749608  1
  Fe  Fe3  1  0.000000  0.500000  0.749419  1
  Fe  Fe4  1  0.500000  0.000000  0.250249  1
  Ni  Ni5  1  0.000000  0.500000  0.250772  1
  As  As6  1  0.648385  0.342593  0.995436  1
  As  As7  1  0.156010  0.851522  0.504874  1
  As  As8  1  0.843990  0.148478  0.504874  1
  As  As9  1  0.351615  0.657407  0.995436  1
