# generated using pymatgen
data_MnNb8FeS16
_symmetry_space_group_name_H-M   'P 1'
_cell_length_a   6.68449300
_cell_length_b   6.68449210
_cell_length_c   12.01595200
_cell_angle_alpha   90.00000000
_cell_angle_beta   90.00000000
_cell_angle_gamma   119.99999950
_symmetry_Int_Tables_number   1
_chemical_formula_structural   MnNb8FeS16
_chemical_formula_sum   'Mn1 Nb8 Fe1 S16'
_cell_volume   464.97082754
_cell_formula_units_Z   1
loop_
 _symmetry_equiv_pos_site_id
 _symmetry_equiv_pos_as_xyz
  1  'x, y, z'
loop_
 _atom_site_type_symbol
 _atom_site_label
 _atom_site_symmetry_multiplicity
 _atom_site_fract_x
 _atom_site_fract_y
 _atom_site_fract_z
 _atom_site_occupancy
  Mn  Mn0  1  0.000000  0.000000  0.500000  1
  Nb  Nb1  1  0.000000  0.000000  0.245762  1
  Nb  Nb2  1  0.000000  0.000000  0.754238  1
  Nb  Nb3  1  0.494082  0.988165  0.758079  1
  Nb  Nb4  1  0.011835  0.505918  0.758079  1
  Nb  Nb5  1  0.494082  0.505918  0.758079  1
  Nb  Nb6  1  0.505918  0.011835  0.241921  1
  Nb  Nb7  1  0.988165  0.494082  0.241921  1
  Nb  Nb8  1  0.505918  0.494082  0.241921  1
  Fe  Fe9  1  0.000000  0.000000  0.000000  1
  S  S10  1  0.333333  0.666667  0.891892  1
  S  S11  1  0.666667  0.333333  0.108108  1
  S  S12  1  0.666667  0.333333  0.376171  1
  S  S13  1  0.333333  0.666667  0.623829  1
  S  S14  1  0.836816  0.673633  0.886938  1
  S  S15  1  0.326367  0.163184  0.886938  1
  S  S16  1  0.836816  0.163184  0.886938  1
  S  S17  1  0.163184  0.326367  0.113062  1
  S  S18  1  0.673633  0.836816  0.113062  1
  S  S19  1  0.163184  0.836816  0.113062  1
  S  S20  1  0.168947  0.337895  0.374207  1
  S  S21  1  0.662105  0.831053  0.374207  1
  S  S22  1  0.168947  0.831053  0.374207  1
  S  S23  1  0.831053  0.662105  0.625793  1
  S  S24  1  0.337895  0.168947  0.625793  1
  S  S25  1  0.831053  0.168947  0.625793  1
