# generated using pymatgen
data_Zr8Ta12Ga13Si3
_symmetry_space_group_name_H-M   'P 1'
_cell_length_a   6.82194600
_cell_length_b   6.94061705
_cell_length_c   13.31311700
_cell_angle_alpha   90.00000000
_cell_angle_beta   90.00000000
_cell_angle_gamma   89.86931273
_symmetry_Int_Tables_number   1
_chemical_formula_structural   Zr8Ta12Ga13Si3
_chemical_formula_sum   'Zr8 Ta12 Ga13 Si3'
_cell_volume   630.35467694
_cell_formula_units_Z   1
loop_
 _symmetry_equiv_pos_site_id
 _symmetry_equiv_pos_as_xyz
  1  'x, y, z'
loop_
 _atom_site_type_symbol
 _atom_site_label
 _atom_site_symmetry_multiplicity
 _atom_site_fract_x
 _atom_site_fract_y
 _atom_site_fract_z
 _atom_site_occupancy
  Zr  Zr0  1  0.496108  0.668797  0.596741  1
  Zr  Zr1  1  0.995908  0.832733  0.902921  1
  Zr  Zr2  1  0.503091  0.332072  0.096227  1
  Zr  Zr3  1  0.004342  0.172464  0.406217  1
  Zr  Zr4  1  0.503091  0.332072  0.403773  1
  Zr  Zr5  1  0.004342  0.172464  0.093783  1
  Zr  Zr6  1  0.496108  0.668797  0.903259  1
  Zr  Zr7  1  0.995908  0.832733  0.597079  1
  Ta  Ta8  1  0.657451  0.180140  0.629274  1
  Ta  Ta9  1  0.156431  0.319950  0.870725  1
  Ta  Ta10  1  0.350551  0.818271  0.128472  1
  Ta  Ta11  1  0.838251  0.676018  0.370963  1
  Ta  Ta12  1  0.350551  0.818271  0.371528  1
  Ta  Ta13  1  0.838251  0.676018  0.129037  1
  Ta  Ta14  1  0.657451  0.180140  0.870726  1
  Ta  Ta15  1  0.156431  0.319950  0.629275  1
  Ta  Ta16  1  0.830946  0.484151  0.750000  1
  Ta  Ta17  1  0.330620  0.016209  0.750000  1
  Ta  Ta18  1  0.168933  0.512965  0.250000  1
  Ta  Ta19  1  0.663864  0.981896  0.250000  1
  Ga  Ga20  1  0.676840  0.967352  0.463663  1
  Ga  Ga21  1  0.173544  0.536232  0.036838  1
  Ga  Ga22  1  0.326052  0.033359  0.963526  1
  Ga  Ga23  1  0.825670  0.467050  0.537118  1
  Ga  Ga24  1  0.326052  0.033359  0.536474  1
  Ga  Ga25  1  0.825670  0.467050  0.962882  1
  Ga  Ga26  1  0.676840  0.967352  0.036337  1
  Ga  Ga27  1  0.173544  0.536232  0.463162  1
  Ga  Ga28  1  0.045101  0.892903  0.250000  1
  Ga  Ga29  1  0.697037  0.855649  0.750000  1
  Ga  Ga30  1  0.197507  0.644838  0.750000  1
  Ga  Ga31  1  0.301272  0.145088  0.250000  1
  Ga  Ga32  1  0.803357  0.351344  0.250000  1
  Si  Si33  1  0.453566  0.389616  0.750000  1
  Si  Si34  1  0.953813  0.110226  0.750000  1
  Si  Si35  1  0.545504  0.606240  0.250000  1
