# generated using pymatgen
data_Na3LiV2F12
_symmetry_space_group_name_H-M   'P 1'
_cell_length_a   5.18755400
_cell_length_b   5.18755400
_cell_length_c   18.45983500
_cell_angle_alpha   90.00000000
_cell_angle_beta   90.00000000
_cell_angle_gamma   90.00000000
_symmetry_Int_Tables_number   1
_chemical_formula_structural   Na3LiV2F12
_chemical_formula_sum   'Na6 Li2 V4 F24'
_cell_volume   496.76738638
_cell_formula_units_Z   2
loop_
 _symmetry_equiv_pos_site_id
 _symmetry_equiv_pos_as_xyz
  1  'x, y, z'
loop_
 _atom_site_type_symbol
 _atom_site_label
 _atom_site_symmetry_multiplicity
 _atom_site_fract_x
 _atom_site_fract_y
 _atom_site_fract_z
 _atom_site_occupancy
  Na  Na0  1  0.000000  0.500000  0.308250  1
  Na  Na1  1  0.500000  0.000000  0.691750  1
  Na  Na2  1  0.500000  0.000000  0.191750  1
  Na  Na3  1  0.000000  0.500000  0.808250  1
  Na  Na4  1  0.000000  0.000000  0.500000  1
  Na  Na5  1  0.500000  0.500000  0.000000  1
  Li  Li6  1  0.000000  0.000000  0.000000  1
  Li  Li7  1  0.500000  0.500000  0.500000  1
  V  V8  1  0.000000  0.500000  0.124224  1
  V  V9  1  0.500000  0.000000  0.875776  1
  V  V10  1  0.500000  0.000000  0.375776  1
  V  V11  1  0.000000  0.500000  0.624224  1
  F  F12  1  0.212613  0.206590  0.382671  1
  F  F13  1  0.787387  0.793410  0.382671  1
  F  F14  1  0.206590  0.787387  0.617329  1
  F  F15  1  0.287387  0.706590  0.117329  1
  F  F16  1  0.793410  0.212613  0.617329  1
  F  F17  1  0.712613  0.293410  0.117329  1
  F  F18  1  0.293410  0.287387  0.882671  1
  F  F19  1  0.706590  0.712613  0.882671  1
  F  F20  1  0.149439  0.296939  0.197705  1
  F  F21  1  0.850561  0.703061  0.197705  1
  F  F22  1  0.296939  0.850561  0.802295  1
  F  F23  1  0.350561  0.796939  0.302295  1
  F  F24  1  0.703061  0.149439  0.802295  1
  F  F25  1  0.649439  0.203061  0.302295  1
  F  F26  1  0.203061  0.350561  0.697705  1
  F  F27  1  0.796939  0.649439  0.697705  1
  F  F28  1  0.151880  0.283330  0.050448  1
  F  F29  1  0.848120  0.716670  0.050448  1
  F  F30  1  0.283330  0.848120  0.949552  1
  F  F31  1  0.348120  0.783330  0.449552  1
  F  F32  1  0.716670  0.151880  0.949552  1
  F  F33  1  0.651880  0.216670  0.449552  1
  F  F34  1  0.216670  0.348120  0.550448  1
  F  F35  1  0.783330  0.651880  0.550448  1
