# generated using pymatgen
data_Ce2TcMoC3
_symmetry_space_group_name_H-M   'P 1'
_cell_length_a   6.27303851
_cell_length_b   6.27303901
_cell_length_c   5.75316717
_cell_angle_alpha   65.72315794
_cell_angle_beta   65.72315763
_cell_angle_gamma   31.09663661
_symmetry_Int_Tables_number   1
_chemical_formula_structural   Ce2TcMoC3
_chemical_formula_sum   'Ce2 Tc1 Mo1 C3'
_cell_volume   105.74551076
_cell_formula_units_Z   1
loop_
 _symmetry_equiv_pos_site_id
 _symmetry_equiv_pos_as_xyz
  1  'x, y, z'
loop_
 _atom_site_type_symbol
 _atom_site_label
 _atom_site_symmetry_multiplicity
 _atom_site_fract_x
 _atom_site_fract_y
 _atom_site_fract_z
 _atom_site_occupancy
  Ce  Ce0  1  0.396331  0.396331  0.802987  1
  Ce  Ce1  1  0.603106  0.603106  0.192966  1
  Tc  Tc2  1  0.160240  0.160240  0.677928  1
  Mo  Mo3  1  0.840491  0.840491  0.325062  1
  C  C4  1  0.001183  0.001183  0.999417  1
  C  C5  1  0.251059  0.251059  0.263133  1
  C  C6  1  0.747590  0.747590  0.738506  1
