# generated using pymatgen
data_Nd2Al16Pd9
_symmetry_space_group_name_H-M   'P 1'
_cell_length_a   11.16845831
_cell_length_b   11.16845830
_cell_length_c   11.16845900
_cell_angle_alpha   158.48139350
_cell_angle_beta   115.52656213
_cell_angle_gamma   68.82437317
_symmetry_Int_Tables_number   1
_chemical_formula_structural   Nd2Al16Pd9
_chemical_formula_sum   'Nd2 Al16 Pd9'
_cell_volume   457.78782494
_cell_formula_units_Z   1
loop_
 _symmetry_equiv_pos_site_id
 _symmetry_equiv_pos_as_xyz
  1  'x, y, z'
loop_
 _atom_site_type_symbol
 _atom_site_label
 _atom_site_symmetry_multiplicity
 _atom_site_fract_x
 _atom_site_fract_y
 _atom_site_fract_z
 _atom_site_occupancy
  Nd  Nd0  1  0.770373  0.770373  0.000000  1
  Nd  Nd1  1  0.229627  0.229627  0.000000  1
  Al  Al2  1  0.726659  0.606366  0.120293  1
  Al  Al3  1  0.486072  0.606367  0.879709  1
  Al  Al4  1  0.273341  0.393635  0.879709  1
  Al  Al5  1  0.513928  0.393634  0.120293  1
  Al  Al6  1  0.913276  0.413276  0.500000  1
  Al  Al7  1  0.086724  0.586725  0.500001  1
  Al  Al8  1  0.104350  0.796250  0.308103  1
  Al  Al9  1  0.488148  0.796250  0.691900  1
  Al  Al10  1  0.895650  0.203752  0.691898  1
  Al  Al11  1  0.511853  0.203752  0.308102  1
  Al  Al12  1  0.092370  0.919470  0.172902  1
  Al  Al13  1  0.746570  0.919470  0.827100  1
  Al  Al14  1  0.907629  0.080531  0.827098  1
  Al  Al15  1  0.253430  0.080531  0.172901  1
  Al  Al16  1  0.616195  0.000000  0.616195  1
  Al  Al17  1  0.383805  0.000000  0.383805  1
  Pd  Pd18  1  0.973965  0.660083  0.313882  1
  Pd  Pd19  1  0.346201  0.660085  0.686119  1
  Pd  Pd20  1  0.026035  0.339918  0.686119  1
  Pd  Pd21  1  0.653799  0.339916  0.313882  1
  Pd  Pd22  1  0.623617  0.123617  0.500000  1
  Pd  Pd23  1  0.376382  0.876384  0.500001  1
  Pd  Pd24  1  0.240558  0.500001  0.740559  1
  Pd  Pd25  1  0.759443  0.500000  0.259442  1
  Pd  Pd26  1  0.000000  0.000000  0.000000  1
