# generated using pymatgen
data_FeCo(PRu)2
_symmetry_space_group_name_H-M   'P 1'
_cell_length_a   3.73215900
_cell_length_b   5.74471600
_cell_length_c   6.66760000
_cell_angle_alpha   90.00000000
_cell_angle_beta   90.00000000
_cell_angle_gamma   90.00000000
_symmetry_Int_Tables_number   1
_chemical_formula_structural   FeCo(PRu)2
_chemical_formula_sum   'Fe2 Co2 P4 Ru4'
_cell_volume   142.95463433
_cell_formula_units_Z   2
loop_
 _symmetry_equiv_pos_site_id
 _symmetry_equiv_pos_as_xyz
  1  'x, y, z'
loop_
 _atom_site_type_symbol
 _atom_site_label
 _atom_site_symmetry_multiplicity
 _atom_site_fract_x
 _atom_site_fract_y
 _atom_site_fract_z
 _atom_site_occupancy
  Fe  Fe0  1  0.000000  0.361051  0.316755  1
  Fe  Fe1  1  0.000000  0.861051  0.683245  1
  Co  Co2  1  0.500000  0.641165  0.178622  1
  Co  Co3  1  0.500000  0.141165  0.821378  1
  P  P4  1  0.500000  0.261010  0.134594  1
  P  P5  1  0.500000  0.761010  0.865406  1
  P  P6  1  0.000000  0.738321  0.368552  1
  P  P7  1  0.000000  0.238321  0.631448  1
  Ru  Ru8  1  0.500000  0.521646  0.581739  1
  Ru  Ru9  1  0.500000  0.021646  0.418261  1
  Ru  Ru10  1  0.000000  0.476806  0.914932  1
  Ru  Ru11  1  0.000000  0.976806  0.085068  1
