# generated using pymatgen
data_Pm2BeSi3
_symmetry_space_group_name_H-M   'P 1'
_cell_length_a   5.84943826
_cell_length_b   5.86741379
_cell_length_c   5.86741400
_cell_angle_alpha   140.69120187
_cell_angle_beta   109.33808741
_cell_angle_gamma   84.01954382
_symmetry_Int_Tables_number   1
_chemical_formula_structural   Pm2BeSi3
_chemical_formula_sum   'Pm2 Be1 Si3'
_cell_volume   116.41586574
_cell_formula_units_Z   1
loop_
 _symmetry_equiv_pos_site_id
 _symmetry_equiv_pos_as_xyz
  1  'x, y, z'
loop_
 _atom_site_type_symbol
 _atom_site_label
 _atom_site_symmetry_multiplicity
 _atom_site_fract_x
 _atom_site_fract_y
 _atom_site_fract_z
 _atom_site_occupancy
  Pm  Pm0  1  0.004054  0.002754  0.001300  1
  Pm  Pm1  1  0.498601  0.497146  0.001455  1
  Be  Be2  1  0.577479  0.250391  0.327089  1
  Si  Si3  1  0.088207  0.750930  0.337277  1
  Si  Si4  1  0.897299  0.249304  0.647995  1
  Si  Si5  1  0.434360  0.749475  0.684884  1
