# generated using pymatgen
data_YbPu(GePd2)2
_symmetry_space_group_name_H-M   'P 1'
_cell_length_a   5.58248717
_cell_length_b   7.09122900
_cell_length_c   7.57593638
_cell_angle_alpha   90.00000000
_cell_angle_beta   90.19076286
_cell_angle_gamma   90.00000000
_symmetry_Int_Tables_number   1
_chemical_formula_structural   YbPu(GePd2)2
_chemical_formula_sum   'Yb2 Pu2 Ge4 Pd8'
_cell_volume   299.90461977
_cell_formula_units_Z   2
loop_
 _symmetry_equiv_pos_site_id
 _symmetry_equiv_pos_as_xyz
  1  'x, y, z'
loop_
 _atom_site_type_symbol
 _atom_site_label
 _atom_site_symmetry_multiplicity
 _atom_site_fract_x
 _atom_site_fract_y
 _atom_site_fract_z
 _atom_site_occupancy
  Yb  Yb0  1  0.640707  0.250000  0.968853  1
  Yb  Yb1  1  0.359293  0.750000  0.031147  1
  Pu  Pu2  1  0.142797  0.750000  0.531876  1
  Pu  Pu3  1  0.857203  0.250000  0.468124  1
  Ge  Ge4  1  0.859248  0.750000  0.883063  1
  Ge  Ge5  1  0.140752  0.250000  0.116937  1
  Ge  Ge6  1  0.355067  0.250000  0.619666  1
  Ge  Ge7  1  0.644933  0.750000  0.380334  1
  Pd  Pd8  1  0.592103  0.552905  0.679721  1
  Pd  Pd9  1  0.407897  0.447095  0.320279  1
  Pd  Pd10  1  0.087083  0.448881  0.820272  1
  Pd  Pd11  1  0.407897  0.052905  0.320279  1
  Pd  Pd12  1  0.912917  0.551119  0.179728  1
  Pd  Pd13  1  0.592103  0.947095  0.679721  1
  Pd  Pd14  1  0.912917  0.948881  0.179728  1
  Pd  Pd15  1  0.087083  0.051119  0.820272  1
