# generated using pymatgen
data_CaCeNdAs3
_symmetry_space_group_name_H-M   'P 1'
_cell_length_a   7.35838660
_cell_length_b   7.35838667
_cell_length_c   7.35838613
_cell_angle_alpha   146.27390025
_cell_angle_beta   132.01410979
_cell_angle_gamma   59.93282818
_symmetry_Int_Tables_number   1
_chemical_formula_structural   CaCeNdAs3
_chemical_formula_sum   'Ca1 Ce1 Nd1 As3'
_cell_volume   162.85603348
_cell_formula_units_Z   1
loop_
 _symmetry_equiv_pos_site_id
 _symmetry_equiv_pos_as_xyz
  1  'x, y, z'
loop_
 _atom_site_type_symbol
 _atom_site_label
 _atom_site_symmetry_multiplicity
 _atom_site_fract_x
 _atom_site_fract_y
 _atom_site_fract_z
 _atom_site_occupancy
  Ca  Ca0  1  0.667345  0.667345  0.000000  1
  Ce  Ce1  1  0.000856  0.000856  0.000000  1
  Nd  Nd2  1  0.332090  0.332090  0.000000  1
  As  As3  1  0.495888  0.995888  0.500000  1
  As  As4  1  0.159924  0.659924  0.500000  1
  As  As5  1  0.843897  0.343897  0.500000  1
