# generated using pymatgen
data_TbEr5TcRu
_symmetry_space_group_name_H-M   'P 1'
_cell_length_a   6.26601900
_cell_length_b   7.34378800
_cell_length_c   9.06288500
_cell_angle_alpha   90.00000000
_cell_angle_beta   90.00000000
_cell_angle_gamma   90.00000000
_symmetry_Int_Tables_number   1
_chemical_formula_structural   TbEr5TcRu
_chemical_formula_sum   'Tb2 Er10 Tc2 Ru2'
_cell_volume   417.04057224
_cell_formula_units_Z   2
loop_
 _symmetry_equiv_pos_site_id
 _symmetry_equiv_pos_as_xyz
  1  'x, y, z'
loop_
 _atom_site_type_symbol
 _atom_site_label
 _atom_site_symmetry_multiplicity
 _atom_site_fract_x
 _atom_site_fract_y
 _atom_site_fract_z
 _atom_site_occupancy
  Tb  Tb0  1  0.875572  0.539274  0.250000  1
  Tb  Tb1  1  0.624428  0.039274  0.250000  1
  Er  Er2  1  0.334594  0.676415  0.062990  1
  Er  Er3  1  0.165406  0.176415  0.437010  1
  Er  Er4  1  0.663915  0.324159  0.563326  1
  Er  Er5  1  0.836085  0.824159  0.936674  1
  Er  Er6  1  0.663915  0.324159  0.936674  1
  Er  Er7  1  0.836085  0.824159  0.563326  1
  Er  Er8  1  0.334594  0.676415  0.437010  1
  Er  Er9  1  0.165406  0.176415  0.062990  1
  Er  Er10  1  0.131427  0.457310  0.750000  1
  Er  Er11  1  0.368573  0.957310  0.750000  1
  Tc  Tc12  1  0.038973  0.885815  0.250000  1
  Tc  Tc13  1  0.461027  0.385815  0.250000  1
  Ru  Ru14  1  0.961024  0.116454  0.750000  1
  Ru  Ru15  1  0.538976  0.616454  0.750000  1
