# generated using pymatgen
data_AlPb4W3O13
_symmetry_space_group_name_H-M   'P 1'
_cell_length_a   7.37537641
_cell_length_b   7.37537573
_cell_length_c   7.37537671
_cell_angle_alpha   61.53285638
_cell_angle_beta   61.53286399
_cell_angle_gamma   61.53284886
_symmetry_Int_Tables_number   1
_chemical_formula_structural   AlPb4W3O13
_chemical_formula_sum   'Al1 Pb4 W3 O13'
_cell_volume   293.44477559
_cell_formula_units_Z   1
loop_
 _symmetry_equiv_pos_site_id
 _symmetry_equiv_pos_as_xyz
  1  'x, y, z'
loop_
 _atom_site_type_symbol
 _atom_site_label
 _atom_site_symmetry_multiplicity
 _atom_site_fract_x
 _atom_site_fract_y
 _atom_site_fract_z
 _atom_site_occupancy
  Al  Al0  1  0.499839  0.499839  0.499839  1
  Pb  Pb1  1  0.995970  0.995970  0.995970  1
  Pb  Pb2  1  0.503472  0.998111  0.998111  1
  Pb  Pb3  1  0.998111  0.998111  0.503472  1
  Pb  Pb4  1  0.998111  0.503472  0.998111  1
  W  W5  1  0.000815  0.499722  0.499722  1
  W  W6  1  0.499722  0.499722  0.000815  1
  W  W7  1  0.499722  0.000815  0.499722  1
  O  O8  1  0.810687  0.437401  0.437401  1
  O  O9  1  0.424314  0.827375  0.827375  1
  O  O10  1  0.437401  0.437401  0.810687  1
  O  O11  1  0.827375  0.827375  0.424314  1
  O  O12  1  0.827375  0.424314  0.827375  1
  O  O13  1  0.437401  0.810687  0.437401  1
  O  O14  1  0.191661  0.560455  0.560455  1
  O  O15  1  0.572981  0.175954  0.175954  1
  O  O16  1  0.560455  0.560455  0.191661  1
  O  O17  1  0.175954  0.175954  0.572981  1
  O  O18  1  0.175954  0.572981  0.175954  1
  O  O19  1  0.560455  0.191661  0.560455  1
  O  O20  1  0.127224  0.127224  0.127224  1
