# generated using pymatgen
data_La4Pr12Cd4TcPd3
_symmetry_space_group_name_H-M   'P 1'
_cell_length_a   10.15669197
_cell_length_b   10.15669298
_cell_length_c   10.15669128
_cell_angle_alpha   59.32554633
_cell_angle_beta   59.32554402
_cell_angle_gamma   59.32554702
_symmetry_Int_Tables_number   1
_chemical_formula_structural   La4Pr12Cd4TcPd3
_chemical_formula_sum   'La4 Pr12 Cd4 Tc1 Pd3'
_cell_volume   729.49366585
_cell_formula_units_Z   1
loop_
 _symmetry_equiv_pos_site_id
 _symmetry_equiv_pos_as_xyz
  1  'x, y, z'
loop_
 _atom_site_type_symbol
 _atom_site_label
 _atom_site_symmetry_multiplicity
 _atom_site_fract_x
 _atom_site_fract_y
 _atom_site_fract_z
 _atom_site_occupancy
  La  La0  1  0.353365  0.353365  0.353365  1
  La  La1  1  0.345830  0.345830  0.954272  1
  La  La2  1  0.345830  0.954272  0.345830  1
  La  La3  1  0.954272  0.345830  0.345830  1
  Pr  Pr4  1  0.817671  0.188258  0.188258  1
  Pr  Pr5  1  0.190070  0.807228  0.807228  1
  Pr  Pr6  1  0.188258  0.817671  0.188258  1
  Pr  Pr7  1  0.807228  0.190070  0.807228  1
  Pr  Pr8  1  0.188258  0.188258  0.817671  1
  Pr  Pr9  1  0.807228  0.807228  0.190070  1
  Pr  Pr10  1  0.933304  0.564935  0.564935  1
  Pr  Pr11  1  0.556630  0.937073  0.937073  1
  Pr  Pr12  1  0.564935  0.933304  0.564935  1
  Pr  Pr13  1  0.937073  0.556630  0.937073  1
  Pr  Pr14  1  0.564935  0.564935  0.933304  1
  Pr  Pr15  1  0.937073  0.937073  0.556630  1
  Cd  Cd16  1  0.579551  0.579551  0.579551  1
  Cd  Cd17  1  0.580288  0.580288  0.258229  1
  Cd  Cd18  1  0.580288  0.258229  0.580288  1
  Cd  Cd19  1  0.258229  0.580288  0.580288  1
  Tc  Tc20  1  0.144768  0.144768  0.144768  1
  Pd  Pd21  1  0.146524  0.146524  0.571869  1
  Pd  Pd22  1  0.146524  0.571869  0.146524  1
  Pd  Pd23  1  0.571869  0.146524  0.146524  1
