# generated using pymatgen
data_Dy5Tm3Hg4
_symmetry_space_group_name_H-M   'P 1'
_cell_length_a   5.07217900
_cell_length_b   7.07973115
_cell_length_c   9.18839929
_cell_angle_alpha   90.02886235
_cell_angle_beta   90.00000000
_cell_angle_gamma   90.00000000
_symmetry_Int_Tables_number   1
_chemical_formula_structural   Dy5Tm3Hg4
_chemical_formula_sum   'Dy5 Tm3 Hg4'
_cell_volume   329.95228614
_cell_formula_units_Z   1
loop_
 _symmetry_equiv_pos_site_id
 _symmetry_equiv_pos_as_xyz
  1  'x, y, z'
loop_
 _atom_site_type_symbol
 _atom_site_label
 _atom_site_symmetry_multiplicity
 _atom_site_fract_x
 _atom_site_fract_y
 _atom_site_fract_z
 _atom_site_occupancy
  Dy  Dy0  1  0.750000  0.666707  0.424466  1
  Dy  Dy1  1  0.250000  0.985711  0.308606  1
  Dy  Dy2  1  0.250000  0.483811  0.190080  1
  Dy  Dy3  1  0.750000  0.015921  0.691844  1
  Dy  Dy4  1  0.750000  0.515248  0.808793  1
  Tm  Tm5  1  0.250000  0.835476  0.925839  1
  Tm  Tm6  1  0.250000  0.332710  0.575365  1
  Tm  Tm7  1  0.750000  0.165998  0.074764  1
  Hg  Hg8  1  0.250000  0.258693  0.897355  1
  Hg  Hg9  1  0.250000  0.758549  0.605234  1
  Hg  Hg10  1  0.750000  0.742473  0.100290  1
  Hg  Hg11  1  0.750000  0.238706  0.397365  1
