# generated using pymatgen
data_Na3GaSi3Pt4
_symmetry_space_group_name_H-M   'P 1'
_cell_length_a   6.68265237
_cell_length_b   6.51394555
_cell_length_c   6.51394598
_cell_angle_alpha   108.94063705
_cell_angle_beta   109.99672998
_cell_angle_gamma   109.99672893
_symmetry_Int_Tables_number   1
_chemical_formula_structural   Na3GaSi3Pt4
_chemical_formula_sum   'Na3 Ga1 Si3 Pt4'
_cell_volume   216.84901870
_cell_formula_units_Z   1
loop_
 _symmetry_equiv_pos_site_id
 _symmetry_equiv_pos_as_xyz
  1  'x, y, z'
loop_
 _atom_site_type_symbol
 _atom_site_label
 _atom_site_symmetry_multiplicity
 _atom_site_fract_x
 _atom_site_fract_y
 _atom_site_fract_z
 _atom_site_occupancy
  Na  Na0  1  0.498494  0.499892  0.000000  1
  Na  Na1  1  0.498494  0.000000  0.499892  1
  Na  Na2  1  0.998602  0.500108  0.500108  1
  Ga  Ga3  1  0.366793  0.000000  0.000000  1
  Si  Si4  1  0.004759  0.361840  0.000000  1
  Si  Si5  1  0.004759  0.000000  0.361840  1
  Si  Si6  1  0.642919  0.638160  0.638160  1
  Pt  Pt7  1  0.730114  0.000000  0.000000  1
  Pt  Pt8  1  0.987312  0.706871  0.000000  1
  Pt  Pt9  1  0.280442  0.293130  0.293130  1
  Pt  Pt10  1  0.987312  0.000000  0.706871  1
