# generated using pymatgen
data_Tb5Er11CdIn3Ir4
_symmetry_space_group_name_H-M   'P 1'
_cell_length_a   9.61703084
_cell_length_b   9.61097011
_cell_length_c   9.61097002
_cell_angle_alpha   60.02410961
_cell_angle_beta   60.09497562
_cell_angle_gamma   60.09498155
_symmetry_Int_Tables_number   1
_chemical_formula_structural   Tb5Er11CdIn3Ir4
_chemical_formula_sum   'Tb5 Er11 Cd1 In3 Ir4'
_cell_volume   629.16092181
_cell_formula_units_Z   1
loop_
 _symmetry_equiv_pos_site_id
 _symmetry_equiv_pos_as_xyz
  1  'x, y, z'
loop_
 _atom_site_type_symbol
 _atom_site_label
 _atom_site_symmetry_multiplicity
 _atom_site_fract_x
 _atom_site_fract_y
 _atom_site_fract_z
 _atom_site_occupancy
  Tb  Tb0  1  0.810229  0.190578  0.190578  1
  Tb  Tb1  1  0.813610  0.187907  0.810555  1
  Tb  Tb2  1  0.192319  0.809721  0.188166  1
  Tb  Tb3  1  0.813610  0.810555  0.187907  1
  Tb  Tb4  1  0.192319  0.188166  0.809721  1
  Er  Er5  1  0.598316  0.596592  0.596592  1
  Er  Er6  1  0.599675  0.600650  0.203592  1
  Er  Er7  1  0.599675  0.203592  0.600650  1
  Er  Er8  1  0.202875  0.599886  0.599886  1
  Er  Er9  1  0.058634  0.440200  0.440200  1
  Er  Er10  1  0.436281  0.061114  0.061114  1
  Er  Er11  1  0.439031  0.059752  0.439664  1
  Er  Er12  1  0.059211  0.438781  0.059083  1
  Er  Er13  1  0.439031  0.439664  0.059752  1
  Er  Er14  1  0.059211  0.059083  0.438781  1
  Er  Er15  1  0.191136  0.811015  0.811015  1
  Cd  Cd16  1  0.503710  0.831434  0.831434  1
  In  In17  1  0.831487  0.832518  0.832518  1
  In  In18  1  0.830105  0.832339  0.504532  1
  In  In19  1  0.830105  0.504532  0.832339  1
  Ir  Ir20  1  0.391697  0.391867  0.391867  1
  Ir  Ir21  1  0.390363  0.392383  0.826632  1
  Ir  Ir22  1  0.390363  0.826632  0.392383  1
  Ir  Ir23  1  0.827012  0.391038  0.391038  1
