# generated using pymatgen
data_La4Tb3PaTe12
_symmetry_space_group_name_H-M   'P 1'
_cell_length_a   4.45044400
_cell_length_b   11.88560254
_cell_length_c   12.20897330
_cell_angle_alpha   90.35685609
_cell_angle_beta   90.00000000
_cell_angle_gamma   90.00000000
_symmetry_Int_Tables_number   1
_chemical_formula_structural   La4Tb3PaTe12
_chemical_formula_sum   'La4 Tb3 Pa1 Te12'
_cell_volume   645.79587118
_cell_formula_units_Z   1
loop_
 _symmetry_equiv_pos_site_id
 _symmetry_equiv_pos_as_xyz
  1  'x, y, z'
loop_
 _atom_site_type_symbol
 _atom_site_label
 _atom_site_symmetry_multiplicity
 _atom_site_fract_x
 _atom_site_fract_y
 _atom_site_fract_z
 _atom_site_occupancy
  La  La0  1  0.750000  0.505969  0.695688  1
  La  La1  1  0.750000  0.995092  0.198947  1
  La  La2  1  0.250000  0.499963  0.301150  1
  La  La3  1  0.250000  0.000138  0.805075  1
  Tb  Tb4  1  0.250000  0.311254  0.986165  1
  Tb  Tb5  1  0.750000  0.811418  0.514419  1
  Tb  Tb6  1  0.750000  0.688449  0.014340  1
  Pa  Pa7  1  0.250000  0.189233  0.487116  1
  Te  Te8  1  0.250000  0.630164  0.540869  1
  Te  Te9  1  0.250000  0.869194  0.042501  1
  Te  Te10  1  0.750000  0.369600  0.453966  1
  Te  Te11  1  0.750000  0.130421  0.958871  1
  Te  Te12  1  0.250000  0.296812  0.725572  1
  Te  Te13  1  0.250000  0.203384  0.231579  1
  Te  Te14  1  0.750000  0.704653  0.271358  1
  Te  Te15  1  0.750000  0.795828  0.770689  1
  Te  Te16  1  0.750000  0.056999  0.614499  1
  Te  Te17  1  0.750000  0.444475  0.112499  1
  Te  Te18  1  0.250000  0.943452  0.388023  1
  Te  Te19  1  0.250000  0.553501  0.886672  1
