# generated using pymatgen
data_Zn2Pd5PtO12
_symmetry_space_group_name_H-M   'P 1'
_cell_length_a   3.18194900
_cell_length_b   7.22245959
_cell_length_c   10.04309102
_cell_angle_alpha   89.93223974
_cell_angle_beta   90.00000000
_cell_angle_gamma   90.00000000
_symmetry_Int_Tables_number   1
_chemical_formula_structural   Zn2Pd5PtO12
_chemical_formula_sum   'Zn2 Pd5 Pt1 O12'
_cell_volume   230.80511532
_cell_formula_units_Z   1
loop_
 _symmetry_equiv_pos_site_id
 _symmetry_equiv_pos_as_xyz
  1  'x, y, z'
loop_
 _atom_site_type_symbol
 _atom_site_label
 _atom_site_symmetry_multiplicity
 _atom_site_fract_x
 _atom_site_fract_y
 _atom_site_fract_z
 _atom_site_occupancy
  Zn  Zn0  1  0.000000  0.003838  0.997782  1
  Zn  Zn1  1  0.000000  0.496298  0.501894  1
  Pd  Pd2  1  0.000000  0.001060  0.500778  1
  Pd  Pd3  1  0.000000  0.498948  0.999162  1
  Pd  Pd4  1  0.500000  0.244976  0.247718  1
  Pd  Pd5  1  0.500000  0.754834  0.752356  1
  Pd  Pd6  1  0.500000  0.254902  0.747701  1
  Pt  Pt7  1  0.500000  0.745411  0.252234  1
  O  O8  1  0.500000  0.993140  0.148831  1
  O  O9  1  0.500000  0.005004  0.850981  1
  O  O10  1  0.500000  0.505153  0.649114  1
  O  O11  1  0.500000  0.496724  0.351490  1
  O  O12  1  0.000000  0.205260  0.370648  1
  O  O13  1  0.000000  0.796084  0.629723  1
  O  O14  1  0.000000  0.294339  0.870536  1
  O  O15  1  0.000000  0.705094  0.130788  1
  O  O16  1  0.000000  0.285264  0.123344  1
  O  O17  1  0.000000  0.713152  0.876316  1
  O  O18  1  0.000000  0.214871  0.623505  1
  O  O19  1  0.000000  0.785646  0.375100  1
