# generated using pymatgen
data_Ho20Cd6RuRh
_symmetry_space_group_name_H-M   'P 1'
_cell_length_a   9.57878500
_cell_length_b   9.57878462
_cell_length_c   9.77586500
_cell_angle_alpha   90.00000000
_cell_angle_beta   90.00000000
_cell_angle_gamma   119.99999785
_symmetry_Int_Tables_number   1
_chemical_formula_structural   Ho20Cd6RuRh
_chemical_formula_sum   'Ho20 Cd6 Ru1 Rh1'
_cell_volume   776.79544522
_cell_formula_units_Z   1
loop_
 _symmetry_equiv_pos_site_id
 _symmetry_equiv_pos_as_xyz
  1  'x, y, z'
loop_
 _atom_site_type_symbol
 _atom_site_label
 _atom_site_symmetry_multiplicity
 _atom_site_fract_x
 _atom_site_fract_y
 _atom_site_fract_z
 _atom_site_occupancy
  Ho  Ho0  1  0.000000  0.000000  0.499667  1
  Ho  Ho1  1  0.000000  0.000000  0.000333  1
  Ho  Ho2  1  0.209478  0.790522  0.440325  1
  Ho  Ho3  1  0.209478  0.418956  0.440325  1
  Ho  Ho4  1  0.581044  0.790522  0.440325  1
  Ho  Ho5  1  0.790159  0.209841  0.560261  1
  Ho  Ho6  1  0.790159  0.580316  0.560261  1
  Ho  Ho7  1  0.419684  0.209841  0.560261  1
  Ho  Ho8  1  0.790159  0.209841  0.939739  1
  Ho  Ho9  1  0.790159  0.580316  0.939739  1
  Ho  Ho10  1  0.419684  0.209841  0.939739  1
  Ho  Ho11  1  0.209478  0.790522  0.059675  1
  Ho  Ho12  1  0.209478  0.418956  0.059675  1
  Ho  Ho13  1  0.581044  0.790522  0.059675  1
  Ho  Ho14  1  0.542011  0.457989  0.250000  1
  Ho  Ho15  1  0.542011  0.084023  0.250000  1
  Ho  Ho16  1  0.915977  0.457989  0.250000  1
  Ho  Ho17  1  0.458717  0.541283  0.750000  1
  Ho  Ho18  1  0.458717  0.917435  0.750000  1
  Ho  Ho19  1  0.082565  0.541283  0.750000  1
  Cd  Cd20  1  0.885226  0.114774  0.250000  1
  Cd  Cd21  1  0.885226  0.770455  0.250000  1
  Cd  Cd22  1  0.229545  0.114774  0.250000  1
  Cd  Cd23  1  0.114821  0.885179  0.750000  1
  Cd  Cd24  1  0.114821  0.229640  0.750000  1
  Cd  Cd25  1  0.770360  0.885179  0.750000  1
  Ru  Ru26  1  0.666667  0.333333  0.750000  1
  Rh  Rh27  1  0.333333  0.666667  0.250000  1
