# generated using pymatgen
data_In14CuNi5
_symmetry_space_group_name_H-M   'P 1'
_cell_length_a   8.06898355
_cell_length_b   8.06898400
_cell_length_c   8.06898340
_cell_angle_alpha   109.20729489
_cell_angle_beta   109.60334473
_cell_angle_gamma   109.60334700
_symmetry_Int_Tables_number   1
_chemical_formula_structural   In14CuNi5
_chemical_formula_sum   'In14 Cu1 Ni5'
_cell_volume   404.41540734
_cell_formula_units_Z   1
loop_
 _symmetry_equiv_pos_site_id
 _symmetry_equiv_pos_as_xyz
  1  'x, y, z'
loop_
 _atom_site_type_symbol
 _atom_site_label
 _atom_site_symmetry_multiplicity
 _atom_site_fract_x
 _atom_site_fract_y
 _atom_site_fract_z
 _atom_site_occupancy
  In  In0  1  0.500000  0.751070  0.251070  1
  In  In1  1  0.500000  0.251070  0.751070  1
  In  In2  1  0.252716  0.504302  0.757017  1
  In  In3  1  0.747284  0.504302  0.251586  1
  In  In4  1  0.747284  0.251586  0.504302  1
  In  In5  1  0.252716  0.757017  0.504302  1
  In  In6  1  0.325816  0.321008  0.321008  1
  In  In7  1  0.677381  0.676935  0.676935  1
  In  In8  1  0.000000  0.999555  0.676935  1
  In  In9  1  0.000000  0.676935  0.999555  1
  In  In10  1  0.000000  0.995193  0.321008  1
  In  In11  1  0.000000  0.321008  0.995193  1
  In  In12  1  0.674184  0.995193  0.995193  1
  In  In13  1  0.322619  0.999555  0.999555  1
  Cu  Cu14  1  0.000000  0.354326  0.354326  1
  Ni  Ni15  1  0.000000  0.642701  0.642701  1
  Ni  Ni16  1  0.354216  0.999561  0.353776  1
  Ni  Ni17  1  0.645784  0.999561  0.645345  1
  Ni  Ni18  1  0.354216  0.353776  0.999561  1
  Ni  Ni19  1  0.645784  0.645345  0.999561  1
