# generated using pymatgen
data_Ho3Tm8ThCo4
_symmetry_space_group_name_H-M   'P 1'
_cell_length_a   6.17209786
_cell_length_b   6.87822017
_cell_length_c   9.33727500
_cell_angle_alpha   90.00000000
_cell_angle_beta   90.00000000
_cell_angle_gamma   91.05831968
_symmetry_Int_Tables_number   1
_chemical_formula_structural   Ho3Tm8ThCo4
_chemical_formula_sum   'Ho3 Tm8 Th1 Co4'
_cell_volume   396.32816346
_cell_formula_units_Z   1
loop_
 _symmetry_equiv_pos_site_id
 _symmetry_equiv_pos_as_xyz
  1  'x, y, z'
loop_
 _atom_site_type_symbol
 _atom_site_label
 _atom_site_symmetry_multiplicity
 _atom_site_fract_x
 _atom_site_fract_y
 _atom_site_fract_z
 _atom_site_occupancy
  Ho  Ho0  1  0.137681  0.040694  0.250000  1
  Ho  Ho1  1  0.859857  0.958235  0.750000  1
  Ho  Ho2  1  0.641552  0.457436  0.750000  1
  Tm  Tm3  1  0.673547  0.175151  0.067615  1
  Tm  Tm4  1  0.827680  0.675220  0.433942  1
  Tm  Tm5  1  0.323975  0.827513  0.930755  1
  Tm  Tm6  1  0.175780  0.323928  0.568617  1
  Tm  Tm7  1  0.673547  0.175151  0.432385  1
  Tm  Tm8  1  0.175780  0.323928  0.931383  1
  Tm  Tm9  1  0.323975  0.827513  0.569245  1
  Tm  Tm10  1  0.827680  0.675220  0.066058  1
  Th  Th11  1  0.350146  0.551984  0.250000  1
  Co  Co12  1  0.963540  0.387863  0.250000  1
  Co  Co13  1  0.452309  0.114788  0.750000  1
  Co  Co14  1  0.545032  0.871900  0.250000  1
  Co  Co15  1  0.047916  0.613476  0.750000  1
