# generated using pymatgen
data_CaSmCo3B8Os5
_symmetry_space_group_name_H-M   'P 1'
_cell_length_a   7.37632900
_cell_length_b   7.29541953
_cell_length_c   3.97611709
_cell_angle_alpha   89.98631423
_cell_angle_beta   90.36059312
_cell_angle_gamma   90.94036662
_symmetry_Int_Tables_number   1
_chemical_formula_structural   CaSmCo3B8Os5
_chemical_formula_sum   'Ca1 Sm1 Co3 B8 Os5'
_cell_volume   213.93538105
_cell_formula_units_Z   1
loop_
 _symmetry_equiv_pos_site_id
 _symmetry_equiv_pos_as_xyz
  1  'x, y, z'
loop_
 _atom_site_type_symbol
 _atom_site_label
 _atom_site_symmetry_multiplicity
 _atom_site_fract_x
 _atom_site_fract_y
 _atom_site_fract_z
 _atom_site_occupancy
  Ca  Ca0  1  0.998628  0.998573  0.927191  1
  Sm  Sm1  1  0.507421  0.500295  0.400524  1
  Co  Co2  1  0.876658  0.626090  0.624691  1
  Co  Co3  1  0.114332  0.625696  0.122279  1
  Co  Co4  1  0.868964  0.388567  0.124236  1
  B  B5  1  0.815650  0.662770  0.119632  1
  B  B6  1  0.195874  0.334481  0.122341  1
  B  B7  1  0.839704  0.312794  0.621702  1
  B  B8  1  0.156070  0.685181  0.620519  1
  B  B9  1  0.728237  0.828040  0.401548  1
  B  B10  1  0.278597  0.166958  0.398550  1
  B  B11  1  0.673430  0.227648  0.901300  1
  B  B12  1  0.322769  0.775296  0.901346  1
  Os  Os13  1  0.394050  0.151574  0.897315  1
  Os  Os14  1  0.609568  0.841936  0.897297  1
  Os  Os15  1  0.345246  0.883994  0.397243  1
  Os  Os16  1  0.656529  0.109019  0.397665  1
  Os  Os17  1  0.118274  0.381090  0.624618  1
