# generated using pymatgen
data_Lu3Si3Ru2
_symmetry_space_group_name_H-M   'P 1'
_cell_length_a   5.63811789
_cell_length_b   5.63811739
_cell_length_c   13.54278900
_cell_angle_alpha   90.00000000
_cell_angle_beta   90.00000000
_cell_angle_gamma   136.94254883
_symmetry_Int_Tables_number   1
_chemical_formula_structural   Lu3Si3Ru2
_chemical_formula_sum   'Lu6 Si6 Ru4'
_cell_volume   293.91802952
_cell_formula_units_Z   2
loop_
 _symmetry_equiv_pos_site_id
 _symmetry_equiv_pos_as_xyz
  1  'x, y, z'
loop_
 _atom_site_type_symbol
 _atom_site_label
 _atom_site_symmetry_multiplicity
 _atom_site_fract_x
 _atom_site_fract_y
 _atom_site_fract_z
 _atom_site_occupancy
  Lu  Lu0  1  0.924460  0.075540  0.385627  1
  Lu  Lu1  1  0.075540  0.924460  0.614373  1
  Lu  Lu2  1  0.924460  0.075540  0.114373  1
  Lu  Lu3  1  0.075540  0.924460  0.885627  1
  Lu  Lu4  1  0.644076  0.355924  0.250000  1
  Lu  Lu5  1  0.355924  0.644076  0.750000  1
  Si  Si6  1  0.614600  0.385400  0.461520  1
  Si  Si7  1  0.385400  0.614600  0.538480  1
  Si  Si8  1  0.614600  0.385400  0.038480  1
  Si  Si9  1  0.385400  0.614600  0.961520  1
  Si  Si10  1  0.333229  0.666771  0.250000  1
  Si  Si11  1  0.666771  0.333229  0.750000  1
  Ru  Ru12  1  0.787466  0.212534  0.917971  1
  Ru  Ru13  1  0.212534  0.787466  0.082029  1
  Ru  Ru14  1  0.787466  0.212534  0.582029  1
  Ru  Ru15  1  0.212534  0.787466  0.417971  1
