# generated using pymatgen
data_Ho3Lu9OsRu3
_symmetry_space_group_name_H-M   'P 1'
_cell_length_a   6.18722649
_cell_length_b   7.29310271
_cell_length_c   8.88968700
_cell_angle_alpha   90.00000000
_cell_angle_beta   90.00000000
_cell_angle_gamma   89.83348033
_symmetry_Int_Tables_number   1
_chemical_formula_structural   Ho3Lu9OsRu3
_chemical_formula_sum   'Ho3 Lu9 Os1 Ru3'
_cell_volume   401.13723813
_cell_formula_units_Z   1
loop_
 _symmetry_equiv_pos_site_id
 _symmetry_equiv_pos_as_xyz
  1  'x, y, z'
loop_
 _atom_site_type_symbol
 _atom_site_label
 _atom_site_symmetry_multiplicity
 _atom_site_fract_x
 _atom_site_fract_y
 _atom_site_fract_z
 _atom_site_occupancy
  Ho  Ho0  1  0.869512  0.538838  0.250000  1
  Ho  Ho1  1  0.129209  0.459772  0.750000  1
  Ho  Ho2  1  0.370455  0.958929  0.750000  1
  Lu  Lu3  1  0.334170  0.676906  0.064337  1
  Lu  Lu4  1  0.167249  0.175004  0.435956  1
  Lu  Lu5  1  0.664532  0.323722  0.563238  1
  Lu  Lu6  1  0.835124  0.826743  0.938625  1
  Lu  Lu7  1  0.664532  0.323722  0.936762  1
  Lu  Lu8  1  0.835124  0.826743  0.561375  1
  Lu  Lu9  1  0.334170  0.676906  0.435663  1
  Lu  Lu10  1  0.167249  0.175004  0.064044  1
  Lu  Lu11  1  0.628145  0.040759  0.250000  1
  Os  Os12  1  0.038964  0.883639  0.250000  1
  Ru  Ru13  1  0.459708  0.382957  0.250000  1
  Ru  Ru14  1  0.958728  0.115032  0.750000  1
  Ru  Ru15  1  0.543130  0.615328  0.750000  1
