# generated using pymatgen
data_Zr12Al9Tc3C4
_symmetry_space_group_name_H-M   'P 1'
_cell_length_a   8.73080138
_cell_length_b   8.73080102
_cell_length_c   8.74294700
_cell_angle_alpha   60.04593690
_cell_angle_beta   60.04594582
_cell_angle_gamma   59.99999180
_symmetry_Int_Tables_number   1
_chemical_formula_structural   Zr12Al9Tc3C4
_chemical_formula_sum   'Zr12 Al9 Tc3 C4'
_cell_volume   471.57659995
_cell_formula_units_Z   1
loop_
 _symmetry_equiv_pos_site_id
 _symmetry_equiv_pos_as_xyz
  1  'x, y, z'
loop_
 _atom_site_type_symbol
 _atom_site_label
 _atom_site_symmetry_multiplicity
 _atom_site_fract_x
 _atom_site_fract_y
 _atom_site_fract_z
 _atom_site_occupancy
  Zr  Zr0  1  0.443810  0.443810  0.052725  1
  Zr  Zr1  1  0.059656  0.443810  0.052725  1
  Zr  Zr2  1  0.443810  0.059656  0.052725  1
  Zr  Zr3  1  0.055948  0.055948  0.443807  1
  Zr  Zr4  1  0.444295  0.055948  0.443807  1
  Zr  Zr5  1  0.055948  0.444295  0.443807  1
  Zr  Zr6  1  0.806190  0.806190  0.197275  1
  Zr  Zr7  1  0.190344  0.806190  0.197275  1
  Zr  Zr8  1  0.806190  0.190344  0.197275  1
  Zr  Zr9  1  0.194052  0.194052  0.806193  1
  Zr  Zr10  1  0.805705  0.194052  0.806193  1
  Zr  Zr11  1  0.194052  0.805705  0.806193  1
  Al  Al12  1  0.831280  0.831280  0.506162  1
  Al  Al13  1  0.837116  0.505888  0.819880  1
  Al  Al14  1  0.505888  0.837116  0.819880  1
  Al  Al15  1  0.837116  0.837116  0.819880  1
  Al  Al16  1  0.418720  0.418720  0.743838  1
  Al  Al17  1  0.412884  0.744112  0.430120  1
  Al  Al18  1  0.744112  0.412884  0.430120  1
  Al  Al19  1  0.412884  0.412884  0.430120  1
  Al  Al20  1  0.625000  0.625000  0.125000  1
  Tc  Tc21  1  0.625000  0.125000  0.625000  1
  Tc  Tc22  1  0.125000  0.625000  0.625000  1
  Tc  Tc23  1  0.625000  0.625000  0.625000  1
  C  C24  1  0.125000  0.125000  0.625000  1
  C  C25  1  0.125000  0.625000  0.125000  1
  C  C26  1  0.625000  0.125000  0.125000  1
  C  C27  1  0.125000  0.125000  0.125000  1
