# generated using pymatgen
data_RbAcO2
_symmetry_space_group_name_H-M   'P 1'
_cell_length_a   7.03350942
_cell_length_b   7.03350899
_cell_length_c   7.03351056
_cell_angle_alpha   32.16607817
_cell_angle_beta   32.16608419
_cell_angle_gamma   32.16608255
_symmetry_Int_Tables_number   1
_chemical_formula_structural   RbAcO2
_chemical_formula_sum   'Rb1 Ac1 O2'
_cell_volume   87.64360076
_cell_formula_units_Z   1
loop_
 _symmetry_equiv_pos_site_id
 _symmetry_equiv_pos_as_xyz
  1  'x, y, z'
loop_
 _atom_site_type_symbol
 _atom_site_label
 _atom_site_symmetry_multiplicity
 _atom_site_fract_x
 _atom_site_fract_y
 _atom_site_fract_z
 _atom_site_occupancy
  Rb  Rb0  1  0.000000  0.000000  0.000000  1
  Ac  Ac1  1  0.500000  0.500000  0.500000  1
  O  O2  1  0.772143  0.772143  0.772143  1
  O  O3  1  0.227857  0.227857  0.227857  1
