# generated using pymatgen
data_Y5HoB14OsW
_symmetry_space_group_name_H-M   'P 1'
_cell_length_a   8.12525824
_cell_length_b   8.12525749
_cell_length_c   9.41050429
_cell_angle_alpha   90.02765427
_cell_angle_beta   89.97234485
_cell_angle_gamma   155.10471048
_symmetry_Int_Tables_number   1
_chemical_formula_structural   Y5HoB14OsW
_chemical_formula_sum   'Y5 Ho1 B14 Os1 W1'
_cell_volume   261.53466484
_cell_formula_units_Z   1
loop_
 _symmetry_equiv_pos_site_id
 _symmetry_equiv_pos_as_xyz
  1  'x, y, z'
loop_
 _atom_site_type_symbol
 _atom_site_label
 _atom_site_symmetry_multiplicity
 _atom_site_fract_x
 _atom_site_fract_y
 _atom_site_fract_z
 _atom_site_occupancy
  Y  Y0  1  0.107071  0.892929  0.058879  1
  Y  Y1  1  0.754861  0.245139  0.249977  1
  Y  Y2  1  0.243766  0.756234  0.750125  1
  Y  Y3  1  0.894025  0.105975  0.562672  1
  Y  Y4  1  0.107050  0.892950  0.441071  1
  Ho  Ho5  1  0.894235  0.105765  0.938018  1
  B  B6  1  0.544969  0.455031  0.249923  1
  B  B7  1  0.458289  0.541711  0.750381  1
  B  B8  1  0.521115  0.478885  0.903457  1
  B  B9  1  0.480111  0.519889  0.090754  1
  B  B10  1  0.480263  0.519737  0.408868  1
  B  B11  1  0.521290  0.478710  0.596737  1
  B  B12  1  0.631778  0.368222  0.848814  1
  B  B13  1  0.365306  0.634694  0.146744  1
  B  B14  1  0.726823  0.273177  0.964918  1
  B  B15  1  0.272107  0.727893  0.031974  1
  B  B16  1  0.271891  0.728109  0.467825  1
  B  B17  1  0.726581  0.273419  0.534975  1
  B  B18  1  0.631770  0.368230  0.651196  1
  B  B19  1  0.365283  0.634717  0.352771  1
  Os  Os20  1  0.054167  0.945833  0.750163  1
  W  W21  1  0.947250  0.052750  0.249759  1
