# generated using pymatgen
data_Pr2Sn2BRh6
_symmetry_space_group_name_H-M   'P 1'
_cell_length_a   5.92345700
_cell_length_b   5.92345654
_cell_length_c   13.53754200
_cell_angle_alpha   90.00000000
_cell_angle_beta   90.00000000
_cell_angle_gamma   119.99999697
_symmetry_Int_Tables_number   1
_chemical_formula_structural   Pr2Sn2BRh6
_chemical_formula_sum   'Pr4 Sn4 B2 Rh12'
_cell_volume   411.35891013
_cell_formula_units_Z   2
loop_
 _symmetry_equiv_pos_site_id
 _symmetry_equiv_pos_as_xyz
  1  'x, y, z'
loop_
 _atom_site_type_symbol
 _atom_site_label
 _atom_site_symmetry_multiplicity
 _atom_site_fract_x
 _atom_site_fract_y
 _atom_site_fract_z
 _atom_site_occupancy
  Pr  Pr0  1  0.333333  0.666667  0.404672  1
  Pr  Pr1  1  0.666667  0.333333  0.904672  1
  Pr  Pr2  1  0.666667  0.333333  0.595328  1
  Pr  Pr3  1  0.333333  0.666667  0.095328  1
  Sn  Sn4  1  0.000000  0.000000  0.750000  1
  Sn  Sn5  1  0.000000  0.000000  0.250000  1
  Sn  Sn6  1  0.333333  0.666667  0.750000  1
  Sn  Sn7  1  0.666667  0.333333  0.250000  1
  B  B8  1  0.000000  0.000000  0.500000  1
  B  B9  1  0.000000  0.000000  0.000000  1
  Rh  Rh10  1  0.336272  0.168137  0.407656  1
  Rh  Rh11  1  0.831863  0.168137  0.407656  1
  Rh  Rh12  1  0.831863  0.663728  0.407656  1
  Rh  Rh13  1  0.168137  0.336272  0.907656  1
  Rh  Rh14  1  0.663728  0.831863  0.592344  1
  Rh  Rh15  1  0.663728  0.831863  0.907656  1
  Rh  Rh16  1  0.336272  0.168137  0.092344  1
  Rh  Rh17  1  0.168137  0.336272  0.592344  1
  Rh  Rh18  1  0.168137  0.831863  0.592344  1
  Rh  Rh19  1  0.831863  0.168137  0.092344  1
  Rh  Rh20  1  0.831863  0.663728  0.092344  1
  Rh  Rh21  1  0.168137  0.831863  0.907656  1
