# generated using pymatgen
data_Tb4Ga20CuNi10
_symmetry_space_group_name_H-M   'P 1'
_cell_length_a   4.08447499
_cell_length_b   10.61517042
_cell_length_c   13.01956392
_cell_angle_alpha   80.66888103
_cell_angle_beta   80.79289137
_cell_angle_gamma   78.65360528
_symmetry_Int_Tables_number   1
_chemical_formula_structural   Tb4Ga20CuNi10
_chemical_formula_sum   'Tb4 Ga20 Cu1 Ni10'
_cell_volume   541.32950887
_cell_formula_units_Z   1
loop_
 _symmetry_equiv_pos_site_id
 _symmetry_equiv_pos_as_xyz
  1  'x, y, z'
loop_
 _atom_site_type_symbol
 _atom_site_label
 _atom_site_symmetry_multiplicity
 _atom_site_fract_x
 _atom_site_fract_y
 _atom_site_fract_z
 _atom_site_occupancy
  Tb  Tb0  1  0.122138  0.096024  0.664698  1
  Tb  Tb1  1  0.232062  0.365418  0.177849  1
  Tb  Tb2  1  0.772843  0.634629  0.821285  1
  Tb  Tb3  1  0.883589  0.904074  0.334490  1
  Ga  Ga4  1  0.066476  0.665587  0.203839  1
  Ga  Ga5  1  0.300482  0.901199  0.502370  1
  Ga  Ga6  1  0.609068  0.793547  0.002380  1
  Ga  Ga7  1  0.251668  0.797818  0.703760  1
  Ga  Ga8  1  0.889752  0.673558  0.549362  1
  Ga  Ga9  1  0.753703  0.202339  0.295466  1
  Ga  Ga10  1  0.633224  0.941251  0.802728  1
  Ga  Ga11  1  0.705279  0.098772  0.496759  1
  Ga  Ga12  1  0.395582  0.206549  0.997033  1
  Ga  Ga13  1  0.938163  0.334818  0.795252  1
  Ga  Ga14  1  0.463955  0.705466  0.372843  1
  Ga  Ga15  1  0.994669  0.922224  0.090198  1
  Ga  Ga16  1  0.802318  0.399473  0.002579  1
  Ga  Ga17  1  0.541940  0.294535  0.626287  1
  Ga  Ga18  1  0.011614  0.078023  0.908981  1
  Ga  Ga19  1  0.200866  0.600969  0.996800  1
  Ga  Ga20  1  0.115906  0.326663  0.449399  1
  Ga  Ga21  1  0.371829  0.058815  0.196590  1
  Ga  Ga22  1  0.615035  0.474593  0.302532  1
  Ga  Ga23  1  0.390485  0.525434  0.696363  1
  Cu  Cu24  1  0.503410  0.499438  0.499196  1
  Ni  Ni25  1  0.138818  0.838928  0.894837  1
  Ni  Ni26  1  0.506592  0.182600  0.812968  1
  Ni  Ni27  1  0.863892  0.160652  0.104991  1
  Ni  Ni28  1  0.977619  0.438494  0.610453  1
  Ni  Ni29  1  0.653046  0.581227  0.113082  1
  Ni  Ni30  1  0.028931  0.561641  0.388503  1
  Ni  Ni31  1  0.349574  0.419082  0.886541  1
  Ni  Ni32  1  0.250892  0.118086  0.386540  1
  Ni  Ni33  1  0.498884  0.817848  0.186049  1
  Ni  Ni34  1  0.754503  0.882149  0.612637  1
