# generated using pymatgen
data_Er5P12IrRu18
_symmetry_space_group_name_H-M   'P 1'
_cell_length_a   12.52317800
_cell_length_b   12.52317812
_cell_length_c   3.97332800
_cell_angle_alpha   90.00000000
_cell_angle_beta   90.00000000
_cell_angle_gamma   119.99999440
_symmetry_Int_Tables_number   1
_chemical_formula_structural   Er5P12IrRu18
_chemical_formula_sum   'Er5 P12 Ir1 Ru18'
_cell_volume   539.65248987
_cell_formula_units_Z   1
loop_
 _symmetry_equiv_pos_site_id
 _symmetry_equiv_pos_as_xyz
  1  'x, y, z'
loop_
 _atom_site_type_symbol
 _atom_site_label
 _atom_site_symmetry_multiplicity
 _atom_site_fract_x
 _atom_site_fract_y
 _atom_site_fract_z
 _atom_site_occupancy
  Er  Er0  1  0.333333  0.666667  0.500000  1
  Er  Er1  1  0.666667  0.333333  0.500000  1
  Er  Er2  1  0.186196  0.186196  0.000000  1
  Er  Er3  1  0.813804  0.000000  0.000000  1
  Er  Er4  1  0.000000  0.813804  0.000000  1
  P  P5  1  0.306981  0.829199  0.000000  1
  P  P6  1  0.170801  0.477782  0.000000  1
  P  P7  1  0.522218  0.693019  0.000000  1
  P  P8  1  0.829199  0.306981  0.000000  1
  P  P9  1  0.477782  0.170801  0.000000  1
  P  P10  1  0.693019  0.522218  0.000000  1
  P  P11  1  0.372628  0.372628  0.500000  1
  P  P12  1  0.627372  0.000000  0.500000  1
  P  P13  1  0.000000  0.627372  0.500000  1
  P  P14  1  0.815130  0.815130  0.500000  1
  P  P15  1  0.184870  0.000000  0.500000  1
  P  P16  1  0.000000  0.184870  0.500000  1
  Ir  Ir17  1  0.000000  0.000000  0.500000  1
  Ru  Ru18  1  0.191833  0.814969  0.500000  1
  Ru  Ru19  1  0.185031  0.376864  0.500000  1
  Ru  Ru20  1  0.623136  0.808167  0.500000  1
  Ru  Ru21  1  0.814969  0.191833  0.500000  1
  Ru  Ru22  1  0.376864  0.185031  0.500000  1
  Ru  Ru23  1  0.808167  0.623136  0.500000  1
  Ru  Ru24  1  0.126579  0.634632  0.000000  1
  Ru  Ru25  1  0.365368  0.491946  0.000000  1
  Ru  Ru26  1  0.508054  0.873421  0.000000  1
  Ru  Ru27  1  0.634632  0.126579  0.000000  1
  Ru  Ru28  1  0.491946  0.365368  0.000000  1
  Ru  Ru29  1  0.873421  0.508054  0.000000  1
  Ru  Ru30  1  0.554885  0.554885  0.500000  1
  Ru  Ru31  1  0.445115  0.000000  0.500000  1
  Ru  Ru32  1  0.000000  0.445115  0.500000  1
  Ru  Ru33  1  0.718491  0.718491  0.000000  1
  Ru  Ru34  1  0.281509  0.000000  0.000000  1
  Ru  Ru35  1  0.000000  0.281509  0.000000  1
