# generated using pymatgen
data_BaNa3TaO5
_symmetry_space_group_name_H-M   'P 1'
_cell_length_a   5.96949243
_cell_length_b   5.96951345
_cell_length_c   9.21943000
_cell_angle_alpha   79.27589536
_cell_angle_beta   79.26724102
_cell_angle_gamma   79.68784253
_symmetry_Int_Tables_number   1
_chemical_formula_structural   BaNa3TaO5
_chemical_formula_sum   'Ba2 Na6 Ta2 O10'
_cell_volume   313.58313746
_cell_formula_units_Z   2
loop_
 _symmetry_equiv_pos_site_id
 _symmetry_equiv_pos_as_xyz
  1  'x, y, z'
loop_
 _atom_site_type_symbol
 _atom_site_label
 _atom_site_symmetry_multiplicity
 _atom_site_fract_x
 _atom_site_fract_y
 _atom_site_fract_z
 _atom_site_occupancy
  Ba  Ba0  1  0.249987  0.750030  0.499997  1
  Ba  Ba1  1  0.750013  0.249970  0.500003  1
  Na  Na2  1  0.352589  0.841987  0.111198  1
  Na  Na3  1  0.158004  0.647407  0.888806  1
  Na  Na4  1  0.647411  0.158013  0.888802  1
  Na  Na5  1  0.813647  0.813649  0.257864  1
  Na  Na6  1  0.841996  0.352593  0.111194  1
  Na  Na7  1  0.186353  0.186351  0.742136  1
  Ta  Ta8  1  0.308541  0.308559  0.257687  1
  Ta  Ta9  1  0.691459  0.691441  0.742313  1
  O  O10  1  0.748240  0.748220  0.523613  1
  O  O11  1  0.251760  0.251780  0.476387  1
  O  O12  1  0.554426  0.118730  0.152116  1
  O  O13  1  0.913216  0.913183  0.733398  1
  O  O14  1  0.524763  0.524786  0.274742  1
  O  O15  1  0.118749  0.554408  0.152117  1
  O  O16  1  0.881251  0.445592  0.847883  1
  O  O17  1  0.475237  0.475214  0.725258  1
  O  O18  1  0.086784  0.086817  0.266602  1
  O  O19  1  0.445574  0.881270  0.847884  1
