# generated using pymatgen
data_Ca20(TlZn3)3
_symmetry_space_group_name_H-M   'P 1'
_cell_length_a   8.03077000
_cell_length_b   8.03077000
_cell_length_c   15.05395300
_cell_angle_alpha   90.00000000
_cell_angle_beta   90.00000000
_cell_angle_gamma   90.00000000
_symmetry_Int_Tables_number   1
_chemical_formula_structural   Ca20(TlZn3)3
_chemical_formula_sum   'Ca20 Tl3 Zn9'
_cell_volume   970.87860712
_cell_formula_units_Z   1
loop_
 _symmetry_equiv_pos_site_id
 _symmetry_equiv_pos_as_xyz
  1  'x, y, z'
loop_
 _atom_site_type_symbol
 _atom_site_label
 _atom_site_symmetry_multiplicity
 _atom_site_fract_x
 _atom_site_fract_y
 _atom_site_fract_z
 _atom_site_occupancy
  Ca  Ca0  1  0.673928  0.166098  0.102332  1
  Ca  Ca1  1  0.170783  0.670098  0.604883  1
  Ca  Ca2  1  0.326072  0.833902  0.102332  1
  Ca  Ca3  1  0.829217  0.329902  0.604883  1
  Ca  Ca4  1  0.833902  0.673928  0.102332  1
  Ca  Ca5  1  0.329902  0.170783  0.604883  1
  Ca  Ca6  1  0.166098  0.326072  0.102332  1
  Ca  Ca7  1  0.670098  0.829217  0.604883  1
  Ca  Ca8  1  0.833902  0.326072  0.897668  1
  Ca  Ca9  1  0.329902  0.829217  0.395117  1
  Ca  Ca10  1  0.166098  0.673928  0.897668  1
  Ca  Ca11  1  0.670098  0.170783  0.395117  1
  Ca  Ca12  1  0.673928  0.833902  0.897668  1
  Ca  Ca13  1  0.170783  0.329902  0.395117  1
  Ca  Ca14  1  0.326072  0.166098  0.897668  1
  Ca  Ca15  1  0.829217  0.670098  0.395117  1
  Ca  Ca16  1  0.500000  0.500000  0.754285  1
  Ca  Ca17  1  0.000000  0.000000  0.250017  1
  Ca  Ca18  1  0.000000  0.000000  0.749983  1
  Ca  Ca19  1  0.500000  0.500000  0.245715  1
  Tl  Tl20  1  0.500000  0.500000  0.500000  1
  Tl  Tl21  1  0.500000  0.500000  0.000000  1
  Tl  Tl22  1  0.000000  0.000000  0.500000  1
  Zn  Zn23  1  0.616937  0.117635  0.751821  1
  Zn  Zn24  1  0.117635  0.616937  0.248179  1
  Zn  Zn25  1  0.882365  0.383063  0.248179  1
  Zn  Zn26  1  0.383063  0.882365  0.751821  1
  Zn  Zn27  1  0.882365  0.616937  0.751821  1
  Zn  Zn28  1  0.383063  0.117635  0.248179  1
  Zn  Zn29  1  0.117635  0.383063  0.751821  1
  Zn  Zn30  1  0.616937  0.882365  0.248179  1
  Zn  Zn31  1  0.000000  0.000000  0.000000  1
