# generated using pymatgen
data_LaCoB4Os3
_symmetry_space_group_name_H-M   'P 1'
_cell_length_a   7.60736154
_cell_length_b   7.45218606
_cell_length_c   3.97569900
_cell_angle_alpha   90.00000000
_cell_angle_beta   90.00000000
_cell_angle_gamma   91.66401697
_symmetry_Int_Tables_number   1
_chemical_formula_structural   LaCoB4Os3
_chemical_formula_sum   'La2 Co2 B8 Os6'
_cell_volume   225.29318714
_cell_formula_units_Z   2
loop_
 _symmetry_equiv_pos_site_id
 _symmetry_equiv_pos_as_xyz
  1  'x, y, z'
loop_
 _atom_site_type_symbol
 _atom_site_label
 _atom_site_symmetry_multiplicity
 _atom_site_fract_x
 _atom_site_fract_y
 _atom_site_fract_z
 _atom_site_occupancy
  La  La0  1  0.000000  0.000000  0.968060  1
  La  La1  1  0.500000  0.500000  0.431174  1
  Co  Co2  1  0.133014  0.611476  0.115207  1
  Co  Co3  1  0.866986  0.388524  0.115207  1
  B  B4  1  0.793786  0.666925  0.114618  1
  B  B5  1  0.206214  0.333075  0.114618  1
  B  B6  1  0.840837  0.308041  0.616618  1
  B  B7  1  0.159163  0.691959  0.616618  1
  B  B8  1  0.721428  0.836476  0.396857  1
  B  B9  1  0.278572  0.163524  0.396857  1
  B  B10  1  0.672817  0.224713  0.898226  1
  B  B11  1  0.327183  0.775287  0.898226  1
  Os  Os12  1  0.396703  0.150075  0.896338  1
  Os  Os13  1  0.603297  0.849925  0.896338  1
  Os  Os14  1  0.347994  0.888374  0.396427  1
  Os  Os15  1  0.652006  0.111626  0.396427  1
  Os  Os16  1  0.115911  0.369871  0.616092  1
  Os  Os17  1  0.884089  0.630129  0.616092  1
