# generated using pymatgen
data_LiErTm2In4Co
_symmetry_space_group_name_H-M   'P 1'
_cell_length_a   8.02394604
_cell_length_b   8.02046100
_cell_length_c   3.57246400
_cell_angle_alpha   90.00000000
_cell_angle_beta   90.00000000
_cell_angle_gamma   120.00239433
_symmetry_Int_Tables_number   1
_chemical_formula_structural   LiErTm2In4Co
_chemical_formula_sum   'Li1 Er1 Tm2 In4 Co1'
_cell_volume   199.10187278
_cell_formula_units_Z   1
loop_
 _symmetry_equiv_pos_site_id
 _symmetry_equiv_pos_as_xyz
  1  'x, y, z'
loop_
 _atom_site_type_symbol
 _atom_site_label
 _atom_site_symmetry_multiplicity
 _atom_site_fract_x
 _atom_site_fract_y
 _atom_site_fract_z
 _atom_site_occupancy
  Li  Li0  1  0.333306  0.666712  0.500000  1
  Er  Er1  1  0.284746  0.239648  0.500000  1
  Tm  Tm2  1  0.760669  0.044836  0.500000  1
  Tm  Tm3  1  0.954865  0.715777  0.500000  1
  In  In4  1  0.066330  0.402290  0.000000  1
  In  In5  1  0.597928  0.664626  0.000000  1
  In  In6  1  0.335561  0.933049  0.000000  1
  In  In7  1  0.667102  0.333450  0.000000  1
  Co  Co8  1  0.999494  0.999611  0.000000  1
