# generated using pymatgen
data_U3TcNiSn3Ir
_symmetry_space_group_name_H-M   'P 1'
_cell_length_a   7.40166400
_cell_length_b   7.40166362
_cell_length_c   3.93045000
_cell_angle_alpha   90.00000000
_cell_angle_beta   90.00000000
_cell_angle_gamma   120.00001127
_symmetry_Int_Tables_number   1
_chemical_formula_structural   U3TcNiSn3Ir
_chemical_formula_sum   'U3 Tc1 Ni1 Sn3 Ir1'
_cell_volume   186.47970300
_cell_formula_units_Z   1
loop_
 _symmetry_equiv_pos_site_id
 _symmetry_equiv_pos_as_xyz
  1  'x, y, z'
loop_
 _atom_site_type_symbol
 _atom_site_label
 _atom_site_symmetry_multiplicity
 _atom_site_fract_x
 _atom_site_fract_y
 _atom_site_fract_z
 _atom_site_occupancy
  U  U0  1  0.419173  0.417410  0.500000  1
  U  U1  1  0.582590  0.001763  0.500000  1
  U  U2  1  0.998237  0.580827  0.500000  1
  Tc  Tc3  1  0.666667  0.333333  0.000000  1
  Ni  Ni4  1  0.000000  0.000000  0.500000  1
  Sn  Sn5  1  0.755811  0.752927  0.000000  1
  Sn  Sn6  1  0.247073  0.002884  0.000000  1
  Sn  Sn7  1  0.997116  0.244189  0.000000  1
  Ir  Ir8  1  0.333333  0.666667  0.000000  1
