# generated using pymatgen
data_Ti9Co10Pd
_symmetry_space_group_name_H-M   'P 1'
_cell_length_a   7.18112580
_cell_length_b   7.18112626
_cell_length_c   7.18112547
_cell_angle_alpha   100.76675801
_cell_angle_beta   100.76675921
_cell_angle_gamma   128.78334411
_symmetry_Int_Tables_number   1
_chemical_formula_structural   Ti9Co10Pd
_chemical_formula_sum   'Ti9 Co10 Pd1'
_cell_volume   260.31582201
_cell_formula_units_Z   1
loop_
 _symmetry_equiv_pos_site_id
 _symmetry_equiv_pos_as_xyz
  1  'x, y, z'
loop_
 _atom_site_type_symbol
 _atom_site_label
 _atom_site_symmetry_multiplicity
 _atom_site_fract_x
 _atom_site_fract_y
 _atom_site_fract_z
 _atom_site_occupancy
  Ti  Ti0  1  0.000000  0.000000  0.000000  1
  Ti  Ti1  1  0.226051  0.594767  0.820818  1
  Ti  Ti2  1  0.405233  0.226051  0.631285  1
  Ti  Ti3  1  0.594767  0.773949  0.368715  1
  Ti  Ti4  1  0.773949  0.405233  0.179182  1
  Ti  Ti5  1  0.309060  0.903560  0.212619  1
  Ti  Ti6  1  0.096440  0.309060  0.405500  1
  Ti  Ti7  1  0.903560  0.690940  0.594500  1
  Ti  Ti8  1  0.690940  0.096440  0.787381  1
  Co  Co9  1  0.750000  0.250000  0.500000  1
  Co  Co10  1  0.250000  0.750000  0.500000  1
  Co  Co11  1  0.326387  0.010462  0.895782  1
  Co  Co12  1  0.430606  0.326387  0.315925  1
  Co  Co13  1  0.010462  0.114681  0.684075  1
  Co  Co14  1  0.114681  0.430606  0.104218  1
  Co  Co15  1  0.673613  0.989538  0.104218  1
  Co  Co16  1  0.569394  0.673613  0.684075  1
  Co  Co17  1  0.989538  0.885319  0.315925  1
  Co  Co18  1  0.885319  0.569394  0.895782  1
  Pd  Pd19  1  0.500000  0.500000  0.000000  1
