# generated using pymatgen
data_Yb2NiPt3
_symmetry_space_group_name_H-M   'P 1'
_cell_length_a   5.19670575
_cell_length_b   5.19670566
_cell_length_c   5.19670537
_cell_angle_alpha   62.92400581
_cell_angle_beta   62.92399879
_cell_angle_gamma   62.92399278
_symmetry_Int_Tables_number   1
_chemical_formula_structural   Yb2NiPt3
_chemical_formula_sum   'Yb2 Ni1 Pt3'
_cell_volume   105.68164267
_cell_formula_units_Z   1
loop_
 _symmetry_equiv_pos_site_id
 _symmetry_equiv_pos_as_xyz
  1  'x, y, z'
loop_
 _atom_site_type_symbol
 _atom_site_label
 _atom_site_symmetry_multiplicity
 _atom_site_fract_x
 _atom_site_fract_y
 _atom_site_fract_z
 _atom_site_occupancy
  Yb  Yb0  1  0.374686  0.374686  0.374686  1
  Yb  Yb1  1  0.625313  0.625313  0.625313  1
  Ni  Ni2  1  0.000000  0.000000  0.000000  1
  Pt  Pt3  1  0.500000  0.000000  0.000000  1
  Pt  Pt4  1  0.000000  0.500000  0.000000  1
  Pt  Pt5  1  0.000000  0.000000  0.500000  1
