# generated using pymatgen
data_CeNd2Ni2B2N3
_symmetry_space_group_name_H-M   'P 1'
_cell_length_a   3.62500338
_cell_length_b   3.62499849
_cell_length_c   10.45800844
_cell_angle_alpha   99.98841736
_cell_angle_beta   99.98844733
_cell_angle_gamma   89.99247193
_symmetry_Int_Tables_number   1
_chemical_formula_structural   CeNd2Ni2B2N3
_chemical_formula_sum   'Ce1 Nd2 Ni2 B2 N3'
_cell_volume   133.22688011
_cell_formula_units_Z   1
loop_
 _symmetry_equiv_pos_site_id
 _symmetry_equiv_pos_as_xyz
  1  'x, y, z'
loop_
 _atom_site_type_symbol
 _atom_site_label
 _atom_site_symmetry_multiplicity
 _atom_site_fract_x
 _atom_site_fract_y
 _atom_site_fract_z
 _atom_site_occupancy
  Ce  Ce0  1  0.000005  0.000003  0.999998  1
  Nd  Nd1  1  0.626894  0.626903  0.253929  1
  Nd  Nd2  1  0.373109  0.373101  0.746069  1
  Ni  Ni3  1  0.749981  0.250012  0.500001  1
  Ni  Ni4  1  0.250011  0.749982  0.500001  1
  B  B5  1  0.191935  0.191941  0.384025  1
  B  B6  1  0.808061  0.808057  0.615977  1
  N  N7  1  0.500006  0.500004  0.999997  1
  N  N8  1  0.119436  0.119445  0.239159  1
  N  N9  1  0.880567  0.880559  0.760843  1
