# generated using pymatgen
data_LiHo3Al2Si2Ni
_symmetry_space_group_name_H-M   'P 1'
_cell_length_a   6.89524800
_cell_length_b   6.78732177
_cell_length_c   4.22618200
_cell_angle_alpha   90.00000000
_cell_angle_beta   90.00000000
_cell_angle_gamma   120.52740500
_symmetry_Int_Tables_number   1
_chemical_formula_structural   LiHo3Al2Si2Ni
_chemical_formula_sum   'Li1 Ho3 Al2 Si2 Ni1'
_cell_volume   170.37053479
_cell_formula_units_Z   1
loop_
 _symmetry_equiv_pos_site_id
 _symmetry_equiv_pos_as_xyz
  1  'x, y, z'
loop_
 _atom_site_type_symbol
 _atom_site_label
 _atom_site_symmetry_multiplicity
 _atom_site_fract_x
 _atom_site_fract_y
 _atom_site_fract_z
 _atom_site_occupancy
  Li  Li0  1  0.761379  0.000000  0.499999  1
  Ho  Ho1  1  0.411497  0.000000  0.000000  1
  Ho  Ho2  1  0.994986  0.404591  0.000000  1
  Ho  Ho3  1  0.590395  0.595408  0.000000  1
  Al  Al4  1  0.230352  0.231249  0.499999  1
  Al  Al5  1  0.999102  0.768750  0.499999  1
  Si  Si6  1  0.664750  0.338933  0.499999  1
  Si  Si7  1  0.325818  0.661068  0.499999  1
  Ni  Ni8  1  0.021721  0.000000  0.000000  1
