# generated using pymatgen
data_Li8Zn3SiPt4
_symmetry_space_group_name_H-M   'P 1'
_cell_length_a   6.01579404
_cell_length_b   6.01571200
_cell_length_c   6.01590600
_cell_angle_alpha   89.99897137
_cell_angle_beta   89.99352353
_cell_angle_gamma   90.00201905
_symmetry_Int_Tables_number   1
_chemical_formula_structural   Li8Zn3SiPt4
_chemical_formula_sum   'Li8 Zn3 Si1 Pt4'
_cell_volume   217.71133169
_cell_formula_units_Z   1
loop_
 _symmetry_equiv_pos_site_id
 _symmetry_equiv_pos_as_xyz
  1  'x, y, z'
loop_
 _atom_site_type_symbol
 _atom_site_label
 _atom_site_symmetry_multiplicity
 _atom_site_fract_x
 _atom_site_fract_y
 _atom_site_fract_z
 _atom_site_occupancy
  Li  Li0  1  0.250948  0.749064  0.250937  1
  Li  Li1  1  0.749068  0.250944  0.250936  1
  Li  Li2  1  0.250900  0.250896  0.749097  1
  Li  Li3  1  0.999980  0.999972  0.000028  1
  Li  Li4  1  0.000030  0.500030  0.499975  1
  Li  Li5  1  0.749066  0.749060  0.749050  1
  Li  Li6  1  0.500009  0.000032  0.499978  1
  Li  Li7  1  0.500006  0.500028  0.999978  1
  Zn  Zn8  1  0.999997  0.999999  0.500002  1
  Zn  Zn9  1  0.000000  0.499995  0.999992  1
  Zn  Zn10  1  0.500018  0.999999  0.999994  1
  Si  Si11  1  0.499986  0.499968  0.500025  1
  Pt  Pt12  1  0.265418  0.265422  0.265414  1
  Pt  Pt13  1  0.734581  0.265435  0.734568  1
  Pt  Pt14  1  0.734566  0.734565  0.265445  1
  Pt  Pt15  1  0.265426  0.734592  0.734579  1
