# generated using pymatgen
data_Li8La7PrSn6BiSb
_symmetry_space_group_name_H-M   'P 1'
_cell_length_a   9.69448266
_cell_length_b   9.69448227
_cell_length_c   7.85434100
_cell_angle_alpha   89.91504166
_cell_angle_beta   90.08495834
_cell_angle_gamma   119.98163613
_symmetry_Int_Tables_number   1
_chemical_formula_structural   Li8La7PrSn6BiSb
_chemical_formula_sum   'Li8 La7 Pr1 Sn6 Bi1 Sb1'
_cell_volume   639.39515504
_cell_formula_units_Z   1
loop_
 _symmetry_equiv_pos_site_id
 _symmetry_equiv_pos_as_xyz
  1  'x, y, z'
loop_
 _atom_site_type_symbol
 _atom_site_label
 _atom_site_symmetry_multiplicity
 _atom_site_fract_x
 _atom_site_fract_y
 _atom_site_fract_z
 _atom_site_occupancy
  Li  Li0  1  0.833893  0.166565  0.719092  1
  Li  Li1  1  0.832361  0.666163  0.715996  1
  Li  Li2  1  0.333770  0.167701  0.713403  1
  Li  Li3  1  0.166456  0.833733  0.213444  1
  Li  Li4  1  0.169851  0.334437  0.209780  1
  Li  Li5  1  0.665565  0.830095  0.209080  1
  Li  Li6  1  0.664983  0.334990  0.331973  1
  Li  Li7  1  0.333560  0.665957  0.830305  1
  La  La8  1  0.486111  0.510581  0.506234  1
  La  La9  1  0.484203  0.974925  0.507118  1
  La  La10  1  0.026479  0.514924  0.508549  1
  La  La11  1  0.510540  0.487602  0.002931  1
  La  La12  1  0.506866  0.020466  0.002185  1
  La  La13  1  0.979911  0.492402  0.001691  1
  La  La14  1  0.002713  0.999304  0.505296  1
  Pr  Pr15  1  0.003339  0.000031  0.997543  1
  Sn  Sn16  1  0.332435  0.166171  0.271338  1
  Sn  Sn17  1  0.165571  0.833822  0.771008  1
  Sn  Sn18  1  0.165744  0.332293  0.771798  1
  Sn  Sn19  1  0.667586  0.833912  0.772506  1
  Sn  Sn20  1  0.667494  0.333189  0.731160  1
  Sn  Sn21  1  0.332662  0.666498  0.232088  1
  Bi  Bi22  1  0.833801  0.166625  0.266648  1
  Sb  Sb23  1  0.834104  0.667616  0.266840  1
