# generated using pymatgen
data_Yb2BiPd5
_symmetry_space_group_name_H-M   'P 1'
_cell_length_a   4.30891800
_cell_length_b   5.87735900
_cell_length_c   11.52778900
_cell_angle_alpha   90.00000000
_cell_angle_beta   90.00000000
_cell_angle_gamma   90.00000000
_symmetry_Int_Tables_number   1
_chemical_formula_structural   Yb2BiPd5
_chemical_formula_sum   'Yb4 Bi2 Pd10'
_cell_volume   291.94192489
_cell_formula_units_Z   2
loop_
 _symmetry_equiv_pos_site_id
 _symmetry_equiv_pos_as_xyz
  1  'x, y, z'
loop_
 _atom_site_type_symbol
 _atom_site_label
 _atom_site_symmetry_multiplicity
 _atom_site_fract_x
 _atom_site_fract_y
 _atom_site_fract_z
 _atom_site_occupancy
  Yb  Yb0  1  0.500000  0.309986  0.859805  1
  Yb  Yb1  1  0.500000  0.809986  0.640195  1
  Yb  Yb2  1  0.500000  0.690014  0.140195  1
  Yb  Yb3  1  0.500000  0.190014  0.359805  1
  Bi  Bi4  1  0.000000  0.500000  0.500000  1
  Bi  Bi5  1  0.000000  0.000000  0.000000  1
  Pd  Pd6  1  0.500000  0.709684  0.382658  1
  Pd  Pd7  1  0.500000  0.290316  0.617342  1
  Pd  Pd8  1  0.000000  0.055845  0.748283  1
  Pd  Pd9  1  0.500000  0.790316  0.882658  1
  Pd  Pd10  1  0.000000  0.444155  0.248283  1
  Pd  Pd11  1  0.000000  0.944155  0.251717  1
  Pd  Pd12  1  0.000000  0.555845  0.751717  1
  Pd  Pd13  1  0.000000  0.500000  0.000000  1
  Pd  Pd14  1  0.000000  0.000000  0.500000  1
  Pd  Pd15  1  0.500000  0.209684  0.117342  1
