# generated using pymatgen
data_K3RbF12
_symmetry_space_group_name_H-M   'P 1'
_cell_length_a   7.03032048
_cell_length_b   4.75749927
_cell_length_c   8.86761719
_cell_angle_alpha   89.27313570
_cell_angle_beta   89.75226027
_cell_angle_gamma   90.03083925
_symmetry_Int_Tables_number   1
_chemical_formula_structural   K3RbF12
_chemical_formula_sum   'K3 Rb1 F12'
_cell_volume   296.56623557
_cell_formula_units_Z   1
loop_
 _symmetry_equiv_pos_site_id
 _symmetry_equiv_pos_as_xyz
  1  'x, y, z'
loop_
 _atom_site_type_symbol
 _atom_site_label
 _atom_site_symmetry_multiplicity
 _atom_site_fract_x
 _atom_site_fract_y
 _atom_site_fract_z
 _atom_site_occupancy
  K  K0  1  0.244984  0.178876  0.375956  1
  K  K1  1  0.262243  0.321866  0.869704  1
  K  K2  1  0.741670  0.819401  0.625696  1
  Rb  Rb3  1  0.767396  0.655206  0.126366  1
  F  F4  1  0.055883  0.074236  0.103067  1
  F  F5  1  0.442872  0.463347  0.595512  1
  F  F6  1  0.551685  0.950157  0.895651  1
  F  F7  1  0.949303  0.531372  0.416983  1
  F  F8  1  0.612671  0.012623  0.352117  1
  F  F9  1  0.890223  0.473749  0.837824  1
  F  F10  1  0.111891  0.993320  0.652322  1
  F  F11  1  0.371992  0.518166  0.146303  1
  F  F12  1  0.214021  0.794597  0.124141  1
  F  F13  1  0.277631  0.729721  0.623446  1
  F  F14  1  0.720841  0.213122  0.868462  1
  F  F15  1  0.782271  0.270240  0.386451  1
