# generated using pymatgen
data_U7PaVSe17
_symmetry_space_group_name_H-M   'P 1'
_cell_length_a   8.25564267
_cell_length_b   8.24593005
_cell_length_c   10.89575500
_cell_angle_alpha   80.67552353
_cell_angle_beta   80.31984837
_cell_angle_gamma   64.57959235
_symmetry_Int_Tables_number   1
_chemical_formula_structural   U7PaVSe17
_chemical_formula_sum   'U7 Pa1 V1 Se17'
_cell_volume   657.01095398
_cell_formula_units_Z   1
loop_
 _symmetry_equiv_pos_site_id
 _symmetry_equiv_pos_as_xyz
  1  'x, y, z'
loop_
 _atom_site_type_symbol
 _atom_site_label
 _atom_site_symmetry_multiplicity
 _atom_site_fract_x
 _atom_site_fract_y
 _atom_site_fract_z
 _atom_site_occupancy
  U  U0  1  0.300762  0.818283  0.299508  1
  U  U1  1  0.180443  0.699596  0.701969  1
  U  U2  1  0.699135  0.181140  0.703599  1
  U  U3  1  0.204592  0.200686  0.541400  1
  U  U4  1  0.797511  0.798529  0.459829  1
  U  U5  1  0.679607  0.682225  0.984523  1
  U  U6  1  0.319730  0.320496  0.011964  1
  Pa  Pa7  1  0.817776  0.301442  0.296948  1
  V  V8  1  0.000412  0.000381  0.999367  1
  Se  Se9  1  0.821310  0.433154  0.533231  1
  Se  Se10  1  0.434794  0.819196  0.535755  1
  Se  Se11  1  0.179486  0.565852  0.464362  1
  Se  Se12  1  0.567724  0.181496  0.462670  1
  Se  Se13  1  0.944084  0.323543  0.029287  1
  Se  Se14  1  0.322021  0.944510  0.029790  1
  Se  Se15  1  0.054168  0.676825  0.972852  1
  Se  Se16  1  0.676379  0.055566  0.973421  1
  Se  Se17  1  0.208051  0.216601  0.275460  1
  Se  Se18  1  0.787038  0.786349  0.723491  1
  Se  Se19  1  0.059459  0.060781  0.771572  1
  Se  Se20  1  0.938695  0.941449  0.228846  1
  Se  Se21  1  0.302212  0.299669  0.753395  1
  Se  Se22  1  0.701789  0.694717  0.247201  1
  Se  Se23  1  0.519651  0.521686  0.830369  1
  Se  Se24  1  0.482926  0.475084  0.170784  1
  Se  Se25  1  0.000247  0.000742  0.498404  1
