# generated using pymatgen
data_Pa2Fe2Sn
_symmetry_space_group_name_H-M   'P 1'
_cell_length_a   7.26352100
_cell_length_b   7.26352131
_cell_length_c   3.43168700
_cell_angle_alpha   90.00000000
_cell_angle_beta   90.00000000
_cell_angle_gamma   90.12140668
_symmetry_Int_Tables_number   1
_chemical_formula_structural   Pa2Fe2Sn
_chemical_formula_sum   'Pa4 Fe4 Sn2'
_cell_volume   181.05107417
_cell_formula_units_Z   2
loop_
 _symmetry_equiv_pos_site_id
 _symmetry_equiv_pos_as_xyz
  1  'x, y, z'
loop_
 _atom_site_type_symbol
 _atom_site_label
 _atom_site_symmetry_multiplicity
 _atom_site_fract_x
 _atom_site_fract_y
 _atom_site_fract_z
 _atom_site_occupancy
  Pa  Pa0  1  0.667362  0.166716  0.500000  1
  Pa  Pa1  1  0.333284  0.832638  0.500000  1
  Pa  Pa2  1  0.832512  0.667488  0.500000  1
  Pa  Pa3  1  0.166505  0.333495  0.500000  1
  Fe  Fe4  1  0.636221  0.863779  0.000000  1
  Fe  Fe5  1  0.135828  0.636591  0.000000  1
  Fe  Fe6  1  0.863409  0.364172  0.000000  1
  Fe  Fe7  1  0.364373  0.135627  0.000000  1
  Sn  Sn8  1  0.499785  0.499280  0.000000  1
  Sn  Sn9  1  0.000720  0.000215  0.000000  1
