# generated using pymatgen
data_DyHo(Hf4Sn3)2
_symmetry_space_group_name_H-M   'P 1'
_cell_length_a   8.63575387
_cell_length_b   8.63575310
_cell_length_c   5.83249300
_cell_angle_alpha   90.00000000
_cell_angle_beta   90.00000000
_cell_angle_gamma   121.74418887
_symmetry_Int_Tables_number   1
_chemical_formula_structural   DyHo(Hf4Sn3)2
_chemical_formula_sum   'Dy1 Ho1 Hf8 Sn6'
_cell_volume   369.89699755
_cell_formula_units_Z   1
loop_
 _symmetry_equiv_pos_site_id
 _symmetry_equiv_pos_as_xyz
  1  'x, y, z'
loop_
 _atom_site_type_symbol
 _atom_site_label
 _atom_site_symmetry_multiplicity
 _atom_site_fract_x
 _atom_site_fract_y
 _atom_site_fract_z
 _atom_site_occupancy
  Dy  Dy0  1  0.225728  0.225728  0.250000  1
  Ho  Ho1  1  0.773760  0.773760  0.750000  1
  Hf  Hf2  1  0.253397  0.000492  0.750000  1
  Hf  Hf3  1  0.000492  0.253397  0.750000  1
  Hf  Hf4  1  0.746790  0.999686  0.250000  1
  Hf  Hf5  1  0.999686  0.746790  0.250000  1
  Hf  Hf6  1  0.665205  0.334756  0.999989  1
  Hf  Hf7  1  0.334756  0.665205  0.999989  1
  Hf  Hf8  1  0.334756  0.665205  0.500011  1
  Hf  Hf9  1  0.665205  0.334756  0.500011  1
  Sn  Sn10  1  0.391406  0.391406  0.750000  1
  Sn  Sn11  1  0.606561  0.003564  0.750000  1
  Sn  Sn12  1  0.003564  0.606561  0.750000  1
  Sn  Sn13  1  0.609166  0.609166  0.250000  1
  Sn  Sn14  1  0.393351  0.996176  0.250000  1
  Sn  Sn15  1  0.996176  0.393351  0.250000  1
