# generated using pymatgen
data_YScMn3Si7Pt9
_symmetry_space_group_name_H-M   'P 1'
_cell_length_a   9.91973900
_cell_length_b   9.91973977
_cell_length_c   3.86614300
_cell_angle_alpha   90.00000000
_cell_angle_beta   90.00000000
_cell_angle_gamma   119.99999587
_symmetry_Int_Tables_number   1
_chemical_formula_structural   YScMn3Si7Pt9
_chemical_formula_sum   'Y1 Sc1 Mn3 Si7 Pt9'
_cell_volume   329.46485067
_cell_formula_units_Z   1
loop_
 _symmetry_equiv_pos_site_id
 _symmetry_equiv_pos_as_xyz
  1  'x, y, z'
loop_
 _atom_site_type_symbol
 _atom_site_label
 _atom_site_symmetry_multiplicity
 _atom_site_fract_x
 _atom_site_fract_y
 _atom_site_fract_z
 _atom_site_occupancy
  Y  Y0  1  0.333333  0.666667  0.500000  1
  Sc  Sc1  1  0.000000  0.000000  0.000000  1
  Mn  Mn2  1  0.883766  0.455236  0.500000  1
  Mn  Mn3  1  0.571471  0.116234  0.500000  1
  Mn  Mn4  1  0.544764  0.428529  0.500000  1
  Si  Si5  1  0.252660  0.208390  0.500000  1
  Si  Si6  1  0.791610  0.044271  0.500000  1
  Si  Si7  1  0.955729  0.747340  0.500000  1
  Si  Si8  1  0.553971  0.635245  0.000000  1
  Si  Si9  1  0.364755  0.918725  0.000000  1
  Si  Si10  1  0.081275  0.446029  0.000000  1
  Si  Si11  1  0.666667  0.333333  0.000000  1
  Pt  Pt12  1  0.220703  0.946383  0.500000  1
  Pt  Pt13  1  0.053617  0.274321  0.500000  1
  Pt  Pt14  1  0.725679  0.779297  0.500000  1
  Pt  Pt15  1  0.306787  0.409262  0.000000  1
  Pt  Pt16  1  0.590738  0.897525  0.000000  1
  Pt  Pt17  1  0.102475  0.693213  0.000000  1
  Pt  Pt18  1  0.393848  0.178154  0.000000  1
  Pt  Pt19  1  0.821846  0.215693  0.000000  1
  Pt  Pt20  1  0.784307  0.606152  0.000000  1
