# generated using pymatgen
data_Pr5Bi2Rh
_symmetry_space_group_name_H-M   'P 1'
_cell_length_a   8.42563300
_cell_length_b   9.29136100
_cell_length_c   13.01482900
_cell_angle_alpha   90.00000000
_cell_angle_beta   90.00000000
_cell_angle_gamma   90.00000000
_symmetry_Int_Tables_number   1
_chemical_formula_structural   Pr5Bi2Rh
_chemical_formula_sum   'Pr20 Bi8 Rh4'
_cell_volume   1018.87366927
_cell_formula_units_Z   4
loop_
 _symmetry_equiv_pos_site_id
 _symmetry_equiv_pos_as_xyz
  1  'x, y, z'
loop_
 _atom_site_type_symbol
 _atom_site_label
 _atom_site_symmetry_multiplicity
 _atom_site_fract_x
 _atom_site_fract_y
 _atom_site_fract_z
 _atom_site_occupancy
  Pr  Pr0  1  0.348413  0.750000  0.705353  1
  Pr  Pr1  1  0.651587  0.250000  0.294647  1
  Pr  Pr2  1  0.848413  0.250000  0.794647  1
  Pr  Pr3  1  0.151587  0.750000  0.205353  1
  Pr  Pr4  1  0.875057  0.750000  0.805200  1
  Pr  Pr5  1  0.124943  0.250000  0.194800  1
  Pr  Pr6  1  0.375057  0.250000  0.694800  1
  Pr  Pr7  1  0.624943  0.750000  0.305200  1
  Pr  Pr8  1  0.682038  0.538936  0.565184  1
  Pr  Pr9  1  0.317962  0.461064  0.434816  1
  Pr  Pr10  1  0.182038  0.461064  0.934816  1
  Pr  Pr11  1  0.317962  0.038936  0.434816  1
  Pr  Pr12  1  0.817962  0.538936  0.065184  1
  Pr  Pr13  1  0.682038  0.961064  0.565184  1
  Pr  Pr14  1  0.817962  0.961064  0.065184  1
  Pr  Pr15  1  0.182038  0.038936  0.934816  1
  Pr  Pr16  1  0.046952  0.750000  0.498170  1
  Pr  Pr17  1  0.953048  0.250000  0.501830  1
  Pr  Pr18  1  0.546952  0.250000  0.001830  1
  Pr  Pr19  1  0.453048  0.750000  0.998170  1
  Bi  Bi20  1  0.573547  0.506591  0.826223  1
  Bi  Bi21  1  0.426453  0.493409  0.173777  1
  Bi  Bi22  1  0.073547  0.493409  0.673777  1
  Bi  Bi23  1  0.426453  0.006591  0.173777  1
  Bi  Bi24  1  0.926453  0.506591  0.326223  1
  Bi  Bi25  1  0.573547  0.993409  0.826223  1
  Bi  Bi26  1  0.926453  0.993409  0.326223  1
  Bi  Bi27  1  0.073547  0.006591  0.673777  1
  Rh  Rh28  1  0.071538  0.750000  0.990380  1
  Rh  Rh29  1  0.928462  0.250000  0.009620  1
  Rh  Rh30  1  0.571538  0.250000  0.509620  1
  Rh  Rh31  1  0.428462  0.750000  0.490380  1
