# generated using pymatgen
data_YbHo3Pa4(ReB6)4
_symmetry_space_group_name_H-M   'P 1'
_cell_length_a   3.71392300
_cell_length_b   9.15986119
_cell_length_c   11.49122424
_cell_angle_alpha   90.02357034
_cell_angle_beta   90.00000000
_cell_angle_gamma   90.00000000
_symmetry_Int_Tables_number   1
_chemical_formula_structural   YbHo3Pa4(ReB6)4
_chemical_formula_sum   'Yb1 Ho3 Pa4 Re4 B24'
_cell_volume   390.92014467
_cell_formula_units_Z   1
loop_
 _symmetry_equiv_pos_site_id
 _symmetry_equiv_pos_as_xyz
  1  'x, y, z'
loop_
 _atom_site_type_symbol
 _atom_site_label
 _atom_site_symmetry_multiplicity
 _atom_site_fract_x
 _atom_site_fract_y
 _atom_site_fract_z
 _atom_site_occupancy
  Yb  Yb0  1  0.000000  0.945752  0.374994  1
  Ho  Ho1  1  0.000000  0.053463  0.622636  1
  Ho  Ho2  1  0.000000  0.445416  0.125659  1
  Ho  Ho3  1  0.000000  0.554928  0.874613  1
  Pa  Pa4  1  0.000000  0.322211  0.412393  1
  Pa  Pa5  1  0.000000  0.677960  0.586023  1
  Pa  Pa6  1  0.000000  0.823377  0.088422  1
  Pa  Pa7  1  0.000000  0.177231  0.913466  1
  Re  Re8  1  0.000000  0.638738  0.321786  1
  Re  Re9  1  0.000000  0.361178  0.678679  1
  Re  Re10  1  0.000000  0.138663  0.178033  1
  Re  Re11  1  0.000000  0.861932  0.822273  1
  B  B12  1  0.500000  0.552663  0.433169  1
  B  B13  1  0.500000  0.447116  0.566755  1
  B  B14  1  0.500000  0.052730  0.067101  1
  B  B15  1  0.500000  0.947168  0.933442  1
  B  B16  1  0.500000  0.747904  0.420195  1
  B  B17  1  0.500000  0.252094  0.578963  1
  B  B18  1  0.500000  0.247909  0.079832  1
  B  B19  1  0.500000  0.752187  0.920700  1
  B  B20  1  0.500000  0.793385  0.266509  1
  B  B21  1  0.500000  0.206188  0.733567  1
  B  B22  1  0.500000  0.292746  0.233835  1
  B  B23  1  0.500000  0.706666  0.766232  1
  B  B24  1  0.500000  0.633665  0.185649  1
  B  B25  1  0.500000  0.366385  0.814594  1
  B  B26  1  0.500000  0.133050  0.314740  1
  B  B27  1  0.500000  0.866204  0.684976  1
  B  B28  1  0.500000  0.983097  0.214266  1
  B  B29  1  0.500000  0.017266  0.785809  1
  B  B30  1  0.500000  0.482987  0.286572  1
  B  B31  1  0.500000  0.517436  0.713568  1
  B  B32  1  0.500000  0.612881  0.031361  1
  B  B33  1  0.500000  0.387353  0.968839  1
  B  B34  1  0.500000  0.114378  0.468373  1
  B  B35  1  0.500000  0.885693  0.531977  1
