# generated using pymatgen
data_Gd3DyMn4O14
_symmetry_space_group_name_H-M   'P 1'
_cell_length_a   7.11892087
_cell_length_b   7.12648661
_cell_length_c   7.11892100
_cell_angle_alpha   60.03510719
_cell_angle_beta   59.99999477
_cell_angle_gamma   60.03511161
_symmetry_Int_Tables_number   1
_chemical_formula_structural   Gd3DyMn4O14
_chemical_formula_sum   'Gd3 Dy1 Mn4 O14'
_cell_volume   255.51656748
_cell_formula_units_Z   1
loop_
 _symmetry_equiv_pos_site_id
 _symmetry_equiv_pos_as_xyz
  1  'x, y, z'
loop_
 _atom_site_type_symbol
 _atom_site_label
 _atom_site_symmetry_multiplicity
 _atom_site_fract_x
 _atom_site_fract_y
 _atom_site_fract_z
 _atom_site_occupancy
  Gd  Gd0  1  0.625000  0.625000  0.625000  1
  Gd  Gd1  1  0.125000  0.625000  0.625000  1
  Gd  Gd2  1  0.625000  0.625000  0.125000  1
  Dy  Dy3  1  0.625000  0.125000  0.625000  1
  Mn  Mn4  1  0.125000  0.625000  0.125000  1
  Mn  Mn5  1  0.125000  0.125000  0.625000  1
  Mn  Mn6  1  0.625000  0.125000  0.125000  1
  Mn  Mn7  1  0.125000  0.125000  0.125000  1
  O  O8  1  0.748435  0.754695  0.748435  1
  O  O9  1  0.203004  0.796802  0.797192  1
  O  O10  1  0.203004  0.796802  0.203004  1
  O  O11  1  0.797192  0.796802  0.203004  1
  O  O12  1  0.796759  0.201487  0.796759  1
  O  O13  1  0.204995  0.201487  0.796759  1
  O  O14  1  0.453241  0.048513  0.045005  1
  O  O15  1  0.796759  0.201487  0.204995  1
  O  O16  1  0.046996  0.453198  0.046996  1
  O  O17  1  0.045005  0.048513  0.453241  1
  O  O18  1  0.452808  0.453198  0.046996  1
  O  O19  1  0.453241  0.048513  0.453241  1
  O  O20  1  0.046996  0.453198  0.452808  1
  O  O21  1  0.501565  0.495305  0.501565  1
