# generated using pymatgen
data_YEr3Si2(P4O15)2
_symmetry_space_group_name_H-M   'P 1'
_cell_length_a   5.54871900
_cell_length_b   7.04968525
_cell_length_c   16.52908560
_cell_angle_alpha   89.96933052
_cell_angle_beta   89.99617971
_cell_angle_gamma   89.99980902
_symmetry_Int_Tables_number   1
_chemical_formula_structural   YEr3Si2(P4O15)2
_chemical_formula_sum   'Y1 Er3 Si2 P8 O30'
_cell_volume   646.56356101
_cell_formula_units_Z   1
loop_
 _symmetry_equiv_pos_site_id
 _symmetry_equiv_pos_as_xyz
  1  'x, y, z'
loop_
 _atom_site_type_symbol
 _atom_site_label
 _atom_site_symmetry_multiplicity
 _atom_site_fract_x
 _atom_site_fract_y
 _atom_site_fract_z
 _atom_site_occupancy
  Y  Y0  1  0.134210  0.905691  0.718126  1
  Er  Er1  1  0.865092  0.405497  0.782441  1
  Er  Er2  1  0.865011  0.594501  0.217602  1
  Er  Er3  1  0.135033  0.094511  0.282356  1
  Si  Si4  1  0.458250  0.499765  0.499794  1
  Si  Si5  1  0.541727  0.000134  0.000240  1
  P  P6  1  0.692862  0.910382  0.831026  1
  P  P7  1  0.692792  0.089701  0.170034  1
  P  P8  1  0.307173  0.589641  0.329959  1
  P  P9  1  0.307491  0.410392  0.669842  1
  P  P10  1  0.642814  0.136911  0.424891  1
  P  P11  1  0.643246  0.862847  0.573965  1
  P  P12  1  0.357198  0.363301  0.925224  1
  P  P13  1  0.357148  0.636728  0.074797  1
  O  O14  1  0.644686  0.337005  0.468168  1
  O  O15  1  0.645202  0.662326  0.531098  1
  O  O16  1  0.355432  0.162805  0.968320  1
  O  O17  1  0.355268  0.837133  0.031655  1
  O  O18  1  0.717458  0.074633  0.073117  1
  O  O19  1  0.719151  0.925509  0.927764  1
  O  O20  1  0.282753  0.425612  0.572949  1
  O  O21  1  0.282301  0.574339  0.426897  1
  O  O22  1  0.835402  0.078002  0.793647  1
  O  O23  1  0.837336  0.922802  0.207161  1
  O  O24  1  0.162612  0.422873  0.292796  1
  O  O25  1  0.162425  0.576187  0.707328  1
  O  O26  1  0.426132  0.909680  0.811793  1
  O  O27  1  0.425894  0.090203  0.189742  1
  O  O28  1  0.574088  0.590181  0.310216  1
  O  O29  1  0.574357  0.409814  0.689652  1
  O  O30  1  0.834324  0.733697  0.803064  1
  O  O31  1  0.835462  0.266097  0.197651  1
  O  O32  1  0.164533  0.766105  0.302300  1
  O  O33  1  0.164062  0.234707  0.697615  1
  O  O34  1  0.423642  0.115252  0.372683  1
  O  O35  1  0.424870  0.884666  0.626342  1
  O  O36  1  0.576232  0.385321  0.872969  1
  O  O37  1  0.576283  0.614837  0.127018  1
  O  O38  1  0.883241  0.106545  0.385867  1
  O  O39  1  0.883809  0.893912  0.612506  1
  O  O40  1  0.116918  0.393669  0.886061  1
  O  O41  1  0.116903  0.606291  0.113944  1
  O  O42  1  0.607383  0.999800  0.499372  1
  O  O43  1  0.391793  0.499992  0.000007  1
