# generated using pymatgen
data_Ho5Tm3Al8
_symmetry_space_group_name_H-M   'P 1'
_cell_length_a   5.57671000
_cell_length_b   5.82096403
_cell_length_c   11.34163403
_cell_angle_alpha   90.01022181
_cell_angle_beta   90.00014770
_cell_angle_gamma   89.99978898
_symmetry_Int_Tables_number   1
_chemical_formula_structural   Ho5Tm3Al8
_chemical_formula_sum   'Ho5 Tm3 Al8'
_cell_volume   368.17017104
_cell_formula_units_Z   1
loop_
 _symmetry_equiv_pos_site_id
 _symmetry_equiv_pos_as_xyz
  1  'x, y, z'
loop_
 _atom_site_type_symbol
 _atom_site_label
 _atom_site_symmetry_multiplicity
 _atom_site_fract_x
 _atom_site_fract_y
 _atom_site_fract_z
 _atom_site_occupancy
  Ho  Ho0  1  0.250003  0.161926  0.016511  1
  Ho  Ho1  1  0.749997  0.838065  0.983301  1
  Ho  Ho2  1  0.750000  0.161364  0.483550  1
  Ho  Ho3  1  0.249999  0.838340  0.516944  1
  Ho  Ho4  1  0.250002  0.399026  0.331062  1
  Tm  Tm5  1  0.750002  0.602134  0.668902  1
  Tm  Tm6  1  0.749998  0.397773  0.168957  1
  Tm  Tm7  1  0.249999  0.602131  0.830891  1
  Al  Al8  1  0.999919  0.930611  0.249854  1
  Al  Al9  1  0.500018  0.068963  0.750029  1
  Al  Al10  1  0.999983  0.068963  0.750029  1
  Al  Al11  1  0.500081  0.930612  0.249854  1
  Al  Al12  1  0.250000  0.659202  0.097240  1
  Al  Al13  1  0.750000  0.340951  0.902379  1
  Al  Al14  1  0.750000  0.659152  0.402565  1
  Al  Al15  1  0.250001  0.340789  0.597931  1
