# generated using pymatgen
data_Nd2Pa(AlIr)3
_symmetry_space_group_name_H-M   'P 1'
_cell_length_a   7.23123524
_cell_length_b   7.30126142
_cell_length_c   4.03676100
_cell_angle_alpha   90.00000000
_cell_angle_beta   90.00000000
_cell_angle_gamma   120.32073157
_symmetry_Int_Tables_number   1
_chemical_formula_structural   Nd2Pa(AlIr)3
_chemical_formula_sum   'Nd2 Pa1 Al3 Ir3'
_cell_volume   183.97608245
_cell_formula_units_Z   1
loop_
 _symmetry_equiv_pos_site_id
 _symmetry_equiv_pos_as_xyz
  1  'x, y, z'
loop_
 _atom_site_type_symbol
 _atom_site_label
 _atom_site_symmetry_multiplicity
 _atom_site_fract_x
 _atom_site_fract_y
 _atom_site_fract_z
 _atom_site_occupancy
  Nd  Nd0  1  0.415413  0.418906  0.500000  1
  Nd  Nd1  1  0.584590  0.003495  0.500000  1
  Pa  Pa2  1  0.999994  0.580834  0.500000  1
  Al  Al3  1  0.765545  0.762722  0.000000  1
  Al  Al4  1  0.234467  0.997203  0.000000  1
  Al  Al5  1  0.999999  0.226494  0.000000  1
  Ir  Ir6  1  0.705130  0.366126  0.000000  1
  Ir  Ir7  1  0.294867  0.661015  0.000000  1
  Ir  Ir8  1  0.999996  0.983205  0.500000  1
