# generated using pymatgen
data_Rb6TmTe4Cl
_symmetry_space_group_name_H-M   'P 1'
_cell_length_a   12.00695800
_cell_length_b   12.00695744
_cell_length_c   8.67471000
_cell_angle_alpha   90.00000000
_cell_angle_beta   90.00000000
_cell_angle_gamma   120.00000155
_symmetry_Int_Tables_number   1
_chemical_formula_structural   Rb6TmTe4Cl
_chemical_formula_sum   'Rb12 Tm2 Te8 Cl2'
_cell_volume   1083.05759579
_cell_formula_units_Z   2
loop_
 _symmetry_equiv_pos_site_id
 _symmetry_equiv_pos_as_xyz
  1  'x, y, z'
loop_
 _atom_site_type_symbol
 _atom_site_label
 _atom_site_symmetry_multiplicity
 _atom_site_fract_x
 _atom_site_fract_y
 _atom_site_fract_z
 _atom_site_occupancy
  Rb  Rb0  1  0.121297  0.878703  0.510606  1
  Rb  Rb1  1  0.757405  0.878703  0.510606  1
  Rb  Rb2  1  0.944842  0.472422  0.318736  1
  Rb  Rb3  1  0.527578  0.472422  0.318736  1
  Rb  Rb4  1  0.878703  0.757405  0.010606  1
  Rb  Rb5  1  0.242595  0.121297  0.010606  1
  Rb  Rb6  1  0.527578  0.055158  0.318736  1
  Rb  Rb7  1  0.121297  0.242595  0.510606  1
  Rb  Rb8  1  0.878703  0.121297  0.010606  1
  Rb  Rb9  1  0.055158  0.527578  0.818736  1
  Rb  Rb10  1  0.472422  0.944842  0.818736  1
  Rb  Rb11  1  0.472422  0.527578  0.818736  1
  Tm  Tm12  1  0.666667  0.333333  0.714015  1
  Tm  Tm13  1  0.333333  0.666667  0.214015  1
  Te  Te14  1  0.401705  0.200853  0.606110  1
  Te  Te15  1  0.598295  0.799147  0.106110  1
  Te  Te16  1  0.666667  0.333333  0.048562  1
  Te  Te17  1  0.799147  0.598295  0.606110  1
  Te  Te18  1  0.200853  0.401705  0.106110  1
  Te  Te19  1  0.333333  0.666667  0.548562  1
  Te  Te20  1  0.200853  0.799147  0.106110  1
  Te  Te21  1  0.799147  0.200853  0.606110  1
  Cl  Cl22  1  0.000000  0.000000  0.271670  1
  Cl  Cl23  1  0.000000  0.000000  0.771670  1
