# generated using pymatgen
data_Dy3Er4PaSb20
_symmetry_space_group_name_H-M   'P 1'
_cell_length_a   4.21750200
_cell_length_b   13.16930184
_cell_length_c   14.54835836
_cell_angle_alpha   78.47348054
_cell_angle_beta   90.00000000
_cell_angle_gamma   90.00000000
_symmetry_Int_Tables_number   1
_chemical_formula_structural   Dy3Er4PaSb20
_chemical_formula_sum   'Dy3 Er4 Pa1 Sb20'
_cell_volume   791.74221281
_cell_formula_units_Z   1
loop_
 _symmetry_equiv_pos_site_id
 _symmetry_equiv_pos_as_xyz
  1  'x, y, z'
loop_
 _atom_site_type_symbol
 _atom_site_label
 _atom_site_symmetry_multiplicity
 _atom_site_fract_x
 _atom_site_fract_y
 _atom_site_fract_z
 _atom_site_occupancy
  Dy  Dy0  1  0.750000  0.328508  0.426376  1
  Dy  Dy1  1  0.250000  0.953874  0.355451  1
  Dy  Dy2  1  0.750000  0.048099  0.641621  1
  Er  Er3  1  0.250000  0.390538  0.772762  1
  Er  Er4  1  0.750000  0.605922  0.228732  1
  Er  Er5  1  0.250000  0.662445  0.857719  1
  Er  Er6  1  0.750000  0.338832  0.143931  1
  Pa  Pa7  1  0.250000  0.670031  0.571464  1
  Sb  Sb8  1  0.250000  0.143034  0.776081  1
  Sb  Sb9  1  0.750000  0.856057  0.221800  1
  Sb  Sb10  1  0.250000  0.139356  0.482476  1
  Sb  Sb11  1  0.750000  0.852302  0.515198  1
  Sb  Sb12  1  0.250000  0.153481  0.168016  1
  Sb  Sb13  1  0.750000  0.848849  0.835180  1
  Sb  Sb14  1  0.250000  0.420870  0.977073  1
  Sb  Sb15  1  0.750000  0.579659  0.022489  1
  Sb  Sb16  1  0.750000  0.035710  0.912068  1
  Sb  Sb17  1  0.250000  0.970550  0.088831  1
  Sb  Sb18  1  0.750000  0.139789  0.318536  1
  Sb  Sb19  1  0.250000  0.859970  0.685920  1
  Sb  Sb20  1  0.750000  0.278034  0.937678  1
  Sb  Sb21  1  0.250000  0.721385  0.063410  1
  Sb  Sb22  1  0.750000  0.285632  0.655851  1
  Sb  Sb23  1  0.250000  0.714476  0.344782  1
  Sb  Sb24  1  0.750000  0.579240  0.729268  1
  Sb  Sb25  1  0.250000  0.423422  0.266331  1
  Sb  Sb26  1  0.750000  0.571228  0.447994  1
  Sb  Sb27  1  0.250000  0.428707  0.552961  1
