# generated using pymatgen
data_Gd2ScAl3Si2Pt
_symmetry_space_group_name_H-M   'P 1'
_cell_length_a   6.90039400
_cell_length_b   6.87948446
_cell_length_c   4.17337300
_cell_angle_alpha   90.00000000
_cell_angle_beta   90.00000000
_cell_angle_gamma   120.10059375
_symmetry_Int_Tables_number   1
_chemical_formula_structural   Gd2ScAl3Si2Pt
_chemical_formula_sum   'Gd2 Sc1 Al3 Si2 Pt1'
_cell_volume   171.39829649
_cell_formula_units_Z   1
loop_
 _symmetry_equiv_pos_site_id
 _symmetry_equiv_pos_as_xyz
  1  'x, y, z'
loop_
 _atom_site_type_symbol
 _atom_site_label
 _atom_site_symmetry_multiplicity
 _atom_site_fract_x
 _atom_site_fract_y
 _atom_site_fract_z
 _atom_site_occupancy
  Gd  Gd0  1  0.997085  0.418046  0.000000  1
  Gd  Gd1  1  0.579040  0.581953  0.000000  1
  Sc  Sc2  1  0.414677  0.000000  0.000000  1
  Al  Al3  1  0.759914  0.000000  0.500001  1
  Al  Al4  1  0.239831  0.234992  0.500001  1
  Al  Al5  1  0.004838  0.765009  0.500001  1
  Si  Si6  1  0.655220  0.318392  0.500001  1
  Si  Si7  1  0.336826  0.681609  0.500001  1
  Pt  Pt8  1  0.012572  0.000000  0.000000  1
