# generated using pymatgen
data_KBe2H5
_symmetry_space_group_name_H-M   'P 1'
_cell_length_a   6.54757382
_cell_length_b   4.34085558
_cell_length_c   4.22506503
_cell_angle_alpha   120.15720995
_cell_angle_beta   88.49310446
_cell_angle_gamma   110.01613485
_symmetry_Int_Tables_number   1
_chemical_formula_structural   KBe2H5
_chemical_formula_sum   'K1 Be2 H5'
_cell_volume   95.97899226
_cell_formula_units_Z   1
loop_
 _symmetry_equiv_pos_site_id
 _symmetry_equiv_pos_as_xyz
  1  'x, y, z'
loop_
 _atom_site_type_symbol
 _atom_site_label
 _atom_site_symmetry_multiplicity
 _atom_site_fract_x
 _atom_site_fract_y
 _atom_site_fract_z
 _atom_site_occupancy
  K  K0  1  0.987463  0.021371  0.291840  1
  Be  Be1  1  0.408165  0.624010  0.034460  1
  Be  Be2  1  0.573153  0.383270  0.417992  1
  H  H3  1  0.798272  0.538883  0.572355  1
  H  H4  1  0.512210  0.002651  0.086450  1
  H  H5  1  0.552887  0.618967  0.280482  1
  H  H6  1  0.181829  0.510506  0.056461  1
  H  H7  1  0.412939  0.356490  0.650595  1
