# generated using pymatgen
data_NbZn6Ga5Rh12
_symmetry_space_group_name_H-M   'P 1'
_cell_length_a   4.27964700
_cell_length_b   6.13052100
_cell_length_c   12.89417100
_cell_angle_alpha   89.99996353
_cell_angle_beta   89.99970610
_cell_angle_gamma   89.99951602
_symmetry_Int_Tables_number   1
_chemical_formula_structural   NbZn6Ga5Rh12
_chemical_formula_sum   'Nb1 Zn6 Ga5 Rh12'
_cell_volume   338.29747653
_cell_formula_units_Z   1
loop_
 _symmetry_equiv_pos_site_id
 _symmetry_equiv_pos_as_xyz
  1  'x, y, z'
loop_
 _atom_site_type_symbol
 _atom_site_label
 _atom_site_symmetry_multiplicity
 _atom_site_fract_x
 _atom_site_fract_y
 _atom_site_fract_z
 _atom_site_occupancy
  Nb  Nb0  1  0.000000  0.000000  0.000000  1
  Zn  Zn1  1  0.000000  0.500000  0.000000  1
  Zn  Zn2  1  0.499811  0.000000  0.165600  1
  Zn  Zn3  1  0.999805  0.500000  0.337136  1
  Zn  Zn4  1  0.500000  0.000000  0.500000  1
  Zn  Zn5  1  0.000195  0.500000  0.662864  1
  Zn  Zn6  1  0.500189  0.000000  0.834400  1
  Ga  Ga7  1  0.499811  0.500000  0.170928  1
  Ga  Ga8  1  0.999810  0.000000  0.335144  1
  Ga  Ga9  1  0.500000  0.500000  0.500000  1
  Ga  Ga10  1  0.000190  0.000000  0.664857  1
  Ga  Ga11  1  0.500189  0.500000  0.829073  1
  Rh  Rh12  1  0.500001  0.259307  0.000000  1
  Rh  Rh13  1  0.499999  0.740692  0.000000  1
  Rh  Rh14  1  0.999818  0.252810  0.167967  1
  Rh  Rh15  1  0.999824  0.747189  0.167966  1
  Rh  Rh16  1  0.499822  0.248381  0.332861  1
  Rh  Rh17  1  0.499825  0.751619  0.332861  1
  Rh  Rh18  1  0.000008  0.248881  0.500000  1
  Rh  Rh19  1  0.999992  0.751120  0.500000  1
  Rh  Rh20  1  0.500175  0.248382  0.667139  1
  Rh  Rh21  1  0.500178  0.751620  0.667139  1
  Rh  Rh22  1  0.000175  0.252810  0.832034  1
  Rh  Rh23  1  0.000181  0.747189  0.832033  1
