# generated using pymatgen
data_In9Hg(Ir2Au)2
_symmetry_space_group_name_H-M   'P 1'
_cell_length_a   7.24058172
_cell_length_b   7.17137825
_cell_length_c   6.99069300
_cell_angle_alpha   90.00000000
_cell_angle_beta   90.00000000
_cell_angle_gamma   90.85627470
_symmetry_Int_Tables_number   1
_chemical_formula_structural   In9Hg(Ir2Au)2
_chemical_formula_sum   'In9 Hg1 Ir4 Au2'
_cell_volume   362.95085054
_cell_formula_units_Z   1
loop_
 _symmetry_equiv_pos_site_id
 _symmetry_equiv_pos_as_xyz
  1  'x, y, z'
loop_
 _atom_site_type_symbol
 _atom_site_label
 _atom_site_symmetry_multiplicity
 _atom_site_fract_x
 _atom_site_fract_y
 _atom_site_fract_z
 _atom_site_occupancy
  In  In0  1  0.319852  0.354441  0.261556  1
  In  In1  1  0.149525  0.821569  0.763801  1
  In  In2  1  0.149525  0.821569  0.236199  1
  In  In3  1  0.850475  0.178431  0.236199  1
  In  In4  1  0.850475  0.178431  0.763801  1
  In  In5  1  0.680148  0.645559  0.261556  1
  In  In6  1  0.680148  0.645559  0.738444  1
  In  In7  1  0.319852  0.354441  0.738444  1
  In  In8  1  0.500000  0.000000  0.500000  1
  Hg  Hg9  1  0.500000  0.000000  0.000000  1
  Ir  Ir10  1  0.152309  0.140694  0.000000  1
  Ir  Ir11  1  0.636640  0.340236  0.500000  1
  Ir  Ir12  1  0.363360  0.659764  0.500000  1
  Ir  Ir13  1  0.847691  0.859306  0.000000  1
  Au  Au14  1  0.000000  0.500000  0.000000  1
  Au  Au15  1  0.000000  0.500000  0.500000  1
