# generated using pymatgen
data_Cs6SmBiBr12
_symmetry_space_group_name_H-M   'P 1'
_cell_length_a   10.10789021
_cell_length_b   10.11173221
_cell_length_c   8.40489600
_cell_angle_alpha   90.00000000
_cell_angle_beta   90.00000000
_cell_angle_gamma   90.02331545
_symmetry_Int_Tables_number   1
_chemical_formula_structural   Cs6SmBiBr12
_chemical_formula_sum   'Cs6 Sm1 Bi1 Br12'
_cell_volume   859.04988418
_cell_formula_units_Z   1
loop_
 _symmetry_equiv_pos_site_id
 _symmetry_equiv_pos_as_xyz
  1  'x, y, z'
loop_
 _atom_site_type_symbol
 _atom_site_label
 _atom_site_symmetry_multiplicity
 _atom_site_fract_x
 _atom_site_fract_y
 _atom_site_fract_z
 _atom_site_occupancy
  Cs  Cs0  1  0.000000  0.000000  0.500000  1
  Cs  Cs1  1  0.000000  0.000000  0.000000  1
  Cs  Cs2  1  0.234924  0.585065  0.500000  1
  Cs  Cs3  1  0.765076  0.414935  0.500000  1
  Cs  Cs4  1  0.415039  0.235014  0.000000  1
  Cs  Cs5  1  0.584961  0.764986  0.000000  1
  Sm  Sm6  1  0.000000  0.500000  0.000000  1
  Bi  Bi7  1  0.500000  0.000000  0.500000  1
  Br  Br8  1  0.694840  0.059107  0.743623  1
  Br  Br9  1  0.305160  0.940893  0.743623  1
  Br  Br10  1  0.941372  0.694087  0.242605  1
  Br  Br11  1  0.058628  0.305913  0.242605  1
  Br  Br12  1  0.305160  0.940893  0.256377  1
  Br  Br13  1  0.694840  0.059107  0.256377  1
  Br  Br14  1  0.058628  0.305913  0.757395  1
  Br  Br15  1  0.941372  0.694087  0.757395  1
  Br  Br16  1  0.570353  0.724030  0.500000  1
  Br  Br17  1  0.429647  0.275970  0.500000  1
  Br  Br18  1  0.274590  0.570076  0.000000  1
  Br  Br19  1  0.725410  0.429924  0.000000  1
