# generated using pymatgen
data_Ho3Tm7(In2Sb)2
_symmetry_space_group_name_H-M   'P 1'
_cell_length_a   8.90447800
_cell_length_b   8.90236658
_cell_length_c   6.47494500
_cell_angle_alpha   90.00000000
_cell_angle_beta   90.00000000
_cell_angle_gamma   120.00784600
_symmetry_Int_Tables_number   1
_chemical_formula_structural   Ho3Tm7(In2Sb)2
_chemical_formula_sum   'Ho3 Tm7 In4 Sb2'
_cell_volume   444.47395018
_cell_formula_units_Z   1
loop_
 _symmetry_equiv_pos_site_id
 _symmetry_equiv_pos_as_xyz
  1  'x, y, z'
loop_
 _atom_site_type_symbol
 _atom_site_label
 _atom_site_symmetry_multiplicity
 _atom_site_fract_x
 _atom_site_fract_y
 _atom_site_fract_z
 _atom_site_occupancy
  Ho  Ho0  1  0.759993  0.000000  0.750000  1
  Ho  Ho1  1  0.239545  0.235878  0.750000  1
  Ho  Ho2  1  0.003667  0.764122  0.750000  1
  Tm  Tm3  1  0.331422  0.665099  0.003683  1
  Tm  Tm4  1  0.666324  0.334901  0.496317  1
  Tm  Tm5  1  0.666324  0.334901  0.003683  1
  Tm  Tm6  1  0.331422  0.665099  0.496317  1
  Tm  Tm7  1  0.236660  0.000000  0.250000  1
  Tm  Tm8  1  0.999821  0.238582  0.250000  1
  Tm  Tm9  1  0.761239  0.761418  0.250000  1
  In  In10  1  0.603290  0.000000  0.250000  1
  In  In11  1  0.401151  0.000000  0.750000  1
  In  In12  1  0.999355  0.605801  0.250000  1
  In  In13  1  0.393555  0.394199  0.250000  1
  Sb  Sb14  1  0.606077  0.605920  0.750000  1
  Sb  Sb15  1  0.000157  0.394080  0.750000  1
