# generated using pymatgen
data_Er2Pa(CoSn)3
_symmetry_space_group_name_H-M   'P 1'
_cell_length_a   7.30331250
_cell_length_b   7.30331269
_cell_length_c   3.76772300
_cell_angle_alpha   90.00000000
_cell_angle_beta   90.00000000
_cell_angle_gamma   118.41107745
_symmetry_Int_Tables_number   1
_chemical_formula_structural   Er2Pa(CoSn)3
_chemical_formula_sum   'Er2 Pa1 Co3 Sn3'
_cell_volume   176.75940755
_cell_formula_units_Z   1
loop_
 _symmetry_equiv_pos_site_id
 _symmetry_equiv_pos_as_xyz
  1  'x, y, z'
loop_
 _atom_site_type_symbol
 _atom_site_label
 _atom_site_symmetry_multiplicity
 _atom_site_fract_x
 _atom_site_fract_y
 _atom_site_fract_z
 _atom_site_occupancy
  Er  Er0  1  0.002962  0.596609  0.000000  1
  Er  Er1  1  0.596609  0.002962  0.000000  1
  Pa  Pa2  1  0.415704  0.415704  0.000000  1
  Co  Co3  1  0.013519  0.013519  0.000000  1
  Co  Co4  1  0.631751  0.336864  0.500000  1
  Co  Co5  1  0.336864  0.631751  0.500000  1
  Sn  Sn6  1  0.757110  0.757110  0.500000  1
  Sn  Sn7  1  0.988784  0.256698  0.500000  1
  Sn  Sn8  1  0.256698  0.988784  0.500000  1
