# generated using pymatgen
data_TbY17(BiO)10
_symmetry_space_group_name_H-M   'P 1'
_cell_length_a   9.98746100
_cell_length_b   9.98746100
_cell_length_c   8.91668600
_cell_angle_alpha   90.00000000
_cell_angle_beta   90.00000000
_cell_angle_gamma   90.00000000
_symmetry_Int_Tables_number   1
_chemical_formula_structural   TbY17(BiO)10
_chemical_formula_sum   'Tb1 Y17 Bi10 O10'
_cell_volume   889.43387542
_cell_formula_units_Z   1
loop_
 _symmetry_equiv_pos_site_id
 _symmetry_equiv_pos_as_xyz
  1  'x, y, z'
loop_
 _atom_site_type_symbol
 _atom_site_label
 _atom_site_symmetry_multiplicity
 _atom_site_fract_x
 _atom_site_fract_y
 _atom_site_fract_z
 _atom_site_occupancy
  Tb  Tb0  1  0.000000  0.500000  0.323087  1
  Y  Y1  1  0.206893  0.894241  0.337948  1
  Y  Y2  1  0.500000  0.000000  0.676919  1
  Y  Y3  1  0.293051  0.605470  0.661978  1
  Y  Y4  1  0.706949  0.394530  0.661978  1
  Y  Y5  1  0.725412  0.916798  0.001832  1
  Y  Y6  1  0.394241  0.293107  0.337948  1
  Y  Y7  1  0.105470  0.206949  0.661978  1
  Y  Y8  1  0.605759  0.706893  0.337948  1
  Y  Y9  1  0.894530  0.793051  0.661978  1
  Y  Y10  1  0.274588  0.083202  0.001832  1
  Y  Y11  1  0.774636  0.583382  0.997958  1
  Y  Y12  1  0.225364  0.416618  0.997958  1
  Y  Y13  1  0.793107  0.105759  0.337948  1
  Y  Y14  1  0.583202  0.225412  0.001832  1
  Y  Y15  1  0.916618  0.274636  0.997958  1
  Y  Y16  1  0.083382  0.725364  0.997958  1
  Y  Y17  1  0.416798  0.774588  0.001832  1
  Bi  Bi18  1  0.594778  0.693835  0.696271  1
  Bi  Bi19  1  0.905156  0.806502  0.303567  1
  Bi  Bi20  1  0.693498  0.405156  0.303567  1
  Bi  Bi21  1  0.000000  0.500000  0.681981  1
  Bi  Bi22  1  0.193835  0.905222  0.696271  1
  Bi  Bi23  1  0.806165  0.094778  0.696271  1
  Bi  Bi24  1  0.306502  0.594844  0.303567  1
  Bi  Bi25  1  0.405222  0.306165  0.696271  1
  Bi  Bi26  1  0.094844  0.193498  0.303567  1
  Bi  Bi27  1  0.500000  0.000000  0.319447  1
  O  O28  1  0.225650  0.879778  0.084404  1
  O  O29  1  0.725416  0.379931  0.915574  1
  O  O30  1  0.500000  0.000000  0.937330  1
  O  O31  1  0.620222  0.725650  0.084404  1
  O  O32  1  0.000000  0.500000  0.063108  1
  O  O33  1  0.879931  0.774584  0.915574  1
  O  O34  1  0.120069  0.225416  0.915574  1
  O  O35  1  0.379778  0.274350  0.084404  1
  O  O36  1  0.774350  0.120222  0.084404  1
  O  O37  1  0.274584  0.620069  0.915574  1
