# generated using pymatgen
data_Ti12Ga8Cu4CN3
_symmetry_space_group_name_H-M   'P 1'
_cell_length_a   8.08671284
_cell_length_b   8.10746298
_cell_length_c   8.08671200
_cell_angle_alpha   60.08463123
_cell_angle_beta   60.00000345
_cell_angle_gamma   60.08463009
_symmetry_Int_Tables_number   1
_chemical_formula_structural   Ti12Ga8Cu4CN3
_chemical_formula_sum   'Ti12 Ga8 Cu4 C1 N3'
_cell_volume   375.37759651
_cell_formula_units_Z   1
loop_
 _symmetry_equiv_pos_site_id
 _symmetry_equiv_pos_as_xyz
  1  'x, y, z'
loop_
 _atom_site_type_symbol
 _atom_site_label
 _atom_site_symmetry_multiplicity
 _atom_site_fract_x
 _atom_site_fract_y
 _atom_site_fract_z
 _atom_site_occupancy
  Ti  Ti0  1  0.934974  0.931749  0.566638  1
  Ti  Ti1  1  0.683362  0.318251  0.315026  1
  Ti  Ti2  1  0.317677  0.682644  0.682002  1
  Ti  Ti3  1  0.682002  0.682644  0.317677  1
  Ti  Ti4  1  0.683362  0.318251  0.683362  1
  Ti  Ti5  1  0.317677  0.682644  0.317677  1
  Ti  Ti6  1  0.566638  0.931749  0.566638  1
  Ti  Ti7  1  0.566638  0.931749  0.934974  1
  Ti  Ti8  1  0.932323  0.567356  0.567998  1
  Ti  Ti9  1  0.932323  0.567356  0.932323  1
  Ti  Ti10  1  0.315026  0.318251  0.683362  1
  Ti  Ti11  1  0.567998  0.567356  0.932323  1
  Ga  Ga12  1  0.914275  0.257174  0.914275  1
  Ga  Ga13  1  0.335934  0.336020  0.992113  1
  Ga  Ga14  1  0.992113  0.336020  0.335934  1
  Ga  Ga15  1  0.335934  0.336020  0.335934  1
  Ga  Ga16  1  0.257887  0.913980  0.914066  1
  Ga  Ga17  1  0.914066  0.913980  0.914066  1
  Ga  Ga18  1  0.914066  0.913980  0.257887  1
  Ga  Ga19  1  0.335725  0.992826  0.335725  1
  Cu  Cu20  1  0.125000  0.625000  0.125000  1
  Cu  Cu21  1  0.125000  0.125000  0.625000  1
  Cu  Cu22  1  0.625000  0.125000  0.125000  1
  Cu  Cu23  1  0.125000  0.125000  0.125000  1
  C  C24  1  0.625000  0.125000  0.625000  1
  N  N25  1  0.625000  0.625000  0.125000  1
  N  N26  1  0.125000  0.625000  0.625000  1
  N  N27  1  0.625000  0.625000  0.625000  1
