# generated using pymatgen
data_Ba4EuPN5
_symmetry_space_group_name_H-M   'P 1'
_cell_length_a   7.87076218
_cell_length_b   7.87076180
_cell_length_c   8.64369482
_cell_angle_alpha   76.10577985
_cell_angle_beta   76.10578283
_cell_angle_gamma   93.52687292
_symmetry_Int_Tables_number   1
_chemical_formula_structural   Ba4EuPN5
_chemical_formula_sum   'Ba8 Eu2 P2 N10'
_cell_volume   500.53920799
_cell_formula_units_Z   2
loop_
 _symmetry_equiv_pos_site_id
 _symmetry_equiv_pos_as_xyz
  1  'x, y, z'
loop_
 _atom_site_type_symbol
 _atom_site_label
 _atom_site_symmetry_multiplicity
 _atom_site_fract_x
 _atom_site_fract_y
 _atom_site_fract_z
 _atom_site_occupancy
  Ba  Ba0  1  0.680241  0.680241  0.994052  1
  Ba  Ba1  1  0.319759  0.319759  0.005948  1
  Ba  Ba2  1  0.923317  0.923317  0.218212  1
  Ba  Ba3  1  0.076683  0.076683  0.781788  1
  Ba  Ba4  1  0.563692  0.084130  0.740039  1
  Ba  Ba5  1  0.915870  0.436308  0.259961  1
  Ba  Ba6  1  0.436308  0.915870  0.259961  1
  Ba  Ba7  1  0.084130  0.563692  0.740039  1
  Eu  Eu8  1  0.422371  0.422371  0.357509  1
  Eu  Eu9  1  0.577629  0.577629  0.642491  1
  P  P10  1  0.753385  0.246615  0.000000  1
  P  P11  1  0.246615  0.753385  0.000000  1
  N  N12  1  0.642167  0.642167  0.344479  1
  N  N13  1  0.357833  0.357833  0.655521  1
  N  N14  1  0.719422  0.035286  0.995061  1
  N  N15  1  0.964714  0.280578  0.004939  1
  N  N16  1  0.280578  0.964714  0.004939  1
  N  N17  1  0.035286  0.719422  0.995061  1
  N  N18  1  0.384999  0.717390  0.831049  1
  N  N19  1  0.282610  0.615001  0.168950  1
  N  N20  1  0.615001  0.282610  0.168950  1
  N  N21  1  0.717390  0.384999  0.831049  1
