# generated using pymatgen
data_Ag2Bi2RuRh3O14
_symmetry_space_group_name_H-M   'P 1'
_cell_length_a   7.24776855
_cell_length_b   7.11730524
_cell_length_c   7.23320959
_cell_angle_alpha   60.52865592
_cell_angle_beta   61.24046881
_cell_angle_gamma   60.59368585
_symmetry_Int_Tables_number   1
_chemical_formula_structural   Ag2Bi2RuRh3O14
_chemical_formula_sum   'Ag2 Bi2 Ru1 Rh3 O14'
_cell_volume   268.49963549
_cell_formula_units_Z   1
loop_
 _symmetry_equiv_pos_site_id
 _symmetry_equiv_pos_as_xyz
  1  'x, y, z'
loop_
 _atom_site_type_symbol
 _atom_site_label
 _atom_site_symmetry_multiplicity
 _atom_site_fract_x
 _atom_site_fract_y
 _atom_site_fract_z
 _atom_site_occupancy
  Ag  Ag0  1  0.125000  0.125000  0.125000  1
  Ag  Ag1  1  0.125000  0.625000  0.125000  1
  Bi  Bi2  1  0.625000  0.125000  0.125000  1
  Bi  Bi3  1  0.125000  0.125000  0.625000  1
  Ru  Ru4  1  0.125000  0.625000  0.625000  1
  Rh  Rh5  1  0.625000  0.625000  0.625000  1
  Rh  Rh6  1  0.625000  0.625000  0.125000  1
  Rh  Rh7  1  0.625000  0.125000  0.625000  1
  O  O8  1  0.240126  0.259528  0.240819  1
  O  O9  1  0.308845  0.684854  0.321447  1
  O  O10  1  0.951381  0.951309  0.557832  1
  O  O11  1  0.537942  0.960368  0.541322  1
  O  O12  1  0.706505  0.709568  0.293962  1
  O  O13  1  0.951381  0.539478  0.557832  1
  O  O14  1  0.712058  0.289632  0.708678  1
  O  O15  1  0.298619  0.298691  0.692168  1
  O  O16  1  0.706505  0.289966  0.293962  1
  O  O17  1  0.298619  0.710522  0.692168  1
  O  O18  1  0.941155  0.565146  0.928553  1
  O  O19  1  0.543495  0.540432  0.956038  1
  O  O20  1  0.009874  0.990472  0.009181  1
  O  O21  1  0.543495  0.960034  0.956038  1
