# generated using pymatgen
data_LaCuRh4
_symmetry_space_group_name_H-M   'P 1'
_cell_length_a   5.31667800
_cell_length_b   5.31667732
_cell_length_c   4.26427600
_cell_angle_alpha   90.00000000
_cell_angle_beta   90.00000000
_cell_angle_gamma   119.99999181
_symmetry_Int_Tables_number   1
_chemical_formula_structural   LaCuRh4
_chemical_formula_sum   'La1 Cu1 Rh4'
_cell_volume   104.38945608
_cell_formula_units_Z   1
loop_
 _symmetry_equiv_pos_site_id
 _symmetry_equiv_pos_as_xyz
  1  'x, y, z'
loop_
 _atom_site_type_symbol
 _atom_site_label
 _atom_site_symmetry_multiplicity
 _atom_site_fract_x
 _atom_site_fract_y
 _atom_site_fract_z
 _atom_site_occupancy
  La  La0  1  0.333333  0.666667  0.000000  1
  Cu  Cu1  1  0.666667  0.333333  0.000000  1
  Rh  Rh2  1  0.000000  0.000000  0.000000  1
  Rh  Rh3  1  0.335908  0.167955  0.500000  1
  Rh  Rh4  1  0.832045  0.167955  0.500000  1
  Rh  Rh5  1  0.832045  0.664092  0.500000  1
