# generated using pymatgen
data_Dy4TaGe8Mo5
_symmetry_space_group_name_H-M   'P 1'
_cell_length_a   6.94809200
_cell_length_b   7.09152400
_cell_length_c   13.20945500
_cell_angle_alpha   90.00000000
_cell_angle_beta   90.00000000
_cell_angle_gamma   90.00000000
_symmetry_Int_Tables_number   1
_chemical_formula_structural   Dy4TaGe8Mo5
_chemical_formula_sum   'Dy8 Ta2 Ge16 Mo10'
_cell_volume   650.86367954
_cell_formula_units_Z   2
loop_
 _symmetry_equiv_pos_site_id
 _symmetry_equiv_pos_as_xyz
  1  'x, y, z'
loop_
 _atom_site_type_symbol
 _atom_site_label
 _atom_site_symmetry_multiplicity
 _atom_site_fract_x
 _atom_site_fract_y
 _atom_site_fract_z
 _atom_site_occupancy
  Dy  Dy0  1  0.491144  0.328511  0.092739  1
  Dy  Dy1  1  0.991144  0.171489  0.407261  1
  Dy  Dy2  1  0.510766  0.669645  0.592495  1
  Dy  Dy3  1  0.010766  0.830355  0.907505  1
  Dy  Dy4  1  0.510766  0.669645  0.907505  1
  Dy  Dy5  1  0.010766  0.830355  0.592495  1
  Dy  Dy6  1  0.491144  0.328511  0.407261  1
  Dy  Dy7  1  0.991144  0.171489  0.092739  1
  Ta  Ta8  1  0.337272  0.986604  0.250000  1
  Ta  Ta9  1  0.837272  0.513396  0.250000  1
  Ge  Ge10  1  0.813190  0.642840  0.750000  1
  Ge  Ge11  1  0.313190  0.857160  0.750000  1
  Ge  Ge12  1  0.192402  0.357354  0.250000  1
  Ge  Ge13  1  0.692402  0.142646  0.250000  1
  Ge  Ge14  1  0.531211  0.366920  0.750000  1
  Ge  Ge15  1  0.031211  0.133080  0.750000  1
  Ge  Ge16  1  0.466455  0.625303  0.250000  1
  Ge  Ge17  1  0.966455  0.874697  0.250000  1
  Ge  Ge18  1  0.670002  0.046023  0.548045  1
  Ge  Ge19  1  0.170002  0.453977  0.951955  1
  Ge  Ge20  1  0.328187  0.953815  0.044723  1
  Ge  Ge21  1  0.828187  0.546185  0.455277  1
  Ge  Ge22  1  0.328187  0.953815  0.455277  1
  Ge  Ge23  1  0.828187  0.546185  0.044723  1
  Ge  Ge24  1  0.670002  0.046023  0.951955  1
  Ge  Ge25  1  0.170002  0.453977  0.548045  1
  Mo  Mo26  1  0.667175  0.005510  0.750000  1
  Mo  Mo27  1  0.167175  0.494490  0.750000  1
  Mo  Mo28  1  0.830838  0.343126  0.627978  1
  Mo  Mo29  1  0.330838  0.156874  0.872022  1
  Mo  Mo30  1  0.165212  0.658014  0.126035  1
  Mo  Mo31  1  0.665212  0.841986  0.373965  1
  Mo  Mo32  1  0.165212  0.658014  0.373965  1
  Mo  Mo33  1  0.665212  0.841986  0.126035  1
  Mo  Mo34  1  0.830838  0.343126  0.872022  1
  Mo  Mo35  1  0.330838  0.156874  0.627978  1
