# generated using pymatgen
data_Hf4MoIrRh2
_symmetry_space_group_name_H-M   'P 1'
_cell_length_a   6.56316800
_cell_length_b   6.56293800
_cell_length_c   6.56521300
_cell_angle_alpha   89.99989526
_cell_angle_beta   90.00010474
_cell_angle_gamma   90.00035793
_symmetry_Int_Tables_number   1
_chemical_formula_structural   Hf4MoIrRh2
_chemical_formula_sum   'Hf8 Mo2 Ir2 Rh4'
_cell_volume   282.78778323
_cell_formula_units_Z   2
loop_
 _symmetry_equiv_pos_site_id
 _symmetry_equiv_pos_as_xyz
  1  'x, y, z'
loop_
 _atom_site_type_symbol
 _atom_site_label
 _atom_site_symmetry_multiplicity
 _atom_site_fract_x
 _atom_site_fract_y
 _atom_site_fract_z
 _atom_site_occupancy
  Hf  Hf0  1  0.250116  0.000017  0.249894  1
  Hf  Hf1  1  0.250117  0.499997  0.249892  1
  Hf  Hf2  1  0.750115  0.999988  0.250106  1
  Hf  Hf3  1  0.750115  0.500000  0.250108  1
  Hf  Hf4  1  0.249880  0.000014  0.749884  1
  Hf  Hf5  1  0.249880  0.500000  0.749884  1
  Hf  Hf6  1  0.749882  0.999987  0.750116  1
  Hf  Hf7  1  0.749880  0.500003  0.750117  1
  Mo  Mo8  1  0.500084  0.749999  0.500073  1
  Mo  Mo9  1  0.000028  0.250000  0.999932  1
  Ir  Ir10  1  0.999984  0.750000  0.000086  1
  Ir  Ir11  1  0.499917  0.250001  0.499911  1
  Rh  Rh12  1  0.500260  0.250000  0.999995  1
  Rh  Rh13  1  0.499740  0.750001  0.000008  1
  Rh  Rh14  1  0.000265  0.750001  0.499953  1
  Rh  Rh15  1  0.999737  0.250001  0.500043  1
