# generated using pymatgen
data_Tb8Ho11ErSn16
_symmetry_space_group_name_H-M   'P 1'
_cell_length_a   8.02987902
_cell_length_b   8.17313602
_cell_length_c   15.44537000
_cell_angle_alpha   90.00000000
_cell_angle_beta   90.00000000
_cell_angle_gamma   90.00821796
_symmetry_Int_Tables_number   1
_chemical_formula_structural   Tb8Ho11ErSn16
_chemical_formula_sum   'Tb8 Ho11 Er1 Sn16'
_cell_volume   1013.66871003
_cell_formula_units_Z   1
loop_
 _symmetry_equiv_pos_site_id
 _symmetry_equiv_pos_as_xyz
  1  'x, y, z'
loop_
 _atom_site_type_symbol
 _atom_site_label
 _atom_site_symmetry_multiplicity
 _atom_site_fract_x
 _atom_site_fract_y
 _atom_site_fract_z
 _atom_site_occupancy
  Tb  Tb0  1  0.520412  0.319898  0.902473  1
  Tb  Tb1  1  0.020399  0.180107  0.597516  1
  Tb  Tb2  1  0.479569  0.680134  0.402473  1
  Tb  Tb3  1  0.979628  0.819927  0.097531  1
  Tb  Tb4  1  0.479569  0.680134  0.097527  1
  Tb  Tb5  1  0.979628  0.819927  0.402469  1
  Tb  Tb6  1  0.520412  0.319898  0.597527  1
  Tb  Tb7  1  0.020399  0.180107  0.902484  1
  Ho  Ho8  1  0.367453  0.835790  0.878015  1
  Ho  Ho9  1  0.867450  0.664200  0.622006  1
  Ho  Ho10  1  0.632479  0.164169  0.377996  1
  Ho  Ho11  1  0.132581  0.335759  0.122007  1
  Ho  Ho12  1  0.632479  0.164169  0.122004  1
  Ho  Ho13  1  0.132581  0.335759  0.377993  1
  Ho  Ho14  1  0.367453  0.835790  0.621985  1
  Ho  Ho15  1  0.867450  0.664200  0.877994  1
  Ho  Ho16  1  0.198031  0.503164  0.750000  1
  Ho  Ho17  1  0.698025  0.996834  0.750000  1
  Ho  Ho18  1  0.801996  0.496850  0.250000  1
  Er  Er19  1  0.301913  0.003206  0.250000  1
  Sn  Sn20  1  0.293407  0.035739  0.041981  1
  Sn  Sn21  1  0.793405  0.464268  0.458129  1
  Sn  Sn22  1  0.706587  0.964237  0.541866  1
  Sn  Sn23  1  0.206597  0.535736  0.958137  1
  Sn  Sn24  1  0.706587  0.964237  0.958134  1
  Sn  Sn25  1  0.206597  0.535736  0.541863  1
  Sn  Sn26  1  0.293407  0.035739  0.458019  1
  Sn  Sn27  1  0.793405  0.464268  0.041871  1
  Sn  Sn28  1  0.564936  0.619907  0.750000  1
  Sn  Sn29  1  0.064986  0.880122  0.750000  1
  Sn  Sn30  1  0.434984  0.379974  0.250000  1
  Sn  Sn31  1  0.935293  0.119774  0.250000  1
  Sn  Sn32  1  0.328457  0.146139  0.750000  1
  Sn  Sn33  1  0.828526  0.353771  0.750000  1
  Sn  Sn34  1  0.671400  0.853867  0.250000  1
  Sn  Sn35  1  0.171519  0.646460  0.250000  1
