# generated using pymatgen
data_Sr4In2Ir3Pt
_symmetry_space_group_name_H-M   'P 1'
_cell_length_a   6.07492649
_cell_length_b   6.07375304
_cell_length_c   8.21843894
_cell_angle_alpha   78.93611485
_cell_angle_beta   78.75204736
_cell_angle_gamma   60.03469664
_symmetry_Int_Tables_number   1
_chemical_formula_structural   Sr4In2Ir3Pt
_chemical_formula_sum   'Sr4 In2 Ir3 Pt1'
_cell_volume   256.06217866
_cell_formula_units_Z   1
loop_
 _symmetry_equiv_pos_site_id
 _symmetry_equiv_pos_as_xyz
  1  'x, y, z'
loop_
 _atom_site_type_symbol
 _atom_site_label
 _atom_site_symmetry_multiplicity
 _atom_site_fract_x
 _atom_site_fract_y
 _atom_site_fract_z
 _atom_site_occupancy
  Sr  Sr0  1  0.502632  0.789402  0.354061  1
  Sr  Sr1  1  0.211649  0.497693  0.144152  1
  Sr  Sr2  1  0.496195  0.209132  0.645700  1
  Sr  Sr3  1  0.790568  0.504319  0.856080  1
  In  In4  1  0.894683  0.101164  0.245838  1
  In  In5  1  0.107688  0.887751  0.755290  1
  Ir  Ir6  1  0.298810  0.993867  0.991115  1
  Ir  Ir7  1  0.006691  0.711892  0.508570  1
  Ir  Ir8  1  0.697849  0.008957  0.007502  1
  Pt  Pt9  1  0.993235  0.295823  0.491693  1
