# generated using pymatgen
data_AlV6Zn(GaN)2
_symmetry_space_group_name_H-M   'P 1'
_cell_length_a   6.60802311
_cell_length_b   6.60698800
_cell_length_c   6.60639521
_cell_angle_alpha   90.00000000
_cell_angle_beta   89.99130622
_cell_angle_gamma   90.00000000
_symmetry_Int_Tables_number   1
_chemical_formula_structural   AlV6Zn(GaN)2
_chemical_formula_sum   'Al2 V12 Zn2 Ga4 N4'
_cell_volume   288.42945984
_cell_formula_units_Z   2
loop_
 _symmetry_equiv_pos_site_id
 _symmetry_equiv_pos_as_xyz
  1  'x, y, z'
loop_
 _atom_site_type_symbol
 _atom_site_label
 _atom_site_symmetry_multiplicity
 _atom_site_fract_x
 _atom_site_fract_y
 _atom_site_fract_z
 _atom_site_occupancy
  Al  Al0  1  0.572381  0.427942  0.929824  1
  Al  Al1  1  0.427619  0.927942  0.570176  1
  V  V2  1  0.788440  0.959786  0.378772  1
  V  V3  1  0.708159  0.040602  0.872018  1
  V  V4  1  0.211560  0.459786  0.121228  1
  V  V5  1  0.291841  0.540602  0.627982  1
  V  V6  1  0.956532  0.376437  0.791018  1
  V  V7  1  0.043468  0.876437  0.708982  1
  V  V8  1  0.462179  0.126082  0.210112  1
  V  V9  1  0.537821  0.626082  0.289888  1
  V  V10  1  0.377718  0.789168  0.958304  1
  V  V11  1  0.872303  0.708168  0.038891  1
  V  V12  1  0.127697  0.208168  0.461109  1
  V  V13  1  0.622282  0.289168  0.541696  1
  Zn  Zn14  1  0.931800  0.568903  0.429157  1
  Zn  Zn15  1  0.068200  0.068903  0.070843  1
  Ga  Ga16  1  0.173750  0.820623  0.317826  1
  Ga  Ga17  1  0.316518  0.177892  0.824942  1
  Ga  Ga18  1  0.826250  0.320623  0.182174  1
  Ga  Ga19  1  0.683482  0.677892  0.675058  1
  N  N20  1  0.876458  0.127610  0.625744  1
  N  N21  1  0.627290  0.876789  0.125257  1
  N  N22  1  0.123542  0.627610  0.874256  1
  N  N23  1  0.372710  0.376789  0.374743  1
