# generated using pymatgen
data_YErNpO6
_symmetry_space_group_name_H-M   'P 1'
_cell_length_a   5.53031400
_cell_length_b   7.82437861
_cell_length_c   11.79849136
_cell_angle_alpha   73.92935233
_cell_angle_beta   90.00000000
_cell_angle_gamma   90.00000000
_symmetry_Int_Tables_number   1
_chemical_formula_structural   YErNpO6
_chemical_formula_sum   'Y4 Er4 Np4 O24'
_cell_volume   490.58453533
_cell_formula_units_Z   4
loop_
 _symmetry_equiv_pos_site_id
 _symmetry_equiv_pos_as_xyz
  1  'x, y, z'
loop_
 _atom_site_type_symbol
 _atom_site_label
 _atom_site_symmetry_multiplicity
 _atom_site_fract_x
 _atom_site_fract_y
 _atom_site_fract_z
 _atom_site_occupancy
  Y  Y0  1  0.254592  0.000000  0.750000  1
  Y  Y1  1  0.745408  0.000000  0.250000  1
  Y  Y2  1  0.303221  0.500000  0.750000  1
  Y  Y3  1  0.696779  0.500000  0.250000  1
  Er  Er4  1  0.185700  0.793994  0.079711  1
  Er  Er5  1  0.185700  0.206006  0.420289  1
  Er  Er6  1  0.814300  0.206006  0.920289  1
  Er  Er7  1  0.814300  0.793994  0.579711  1
  Np  Np8  1  0.743828  0.721258  0.886768  1
  Np  Np9  1  0.256172  0.721258  0.386768  1
  Np  Np10  1  0.743828  0.278742  0.613232  1
  Np  Np11  1  0.256172  0.278742  0.113232  1
  O  O12  1  0.875758  0.371831  0.445233  1
  O  O13  1  0.444873  0.847653  0.932662  1
  O  O14  1  0.875758  0.628169  0.054767  1
  O  O15  1  0.034456  0.286473  0.733454  1
  O  O16  1  0.965544  0.286473  0.233454  1
  O  O17  1  0.124242  0.371831  0.945233  1
  O  O18  1  0.613940  0.480178  0.884019  1
  O  O19  1  0.555127  0.152347  0.067338  1
  O  O20  1  0.124242  0.628169  0.554767  1
  O  O21  1  0.034456  0.713527  0.766546  1
  O  O22  1  0.448624  0.199369  0.274362  1
  O  O23  1  0.046189  0.945281  0.397245  1
  O  O24  1  0.444873  0.152347  0.567338  1
  O  O25  1  0.965544  0.713527  0.266546  1
  O  O26  1  0.953811  0.054719  0.602755  1
  O  O27  1  0.551376  0.199369  0.774362  1
  O  O28  1  0.551376  0.800631  0.725638  1
  O  O29  1  0.046189  0.054719  0.102755  1
  O  O30  1  0.613940  0.519822  0.615981  1
  O  O31  1  0.386060  0.519822  0.115981  1
  O  O32  1  0.448624  0.800631  0.225638  1
  O  O33  1  0.386060  0.480178  0.384019  1
  O  O34  1  0.555127  0.847653  0.432662  1
  O  O35  1  0.953811  0.945281  0.897245  1
