# generated using pymatgen
data_TbEr2(CuSi)4
_symmetry_space_group_name_H-M   'P 1'
_cell_length_a   7.81550512
_cell_length_b   7.81550478
_cell_length_c   7.81550517
_cell_angle_alpha   149.38721559
_cell_angle_beta   130.42718900
_cell_angle_gamma   59.39546352
_symmetry_Int_Tables_number   1
_chemical_formula_structural   TbEr2(CuSi)4
_chemical_formula_sum   'Tb1 Er2 Cu4 Si4'
_cell_volume   183.57261927
_cell_formula_units_Z   1
loop_
 _symmetry_equiv_pos_site_id
 _symmetry_equiv_pos_as_xyz
  1  'x, y, z'
loop_
 _atom_site_type_symbol
 _atom_site_label
 _atom_site_symmetry_multiplicity
 _atom_site_fract_x
 _atom_site_fract_y
 _atom_site_fract_z
 _atom_site_occupancy
  Tb  Tb0  1  0.500000  0.000000  0.500000  1
  Er  Er1  1  0.870920  0.870920  0.000000  1
  Er  Er2  1  0.129080  0.129080  0.000000  1
  Cu  Cu3  1  0.522392  0.331208  0.191184  1
  Cu  Cu4  1  0.859977  0.668792  0.191184  1
  Cu  Cu5  1  0.140023  0.331208  0.808816  1
  Cu  Cu6  1  0.477608  0.668792  0.808816  1
  Si  Si7  1  0.816402  0.500000  0.316402  1
  Si  Si8  1  0.183598  0.500000  0.683598  1
  Si  Si9  1  0.283366  0.783366  0.500000  1
  Si  Si10  1  0.716634  0.216634  0.500000  1
