# generated using pymatgen
data_Lu(ScS2)3
_symmetry_space_group_name_H-M   'P 1'
_cell_length_a   6.42564173
_cell_length_b   6.42564233
_cell_length_c   6.58107197
_cell_angle_alpha   99.34345732
_cell_angle_beta   99.34345264
_cell_angle_gamma   119.93521145
_symmetry_Int_Tables_number   1
_chemical_formula_structural   Lu(ScS2)3
_chemical_formula_sum   'Lu1 Sc3 S6'
_cell_volume   222.74089582
_cell_formula_units_Z   1
loop_
 _symmetry_equiv_pos_site_id
 _symmetry_equiv_pos_as_xyz
  1  'x, y, z'
loop_
 _atom_site_type_symbol
 _atom_site_label
 _atom_site_symmetry_multiplicity
 _atom_site_fract_x
 _atom_site_fract_y
 _atom_site_fract_z
 _atom_site_occupancy
  Lu  Lu0  1  0.000000  0.000000  0.500000  1
  Sc  Sc1  1  0.832753  0.167247  0.000000  1
  Sc  Sc2  1  0.500000  0.500000  0.000000  1
  Sc  Sc3  1  0.167247  0.832753  0.000000  1
  S  S4  1  0.910746  0.583529  0.233436  1
  S  S5  1  0.583529  0.910746  0.233436  1
  S  S6  1  0.238501  0.238501  0.235976  1
  S  S7  1  0.761498  0.761498  0.764023  1
  S  S8  1  0.416470  0.089252  0.766563  1
  S  S9  1  0.089252  0.416470  0.766563  1
