# generated using pymatgen
data_GaCu(RhS2)4
_symmetry_space_group_name_H-M   'P 1'
_cell_length_a   7.05765343
_cell_length_b   7.05765364
_cell_length_c   7.05765400
_cell_angle_alpha   59.99999833
_cell_angle_beta   59.99999734
_cell_angle_gamma   59.99999921
_symmetry_Int_Tables_number   1
_chemical_formula_structural   GaCu(RhS2)4
_chemical_formula_sum   'Ga1 Cu1 Rh4 S8'
_cell_volume   248.57990546
_cell_formula_units_Z   1
loop_
 _symmetry_equiv_pos_site_id
 _symmetry_equiv_pos_as_xyz
  1  'x, y, z'
loop_
 _atom_site_type_symbol
 _atom_site_label
 _atom_site_symmetry_multiplicity
 _atom_site_fract_x
 _atom_site_fract_y
 _atom_site_fract_z
 _atom_site_occupancy
  Ga  Ga0  1  0.500000  0.500000  0.500000  1
  Cu  Cu1  1  0.750000  0.750000  0.750000  1
  Rh  Rh2  1  0.632048  0.122651  0.122651  1
  Rh  Rh3  1  0.122651  0.632048  0.122651  1
  Rh  Rh4  1  0.122651  0.122651  0.632048  1
  Rh  Rh5  1  0.122651  0.122651  0.122651  1
  S  S6  1  0.341775  0.886075  0.886075  1
  S  S7  1  0.886075  0.341775  0.886075  1
  S  S8  1  0.886075  0.886075  0.341775  1
  S  S9  1  0.886075  0.886075  0.886075  1
  S  S10  1  0.910346  0.363218  0.363218  1
  S  S11  1  0.363218  0.910346  0.363218  1
  S  S12  1  0.363218  0.363218  0.910346  1
  S  S13  1  0.363218  0.363218  0.363218  1
