# generated using pymatgen
data_NdTm2Ir5Rh4
_symmetry_space_group_name_H-M   'P 1'
_cell_length_a   5.31154013
_cell_length_b   5.30466506
_cell_length_c   17.43854538
_cell_angle_alpha   90.00006661
_cell_angle_beta   90.02076727
_cell_angle_gamma   119.96431303
_symmetry_Int_Tables_number   1
_chemical_formula_structural   NdTm2Ir5Rh4
_chemical_formula_sum   'Nd2 Tm4 Ir10 Rh8'
_cell_volume   425.67225696
_cell_formula_units_Z   2
loop_
 _symmetry_equiv_pos_site_id
 _symmetry_equiv_pos_as_xyz
  1  'x, y, z'
loop_
 _atom_site_type_symbol
 _atom_site_label
 _atom_site_symmetry_multiplicity
 _atom_site_fract_x
 _atom_site_fract_y
 _atom_site_fract_z
 _atom_site_occupancy
  Nd  Nd0  1  0.333619  0.666833  0.749900  1
  Nd  Nd1  1  0.666846  0.333401  0.249192  1
  Tm  Tm2  1  0.333099  0.666550  0.540572  1
  Tm  Tm3  1  0.666464  0.333226  0.040097  1
  Tm  Tm4  1  0.666773  0.333381  0.460179  1
  Tm  Tm5  1  0.332012  0.666008  0.960043  1
  Ir  Ir6  1  0.168254  0.335706  0.124663  1
  Ir  Ir7  1  0.832133  0.663959  0.623871  1
  Ir  Ir8  1  0.664623  0.832295  0.124354  1
  Ir  Ir9  1  0.168246  0.832516  0.124696  1
  Ir  Ir10  1  0.832124  0.168207  0.623890  1
  Ir  Ir11  1  0.335415  0.167728  0.624407  1
  Ir  Ir12  1  0.835072  0.665075  0.875680  1
  Ir  Ir13  1  0.835065  0.170030  0.875658  1
  Ir  Ir14  1  0.994968  0.997480  0.999586  1
  Ir  Ir15  1  0.000847  0.000423  0.499483  1
  Rh  Rh16  1  0.337489  0.168762  0.876034  1
  Rh  Rh17  1  0.664624  0.832283  0.376307  1
  Rh  Rh18  1  0.167286  0.832168  0.376037  1
  Rh  Rh19  1  0.167272  0.335074  0.376065  1
  Rh  Rh20  1  0.000373  0.000211  0.249846  1
  Rh  Rh21  1  0.996019  0.997991  0.749867  1
  Rh  Rh22  1  0.333389  0.666633  0.250045  1
  Rh  Rh23  1  0.667987  0.334060  0.749526  1
