# generated using pymatgen
data_Ti13Mn3Al9GaPt4
_symmetry_space_group_name_H-M   'P 1'
_cell_length_a   8.71195491
_cell_length_b   8.71195457
_cell_length_c   8.66795303
_cell_angle_alpha   59.90965217
_cell_angle_beta   59.90966195
_cell_angle_gamma   59.67375669
_symmetry_Int_Tables_number   1
_chemical_formula_structural   Ti13Mn3Al9GaPt4
_chemical_formula_sum   'Ti13 Mn3 Al9 Ga1 Pt4'
_cell_volume   463.40322539
_cell_formula_units_Z   1
loop_
 _symmetry_equiv_pos_site_id
 _symmetry_equiv_pos_as_xyz
  1  'x, y, z'
loop_
 _atom_site_type_symbol
 _atom_site_label
 _atom_site_symmetry_multiplicity
 _atom_site_fract_x
 _atom_site_fract_y
 _atom_site_fract_z
 _atom_site_occupancy
  Ti  Ti0  1  0.213979  0.213979  0.778235  1
  Ti  Ti1  1  0.779581  0.215590  0.215916  1
  Ti  Ti2  1  0.215590  0.779581  0.215916  1
  Ti  Ti3  1  0.792673  0.792673  0.198965  1
  Ti  Ti4  1  0.196859  0.795384  0.791687  1
  Ti  Ti5  1  0.795384  0.196859  0.791687  1
  Ti  Ti6  1  0.379373  0.379373  0.386531  1
  Ti  Ti7  1  0.385353  0.855158  0.388479  1
  Ti  Ti8  1  0.855158  0.385353  0.388479  1
  Ti  Ti9  1  0.384889  0.384889  0.852140  1
  Ti  Ti10  1  0.844489  0.485559  0.825285  1
  Ti  Ti11  1  0.485559  0.844489  0.825285  1
  Ti  Ti12  1  0.834043  0.834043  0.482407  1
  Mn  Mn13  1  0.998285  0.501264  0.507481  1
  Mn  Mn14  1  0.501264  0.998285  0.507481  1
  Mn  Mn15  1  0.500533  0.500533  0.501193  1
  Al  Al16  1  0.154174  0.154174  0.154744  1
  Al  Al17  1  0.152457  0.524675  0.172642  1
  Al  Al18  1  0.524675  0.152457  0.172642  1
  Al  Al19  1  0.164840  0.164840  0.521899  1
  Al  Al20  1  0.620588  0.620588  0.609869  1
  Al  Al21  1  0.615372  0.151044  0.610546  1
  Al  Al22  1  0.151044  0.615372  0.610546  1
  Al  Al23  1  0.616475  0.616475  0.151412  1
  Al  Al24  1  0.829497  0.829497  0.827724  1
  Ga  Ga25  1  0.003474  0.003474  0.006366  1
  Pt  Pt26  1  0.003938  0.003938  0.498420  1
  Pt  Pt27  1  0.497910  0.005007  0.002309  1
  Pt  Pt28  1  0.005007  0.497910  0.002309  1
  Pt  Pt29  1  0.497531  0.497531  0.001405  1
