# generated using pymatgen
data_Y3Ga5Rh
_symmetry_space_group_name_H-M   'P 1'
_cell_length_a   6.94613300
_cell_length_b   6.94613307
_cell_length_c   4.33063400
_cell_angle_alpha   90.00000000
_cell_angle_beta   90.00000000
_cell_angle_gamma   119.99999493
_symmetry_Int_Tables_number   1
_chemical_formula_structural   Y3Ga5Rh
_chemical_formula_sum   'Y3 Ga5 Rh1'
_cell_volume   180.95405868
_cell_formula_units_Z   1
loop_
 _symmetry_equiv_pos_site_id
 _symmetry_equiv_pos_as_xyz
  1  'x, y, z'
loop_
 _atom_site_type_symbol
 _atom_site_label
 _atom_site_symmetry_multiplicity
 _atom_site_fract_x
 _atom_site_fract_y
 _atom_site_fract_z
 _atom_site_occupancy
  Y  Y0  1  0.590185  0.000000  0.000000  1
  Y  Y1  1  0.409814  0.409814  0.000000  1
  Y  Y2  1  0.000000  0.590186  0.000000  1
  Ga  Ga3  1  0.236419  0.000000  0.500000  1
  Ga  Ga4  1  0.000000  0.236418  0.500000  1
  Ga  Ga5  1  0.666667  0.333333  0.500000  1
  Ga  Ga6  1  0.333333  0.666667  0.500000  1
  Ga  Ga7  1  0.763581  0.763582  0.500000  1
  Rh  Rh8  1  0.000000  0.000000  0.000000  1
