# generated using pymatgen
data_DyLu4(Hg2Pt)2
_symmetry_space_group_name_H-M   'P 1'
_cell_length_a   3.55019000
_cell_length_b   7.89703900
_cell_length_c   18.16762200
_cell_angle_alpha   90.00000000
_cell_angle_beta   90.00000000
_cell_angle_gamma   90.00000000
_symmetry_Int_Tables_number   1
_chemical_formula_structural   DyLu4(Hg2Pt)2
_chemical_formula_sum   'Dy2 Lu8 Hg8 Pt4'
_cell_volume   509.34724850
_cell_formula_units_Z   2
loop_
 _symmetry_equiv_pos_site_id
 _symmetry_equiv_pos_as_xyz
  1  'x, y, z'
loop_
 _atom_site_type_symbol
 _atom_site_label
 _atom_site_symmetry_multiplicity
 _atom_site_fract_x
 _atom_site_fract_y
 _atom_site_fract_z
 _atom_site_occupancy
  Dy  Dy0  1  0.000000  0.000000  0.000000  1
  Dy  Dy1  1  0.000000  0.500000  0.500000  1
  Lu  Lu2  1  0.000000  0.114337  0.414270  1
  Lu  Lu3  1  0.000000  0.885663  0.585730  1
  Lu  Lu4  1  0.000000  0.385663  0.914270  1
  Lu  Lu5  1  0.000000  0.614337  0.085730  1
  Lu  Lu6  1  0.000000  0.242882  0.217590  1
  Lu  Lu7  1  0.000000  0.757118  0.782410  1
  Lu  Lu8  1  0.000000  0.257118  0.717590  1
  Lu  Lu9  1  0.000000  0.742882  0.282410  1
  Hg  Hg10  1  0.500000  0.424217  0.353565  1
  Hg  Hg11  1  0.500000  0.575783  0.646435  1
  Hg  Hg12  1  0.500000  0.075783  0.853565  1
  Hg  Hg13  1  0.500000  0.924217  0.146435  1
  Hg  Hg14  1  0.500000  0.291446  0.063425  1
  Hg  Hg15  1  0.500000  0.708554  0.936575  1
  Hg  Hg16  1  0.500000  0.208554  0.563425  1
  Hg  Hg17  1  0.500000  0.791446  0.436575  1
  Pt  Pt18  1  0.500000  0.028785  0.303460  1
  Pt  Pt19  1  0.500000  0.971215  0.696540  1
  Pt  Pt20  1  0.500000  0.471215  0.803460  1
  Pt  Pt21  1  0.500000  0.528785  0.196540  1
