# generated using pymatgen
data_Hf4NbSi4W3
_symmetry_space_group_name_H-M   'P 1'
_cell_length_a   3.53971500
_cell_length_b   6.95189869
_cell_length_c   8.27890619
_cell_angle_alpha   90.06706637
_cell_angle_beta   90.00000000
_cell_angle_gamma   90.00000000
_symmetry_Int_Tables_number   1
_chemical_formula_structural   Hf4NbSi4W3
_chemical_formula_sum   'Hf4 Nb1 Si4 W3'
_cell_volume   203.72503208
_cell_formula_units_Z   1
loop_
 _symmetry_equiv_pos_site_id
 _symmetry_equiv_pos_as_xyz
  1  'x, y, z'
loop_
 _atom_site_type_symbol
 _atom_site_label
 _atom_site_symmetry_multiplicity
 _atom_site_fract_x
 _atom_site_fract_y
 _atom_site_fract_z
 _atom_site_occupancy
  Hf  Hf0  1  0.250000  0.542615  0.164885  1
  Hf  Hf1  1  0.250000  0.042597  0.333147  1
  Hf  Hf2  1  0.750000  0.456367  0.834625  1
  Hf  Hf3  1  0.750000  0.960833  0.669911  1
  Nb  Nb4  1  0.250000  0.632699  0.560541  1
  Si  Si5  1  0.250000  0.758155  0.862328  1
  Si  Si6  1  0.250000  0.255378  0.639827  1
  Si  Si7  1  0.750000  0.242913  0.139864  1
  Si  Si8  1  0.750000  0.742879  0.355882  1
  W  W9  1  0.250000  0.134938  0.939505  1
  W  W10  1  0.750000  0.362459  0.438207  1
  W  W11  1  0.750000  0.868167  0.061278  1
