# generated using pymatgen
data_Zr5SiSn2Bi
_symmetry_space_group_name_H-M   'P 1'
_cell_length_a   8.74842881
_cell_length_b   8.74192824
_cell_length_c   5.91965300
_cell_angle_alpha   90.00000000
_cell_angle_beta   90.00000000
_cell_angle_gamma   119.97541971
_symmetry_Int_Tables_number   1
_chemical_formula_structural   Zr5SiSn2Bi
_chemical_formula_sum   'Zr10 Si2 Sn4 Bi2'
_cell_volume   392.16758738
_cell_formula_units_Z   2
loop_
 _symmetry_equiv_pos_site_id
 _symmetry_equiv_pos_as_xyz
  1  'x, y, z'
loop_
 _atom_site_type_symbol
 _atom_site_label
 _atom_site_symmetry_multiplicity
 _atom_site_fract_x
 _atom_site_fract_y
 _atom_site_fract_z
 _atom_site_occupancy
  Zr  Zr0  1  0.668973  0.335302  0.002829  1
  Zr  Zr1  1  0.331027  0.666330  0.002829  1
  Zr  Zr2  1  0.331027  0.666330  0.497171  1
  Zr  Zr3  1  0.668973  0.335302  0.497171  1
  Zr  Zr4  1  0.747531  0.742519  0.750000  1
  Zr  Zr5  1  0.252469  0.994989  0.750000  1
  Zr  Zr6  1  0.000000  0.258223  0.750000  1
  Zr  Zr7  1  0.257144  0.257679  0.250000  1
  Zr  Zr8  1  0.742856  0.000535  0.250000  1
  Zr  Zr9  1  0.000000  0.741065  0.250000  1
  Si  Si10  1  0.000000  0.000118  0.001211  1
  Si  Si11  1  0.000000  0.000118  0.498789  1
  Sn  Sn12  1  0.000000  0.603508  0.750000  1
  Sn  Sn13  1  0.606823  0.607340  0.250000  1
  Sn  Sn14  1  0.393177  0.000517  0.250000  1
  Sn  Sn15  1  0.000000  0.394732  0.250000  1
  Bi  Bi16  1  0.396257  0.395825  0.750000  1
  Bi  Bi17  1  0.603743  0.999568  0.750000  1
