# generated using pymatgen
data_NdYCr2Co10As7
_symmetry_space_group_name_H-M   'P 1'
_cell_length_a   3.77608900
_cell_length_b   9.42701379
_cell_length_c   9.46753137
_cell_angle_alpha   119.83172750
_cell_angle_beta   90.00000000
_cell_angle_gamma   90.00000000
_symmetry_Int_Tables_number   1
_chemical_formula_structural   NdYCr2Co10As7
_chemical_formula_sum   'Nd1 Y1 Cr2 Co10 As7'
_cell_volume   292.35979927
_cell_formula_units_Z   1
loop_
 _symmetry_equiv_pos_site_id
 _symmetry_equiv_pos_as_xyz
  1  'x, y, z'
loop_
 _atom_site_type_symbol
 _atom_site_label
 _atom_site_symmetry_multiplicity
 _atom_site_fract_x
 _atom_site_fract_y
 _atom_site_fract_z
 _atom_site_occupancy
  Nd  Nd0  1  0.500000  0.331570  0.667065  1
  Y  Y1  1  0.000000  0.672120  0.338122  1
  Cr  Cr2  1  0.500000  0.776453  0.894227  1
  Cr  Cr3  1  0.500000  0.120255  0.221611  1
  Co  Co4  1  0.000000  0.571263  0.944339  1
  Co  Co5  1  0.000000  0.371401  0.429148  1
  Co  Co6  1  0.000000  0.055710  0.626778  1
  Co  Co7  1  0.500000  0.094218  0.878325  1
  Co  Co8  1  0.000000  0.877557  0.153119  1
  Co  Co9  1  0.000000  0.281018  0.125404  1
  Co  Co10  1  0.000000  0.843890  0.722247  1
  Co  Co11  1  0.500000  0.946430  0.379083  1
  Co  Co12  1  0.500000  0.432806  0.050555  1
  Co  Co13  1  0.500000  0.620206  0.566269  1
  As  As14  1  0.000000  0.002740  0.998001  1
  As  As15  1  0.500000  0.707061  0.116973  1
  As  As16  1  0.500000  0.413361  0.292937  1
  As  As17  1  0.500000  0.888579  0.596454  1
  As  As18  1  0.000000  0.590155  0.701340  1
  As  As19  1  0.000000  0.109878  0.408722  1
  As  As20  1  0.000000  0.293326  0.889279  1
