# generated using pymatgen
data_Hf6AlSn5Ru12
_symmetry_space_group_name_H-M   'P 1'
_cell_length_a   4.54917800
_cell_length_b   6.41971400
_cell_length_c   13.62759900
_cell_angle_alpha   90.00000000
_cell_angle_beta   89.99964287
_cell_angle_gamma   90.00000000
_symmetry_Int_Tables_number   1
_chemical_formula_structural   Hf6AlSn5Ru12
_chemical_formula_sum   'Hf6 Al1 Sn5 Ru12'
_cell_volume   397.98614788
_cell_formula_units_Z   1
loop_
 _symmetry_equiv_pos_site_id
 _symmetry_equiv_pos_as_xyz
  1  'x, y, z'
loop_
 _atom_site_type_symbol
 _atom_site_label
 _atom_site_symmetry_multiplicity
 _atom_site_fract_x
 _atom_site_fract_y
 _atom_site_fract_z
 _atom_site_occupancy
  Hf  Hf0  1  0.000001  0.000000  0.996417  1
  Hf  Hf1  1  0.499882  0.500000  0.164715  1
  Hf  Hf2  1  0.999881  0.000000  0.333333  1
  Hf  Hf3  1  0.500000  0.500000  0.501952  1
  Hf  Hf4  1  0.000125  0.000000  0.670249  1
  Hf  Hf5  1  0.500122  0.500000  0.833334  1
  Al  Al6  1  0.500128  0.000000  0.833332  1
  Sn  Sn7  1  0.000005  0.500000  0.998451  1
  Sn  Sn8  1  0.499872  0.000000  0.165316  1
  Sn  Sn9  1  0.999804  0.500000  0.333343  1
  Sn  Sn10  1  0.500003  0.000000  0.501350  1
  Sn  Sn11  1  0.000156  0.500000  0.668210  1
  Ru  Ru12  1  0.500011  0.246592  0.997279  1
  Ru  Ru13  1  0.500011  0.753409  0.997279  1
  Ru  Ru14  1  0.999867  0.250506  0.166603  1
  Ru  Ru15  1  0.999867  0.749495  0.166603  1
  Ru  Ru16  1  0.499832  0.250177  0.333334  1
  Ru  Ru17  1  0.499832  0.749824  0.333334  1
  Ru  Ru18  1  0.000003  0.250500  0.500063  1
  Ru  Ru19  1  0.000003  0.749500  0.500063  1
  Ru  Ru20  1  0.500155  0.246589  0.669386  1
  Ru  Ru21  1  0.500155  0.753412  0.669386  1
  Ru  Ru22  1  0.000142  0.243568  0.833333  1
  Ru  Ru23  1  0.000142  0.756433  0.833333  1
