# generated using pymatgen
data_Nd3Y2Mg2P12Ru17
_symmetry_space_group_name_H-M   'P 1'
_cell_length_a   12.81747200
_cell_length_b   12.65388656
_cell_length_c   4.00555400
_cell_angle_alpha   90.00000000
_cell_angle_beta   90.00000000
_cell_angle_gamma   120.42856848
_symmetry_Int_Tables_number   1
_chemical_formula_structural   Nd3Y2Mg2P12Ru17
_chemical_formula_sum   'Nd3 Y2 Mg2 P12 Ru17'
_cell_volume   560.18022384
_cell_formula_units_Z   1
loop_
 _symmetry_equiv_pos_site_id
 _symmetry_equiv_pos_as_xyz
  1  'x, y, z'
loop_
 _atom_site_type_symbol
 _atom_site_label
 _atom_site_symmetry_multiplicity
 _atom_site_fract_x
 _atom_site_fract_y
 _atom_site_fract_z
 _atom_site_occupancy
  Nd  Nd0  1  0.999196  0.180695  0.500000  1
  Nd  Nd1  1  0.818502  0.819305  0.500000  1
  Nd  Nd2  1  0.182959  0.000000  0.500000  1
  Y  Y3  1  0.664336  0.326090  0.000000  1
  Y  Y4  1  0.338245  0.673910  0.000000  1
  Mg  Mg5  1  0.999927  0.561839  0.000000  1
  Mg  Mg6  1  0.438088  0.438161  0.000000  1
  P  P7  1  0.999959  0.809262  0.000000  1
  P  P8  1  0.190697  0.190738  0.000000  1
  P  P9  1  0.813206  0.000000  0.000000  1
  P  P10  1  0.691633  0.170740  0.500000  1
  P  P11  1  0.815943  0.515110  0.500000  1
  P  P12  1  0.479544  0.299714  0.500000  1
  P  P13  1  0.179830  0.700286  0.500000  1
  P  P14  1  0.520894  0.829260  0.500000  1
  P  P15  1  0.300833  0.484890  0.500000  1
  P  P16  1  0.000838  0.364372  0.000000  1
  P  P17  1  0.636466  0.635628  0.000000  1
  P  P18  1  0.378056  0.000000  0.000000  1
  Ru  Ru19  1  0.556181  0.000000  0.000000  1
  Ru  Ru20  1  0.999204  0.712444  0.500000  1
  Ru  Ru21  1  0.286761  0.287556  0.500000  1
  Ru  Ru22  1  0.713136  0.000000  0.500000  1
  Ru  Ru23  1  0.804817  0.184377  0.000000  1
  Ru  Ru24  1  0.813635  0.615132  0.000000  1
  Ru  Ru25  1  0.380361  0.193787  0.000000  1
  Ru  Ru26  1  0.186575  0.806213  0.000000  1
  Ru  Ru27  1  0.620441  0.815623  0.000000  1
  Ru  Ru28  1  0.198504  0.384868  0.000000  1
  Ru  Ru29  1  0.872125  0.365455  0.500000  1
  Ru  Ru30  1  0.629994  0.510432  0.500000  1
  Ru  Ru31  1  0.492183  0.123656  0.500000  1
  Ru  Ru32  1  0.368526  0.876344  0.500000  1
  Ru  Ru33  1  0.506670  0.634545  0.500000  1
  Ru  Ru34  1  0.119561  0.489568  0.500000  1
  Ru  Ru35  1  0.002174  0.000000  0.000000  1
