# generated using pymatgen
data_Pa2CoNi5P4
_symmetry_space_group_name_H-M   'P 1'
_cell_length_a   3.80590100
_cell_length_b   10.40087400
_cell_length_c   12.35577800
_cell_angle_alpha   90.00000000
_cell_angle_beta   90.00000000
_cell_angle_gamma   90.00000000
_symmetry_Int_Tables_number   1
_chemical_formula_structural   Pa2CoNi5P4
_chemical_formula_sum   'Pa6 Co3 Ni15 P12'
_cell_volume   489.09972533
_cell_formula_units_Z   3
loop_
 _symmetry_equiv_pos_site_id
 _symmetry_equiv_pos_as_xyz
  1  'x, y, z'
loop_
 _atom_site_type_symbol
 _atom_site_label
 _atom_site_symmetry_multiplicity
 _atom_site_fract_x
 _atom_site_fract_y
 _atom_site_fract_z
 _atom_site_occupancy
  Pa  Pa0  1  0.000000  0.500000  0.523216  1
  Pa  Pa1  1  0.500000  0.000000  0.476931  1
  Pa  Pa2  1  0.500000  0.816127  0.206996  1
  Pa  Pa3  1  0.500000  0.183873  0.206996  1
  Pa  Pa4  1  0.000000  0.682564  0.792490  1
  Pa  Pa5  1  0.000000  0.317436  0.792490  1
  Co  Co6  1  0.500000  0.000000  0.023388  1
  Co  Co7  1  0.500000  0.500000  0.698633  1
  Co  Co8  1  0.000000  0.000000  0.299312  1
  Ni  Ni9  1  0.000000  0.500000  0.979162  1
  Ni  Ni10  1  0.500000  0.302628  0.428604  1
  Ni  Ni11  1  0.500000  0.697372  0.428604  1
  Ni  Ni12  1  0.000000  0.195817  0.571907  1
  Ni  Ni13  1  0.000000  0.804183  0.571907  1
  Ni  Ni14  1  0.500000  0.878578  0.709395  1
  Ni  Ni15  1  0.500000  0.121422  0.709395  1
  Ni  Ni16  1  0.000000  0.620748  0.292727  1
  Ni  Ni17  1  0.000000  0.379252  0.292727  1
  Ni  Ni18  1  0.500000  0.328937  0.994900  1
  Ni  Ni19  1  0.500000  0.671063  0.994900  1
  Ni  Ni20  1  0.000000  0.168110  0.003248  1
  Ni  Ni21  1  0.000000  0.831890  0.003248  1
  Ni  Ni22  1  0.500000  0.500000  0.155128  1
  Ni  Ni23  1  0.000000  0.000000  0.843555  1
  P  P24  1  0.500000  0.310573  0.612504  1
  P  P25  1  0.500000  0.689427  0.612504  1
  P  P26  1  0.000000  0.188491  0.387155  1
  P  P27  1  0.000000  0.811509  0.387155  1
  P  P28  1  0.500000  0.500000  0.878184  1
  P  P29  1  0.000000  0.000000  0.120419  1
  P  P30  1  0.500000  0.852959  0.894087  1
  P  P31  1  0.500000  0.147041  0.894087  1
  P  P32  1  0.000000  0.648901  0.106875  1
  P  P33  1  0.000000  0.351099  0.106875  1
  P  P34  1  0.500000  0.500000  0.338969  1
  P  P35  1  0.000000  0.000000  0.661325  1
