# generated using pymatgen
data_Li4SiPd3
_symmetry_space_group_name_H-M   'P 1'
_cell_length_a   6.92027874
_cell_length_b   6.92027869
_cell_length_c   6.92027799
_cell_angle_alpha   60.30777024
_cell_angle_beta   60.30776867
_cell_angle_gamma   60.30777206
_symmetry_Int_Tables_number   1
_chemical_formula_structural   Li4SiPd3
_chemical_formula_sum   'Li8 Si2 Pd6'
_cell_volume   235.97705039
_cell_formula_units_Z   2
loop_
 _symmetry_equiv_pos_site_id
 _symmetry_equiv_pos_as_xyz
  1  'x, y, z'
loop_
 _atom_site_type_symbol
 _atom_site_label
 _atom_site_symmetry_multiplicity
 _atom_site_fract_x
 _atom_site_fract_y
 _atom_site_fract_z
 _atom_site_occupancy
  Li  Li0  1  0.274531  0.274531  0.274531  1
  Li  Li1  1  0.725469  0.725469  0.725469  1
  Li  Li2  1  0.560057  0.841961  0.340610  1
  Li  Li3  1  0.340610  0.560057  0.841961  1
  Li  Li4  1  0.841961  0.340610  0.560057  1
  Li  Li5  1  0.659390  0.158039  0.439943  1
  Li  Li6  1  0.158039  0.439943  0.659390  1
  Li  Li7  1  0.439943  0.659390  0.158039  1
  Si  Si8  1  0.898708  0.898708  0.898708  1
  Si  Si9  1  0.101292  0.101292  0.101292  1
  Pd  Pd10  1  0.894511  0.500000  0.105489  1
  Pd  Pd11  1  0.105489  0.894511  0.500000  1
  Pd  Pd12  1  0.500000  0.105489  0.894511  1
  Pd  Pd13  1  0.255986  0.000000  0.744014  1
  Pd  Pd14  1  0.744014  0.255986  0.000000  1
  Pd  Pd15  1  0.000000  0.744014  0.255986  1
