# generated using pymatgen
data_Ho4Al3GaIr3Pt
_symmetry_space_group_name_H-M   'P 1'
_cell_length_a   4.28388800
_cell_length_b   6.83136536
_cell_length_c   7.89304500
_cell_angle_alpha   90.02012874
_cell_angle_beta   90.00000000
_cell_angle_gamma   90.00000000
_symmetry_Int_Tables_number   1
_chemical_formula_structural   Ho4Al3GaIr3Pt
_chemical_formula_sum   'Ho4 Al3 Ga1 Ir3 Pt1'
_cell_volume   230.98840137
_cell_formula_units_Z   1
loop_
 _symmetry_equiv_pos_site_id
 _symmetry_equiv_pos_as_xyz
  1  'x, y, z'
loop_
 _atom_site_type_symbol
 _atom_site_label
 _atom_site_symmetry_multiplicity
 _atom_site_fract_x
 _atom_site_fract_y
 _atom_site_fract_z
 _atom_site_occupancy
  Ho  Ho0  1  0.250000  0.030458  0.678997  1
  Ho  Ho1  1  0.250000  0.534127  0.820035  1
  Ho  Ho2  1  0.750000  0.968849  0.320061  1
  Ho  Ho3  1  0.750000  0.469277  0.180129  1
  Al  Al4  1  0.250000  0.639359  0.438757  1
  Al  Al5  1  0.750000  0.855882  0.938651  1
  Al  Al6  1  0.750000  0.362146  0.559177  1
  Ga  Ga7  1  0.250000  0.141493  0.064839  1
  Ir  Ir8  1  0.250000  0.267429  0.383001  1
  Ir  Ir9  1  0.250000  0.764042  0.120485  1
  Ir  Ir10  1  0.750000  0.734407  0.621671  1
  Pt  Pt11  1  0.750000  0.232532  0.874196  1
