# generated using pymatgen
data_Rb3HoSb2
_symmetry_space_group_name_H-M   'P 1'
_cell_length_a   10.21140161
_cell_length_b   10.21140134
_cell_length_c   10.21140095
_cell_angle_alpha   128.27504233
_cell_angle_beta   70.33415949
_cell_angle_gamma   135.81530122
_symmetry_Int_Tables_number   1
_chemical_formula_structural   Rb3HoSb2
_chemical_formula_sum   'Rb6 Ho2 Sb4'
_cell_volume   571.20655564
_cell_formula_units_Z   2
loop_
 _symmetry_equiv_pos_site_id
 _symmetry_equiv_pos_as_xyz
  1  'x, y, z'
loop_
 _atom_site_type_symbol
 _atom_site_label
 _atom_site_symmetry_multiplicity
 _atom_site_fract_x
 _atom_site_fract_y
 _atom_site_fract_z
 _atom_site_occupancy
  Rb  Rb0  1  0.813128  0.195103  0.008231  1
  Rb  Rb1  1  0.686872  0.695103  0.381976  1
  Rb  Rb2  1  0.750000  0.250000  0.500000  1
  Rb  Rb3  1  0.250000  0.750000  0.500000  1
  Rb  Rb4  1  0.313128  0.304897  0.618024  1
  Rb  Rb5  1  0.186872  0.804897  0.991769  1
  Ho  Ho6  1  0.250000  0.250000  0.000000  1
  Ho  Ho7  1  0.750000  0.750000  0.000000  1
  Sb  Sb8  1  0.402069  0.692595  0.094665  1
  Sb  Sb9  1  0.097931  0.192595  0.290525  1
  Sb  Sb10  1  0.902069  0.807405  0.709475  1
  Sb  Sb11  1  0.597931  0.307405  0.905335  1
