# generated using pymatgen
data_Tm5Sc(CdHg2)6
_symmetry_space_group_name_H-M   'P 1'
_cell_length_a   5.07159002
_cell_length_b   7.01756500
_cell_length_c   15.41812707
_cell_angle_alpha   90.00000000
_cell_angle_beta   89.98869148
_cell_angle_gamma   90.00000000
_symmetry_Int_Tables_number   1
_chemical_formula_structural   Tm5Sc(CdHg2)6
_chemical_formula_sum   'Tm5 Sc1 Cd6 Hg12'
_cell_volume   548.73441060
_cell_formula_units_Z   1
loop_
 _symmetry_equiv_pos_site_id
 _symmetry_equiv_pos_as_xyz
  1  'x, y, z'
loop_
 _atom_site_type_symbol
 _atom_site_label
 _atom_site_symmetry_multiplicity
 _atom_site_fract_x
 _atom_site_fract_y
 _atom_site_fract_z
 _atom_site_occupancy
  Tm  Tm0  1  0.999998  0.000000  0.999493  1
  Tm  Tm1  1  0.499832  0.500000  0.165788  1
  Tm  Tm2  1  0.999861  0.000000  0.333299  1
  Tm  Tm3  1  0.500020  0.500000  0.500856  1
  Tm  Tm4  1  0.000147  0.000000  0.667205  1
  Sc  Sc5  1  0.500072  0.500000  0.833479  1
  Cd  Cd6  1  0.999993  0.500000  0.999375  1
  Cd  Cd7  1  0.499867  0.000000  0.165895  1
  Cd  Cd8  1  0.999890  0.500000  0.333306  1
  Cd  Cd9  1  0.500026  0.000000  0.500765  1
  Cd  Cd10  1  0.000105  0.500000  0.667295  1
  Cd  Cd11  1  0.500175  0.000000  0.833290  1
  Hg  Hg12  1  0.500039  0.254977  0.997635  1
  Hg  Hg13  1  0.500039  0.745022  0.997635  1
  Hg  Hg14  1  0.999819  0.247560  0.166552  1
  Hg  Hg15  1  0.999819  0.752439  0.166552  1
  Hg  Hg16  1  0.499867  0.252157  0.333329  1
  Hg  Hg17  1  0.499867  0.747843  0.333329  1
  Hg  Hg18  1  0.999986  0.247575  0.500134  1
  Hg  Hg19  1  0.999986  0.752424  0.500134  1
  Hg  Hg20  1  0.500154  0.255078  0.669044  1
  Hg  Hg21  1  0.500154  0.744922  0.669044  1
  Hg  Hg22  1  0.000142  0.253802  0.833283  1
  Hg  Hg23  1  0.000142  0.746197  0.833283  1
