# generated using pymatgen
data_YEr(Si7Rh3)2
_symmetry_space_group_name_H-M   'P 1'
_cell_length_a   7.99502637
_cell_length_b   7.99502753
_cell_length_c   7.99502790
_cell_angle_alpha   57.06312089
_cell_angle_beta   57.06311566
_cell_angle_gamma   57.06311711
_symmetry_Int_Tables_number   1
_chemical_formula_structural   YEr(Si7Rh3)2
_chemical_formula_sum   'Y1 Er1 Si14 Rh6'
_cell_volume   336.90087520
_cell_formula_units_Z   1
loop_
 _symmetry_equiv_pos_site_id
 _symmetry_equiv_pos_as_xyz
  1  'x, y, z'
loop_
 _atom_site_type_symbol
 _atom_site_label
 _atom_site_symmetry_multiplicity
 _atom_site_fract_x
 _atom_site_fract_y
 _atom_site_fract_z
 _atom_site_occupancy
  Y  Y0  1  0.000000  0.000000  0.000000  1
  Er  Er1  1  0.500000  0.500000  0.500000  1
  Si  Si2  1  0.749848  0.749848  0.749848  1
  Si  Si3  1  0.250152  0.250152  0.250152  1
  Si  Si4  1  0.851331  0.065266  0.672232  1
  Si  Si5  1  0.672232  0.851331  0.065266  1
  Si  Si6  1  0.065266  0.672232  0.851331  1
  Si  Si7  1  0.648251  0.827539  0.434896  1
  Si  Si8  1  0.434896  0.648251  0.827539  1
  Si  Si9  1  0.827539  0.434896  0.648251  1
  Si  Si10  1  0.172461  0.565104  0.351749  1
  Si  Si11  1  0.565104  0.351749  0.172461  1
  Si  Si12  1  0.351749  0.172461  0.565104  1
  Si  Si13  1  0.934734  0.327768  0.148669  1
  Si  Si14  1  0.327768  0.148669  0.934734  1
  Si  Si15  1  0.148669  0.934734  0.327768  1
  Rh  Rh16  1  0.070772  0.429970  0.749410  1
  Rh  Rh17  1  0.250590  0.929228  0.570030  1
  Rh  Rh18  1  0.570030  0.250590  0.929228  1
  Rh  Rh19  1  0.929228  0.570030  0.250590  1
  Rh  Rh20  1  0.429970  0.749410  0.070772  1
  Rh  Rh21  1  0.749410  0.070772  0.429970  1
