# generated using pymatgen
data_AcLa7(Nd3Si4)4
_symmetry_space_group_name_H-M   'P 1'
_cell_length_a   7.96021820
_cell_length_b   7.95382292
_cell_length_c   15.36922980
_cell_angle_alpha   89.86965867
_cell_angle_beta   90.03710317
_cell_angle_gamma   89.87431912
_symmetry_Int_Tables_number   1
_chemical_formula_structural   AcLa7(Nd3Si4)4
_chemical_formula_sum   'Ac1 La7 Nd12 Si16'
_cell_volume   973.08489977
_cell_formula_units_Z   1
loop_
 _symmetry_equiv_pos_site_id
 _symmetry_equiv_pos_as_xyz
  1  'x, y, z'
loop_
 _atom_site_type_symbol
 _atom_site_label
 _atom_site_symmetry_multiplicity
 _atom_site_fract_x
 _atom_site_fract_y
 _atom_site_fract_z
 _atom_site_occupancy
  Ac  Ac0  1  0.981818  0.628124  0.049060  1
  La  La1  1  0.013039  0.377286  0.552180  1
  La  La2  1  0.622172  0.987003  0.947150  1
  La  La3  1  0.123149  0.511687  0.800763  1
  La  La4  1  0.878148  0.488012  0.303500  1
  La  La5  1  0.513138  0.122868  0.198161  1
  La  La6  1  0.487103  0.876362  0.698350  1
  La  La7  1  0.377168  0.013367  0.448921  1
  Nd  Nd8  1  0.372450  0.481903  0.373814  1
  Nd  Nd9  1  0.873002  0.019125  0.377541  1
  Nd  Nd10  1  0.981623  0.127871  0.123687  1
  Nd  Nd11  1  0.018512  0.872273  0.623389  1
  Nd  Nd12  1  0.626841  0.516476  0.872320  1
  Nd  Nd13  1  0.481899  0.372581  0.626607  1
  Nd  Nd14  1  0.518817  0.627193  0.127141  1
  Nd  Nd15  1  0.128145  0.981517  0.875759  1
  Nd  Nd16  1  0.690645  0.690551  0.500218  1
  Nd  Nd17  1  0.809566  0.190295  0.749454  1
  Nd  Nd18  1  0.191384  0.810730  0.250735  1
  Nd  Nd19  1  0.308709  0.309756  0.999692  1
  Si  Si20  1  0.079533  0.714478  0.439919  1
  Si  Si21  1  0.918359  0.280444  0.938430  1
  Si  Si22  1  0.713600  0.078760  0.560763  1
  Si  Si23  1  0.215942  0.419711  0.190236  1
  Si  Si24  1  0.786521  0.579103  0.689288  1
  Si  Si25  1  0.420374  0.213909  0.810010  1
  Si  Si26  1  0.577942  0.786933  0.311629  1
  Si  Si27  1  0.289898  0.923116  0.060435  1
  Si  Si28  1  0.832702  0.803218  0.796756  1
  Si  Si29  1  0.168757  0.194901  0.297211  1
  Si  Si30  1  0.802928  0.834466  0.206058  1
  Si  Si31  1  0.305051  0.668433  0.546921  1
  Si  Si32  1  0.691116  0.326997  0.045460  1
  Si  Si33  1  0.668136  0.304983  0.453655  1
  Si  Si34  1  0.336840  0.697605  0.951918  1
  Si  Si35  1  0.194971  0.167961  0.702869  1
