# generated using pymatgen
data_Cs5In3Sb4
_symmetry_space_group_name_H-M   'P 1'
_cell_length_a   12.86525500
_cell_length_b   17.78639776
_cell_length_c   19.03236600
_cell_angle_alpha   62.77409556
_cell_angle_beta   90.00000000
_cell_angle_gamma   90.00000000
_symmetry_Int_Tables_number   1
_chemical_formula_structural   Cs5In3Sb4
_chemical_formula_sum   'Cs40 In24 Sb32'
_cell_volume   3872.60616457
_cell_formula_units_Z   8
loop_
 _symmetry_equiv_pos_site_id
 _symmetry_equiv_pos_as_xyz
  1  'x, y, z'
loop_
 _atom_site_type_symbol
 _atom_site_label
 _atom_site_symmetry_multiplicity
 _atom_site_fract_x
 _atom_site_fract_y
 _atom_site_fract_z
 _atom_site_occupancy
  Cs  Cs0  1  0.364253  0.789153  0.404594  1
  Cs  Cs1  1  0.633367  0.439494  0.137560  1
  Cs  Cs2  1  0.133367  0.560506  0.362440  1
  Cs  Cs3  1  0.410924  0.252394  0.313979  1
  Cs  Cs4  1  0.381621  0.205129  0.103502  1
  Cs  Cs5  1  0.855507  0.642793  0.037220  1
  Cs  Cs6  1  0.871757  0.760820  0.791216  1
  Cs  Cs7  1  0.618379  0.794871  0.896498  1
  Cs  Cs8  1  0.881621  0.794871  0.396498  1
  Cs  Cs9  1  0.338990  0.750542  0.182615  1
  Cs  Cs10  1  0.866633  0.439494  0.637560  1
  Cs  Cs11  1  0.126429  0.100106  0.462778  1
  Cs  Cs12  1  0.626429  0.899894  0.037222  1
  Cs  Cs13  1  0.371757  0.239180  0.708784  1
  Cs  Cs14  1  0.144493  0.357207  0.962780  1
  Cs  Cs15  1  0.625840  0.083196  0.463124  1
  Cs  Cs16  1  0.396609  0.645717  0.028858  1
  Cs  Cs17  1  0.118379  0.205129  0.603502  1
  Cs  Cs18  1  0.125840  0.916804  0.036876  1
  Cs  Cs19  1  0.838990  0.249458  0.317385  1
  Cs  Cs20  1  0.589076  0.747606  0.686021  1
  Cs  Cs21  1  0.661010  0.249458  0.817385  1
  Cs  Cs22  1  0.644493  0.642793  0.537220  1
  Cs  Cs23  1  0.603391  0.354283  0.971142  1
  Cs  Cs24  1  0.161010  0.750542  0.682615  1
  Cs  Cs25  1  0.874160  0.083196  0.963124  1
  Cs  Cs26  1  0.910924  0.747606  0.186021  1
  Cs  Cs27  1  0.128243  0.239180  0.208784  1
  Cs  Cs28  1  0.374160  0.916804  0.536876  1
  Cs  Cs29  1  0.373571  0.100106  0.962778  1
  Cs  Cs30  1  0.103391  0.645717  0.528858  1
  Cs  Cs31  1  0.135747  0.789153  0.904594  1
  Cs  Cs32  1  0.635747  0.210847  0.595406  1
  Cs  Cs33  1  0.896609  0.354283  0.471142  1
  Cs  Cs34  1  0.366633  0.560506  0.862440  1
  Cs  Cs35  1  0.873571  0.899894  0.537222  1
  Cs  Cs36  1  0.355507  0.357207  0.462780  1
  Cs  Cs37  1  0.864253  0.210847  0.095406  1
  Cs  Cs38  1  0.628243  0.760820  0.291216  1
  Cs  Cs39  1  0.089076  0.252394  0.813979  1
  In  In40  1  0.995545  0.995718  0.200211  1
  In  In41  1  0.504455  0.995718  0.700211  1
  In  In42  1  0.004455  0.004282  0.799789  1
  In  In43  1  0.495545  0.004282  0.299789  1
  In  In44  1  0.124808  0.906627  0.404778  1
  In  In45  1  0.624808  0.093373  0.095222  1
  In  In46  1  0.872270  0.494869  0.946277  1
  In  In47  1  0.771222  0.530835  0.276696  1
  In  In48  1  0.027638  0.521460  0.773120  1
  In  In49  1  0.375192  0.906627  0.904778  1
  In  In50  1  0.972362  0.478540  0.226880  1
  In  In51  1  0.228778  0.469165  0.723304  1
  In  In52  1  0.728778  0.530835  0.776696  1
  In  In53  1  0.748261  0.006560  0.801488  1
  In  In54  1  0.251739  0.993440  0.198512  1
  In  In55  1  0.271222  0.469165  0.223304  1
  In  In56  1  0.372270  0.505131  0.553723  1
  In  In57  1  0.627730  0.494869  0.446277  1
  In  In58  1  0.248261  0.993440  0.698512  1
  In  In59  1  0.875192  0.093373  0.595222  1
  In  In60  1  0.127730  0.505131  0.053723  1
  In  In61  1  0.527638  0.478540  0.726880  1
  In  In62  1  0.472362  0.521460  0.273120  1
  In  In63  1  0.751739  0.006560  0.301488  1
  Sb  Sb64  1  0.128613  0.616698  0.132633  1
  Sb  Sb65  1  0.826262  0.580976  0.400844  1
  Sb  Sb66  1  0.881463  0.645599  0.660184  1
  Sb  Sb67  1  0.434629  0.593907  0.387458  1
  Sb  Sb68  1  0.623725  0.160660  0.226663  1
  Sb  Sb69  1  0.462388  0.953798  0.174570  1
  Sb  Sb70  1  0.934629  0.406093  0.112542  1
  Sb  Sb71  1  0.326262  0.419024  0.099156  1
  Sb  Sb72  1  0.371387  0.616698  0.632633  1
  Sb  Sb73  1  0.565371  0.406093  0.612542  1
  Sb  Sb74  1  0.628613  0.383302  0.367367  1
  Sb  Sb75  1  0.376275  0.839340  0.773337  1
  Sb  Sb76  1  0.118537  0.354401  0.339816  1
  Sb  Sb77  1  0.123725  0.839340  0.273337  1
  Sb  Sb78  1  0.173738  0.419024  0.599156  1
  Sb  Sb79  1  0.876275  0.160660  0.726663  1
  Sb  Sb80  1  0.037612  0.953798  0.674570  1
  Sb  Sb81  1  0.378536  0.113427  0.568790  1
  Sb  Sb82  1  0.786086  0.954294  0.177252  1
  Sb  Sb83  1  0.962388  0.046202  0.325430  1
  Sb  Sb84  1  0.878536  0.886573  0.931210  1
  Sb  Sb85  1  0.871387  0.383302  0.867367  1
  Sb  Sb86  1  0.618537  0.645599  0.160184  1
  Sb  Sb87  1  0.065371  0.593907  0.887458  1
  Sb  Sb88  1  0.121464  0.113427  0.068790  1
  Sb  Sb89  1  0.713914  0.954294  0.677252  1
  Sb  Sb90  1  0.213914  0.045706  0.822748  1
  Sb  Sb91  1  0.286086  0.045706  0.322748  1
  Sb  Sb92  1  0.381463  0.354401  0.839816  1
  Sb  Sb93  1  0.621464  0.886573  0.431210  1
  Sb  Sb94  1  0.537612  0.046202  0.825430  1
  Sb  Sb95  1  0.673738  0.580976  0.900844  1
