# generated using pymatgen
data_Pr15Th(CdIr)4
_symmetry_space_group_name_H-M   'P 1'
_cell_length_a   10.03783602
_cell_length_b   10.03783517
_cell_length_c   10.03783572
_cell_angle_alpha   60.13015046
_cell_angle_beta   60.13015400
_cell_angle_gamma   60.13015266
_symmetry_Int_Tables_number   1
_chemical_formula_structural   Pr15Th(CdIr)4
_chemical_formula_sum   'Pr15 Th1 Cd4 Ir4'
_cell_volume   717.27195987
_cell_formula_units_Z   1
loop_
 _symmetry_equiv_pos_site_id
 _symmetry_equiv_pos_as_xyz
  1  'x, y, z'
loop_
 _atom_site_type_symbol
 _atom_site_label
 _atom_site_symmetry_multiplicity
 _atom_site_fract_x
 _atom_site_fract_y
 _atom_site_fract_z
 _atom_site_occupancy
  Pr  Pr0  1  0.348632  0.348632  0.953391  1
  Pr  Pr1  1  0.348632  0.953391  0.348632  1
  Pr  Pr2  1  0.953391  0.348632  0.348632  1
  Pr  Pr3  1  0.809688  0.190492  0.190492  1
  Pr  Pr4  1  0.189999  0.808980  0.808980  1
  Pr  Pr5  1  0.190492  0.809688  0.190492  1
  Pr  Pr6  1  0.808980  0.189999  0.808980  1
  Pr  Pr7  1  0.190492  0.190492  0.809688  1
  Pr  Pr8  1  0.808980  0.808980  0.189999  1
  Pr  Pr9  1  0.940590  0.561851  0.561851  1
  Pr  Pr10  1  0.560147  0.939002  0.939002  1
  Pr  Pr11  1  0.561851  0.940590  0.561851  1
  Pr  Pr12  1  0.939002  0.560147  0.939002  1
  Pr  Pr13  1  0.561851  0.561851  0.940590  1
  Pr  Pr14  1  0.939002  0.939002  0.560147  1
  Th  Th15  1  0.343937  0.343937  0.343937  1
  Cd  Cd16  1  0.579405  0.579405  0.579405  1
  Cd  Cd17  1  0.579157  0.579157  0.259889  1
  Cd  Cd18  1  0.579157  0.259889  0.579157  1
  Cd  Cd19  1  0.259889  0.579157  0.579157  1
  Ir  Ir20  1  0.141965  0.141965  0.141965  1
  Ir  Ir21  1  0.147142  0.147142  0.570473  1
  Ir  Ir22  1  0.147142  0.570473  0.147142  1
  Ir  Ir23  1  0.570473  0.147142  0.147142  1
