# generated using pymatgen
data_Th6Ga6Pd5Pt
_symmetry_space_group_name_H-M   'P 1'
_cell_length_a   7.30879500
_cell_length_b   7.30879636
_cell_length_c   8.34117600
_cell_angle_alpha   90.00000000
_cell_angle_beta   90.00000000
_cell_angle_gamma   119.99998932
_symmetry_Int_Tables_number   1
_chemical_formula_structural   Th6Ga6Pd5Pt
_chemical_formula_sum   'Th6 Ga6 Pd5 Pt1'
_cell_volume   385.87763293
_cell_formula_units_Z   1
loop_
 _symmetry_equiv_pos_site_id
 _symmetry_equiv_pos_as_xyz
  1  'x, y, z'
loop_
 _atom_site_type_symbol
 _atom_site_label
 _atom_site_symmetry_multiplicity
 _atom_site_fract_x
 _atom_site_fract_y
 _atom_site_fract_z
 _atom_site_occupancy
  Th  Th0  1  0.415217  0.416463  0.750718  1
  Th  Th1  1  0.001245  0.584783  0.750718  1
  Th  Th2  1  0.583537  0.998755  0.750718  1
  Th  Th3  1  0.583278  0.998910  0.248994  1
  Th  Th4  1  0.001090  0.584368  0.248994  1
  Th  Th5  1  0.415632  0.416722  0.248994  1
  Ga  Ga6  1  0.242731  0.002862  0.000198  1
  Ga  Ga7  1  0.760130  0.757269  0.000198  1
  Ga  Ga8  1  0.997138  0.239870  0.000198  1
  Ga  Ga9  1  0.758995  0.758536  0.500133  1
  Ga  Ga10  1  0.241464  0.000459  0.500133  1
  Ga  Ga11  1  0.999541  0.241005  0.500133  1
  Pd  Pd12  1  0.666667  0.333333  0.999711  1
  Pd  Pd13  1  0.000000  0.000000  0.751293  1
  Pd  Pd14  1  0.666667  0.333333  0.500006  1
  Pd  Pd15  1  0.333333  0.666667  0.499543  1
  Pd  Pd16  1  0.000000  0.000000  0.249560  1
  Pt  Pt17  1  0.333333  0.666667  0.999758  1
