# generated using pymatgen
data_Tm(Tc2P)2
_symmetry_space_group_name_H-M   'P 1'
_cell_length_a   3.94555500
_cell_length_b   7.39414800
_cell_length_c   7.39414800
_cell_angle_alpha   90.00000000
_cell_angle_beta   90.00000000
_cell_angle_gamma   90.00000000
_symmetry_Int_Tables_number   1
_chemical_formula_structural   Tm(Tc2P)2
_chemical_formula_sum   'Tm2 Tc8 P4'
_cell_volume   215.71700398
_cell_formula_units_Z   2
loop_
 _symmetry_equiv_pos_site_id
 _symmetry_equiv_pos_as_xyz
  1  'x, y, z'
loop_
 _atom_site_type_symbol
 _atom_site_label
 _atom_site_symmetry_multiplicity
 _atom_site_fract_x
 _atom_site_fract_y
 _atom_site_fract_z
 _atom_site_occupancy
  Tm  Tm0  1  0.000000  0.500000  0.500000  1
  Tm  Tm1  1  0.500000  0.000000  0.000000  1
  Tc  Tc2  1  0.500000  0.161645  0.582747  1
  Tc  Tc3  1  0.500000  0.838355  0.417253  1
  Tc  Tc4  1  0.000000  0.338355  0.082747  1
  Tc  Tc5  1  0.000000  0.661645  0.917253  1
  Tc  Tc6  1  0.500000  0.582747  0.161645  1
  Tc  Tc7  1  0.500000  0.417253  0.838355  1
  Tc  Tc8  1  0.000000  0.082747  0.338355  1
  Tc  Tc9  1  0.000000  0.917253  0.661645  1
  P  P10  1  0.500000  0.711837  0.711837  1
  P  P11  1  0.500000  0.288163  0.288163  1
  P  P12  1  0.000000  0.788163  0.211837  1
  P  P13  1  0.000000  0.211837  0.788163  1
