# generated using pymatgen
data_Nd2As2Cl2O5
_symmetry_space_group_name_H-M   'P 1'
_cell_length_a   6.85371867
_cell_length_b   7.09094620
_cell_length_c   9.84781500
_cell_angle_alpha   110.22581438
_cell_angle_beta   99.08769944
_cell_angle_gamma   100.17784707
_symmetry_Int_Tables_number   1
_chemical_formula_structural   Nd2As2Cl2O5
_chemical_formula_sum   'Nd4 As4 Cl4 O10'
_cell_volume   429.40822678
_cell_formula_units_Z   2
loop_
 _symmetry_equiv_pos_site_id
 _symmetry_equiv_pos_as_xyz
  1  'x, y, z'
loop_
 _atom_site_type_symbol
 _atom_site_label
 _atom_site_symmetry_multiplicity
 _atom_site_fract_x
 _atom_site_fract_y
 _atom_site_fract_z
 _atom_site_occupancy
  Nd  Nd0  1  0.388500  0.759733  0.548311  1
  Nd  Nd1  1  0.611500  0.240267  0.451689  1
  Nd  Nd2  1  0.834630  0.732647  0.338872  1
  Nd  Nd3  1  0.165370  0.267353  0.661128  1
  As  As4  1  0.906508  0.798293  0.702421  1
  As  As5  1  0.093492  0.201707  0.297579  1
  As  As6  1  0.715809  0.244022  0.796889  1
  As  As7  1  0.284191  0.755978  0.203111  1
  Cl  Cl8  1  0.361970  0.689538  0.809701  1
  Cl  Cl9  1  0.638030  0.310462  0.190299  1
  Cl  Cl10  1  0.851431  0.759213  0.068969  1
  Cl  Cl11  1  0.148569  0.240787  0.931031  1
  O  O12  1  0.851085  0.348218  0.687779  1
  O  O13  1  0.148915  0.651782  0.312221  1
  O  O14  1  0.527475  0.838153  0.348789  1
  O  O15  1  0.472525  0.161847  0.651211  1
  O  O16  1  0.729536  0.968257  0.698520  1
  O  O17  1  0.270464  0.031743  0.301480  1
  O  O18  1  0.718514  0.609231  0.531034  1
  O  O19  1  0.281486  0.390769  0.468966  1
  O  O20  1  0.069187  0.882055  0.591088  1
  O  O21  1  0.930813  0.117945  0.408912  1
