# generated using pymatgen
data_TbYb2Dy5(B6Os)4
_symmetry_space_group_name_H-M   'P 1'
_cell_length_a   3.65709000
_cell_length_b   9.17441660
_cell_length_c   11.56851024
_cell_angle_alpha   89.99972797
_cell_angle_beta   90.00000000
_cell_angle_gamma   90.00000000
_symmetry_Int_Tables_number   1
_chemical_formula_structural   TbYb2Dy5(B6Os)4
_chemical_formula_sum   'Tb1 Yb2 Dy5 B24 Os4'
_cell_volume   388.14280564
_cell_formula_units_Z   1
loop_
 _symmetry_equiv_pos_site_id
 _symmetry_equiv_pos_as_xyz
  1  'x, y, z'
loop_
 _atom_site_type_symbol
 _atom_site_label
 _atom_site_symmetry_multiplicity
 _atom_site_fract_x
 _atom_site_fract_y
 _atom_site_fract_z
 _atom_site_occupancy
  Tb  Tb0  1  0.000000  0.324093  0.414609  1
  Yb  Yb1  1  0.000000  0.677010  0.585835  1
  Yb  Yb2  1  0.000000  0.822889  0.085722  1
  Dy  Dy3  1  0.000000  0.175727  0.914587  1
  Dy  Dy4  1  0.000000  0.940813  0.369199  1
  Dy  Dy5  1  0.000000  0.056359  0.629756  1
  Dy  Dy6  1  0.000000  0.443575  0.129770  1
  Dy  Dy7  1  0.000000  0.559208  0.869606  1
  B  B8  1  0.500000  0.554249  0.433511  1
  B  B9  1  0.500000  0.446362  0.567940  1
  B  B10  1  0.500000  0.053680  0.067350  1
  B  B11  1  0.500000  0.946145  0.933333  1
  B  B12  1  0.500000  0.747482  0.418143  1
  B  B13  1  0.500000  0.251684  0.582054  1
  B  B14  1  0.500000  0.248255  0.081522  1
  B  B15  1  0.500000  0.752839  0.918209  1
  B  B16  1  0.500000  0.789360  0.265064  1
  B  B17  1  0.500000  0.209224  0.734897  1
  B  B18  1  0.500000  0.290571  0.234395  1
  B  B19  1  0.500000  0.710708  0.765202  1
  B  B20  1  0.500000  0.630962  0.185907  1
  B  B21  1  0.500000  0.368960  0.814217  1
  B  B22  1  0.500000  0.130771  0.313586  1
  B  B23  1  0.500000  0.869104  0.685828  1
  B  B24  1  0.500000  0.983214  0.211140  1
  B  B25  1  0.500000  0.016370  0.788605  1
  B  B26  1  0.500000  0.483830  0.288572  1
  B  B27  1  0.500000  0.516721  0.711754  1
  B  B28  1  0.500000  0.601646  0.027959  1
  B  B29  1  0.500000  0.397946  0.971535  1
  B  B30  1  0.500000  0.101624  0.471438  1
  B  B31  1  0.500000  0.898580  0.527667  1
  Os  Os32  1  0.000000  0.636896  0.321176  1
  Os  Os33  1  0.000000  0.360871  0.679668  1
  Os  Os34  1  0.000000  0.138936  0.179063  1
  Os  Os35  1  0.000000  0.863333  0.821181  1
