# generated using pymatgen
data_Y7Tm9MgCo4Ag3
_symmetry_space_group_name_H-M   'P 1'
_cell_length_a   9.37006081
_cell_length_b   9.38669143
_cell_length_c   9.38197900
_cell_angle_alpha   60.01660222
_cell_angle_beta   59.95791198
_cell_angle_gamma   60.06313442
_symmetry_Int_Tables_number   1
_chemical_formula_structural   Y7Tm9MgCo4Ag3
_chemical_formula_sum   'Y7 Tm9 Mg1 Co4 Ag3'
_cell_volume   583.65635231
_cell_formula_units_Z   1
loop_
 _symmetry_equiv_pos_site_id
 _symmetry_equiv_pos_as_xyz
  1  'x, y, z'
loop_
 _atom_site_type_symbol
 _atom_site_label
 _atom_site_symmetry_multiplicity
 _atom_site_fract_x
 _atom_site_fract_y
 _atom_site_fract_z
 _atom_site_occupancy
  Y  Y0  1  0.810581  0.812542  0.188438  1
  Y  Y1  1  0.937770  0.560172  0.561946  1
  Y  Y2  1  0.559922  0.939273  0.938300  1
  Y  Y3  1  0.559922  0.939273  0.562506  1
  Y  Y4  1  0.937770  0.560172  0.940113  1
  Y  Y5  1  0.560438  0.561270  0.939146  1
  Y  Y6  1  0.937305  0.940544  0.561076  1
  Tm  Tm7  1  0.346032  0.345112  0.345272  1
  Tm  Tm8  1  0.346032  0.345112  0.963584  1
  Tm  Tm9  1  0.345000  0.964394  0.345303  1
  Tm  Tm10  1  0.953551  0.347964  0.349243  1
  Tm  Tm11  1  0.810806  0.189127  0.187999  1
  Tm  Tm12  1  0.185981  0.814543  0.813820  1
  Tm  Tm13  1  0.185981  0.814543  0.185657  1
  Tm  Tm14  1  0.810806  0.189127  0.812068  1
  Tm  Tm15  1  0.184839  0.185746  0.814707  1
  Mg  Mg16  1  0.288326  0.570642  0.570515  1
  Co  Co17  1  0.138548  0.142517  0.142652  1
  Co  Co18  1  0.138548  0.142517  0.576283  1
  Co  Co19  1  0.141051  0.574469  0.142240  1
  Co  Co20  1  0.574030  0.143859  0.141055  1
  Ag  Ag21  1  0.582165  0.581559  0.582282  1
  Ag  Ag22  1  0.582165  0.581559  0.253995  1
  Ag  Ag23  1  0.582432  0.253965  0.581801  1
