# generated using pymatgen
data_Dy7Tm(AlRu)8
_symmetry_space_group_name_H-M   'P 1'
_cell_length_a   4.07494700
_cell_length_b   6.98862678
_cell_length_c   15.97260761
_cell_angle_alpha   90.10723654
_cell_angle_beta   90.00000000
_cell_angle_gamma   90.00000000
_symmetry_Int_Tables_number   1
_chemical_formula_structural   Dy7Tm(AlRu)8
_chemical_formula_sum   'Dy7 Tm1 Al8 Ru8'
_cell_volume   454.87165474
_cell_formula_units_Z   1
loop_
 _symmetry_equiv_pos_site_id
 _symmetry_equiv_pos_as_xyz
  1  'x, y, z'
loop_
 _atom_site_type_symbol
 _atom_site_label
 _atom_site_symmetry_multiplicity
 _atom_site_fract_x
 _atom_site_fract_y
 _atom_site_fract_z
 _atom_site_occupancy
  Dy  Dy0  1  0.750000  0.963998  0.219546  1
  Dy  Dy1  1  0.250000  0.161815  0.563200  1
  Dy  Dy2  1  0.750000  0.842167  0.437141  1
  Dy  Dy3  1  0.750000  0.464025  0.280887  1
  Dy  Dy4  1  0.750000  0.339416  0.062769  1
  Dy  Dy5  1  0.250000  0.657173  0.936357  1
  Dy  Dy6  1  0.250000  0.036186  0.780209  1
  Tm  Tm7  1  0.250000  0.537808  0.718107  1
  Al  Al8  1  0.750000  0.503613  0.566018  1
  Al  Al9  1  0.750000  0.364187  0.848615  1
  Al  Al10  1  0.750000  0.997210  0.933895  1
  Al  Al11  1  0.750000  0.867474  0.651359  1
  Al  Al12  1  0.250000  0.500863  0.434726  1
  Al  Al13  1  0.250000  0.997139  0.065713  1
  Al  Al14  1  0.250000  0.633584  0.151069  1
  Al  Al15  1  0.250000  0.135245  0.349064  1
  Ru  Ru16  1  0.750000  0.740968  0.811466  1
  Ru  Ru17  1  0.250000  0.231653  0.936636  1
  Ru  Ru18  1  0.750000  0.265940  0.436868  1
  Ru  Ru19  1  0.250000  0.753223  0.312132  1
  Ru  Ru20  1  0.750000  0.763351  0.063688  1
  Ru  Ru21  1  0.750000  0.252379  0.688656  1
  Ru  Ru22  1  0.250000  0.253023  0.187683  1
  Ru  Ru23  1  0.250000  0.737559  0.564197  1
