# generated using pymatgen
data_Pa(TaS2)5
_symmetry_space_group_name_H-M   'P 1'
_cell_length_a   5.81752864
_cell_length_b   7.77704053
_cell_length_c   8.51228300
_cell_angle_alpha   113.93270020
_cell_angle_beta   96.71034947
_cell_angle_gamma   104.24817074
_symmetry_Int_Tables_number   1
_chemical_formula_structural   Pa(TaS2)5
_chemical_formula_sum   'Pa1 Ta5 S10'
_cell_volume   330.81866008
_cell_formula_units_Z   1
loop_
 _symmetry_equiv_pos_site_id
 _symmetry_equiv_pos_as_xyz
  1  'x, y, z'
loop_
 _atom_site_type_symbol
 _atom_site_label
 _atom_site_symmetry_multiplicity
 _atom_site_fract_x
 _atom_site_fract_y
 _atom_site_fract_z
 _atom_site_occupancy
  Pa  Pa0  1  0.668392  0.512125  0.990812  1
  Ta  Ta1  1  0.002795  0.996006  0.000269  1
  Ta  Ta2  1  0.598497  0.203677  0.204131  1
  Ta  Ta3  1  0.197130  0.398349  0.398396  1
  Ta  Ta4  1  0.798189  0.599923  0.603674  1
  Ta  Ta5  1  0.402383  0.795276  0.798695  1
  S  S6  1  0.235955  0.061673  0.293622  1
  S  S7  1  0.050263  0.656662  0.893975  1
  S  S8  1  0.835924  0.260718  0.491523  1
  S  S9  1  0.636627  0.870381  0.103197  1
  S  S10  1  0.423240  0.444986  0.681716  1
  S  S11  1  0.897391  0.545391  0.310481  1
  S  S12  1  0.698061  0.137239  0.906242  1
  S  S13  1  0.497301  0.738951  0.509844  1
  S  S14  1  0.293259  0.340065  0.105606  1
  S  S15  1  0.097391  0.936176  0.709415  1
