# generated using pymatgen
data_YbHo2Al3Si2Pt
_symmetry_space_group_name_H-M   'P 1'
_cell_length_a   6.92800600
_cell_length_b   6.90482666
_cell_length_c   4.23152600
_cell_angle_alpha   90.00000000
_cell_angle_beta   90.00000000
_cell_angle_gamma   120.11111018
_symmetry_Int_Tables_number   1
_chemical_formula_structural   YbHo2Al3Si2Pt
_chemical_formula_sum   'Yb1 Ho2 Al3 Si2 Pt1'
_cell_volume   175.10612858
_cell_formula_units_Z   1
loop_
 _symmetry_equiv_pos_site_id
 _symmetry_equiv_pos_as_xyz
  1  'x, y, z'
loop_
 _atom_site_type_symbol
 _atom_site_label
 _atom_site_symmetry_multiplicity
 _atom_site_fract_x
 _atom_site_fract_y
 _atom_site_fract_z
 _atom_site_occupancy
  Yb  Yb0  1  0.418245  0.000000  0.000000  1
  Ho  Ho1  1  0.001072  0.418850  0.000000  1
  Ho  Ho2  1  0.582222  0.581151  0.000000  1
  Al  Al3  1  0.763061  0.000000  0.500001  1
  Al  Al4  1  0.235229  0.239214  0.500001  1
  Al  Al5  1  0.996014  0.760787  0.500001  1
  Si  Si6  1  0.672922  0.340279  0.500001  1
  Si  Si7  1  0.332643  0.659722  0.500001  1
  Pt  Pt8  1  0.998591  0.000000  0.000000  1
