# generated using pymatgen
data_Ho4Ga2B4Ir3Ru7
_symmetry_space_group_name_H-M   'P 1'
_cell_length_a   9.61523859
_cell_length_b   9.62142359
_cell_length_c   3.08249600
_cell_angle_alpha   90.00000000
_cell_angle_beta   90.00000000
_cell_angle_gamma   90.04006040
_symmetry_Int_Tables_number   1
_chemical_formula_structural   Ho4Ga2B4Ir3Ru7
_chemical_formula_sum   'Ho4 Ga2 B4 Ir3 Ru7'
_cell_volume   285.16867367
_cell_formula_units_Z   1
loop_
 _symmetry_equiv_pos_site_id
 _symmetry_equiv_pos_as_xyz
  1  'x, y, z'
loop_
 _atom_site_type_symbol
 _atom_site_label
 _atom_site_symmetry_multiplicity
 _atom_site_fract_x
 _atom_site_fract_y
 _atom_site_fract_z
 _atom_site_occupancy
  Ho  Ho0  1  0.824911  0.325280  0.000000  1
  Ho  Ho1  1  0.177607  0.676028  0.000000  1
  Ho  Ho2  1  0.325089  0.174181  0.000000  1
  Ho  Ho3  1  0.673253  0.824683  0.000000  1
  Ga  Ga4  1  0.499477  0.501693  0.000000  1
  Ga  Ga5  1  0.000046  0.999914  0.000000  1
  B  B6  1  0.622910  0.120409  0.000000  1
  B  B7  1  0.377082  0.876695  0.000000  1
  B  B8  1  0.123988  0.379552  0.000000  1
  B  B9  1  0.876303  0.620212  0.000000  1
  Ir  Ir10  1  0.569485  0.283053  0.500000  1
  Ir  Ir11  1  0.068949  0.216997  0.500000  1
  Ir  Ir12  1  0.930156  0.782626  0.500000  1
  Ru  Ru13  1  0.499929  0.000307  0.500000  1
  Ru  Ru14  1  0.000814  0.500243  0.500000  1
  Ru  Ru15  1  0.717560  0.568058  0.500000  1
  Ru  Ru16  1  0.282590  0.431466  0.500000  1
  Ru  Ru17  1  0.217007  0.932656  0.500000  1
  Ru  Ru18  1  0.782273  0.068178  0.500000  1
  Ru  Ru19  1  0.430571  0.717771  0.500000  1
