# generated using pymatgen
data_Ca3LaPt4
_symmetry_space_group_name_H-M   'P 1'
_cell_length_a   4.46502000
_cell_length_b   5.85450216
_cell_length_c   7.46626382
_cell_angle_alpha   89.96487491
_cell_angle_beta   90.00000000
_cell_angle_gamma   90.00000000
_symmetry_Int_Tables_number   1
_chemical_formula_structural   Ca3LaPt4
_chemical_formula_sum   'Ca3 La1 Pt4'
_cell_volume   195.17160294
_cell_formula_units_Z   1
loop_
 _symmetry_equiv_pos_site_id
 _symmetry_equiv_pos_as_xyz
  1  'x, y, z'
loop_
 _atom_site_type_symbol
 _atom_site_label
 _atom_site_symmetry_multiplicity
 _atom_site_fract_x
 _atom_site_fract_y
 _atom_site_fract_z
 _atom_site_occupancy
  Ca  Ca0  1  0.250000  0.363723  0.676953  1
  Ca  Ca1  1  0.250000  0.140339  0.188733  1
  Ca  Ca2  1  0.750000  0.636919  0.317624  1
  La  La3  1  0.750000  0.866228  0.817531  1
  Pt  Pt4  1  0.250000  0.856949  0.543637  1
  Pt  Pt5  1  0.250000  0.644465  0.029762  1
  Pt  Pt6  1  0.750000  0.140852  0.465162  1
  Pt  Pt7  1  0.750000  0.350524  0.960599  1
