# generated using pymatgen
data_Sc2TaNb9As8
_symmetry_space_group_name_H-M   'P 1'
_cell_length_a   10.11694400
_cell_length_b   10.11694400
_cell_length_c   3.50920600
_cell_angle_alpha   90.00000000
_cell_angle_beta   90.00000000
_cell_angle_gamma   90.00000000
_symmetry_Int_Tables_number   1
_chemical_formula_structural   Sc2TaNb9As8
_chemical_formula_sum   'Sc2 Ta1 Nb9 As8'
_cell_volume   359.17620328
_cell_formula_units_Z   1
loop_
 _symmetry_equiv_pos_site_id
 _symmetry_equiv_pos_as_xyz
  1  'x, y, z'
loop_
 _atom_site_type_symbol
 _atom_site_label
 _atom_site_symmetry_multiplicity
 _atom_site_fract_x
 _atom_site_fract_y
 _atom_site_fract_z
 _atom_site_occupancy
  Sc  Sc0  1  0.000000  0.500000  0.500000  1
  Sc  Sc1  1  0.500000  0.000000  0.500000  1
  Ta  Ta2  1  0.500000  0.500000  0.500000  1
  Nb  Nb3  1  0.142282  0.819234  0.500000  1
  Nb  Nb4  1  0.857718  0.180766  0.500000  1
  Nb  Nb5  1  0.180766  0.142282  0.500000  1
  Nb  Nb6  1  0.819234  0.857718  0.500000  1
  Nb  Nb7  1  0.393028  0.715519  0.000000  1
  Nb  Nb8  1  0.606972  0.284481  0.000000  1
  Nb  Nb9  1  0.284481  0.393028  0.000000  1
  Nb  Nb10  1  0.715519  0.606972  0.000000  1
  Nb  Nb11  1  0.000000  0.000000  0.000000  1
  As  As12  1  0.245841  0.585674  0.500000  1
  As  As13  1  0.754159  0.414326  0.500000  1
  As  As14  1  0.414326  0.245841  0.500000  1
  As  As15  1  0.585674  0.754159  0.500000  1
  As  As16  1  0.283023  0.963588  0.000000  1
  As  As17  1  0.716977  0.036412  0.000000  1
  As  As18  1  0.036412  0.283023  0.000000  1
  As  As19  1  0.963588  0.716977  0.000000  1
