# generated using pymatgen
data_Dy12In2CuOs3
_symmetry_space_group_name_H-M   'P 1'
_cell_length_a   8.51303537
_cell_length_b   8.51303595
_cell_length_c   8.51303600
_cell_angle_alpha   112.86621909
_cell_angle_beta   111.92944496
_cell_angle_gamma   103.76585195
_symmetry_Int_Tables_number   1
_chemical_formula_structural   Dy12In2CuOs3
_chemical_formula_sum   'Dy12 In2 Cu1 Os3'
_cell_volume   471.41257131
_cell_formula_units_Z   1
loop_
 _symmetry_equiv_pos_site_id
 _symmetry_equiv_pos_as_xyz
  1  'x, y, z'
loop_
 _atom_site_type_symbol
 _atom_site_label
 _atom_site_symmetry_multiplicity
 _atom_site_fract_x
 _atom_site_fract_y
 _atom_site_fract_z
 _atom_site_occupancy
  Dy  Dy0  1  0.438491  0.239837  0.198656  1
  Dy  Dy1  1  0.554500  0.759096  0.795403  1
  Dy  Dy2  1  0.041180  0.239837  0.801344  1
  Dy  Dy3  1  0.963693  0.759096  0.204597  1
  Dy  Dy4  1  0.187941  0.286123  0.464762  1
  Dy  Dy5  1  0.821362  0.723180  0.535238  1
  Dy  Dy6  1  0.187941  0.723180  0.901818  1
  Dy  Dy7  1  0.821362  0.286123  0.098182  1
  Dy  Dy8  1  0.329440  0.643141  0.313701  1
  Dy  Dy9  1  0.662655  0.350825  0.688169  1
  Dy  Dy10  1  0.329440  0.015740  0.686299  1
  Dy  Dy11  1  0.662655  0.974485  0.311831  1
  In  In12  1  0.501824  0.501824  0.000000  1
  In  In13  1  0.996594  0.996594  0.000000  1
  Cu  Cu14  1  0.875741  0.375741  0.500000  1
  Os  Os15  1  0.333618  0.003915  0.329703  1
  Os  Os16  1  0.674212  0.003915  0.670297  1
  Os  Os17  1  0.117349  0.617349  0.500000  1
