# generated using pymatgen
data_Hf4Sc4Co11Si16Ir
_symmetry_space_group_name_H-M   'P 1'
_cell_length_a   5.23463426
_cell_length_b   6.78585274
_cell_length_c   13.69686444
_cell_angle_alpha   90.14035008
_cell_angle_beta   90.01972553
_cell_angle_gamma   89.86250704
_symmetry_Int_Tables_number   1
_chemical_formula_structural   Hf4Sc4Co11Si16Ir
_chemical_formula_sum   'Hf4 Sc4 Co11 Si16 Ir1'
_cell_volume   486.52969599
_cell_formula_units_Z   1
loop_
 _symmetry_equiv_pos_site_id
 _symmetry_equiv_pos_as_xyz
  1  'x, y, z'
loop_
 _atom_site_type_symbol
 _atom_site_label
 _atom_site_symmetry_multiplicity
 _atom_site_fract_x
 _atom_site_fract_y
 _atom_site_fract_z
 _atom_site_occupancy
  Hf  Hf0  1  0.232165  0.599391  0.356148  1
  Hf  Hf1  1  0.732510  0.900894  0.355540  1
  Hf  Hf2  1  0.264436  0.904850  0.854757  1
  Hf  Hf3  1  0.770842  0.600201  0.852298  1
  Sc  Sc4  1  0.233515  0.398341  0.147400  1
  Sc  Sc5  1  0.729884  0.099425  0.145796  1
  Sc  Sc6  1  0.270046  0.100168  0.642045  1
  Sc  Sc7  1  0.766418  0.401911  0.641576  1
  Co  Co8  1  0.505092  0.226863  0.482163  1
  Co  Co9  1  0.770298  0.999107  0.750418  1
  Co  Co10  1  0.494194  0.222306  0.981906  1
  Co  Co11  1  0.725977  0.500960  0.252601  1
  Co  Co12  1  0.494519  0.774259  0.517730  1
  Co  Co13  1  0.005213  0.274153  0.481963  1
  Co  Co14  1  0.006412  0.722819  0.019206  1
  Co  Co15  1  0.226413  0.998165  0.251973  1
  Co  Co16  1  0.276857  0.503882  0.749522  1
  Co  Co17  1  0.505881  0.771464  0.019147  1
  Co  Co18  1  0.993991  0.727211  0.517804  1
  Si  Si19  1  0.222626  0.011130  0.071420  1
  Si  Si20  1  0.718548  0.519415  0.432691  1
  Si  Si21  1  0.782527  0.019374  0.567348  1
  Si  Si22  1  0.481673  0.752120  0.188932  1
  Si  Si23  1  0.020058  0.254137  0.803912  1
  Si  Si24  1  0.517645  0.248134  0.811753  1
  Si  Si25  1  0.218580  0.981368  0.432793  1
  Si  Si26  1  0.293228  0.525718  0.931117  1
  Si  Si27  1  0.979656  0.746871  0.188528  1
  Si  Si28  1  0.709588  0.484921  0.071363  1
  Si  Si29  1  0.281896  0.482647  0.567347  1
  Si  Si30  1  0.481073  0.246782  0.313856  1
  Si  Si31  1  0.019279  0.748926  0.686495  1
  Si  Si32  1  0.774067  0.971641  0.931673  1
  Si  Si33  1  0.518715  0.753910  0.686613  1
  Si  Si34  1  0.980542  0.252697  0.313407  1
  Ir  Ir35  1  0.995634  0.273840  0.980762  1
