# generated using pymatgen
data_CsHo(NbBr3)6
_symmetry_space_group_name_H-M   'P 1'
_cell_length_a   10.80644370
_cell_length_b   10.80644350
_cell_length_c   10.80644428
_cell_angle_alpha   55.46591685
_cell_angle_beta   55.46591517
_cell_angle_gamma   55.46591841
_symmetry_Int_Tables_number   1
_chemical_formula_structural   CsHo(NbBr3)6
_chemical_formula_sum   'Cs1 Ho1 Nb6 Br18'
_cell_volume   798.39228899
_cell_formula_units_Z   1
loop_
 _symmetry_equiv_pos_site_id
 _symmetry_equiv_pos_as_xyz
  1  'x, y, z'
loop_
 _atom_site_type_symbol
 _atom_site_label
 _atom_site_symmetry_multiplicity
 _atom_site_fract_x
 _atom_site_fract_y
 _atom_site_fract_z
 _atom_site_occupancy
  Cs  Cs0  1  0.221237  0.221237  0.221237  1
  Ho  Ho1  1  0.498379  0.498379  0.498379  1
  Nb  Nb2  1  0.809247  0.142577  0.915963  1
  Nb  Nb3  1  0.915963  0.809247  0.142577  1
  Nb  Nb4  1  0.142577  0.915963  0.809247  1
  Nb  Nb5  1  0.191782  0.857923  0.083354  1
  Nb  Nb6  1  0.083354  0.191782  0.857923  1
  Nb  Nb7  1  0.857923  0.083354  0.191782  1
  Br  Br8  1  0.865332  0.410713  0.726341  1
  Br  Br9  1  0.726341  0.865332  0.410713  1
  Br  Br10  1  0.410713  0.726341  0.865332  1
  Br  Br11  1  0.133921  0.589810  0.276241  1
  Br  Br12  1  0.276241  0.133921  0.589810  1
  Br  Br13  1  0.589810  0.276241  0.133921  1
  Br  Br14  1  0.532341  0.342471  0.802640  1
  Br  Br15  1  0.802640  0.532341  0.342471  1
  Br  Br16  1  0.342471  0.802640  0.532341  1
  Br  Br17  1  0.465223  0.659331  0.198648  1
  Br  Br18  1  0.198648  0.465223  0.659331  1
  Br  Br19  1  0.659331  0.198648  0.465223  1
  Br  Br20  1  0.664081  0.938410  0.070492  1
  Br  Br21  1  0.070492  0.664081  0.938410  1
  Br  Br22  1  0.938410  0.070492  0.664081  1
  Br  Br23  1  0.339901  0.059655  0.925124  1
  Br  Br24  1  0.925124  0.339901  0.059655  1
  Br  Br25  1  0.059655  0.925124  0.339901  1
