# generated using pymatgen
data_YTm5Th2(MgIr)2
_symmetry_space_group_name_H-M   'P 1'
_cell_length_a   9.73837416
_cell_length_b   9.73837421
_cell_length_c   9.73417300
_cell_angle_alpha   60.01428002
_cell_angle_beta   60.01427984
_cell_angle_gamma   59.97145355
_symmetry_Int_Tables_number   1
_chemical_formula_structural   YTm5Th2(MgIr)2
_chemical_formula_sum   'Y2 Tm10 Th4 Mg4 Ir4'
_cell_volume   652.76500004
_cell_formula_units_Z   2
loop_
 _symmetry_equiv_pos_site_id
 _symmetry_equiv_pos_as_xyz
  1  'x, y, z'
loop_
 _atom_site_type_symbol
 _atom_site_label
 _atom_site_symmetry_multiplicity
 _atom_site_fract_x
 _atom_site_fract_y
 _atom_site_fract_z
 _atom_site_occupancy
  Y  Y0  1  0.816332  0.816332  0.183668  1
  Y  Y1  1  0.183668  0.183668  0.816332  1
  Tm  Tm2  1  0.063352  0.436648  0.436648  1
  Tm  Tm3  1  0.436648  0.063352  0.063352  1
  Tm  Tm4  1  0.436648  0.063352  0.436648  1
  Tm  Tm5  1  0.063352  0.436648  0.063352  1
  Tm  Tm6  1  0.436859  0.436859  0.063141  1
  Tm  Tm7  1  0.063141  0.063141  0.436859  1
  Tm  Tm8  1  0.184771  0.815229  0.815229  1
  Tm  Tm9  1  0.815229  0.184771  0.184771  1
  Tm  Tm10  1  0.815229  0.184771  0.815229  1
  Tm  Tm11  1  0.184771  0.815229  0.184771  1
  Th  Th12  1  0.598631  0.598631  0.599317  1
  Th  Th13  1  0.598631  0.598631  0.203420  1
  Th  Th14  1  0.599317  0.203420  0.598631  1
  Th  Th15  1  0.203420  0.599317  0.598631  1
  Mg  Mg16  1  0.831005  0.831005  0.830599  1
  Mg  Mg17  1  0.831005  0.831005  0.507390  1
  Mg  Mg18  1  0.830599  0.507390  0.831005  1
  Mg  Mg19  1  0.507390  0.830599  0.831005  1
  Ir  Ir20  1  0.392581  0.392581  0.391911  1
  Ir  Ir21  1  0.392581  0.392581  0.822926  1
  Ir  Ir22  1  0.391911  0.822926  0.392581  1
  Ir  Ir23  1  0.822926  0.391911  0.392581  1
