# generated using pymatgen
data_Hf16Rh5Au3N4
_symmetry_space_group_name_H-M   'P 1'
_cell_length_a   8.77269133
_cell_length_b   8.77269102
_cell_length_c   8.77269286
_cell_angle_alpha   60.17218438
_cell_angle_beta   60.17218678
_cell_angle_gamma   60.17218518
_symmetry_Int_Tables_number   1
_chemical_formula_structural   Hf16Rh5Au3N4
_chemical_formula_sum   'Hf16 Rh5 Au3 N4'
_cell_volume   479.26299460
_cell_formula_units_Z   1
loop_
 _symmetry_equiv_pos_site_id
 _symmetry_equiv_pos_as_xyz
  1  'x, y, z'
loop_
 _atom_site_type_symbol
 _atom_site_label
 _atom_site_symmetry_multiplicity
 _atom_site_fract_x
 _atom_site_fract_y
 _atom_site_fract_z
 _atom_site_occupancy
  Hf  Hf0  1  0.106201  0.629037  0.629037  1
  Hf  Hf1  1  0.629037  0.106201  0.629037  1
  Hf  Hf2  1  0.629037  0.629037  0.106201  1
  Hf  Hf3  1  0.634148  0.634148  0.634148  1
  Hf  Hf4  1  0.818430  0.818430  0.180632  1
  Hf  Hf5  1  0.181434  0.181434  0.818068  1
  Hf  Hf6  1  0.818430  0.180632  0.818430  1
  Hf  Hf7  1  0.181434  0.818068  0.181434  1
  Hf  Hf8  1  0.180632  0.818430  0.818430  1
  Hf  Hf9  1  0.818068  0.181434  0.181434  1
  Hf  Hf10  1  0.432445  0.432445  0.073777  1
  Hf  Hf11  1  0.067751  0.067751  0.432587  1
  Hf  Hf12  1  0.432445  0.073777  0.432445  1
  Hf  Hf13  1  0.067751  0.432587  0.067751  1
  Hf  Hf14  1  0.073777  0.432445  0.432445  1
  Hf  Hf15  1  0.432587  0.067751  0.067751  1
  Rh  Rh16  1  0.406917  0.406917  0.406917  1
  Rh  Rh17  1  0.463162  0.846497  0.846497  1
  Rh  Rh18  1  0.846497  0.463162  0.846497  1
  Rh  Rh19  1  0.846497  0.846497  0.463162  1
  Rh  Rh20  1  0.843838  0.843838  0.843838  1
  Au  Au21  1  0.766190  0.411758  0.411758  1
  Au  Au22  1  0.411758  0.766190  0.411758  1
  Au  Au23  1  0.411758  0.411758  0.766190  1
  N  N24  1  0.623600  0.125125  0.125125  1
  N  N25  1  0.125125  0.623600  0.125125  1
  N  N26  1  0.125125  0.125125  0.623600  1
  N  N27  1  0.125926  0.125926  0.125926  1
