# generated using pymatgen
data_Ho4Al16Si2Ir5Ru
_symmetry_space_group_name_H-M   'P 1'
_cell_length_a   7.52542718
_cell_length_b   7.52542832
_cell_length_c   9.36241813
_cell_angle_alpha   89.92872345
_cell_angle_beta   89.92872145
_cell_angle_gamma   119.47089548
_symmetry_Int_Tables_number   1
_chemical_formula_structural   Ho4Al16Si2Ir5Ru
_chemical_formula_sum   'Ho4 Al16 Si2 Ir5 Ru1'
_cell_volume   461.60510895
_cell_formula_units_Z   1
loop_
 _symmetry_equiv_pos_site_id
 _symmetry_equiv_pos_as_xyz
  1  'x, y, z'
loop_
 _atom_site_type_symbol
 _atom_site_label
 _atom_site_symmetry_multiplicity
 _atom_site_fract_x
 _atom_site_fract_y
 _atom_site_fract_z
 _atom_site_occupancy
  Ho  Ho0  1  0.995227  0.675915  0.249615  1
  Ho  Ho1  1  0.004773  0.324085  0.750385  1
  Ho  Ho2  1  0.675915  0.995227  0.249615  1
  Ho  Ho3  1  0.324085  0.004773  0.750385  1
  Al  Al4  1  0.001806  0.335311  0.076219  1
  Al  Al5  1  0.998194  0.664689  0.923781  1
  Al  Al6  1  0.998326  0.663229  0.577085  1
  Al  Al7  1  0.336771  0.001674  0.422915  1
  Al  Al8  1  0.001674  0.336771  0.422915  1
  Al  Al9  1  0.663229  0.998326  0.577085  1
  Al  Al10  1  0.664689  0.998194  0.923781  1
  Al  Al11  1  0.335311  0.001806  0.076219  1
  Al  Al12  1  0.335133  0.335133  0.555126  1
  Al  Al13  1  0.664867  0.664867  0.444874  1
  Al  Al14  1  0.666465  0.666465  0.054413  1
  Al  Al15  1  0.333535  0.333535  0.945587  1
  Al  Al16  1  0.336135  0.548878  0.249899  1
  Al  Al17  1  0.663865  0.451122  0.750101  1
  Al  Al18  1  0.548878  0.336135  0.249899  1
  Al  Al19  1  0.451122  0.663865  0.750101  1
  Si  Si20  1  0.127147  0.127147  0.247861  1
  Si  Si21  1  0.872853  0.872853  0.752139  1
  Ir  Ir22  1  0.671847  0.328153  0.000000  1
  Ir  Ir23  1  0.328153  0.671847  0.000000  1
  Ir  Ir24  1  0.328296  0.671704  0.500000  1
  Ir  Ir25  1  0.671704  0.328296  0.500000  1
  Ir  Ir26  1  0.000000  0.000000  0.500000  1
  Ru  Ru27  1  0.000000  0.000000  0.000000  1
