# generated using pymatgen
data_Ho8Sc2Ga3Bi2Pt
_symmetry_space_group_name_H-M   'P 1'
_cell_length_a   8.54461159
_cell_length_b   8.54461199
_cell_length_c   8.66908872
_cell_angle_alpha   125.23134994
_cell_angle_beta   125.23134912
_cell_angle_gamma   80.17924894
_symmetry_Int_Tables_number   1
_chemical_formula_structural   Ho8Sc2Ga3Bi2Pt
_chemical_formula_sum   'Ho8 Sc2 Ga3 Bi2 Pt1'
_cell_volume   409.62737450
_cell_formula_units_Z   1
loop_
 _symmetry_equiv_pos_site_id
 _symmetry_equiv_pos_as_xyz
  1  'x, y, z'
loop_
 _atom_site_type_symbol
 _atom_site_label
 _atom_site_symmetry_multiplicity
 _atom_site_fract_x
 _atom_site_fract_y
 _atom_site_fract_z
 _atom_site_occupancy
  Ho  Ho0  1  0.786063  0.296899  0.803150  1
  Ho  Ho1  1  0.203101  0.713937  0.196850  1
  Ho  Ho2  1  0.482914  0.993749  0.196850  1
  Ho  Ho3  1  0.300180  0.467542  0.500000  1
  Ho  Ho4  1  0.032458  0.199820  0.500000  1
  Ho  Ho5  1  0.506251  0.017086  0.803150  1
  Ho  Ho6  1  0.703470  0.514973  0.500000  1
  Ho  Ho7  1  0.985027  0.796530  0.500000  1
  Sc  Sc8  1  0.995376  0.997456  0.992832  1
  Sc  Sc9  1  0.502544  0.504624  0.007168  1
  Ga  Ga10  1  0.145965  0.647368  0.793334  1
  Ga  Ga11  1  0.852632  0.354035  0.206666  1
  Ga  Ga12  1  0.641087  0.858913  0.500000  1
  Bi  Bi13  1  0.246413  0.253587  0.000000  1
  Bi  Bi14  1  0.746413  0.753587  0.000000  1
  Pt  Pt15  1  0.370104  0.129896  0.500000  1
