# generated using pymatgen
data_Tb15ErInHg3Rh4
_symmetry_space_group_name_H-M   'P 1'
_cell_length_a   9.63602213
_cell_length_b   9.64489382
_cell_length_c   9.64637100
_cell_angle_alpha   59.99493006
_cell_angle_beta   59.96446333
_cell_angle_gamma   59.89400754
_symmetry_Int_Tables_number   1
_chemical_formula_structural   Tb15ErInHg3Rh4
_chemical_formula_sum   'Tb15 Er1 In1 Hg3 Rh4'
_cell_volume   633.23062987
_cell_formula_units_Z   1
loop_
 _symmetry_equiv_pos_site_id
 _symmetry_equiv_pos_as_xyz
  1  'x, y, z'
loop_
 _atom_site_type_symbol
 _atom_site_label
 _atom_site_symmetry_multiplicity
 _atom_site_fract_x
 _atom_site_fract_y
 _atom_site_fract_z
 _atom_site_occupancy
  Tb  Tb0  1  0.811177  0.190042  0.808786  1
  Tb  Tb1  1  0.189268  0.189616  0.810558  1
  Tb  Tb2  1  0.648930  0.052359  0.649356  1
  Tb  Tb3  1  0.065457  0.060783  0.436881  1
  Tb  Tb4  1  0.438209  0.436982  0.062404  1
  Tb  Tb5  1  0.649760  0.649232  0.649314  1
  Tb  Tb6  1  0.811177  0.190042  0.189994  1
  Tb  Tb7  1  0.188957  0.811132  0.810585  1
  Tb  Tb8  1  0.053631  0.648003  0.649183  1
  Tb  Tb9  1  0.438934  0.061540  0.063103  1
  Tb  Tb10  1  0.438934  0.061540  0.436424  1
  Tb  Tb11  1  0.064595  0.437212  0.062024  1
  Tb  Tb12  1  0.649760  0.649232  0.051695  1
  Tb  Tb13  1  0.188957  0.811132  0.189326  1
  Tb  Tb14  1  0.064595  0.437212  0.436171  1
  Er  Er15  1  0.810761  0.808589  0.190325  1
  In  In16  1  0.742958  0.419831  0.418605  1
  Hg  Hg17  1  0.414783  0.415122  0.414974  1
  Hg  Hg18  1  0.414783  0.415122  0.755118  1
  Hg  Hg19  1  0.414874  0.756236  0.414444  1
  Rh  Rh20  1  0.857169  0.427549  0.857642  1
  Rh  Rh21  1  0.857118  0.857197  0.858801  1
  Rh  Rh22  1  0.857118  0.857197  0.426886  1
  Rh  Rh23  1  0.428097  0.857099  0.857403  1
