# generated using pymatgen
data_Pr3NdAl18(IrPt)3
_symmetry_space_group_name_H-M   'P 1'
_cell_length_a   7.66501040
_cell_length_b   7.66746065
_cell_length_c   9.59564917
_cell_angle_alpha   89.98713985
_cell_angle_beta   89.98360585
_cell_angle_gamma   119.67225072
_symmetry_Int_Tables_number   1
_chemical_formula_structural   Pr3NdAl18(IrPt)3
_chemical_formula_sum   'Pr3 Nd1 Al18 Ir3 Pt3'
_cell_volume   489.99776299
_cell_formula_units_Z   1
loop_
 _symmetry_equiv_pos_site_id
 _symmetry_equiv_pos_as_xyz
  1  'x, y, z'
loop_
 _atom_site_type_symbol
 _atom_site_label
 _atom_site_symmetry_multiplicity
 _atom_site_fract_x
 _atom_site_fract_y
 _atom_site_fract_z
 _atom_site_occupancy
  Pr  Pr0  1  0.995506  0.668746  0.249994  1
  Pr  Pr1  1  0.005363  0.331960  0.750170  1
  Pr  Pr2  1  0.667880  0.994571  0.249862  1
  Nd  Nd3  1  0.331034  0.004420  0.749870  1
  Al  Al4  1  0.128548  0.129055  0.250545  1
  Al  Al5  1  0.871430  0.871617  0.749475  1
  Al  Al6  1  0.002177  0.331001  0.074004  1
  Al  Al7  1  0.997796  0.669927  0.924927  1
  Al  Al8  1  0.995563  0.666071  0.572864  1
  Al  Al9  1  0.334397  0.004841  0.427869  1
  Al  Al10  1  0.997840  0.330491  0.427845  1
  Al  Al11  1  0.668916  0.002088  0.572474  1
  Al  Al12  1  0.668571  0.997860  0.925692  1
  Al  Al13  1  0.330613  0.002695  0.074340  1
  Al  Al14  1  0.334029  0.330446  0.548831  1
  Al  Al15  1  0.669253  0.666045  0.451669  1
  Al  Al16  1  0.668048  0.668034  0.051821  1
  Al  Al17  1  0.332073  0.331565  0.947711  1
  Al  Al18  1  0.340672  0.542758  0.250499  1
  Al  Al19  1  0.658489  0.453878  0.746872  1
  Al  Al20  1  0.545333  0.340717  0.253203  1
  Al  Al21  1  0.457130  0.659804  0.749452  1
  Ir  Ir22  1  0.670481  0.329171  0.500247  1
  Ir  Ir23  1  0.000098  0.000356  0.999742  1
  Ir  Ir24  1  0.000477  0.000025  0.500303  1
  Pt  Pt25  1  0.670763  0.328977  0.999760  1
  Pt  Pt26  1  0.328682  0.671503  0.999794  1
  Pt  Pt27  1  0.328835  0.671380  0.500163  1
