# generated using pymatgen
data_PuAsRuF
_symmetry_space_group_name_H-M   'P 1'
_cell_length_a   4.12314500
_cell_length_b   4.12314503
_cell_length_c   8.19409600
_cell_angle_alpha   90.00000000
_cell_angle_beta   90.00000000
_cell_angle_gamma   89.99520583
_symmetry_Int_Tables_number   1
_chemical_formula_structural   PuAsRuF
_chemical_formula_sum   'Pu2 As2 Ru2 F2'
_cell_volume   139.30229302
_cell_formula_units_Z   2
loop_
 _symmetry_equiv_pos_site_id
 _symmetry_equiv_pos_as_xyz
  1  'x, y, z'
loop_
 _atom_site_type_symbol
 _atom_site_label
 _atom_site_symmetry_multiplicity
 _atom_site_fract_x
 _atom_site_fract_y
 _atom_site_fract_z
 _atom_site_occupancy
  Pu  Pu0  1  0.250000  0.250000  0.186763  1
  Pu  Pu1  1  0.749999  0.749999  0.812845  1
  As  As2  1  0.749999  0.749999  0.337263  1
  As  As3  1  0.250000  0.250000  0.662718  1
  Ru  Ru4  1  0.749998  0.249998  0.499927  1
  Ru  Ru5  1  0.249998  0.749998  0.499927  1
  F  F6  1  0.749998  0.249998  0.000278  1
  F  F7  1  0.249998  0.749998  0.000278  1
