# generated using pymatgen
data_Tb2SmNp7O20
_symmetry_space_group_name_H-M   'P 1'
_cell_length_a   6.59823008
_cell_length_b   7.61610203
_cell_length_c   8.51363199
_cell_angle_alpha   102.71976855
_cell_angle_beta   97.31930622
_cell_angle_gamma   106.87499519
_symmetry_Int_Tables_number   1
_chemical_formula_structural   Tb2SmNp7O20
_chemical_formula_sum   'Tb2 Sm1 Np7 O20'
_cell_volume   390.88614047
_cell_formula_units_Z   1
loop_
 _symmetry_equiv_pos_site_id
 _symmetry_equiv_pos_as_xyz
  1  'x, y, z'
loop_
 _atom_site_type_symbol
 _atom_site_label
 _atom_site_symmetry_multiplicity
 _atom_site_fract_x
 _atom_site_fract_y
 _atom_site_fract_z
 _atom_site_occupancy
  Tb  Tb0  1  0.799498  0.599248  0.599008  1
  Tb  Tb1  1  0.600647  0.201083  0.200764  1
  Sm  Sm2  1  0.999723  0.999823  0.999941  1
  Np  Np3  1  0.000133  0.500164  0.000234  1
  Np  Np4  1  0.799083  0.099983  0.599012  1
  Np  Np5  1  0.400169  0.800397  0.801254  1
  Np  Np6  1  0.200014  0.399602  0.399052  1
  Np  Np7  1  0.599968  0.699288  0.200201  1
  Np  Np8  1  0.400359  0.299281  0.800162  1
  Np  Np9  1  0.200607  0.901205  0.400235  1
  O  O10  1  0.858655  0.320106  0.454924  1
  O  O11  1  0.638876  0.912520  0.050888  1
  O  O12  1  0.950546  0.766129  0.155396  1
  O  O13  1  0.439939  0.520018  0.653710  1
  O  O14  1  0.856050  0.833004  0.447398  1
  O  O15  1  0.649455  0.431842  0.045943  1
  O  O16  1  0.742494  0.367193  0.752779  1
  O  O17  1  0.249406  0.126008  0.261508  1
  O  O18  1  0.957720  0.289356  0.152500  1
  O  O19  1  0.446098  0.026920  0.646075  1
  O  O20  1  0.549034  0.968674  0.355643  1
  O  O21  1  0.058137  0.715852  0.850278  1
  O  O22  1  0.737138  0.878375  0.743471  1
  O  O23  1  0.350280  0.571372  0.952809  1
  O  O24  1  0.253048  0.628770  0.247579  1
  O  O25  1  0.544013  0.482147  0.347878  1
  O  O26  1  0.151462  0.172718  0.552733  1
  O  O27  1  0.051653  0.233696  0.843749  1
  O  O28  1  0.356974  0.076467  0.940212  1
  O  O29  1  0.158816  0.678757  0.544663  1
