# generated using pymatgen
data_Ti8Al15Fe(CuRh2)2
_symmetry_space_group_name_H-M   'P 1'
_cell_length_a   8.62166998
_cell_length_b   8.56929244
_cell_length_c   8.62166879
_cell_angle_alpha   119.99500116
_cell_angle_beta   119.81790164
_cell_angle_gamma   90.33825182
_symmetry_Int_Tables_number   1
_chemical_formula_structural   Ti8Al15Fe(CuRh2)2
_chemical_formula_sum   'Ti8 Al15 Fe1 Cu2 Rh4'
_cell_volume   450.34861589
_cell_formula_units_Z   1
loop_
 _symmetry_equiv_pos_site_id
 _symmetry_equiv_pos_as_xyz
  1  'x, y, z'
loop_
 _atom_site_type_symbol
 _atom_site_label
 _atom_site_symmetry_multiplicity
 _atom_site_fract_x
 _atom_site_fract_y
 _atom_site_fract_z
 _atom_site_occupancy
  Ti  Ti0  1  0.780679  0.287419  0.070525  1
  Ti  Ti1  1  0.216894  0.287419  0.506740  1
  Ti  Ti2  1  0.212333  0.717789  0.505456  1
  Ti  Ti3  1  0.215998  0.713918  0.923263  1
  Ti  Ti4  1  0.790655  0.713918  0.497921  1
  Ti  Ti5  1  0.781822  0.278561  0.496739  1
  Ti  Ti6  1  0.386756  0.138480  0.751723  1
  Ti  Ti7  1  0.382195  0.632817  0.250622  1
  Al  Al8  1  0.997262  0.494403  0.497142  1
  Al  Al9  1  0.151309  0.349472  0.198162  1
  Al  Al10  1  0.161639  0.977817  0.816178  1
  Al  Al11  1  0.155885  0.344175  0.809767  1
  Al  Al12  1  0.534407  0.344175  0.188289  1
  Al  Al13  1  0.845781  0.650667  0.804886  1
  Al  Al14  1  0.845250  0.033536  0.188286  1
  Al  Al15  1  0.836448  0.651630  0.181406  1
  Al  Al16  1  0.470225  0.651630  0.815182  1
  Al  Al17  1  0.375407  0.125476  0.262045  1
  Al  Al18  1  0.863432  0.125476  0.750070  1
  Al  Al19  1  0.617690  0.869045  0.251355  1
  Al  Al20  1  0.620671  0.368064  0.747391  1
  Al  Al21  1  0.621242  0.875241  0.738938  1
  Al  Al22  1  0.136302  0.875241  0.253999  1
  Fe  Fe23  1  0.496379  0.498715  0.002336  1
  Cu  Cu24  1  0.999332  0.998394  0.496549  1
  Cu  Cu25  1  0.501845  0.998394  0.999062  1
  Rh  Rh26  1  0.498829  0.499580  0.498247  1
  Rh  Rh27  1  0.001332  0.499580  0.000751  1
  Rh  Rh28  1  0.001182  0.999472  0.998290  1
  Rh  Rh29  1  0.500813  0.999492  0.498679  1
