# generated using pymatgen
data_Ac2Ge5Pt3
_symmetry_space_group_name_H-M   'P 1'
_cell_length_a   8.72102656
_cell_length_b   8.72102734
_cell_length_c   8.72102632
_cell_angle_alpha   136.33863471
_cell_angle_beta   106.61100630
_cell_angle_gamma   89.46683752
_symmetry_Int_Tables_number   1
_chemical_formula_structural   Ac2Ge5Pt3
_chemical_formula_sum   'Ac4 Ge10 Pt6'
_cell_volume   418.81027148
_cell_formula_units_Z   2
loop_
 _symmetry_equiv_pos_site_id
 _symmetry_equiv_pos_as_xyz
  1  'x, y, z'
loop_
 _atom_site_type_symbol
 _atom_site_label
 _atom_site_symmetry_multiplicity
 _atom_site_fract_x
 _atom_site_fract_y
 _atom_site_fract_z
 _atom_site_occupancy
  Ac  Ac0  1  0.605357  0.370652  0.234705  1
  Ac  Ac1  1  0.394643  0.629348  0.765295  1
  Ac  Ac2  1  0.135947  0.870652  0.265295  1
  Ac  Ac3  1  0.864053  0.129348  0.734705  1
  Ge  Ge4  1  0.500000  0.250000  0.750000  1
  Ge  Ge5  1  0.500000  0.750000  0.250000  1
  Ge  Ge6  1  0.233641  0.483641  0.250000  1
  Ge  Ge7  1  0.766359  0.016359  0.250000  1
  Ge  Ge8  1  0.766359  0.516359  0.750000  1
  Ge  Ge9  1  0.233641  0.983641  0.750000  1
  Ge  Ge10  1  0.962246  0.608339  0.353907  1
  Ge  Ge11  1  0.037754  0.391661  0.646093  1
  Ge  Ge12  1  0.254431  0.108339  0.146093  1
  Ge  Ge13  1  0.745569  0.891661  0.853907  1
  Pt  Pt14  1  0.000000  0.750000  0.750000  1
  Pt  Pt15  1  0.000000  0.250000  0.250000  1
  Pt  Pt16  1  0.523195  0.135648  0.387546  1
  Pt  Pt17  1  0.476805  0.864352  0.612454  1
  Pt  Pt18  1  0.748101  0.635648  0.112454  1
  Pt  Pt19  1  0.251899  0.364352  0.887546  1
