# generated using pymatgen
data_Lu3Si3RuRh
_symmetry_space_group_name_H-M   'P 1'
_cell_length_a   5.63201952
_cell_length_b   5.63202060
_cell_length_c   13.50536618
_cell_angle_alpha   90.23712848
_cell_angle_beta   89.76287220
_cell_angle_gamma   136.80723497
_symmetry_Int_Tables_number   1
_chemical_formula_structural   Lu3Si3RuRh
_chemical_formula_sum   'Lu6 Si6 Ru2 Rh2'
_cell_volume   293.20770605
_cell_formula_units_Z   2
loop_
 _symmetry_equiv_pos_site_id
 _symmetry_equiv_pos_as_xyz
  1  'x, y, z'
loop_
 _atom_site_type_symbol
 _atom_site_label
 _atom_site_symmetry_multiplicity
 _atom_site_fract_x
 _atom_site_fract_y
 _atom_site_fract_z
 _atom_site_occupancy
  Lu  Lu0  1  0.643204  0.356796  0.250304  1
  Lu  Lu1  1  0.356796  0.643204  0.749696  1
  Lu  Lu2  1  0.924069  0.075931  0.114067  1
  Lu  Lu3  1  0.075931  0.924069  0.885933  1
  Lu  Lu4  1  0.079455  0.920545  0.615657  1
  Lu  Lu5  1  0.920545  0.079455  0.384343  1
  Si  Si6  1  0.334954  0.665046  0.248295  1
  Si  Si7  1  0.665046  0.334954  0.751705  1
  Si  Si8  1  0.614325  0.385675  0.038372  1
  Si  Si9  1  0.385675  0.614325  0.961628  1
  Si  Si10  1  0.392080  0.607920  0.537468  1
  Si  Si11  1  0.607920  0.392080  0.462532  1
  Ru  Ru12  1  0.211141  0.788859  0.082324  1
  Ru  Ru13  1  0.788859  0.211141  0.917676  1
  Rh  Rh14  1  0.789623  0.210377  0.583694  1
  Rh  Rh15  1  0.210377  0.789623  0.416306  1
