# generated using pymatgen
data_Tm3Al12Os3Rh
_symmetry_space_group_name_H-M   'P 1'
_cell_length_a   8.77268929
_cell_length_b   8.77268995
_cell_length_c   9.57397200
_cell_angle_alpha   90.00000000
_cell_angle_beta   90.00000000
_cell_angle_gamma   119.65268523
_symmetry_Int_Tables_number   1
_chemical_formula_structural   Tm3Al12Os3Rh
_chemical_formula_sum   'Tm6 Al24 Os6 Rh2'
_cell_volume   640.32083220
_cell_formula_units_Z   2
loop_
 _symmetry_equiv_pos_site_id
 _symmetry_equiv_pos_as_xyz
  1  'x, y, z'
loop_
 _atom_site_type_symbol
 _atom_site_label
 _atom_site_symmetry_multiplicity
 _atom_site_fract_x
 _atom_site_fract_y
 _atom_site_fract_z
 _atom_site_occupancy
  Tm  Tm0  1  0.186592  0.387737  0.250000  1
  Tm  Tm1  1  0.813408  0.612263  0.750000  1
  Tm  Tm2  1  0.612263  0.813408  0.250000  1
  Tm  Tm3  1  0.387737  0.186592  0.750000  1
  Tm  Tm4  1  0.194282  0.805718  0.250000  1
  Tm  Tm5  1  0.805718  0.194282  0.750000  1
  Al  Al6  1  0.333331  0.666669  0.023512  1
  Al  Al7  1  0.666669  0.333331  0.976488  1
  Al  Al8  1  0.666669  0.333331  0.523512  1
  Al  Al9  1  0.333331  0.666669  0.476488  1
  Al  Al10  1  0.162690  0.326255  0.577385  1
  Al  Al11  1  0.837310  0.673745  0.422615  1
  Al  Al12  1  0.673745  0.837310  0.577385  1
  Al  Al13  1  0.837310  0.673745  0.077385  1
  Al  Al14  1  0.326255  0.162690  0.422615  1
  Al  Al15  1  0.162690  0.326255  0.922615  1
  Al  Al16  1  0.164046  0.835954  0.576070  1
  Al  Al17  1  0.326255  0.162690  0.077385  1
  Al  Al18  1  0.835954  0.164046  0.423930  1
  Al  Al19  1  0.673745  0.837310  0.922615  1
  Al  Al20  1  0.835954  0.164046  0.076070  1
  Al  Al21  1  0.164046  0.835954  0.923930  1
  Al  Al22  1  0.561205  0.126468  0.250000  1
  Al  Al23  1  0.438795  0.873532  0.750000  1
  Al  Al24  1  0.873532  0.438795  0.250000  1
  Al  Al25  1  0.126468  0.561205  0.750000  1
  Al  Al26  1  0.559140  0.440860  0.250000  1
  Al  Al27  1  0.440860  0.559140  0.750000  1
  Al  Al28  1  0.998541  0.001459  0.250000  1
  Al  Al29  1  0.001459  0.998541  0.750000  1
  Os  Os30  1  0.500000  0.000000  0.000000  1
  Os  Os31  1  0.000000  0.500000  0.000000  1
  Os  Os32  1  0.500000  0.000000  0.500000  1
  Os  Os33  1  0.000000  0.500000  0.500000  1
  Os  Os34  1  0.000000  0.000000  0.000000  1
  Os  Os35  1  0.000000  0.000000  0.500000  1
  Rh  Rh36  1  0.500000  0.500000  0.000000  1
  Rh  Rh37  1  0.500000  0.500000  0.500000  1
