# generated using pymatgen
data_Ba2LuGaO5
_symmetry_space_group_name_H-M   'P 1'
_cell_length_a   6.09129108
_cell_length_b   6.27024570
_cell_length_c   8.99162792
_cell_angle_alpha   110.40607175
_cell_angle_beta   109.79891656
_cell_angle_gamma   90.00000541
_symmetry_Int_Tables_number   1
_chemical_formula_structural   Ba2LuGaO5
_chemical_formula_sum   'Ba4 Lu2 Ga2 O10'
_cell_volume   300.11849578
_cell_formula_units_Z   2
loop_
 _symmetry_equiv_pos_site_id
 _symmetry_equiv_pos_as_xyz
  1  'x, y, z'
loop_
 _atom_site_type_symbol
 _atom_site_label
 _atom_site_symmetry_multiplicity
 _atom_site_fract_x
 _atom_site_fract_y
 _atom_site_fract_z
 _atom_site_occupancy
  Ba  Ba0  1  0.126682  0.628404  0.234766  1
  Ba  Ba1  1  0.891916  0.371596  0.765234  1
  Ba  Ba2  1  0.391916  0.893638  0.765234  1
  Ba  Ba3  1  0.626682  0.106362  0.234766  1
  Lu  Lu4  1  0.506812  0.500000  0.000000  1
  Lu  Lu5  1  0.006812  0.000000  0.000000  1
  Ga  Ga6  1  0.268154  0.321603  0.500000  1
  Ga  Ga7  1  0.768154  0.678397  0.500000  1
  O  O8  1  0.249629  0.743118  0.979550  1
  O  O9  1  0.270079  0.256882  0.020450  1
  O  O10  1  0.770079  0.263569  0.020450  1
  O  O11  1  0.749629  0.736431  0.979550  1
  O  O12  1  0.639999  0.705886  0.290574  1
  O  O13  1  0.349425  0.294114  0.709426  1
  O  O14  1  0.849425  0.915312  0.709426  1
  O  O15  1  0.139999  0.084688  0.290574  1
  O  O16  1  0.052802  0.546439  0.500000  1
  O  O17  1  0.552802  0.453561  0.500000  1
