# generated using pymatgen
data_Rb4Dy7(LuTe4)5
_symmetry_space_group_name_H-M   'P 1'
_cell_length_a   4.38054200
_cell_length_b   13.26546868
_cell_length_c   23.39639330
_cell_angle_alpha   89.87502672
_cell_angle_beta   90.00000000
_cell_angle_gamma   90.00000000
_symmetry_Int_Tables_number   1
_chemical_formula_structural   Rb4Dy7(LuTe4)5
_chemical_formula_sum   'Rb4 Dy7 Lu5 Te20'
_cell_volume   1359.55983925
_cell_formula_units_Z   1
loop_
 _symmetry_equiv_pos_site_id
 _symmetry_equiv_pos_as_xyz
  1  'x, y, z'
loop_
 _atom_site_type_symbol
 _atom_site_label
 _atom_site_symmetry_multiplicity
 _atom_site_fract_x
 _atom_site_fract_y
 _atom_site_fract_z
 _atom_site_occupancy
  Rb  Rb0  1  0.250000  0.347992  0.092522  1
  Rb  Rb1  1  0.750000  0.652829  0.908384  1
  Rb  Rb2  1  0.750000  0.846818  0.407673  1
  Rb  Rb3  1  0.250000  0.153124  0.591858  1
  Dy  Dy4  1  0.250000  0.455283  0.698653  1
  Dy  Dy5  1  0.750000  0.544959  0.300550  1
  Dy  Dy6  1  0.750000  0.955154  0.801348  1
  Dy  Dy7  1  0.250000  0.043089  0.198770  1
  Dy  Dy8  1  0.250000  0.798577  0.671879  1
  Dy  Dy9  1  0.750000  0.201205  0.327742  1
  Dy  Dy10  1  0.750000  0.298618  0.828038  1
  Lu  Lu11  1  0.250000  0.702070  0.172615  1
  Lu  Lu12  1  0.250000  0.392750  0.444730  1
  Lu  Lu13  1  0.750000  0.607643  0.554792  1
  Lu  Lu14  1  0.750000  0.892066  0.055721  1
  Lu  Lu15  1  0.250000  0.107077  0.945078  1
  Te  Te16  1  0.250000  0.447021  0.568410  1
  Te  Te17  1  0.750000  0.553524  0.430944  1
  Te  Te18  1  0.750000  0.946253  0.931715  1
  Te  Te19  1  0.250000  0.052785  0.068780  1
  Te  Te20  1  0.250000  0.764764  0.542131  1
  Te  Te21  1  0.750000  0.235659  0.457566  1
  Te  Te22  1  0.750000  0.264232  0.957775  1
  Te  Te23  1  0.250000  0.734695  0.044776  1
  Te  Te24  1  0.250000  0.798170  0.802867  1
  Te  Te25  1  0.750000  0.200433  0.196938  1
  Te  Te26  1  0.750000  0.298365  0.697113  1
  Te  Te27  1  0.250000  0.701869  0.301495  1
  Te  Te28  1  0.250000  0.457760  0.829993  1
  Te  Te29  1  0.750000  0.547469  0.169210  1
  Te  Te30  1  0.750000  0.957793  0.669923  1
  Te  Te31  1  0.250000  0.042149  0.330206  1
  Te  Te32  1  0.250000  0.373326  0.313871  1
  Te  Te33  1  0.750000  0.626828  0.685594  1
  Te  Te34  1  0.750000  0.870957  0.186032  1
  Te  Te35  1  0.250000  0.126695  0.814311  1
