# generated using pymatgen
data_Pr3YFe4(WO6)4
_symmetry_space_group_name_H-M   'P 1'
_cell_length_a   5.37899672
_cell_length_b   7.55722817
_cell_length_c   11.12430189
_cell_angle_alpha   89.85356828
_cell_angle_beta   89.84324633
_cell_angle_gamma   90.06202510
_symmetry_Int_Tables_number   1
_chemical_formula_structural   Pr3YFe4(WO6)4
_chemical_formula_sum   'Pr3 Y1 Fe4 W4 O24'
_cell_volume   452.20283322
_cell_formula_units_Z   1
loop_
 _symmetry_equiv_pos_site_id
 _symmetry_equiv_pos_as_xyz
  1  'x, y, z'
loop_
 _atom_site_type_symbol
 _atom_site_label
 _atom_site_symmetry_multiplicity
 _atom_site_fract_x
 _atom_site_fract_y
 _atom_site_fract_z
 _atom_site_occupancy
  Pr  Pr0  1  0.541621  0.251455  0.044024  1
  Pr  Pr1  1  0.043991  0.751483  0.455106  1
  Pr  Pr2  1  0.955819  0.251298  0.545630  1
  Y  Y3  1  0.449364  0.751428  0.954612  1
  Fe  Fe4  1  0.043399  0.993641  0.138380  1
  Fe  Fe5  1  0.542493  0.496802  0.359669  1
  Fe  Fe6  1  0.456103  0.995605  0.641472  1
  Fe  Fe7  1  0.955160  0.499684  0.860501  1
  W  W8  1  0.050169  0.508048  0.140719  1
  W  W9  1  0.550597  0.007027  0.357040  1
  W  W10  1  0.449347  0.506954  0.644577  1
  W  W11  1  0.947719  0.003028  0.858306  1
  O  O12  1  0.760453  0.957068  0.019740  1
  O  O13  1  0.766640  0.548547  0.028026  1
  O  O14  1  0.172397  0.748225  0.118532  1
  O  O15  1  0.951714  0.260559  0.139893  1
  O  O16  1  0.364404  0.441963  0.209631  1
  O  O17  1  0.380016  0.061704  0.214917  1
  O  O18  1  0.881948  0.562781  0.283747  1
  O  O19  1  0.867870  0.942758  0.289761  1
  O  O20  1  0.452103  0.759332  0.355722  1
  O  O21  1  0.662038  0.248648  0.377121  1
  O  O22  1  0.270505  0.041688  0.470995  1
  O  O23  1  0.267179  0.464965  0.480637  1
  O  O24  1  0.732933  0.964978  0.520561  1
  O  O25  1  0.729896  0.541463  0.530475  1
  O  O26  1  0.339434  0.747907  0.622213  1
  O  O27  1  0.548574  0.259016  0.646849  1
  O  O28  1  0.131034  0.442484  0.709837  1
  O  O29  1  0.115506  0.058998  0.714458  1
  O  O30  1  0.613448  0.564100  0.788844  1
  O  O31  1  0.630645  0.935126  0.793748  1
  O  O32  1  0.063759  0.758596  0.855787  1
  O  O33  1  0.842731  0.246086  0.878937  1
  O  O34  1  0.231178  0.036779  0.971242  1
  O  O35  1  0.237816  0.470178  0.978296  1
