# generated using pymatgen
data_Na4LuP12Ir15Ru4
_symmetry_space_group_name_H-M   'P 1'
_cell_length_a   12.62828300
_cell_length_b   12.55560715
_cell_length_c   3.94880300
_cell_angle_alpha   90.00000000
_cell_angle_beta   90.00000000
_cell_angle_gamma   119.96879699
_symmetry_Int_Tables_number   1
_chemical_formula_structural   Na4LuP12Ir15Ru4
_chemical_formula_sum   'Na4 Lu1 P12 Ir15 Ru4'
_cell_volume   542.39364213
_cell_formula_units_Z   1
loop_
 _symmetry_equiv_pos_site_id
 _symmetry_equiv_pos_as_xyz
  1  'x, y, z'
loop_
 _atom_site_type_symbol
 _atom_site_label
 _atom_site_symmetry_multiplicity
 _atom_site_fract_x
 _atom_site_fract_y
 _atom_site_fract_z
 _atom_site_occupancy
  Na  Na0  1  0.332819  0.665325  0.000000  1
  Na  Na1  1  0.822054  0.001284  0.500000  1
  Na  Na2  1  0.000611  0.821791  0.500000  1
  Na  Na3  1  0.179387  0.180348  0.500000  1
  Lu  Lu4  1  0.666530  0.333168  0.000000  1
  P  P5  1  0.178876  0.000174  0.000000  1
  P  P6  1  0.003299  0.183100  0.000000  1
  P  P7  1  0.821593  0.822998  0.000000  1
  P  P8  1  0.172376  0.482561  0.500000  1
  P  P9  1  0.514864  0.685073  0.500000  1
  P  P10  1  0.313054  0.826762  0.500000  1
  P  P11  1  0.689712  0.519363  0.500000  1
  P  P12  1  0.828587  0.310369  0.500000  1
  P  P13  1  0.481182  0.169758  0.500000  1
  P  P14  1  0.635337  0.995868  0.000000  1
  P  P15  1  0.004126  0.639825  0.000000  1
  P  P16  1  0.358097  0.365353  0.000000  1
  Ir  Ir17  1  0.361369  0.484408  0.500000  1
  Ir  Ir18  1  0.512471  0.872118  0.500000  1
  Ir  Ir19  1  0.125807  0.638320  0.500000  1
  Ir  Ir20  1  0.864977  0.504708  0.500000  1
  Ir  Ir21  1  0.638259  0.133654  0.500000  1
  Ir  Ir22  1  0.497575  0.360922  0.500000  1
  Ir  Ir23  1  0.621046  0.801057  0.000000  1
  Ir  Ir24  1  0.199171  0.819576  0.000000  1
  Ir  Ir25  1  0.808145  0.624495  0.000000  1
  Ir  Ir26  1  0.814294  0.192860  0.000000  1
  Ir  Ir27  1  0.377979  0.184896  0.000000  1
  Ir  Ir28  1  0.288325  0.000159  0.500000  1
  Ir  Ir29  1  0.996943  0.286666  0.500000  1
  Ir  Ir30  1  0.712774  0.712826  0.500000  1
  Ir  Ir31  1  0.001041  0.001381  0.000000  1
  Ru  Ru32  1  0.457318  0.003353  0.000000  1
  Ru  Ru33  1  0.993281  0.452484  0.000000  1
  Ru  Ru34  1  0.547791  0.541432  0.000000  1
  Ru  Ru35  1  0.178933  0.381564  0.000000  1
