# generated using pymatgen
data_Lu12InAgTe4
_symmetry_space_group_name_H-M   'P 1'
_cell_length_a   4.03886400
_cell_length_b   11.38388000
_cell_length_c   21.37955100
_cell_angle_alpha   90.00000000
_cell_angle_beta   90.00000000
_cell_angle_gamma   90.00000000
_symmetry_Int_Tables_number   1
_chemical_formula_structural   Lu12InAgTe4
_chemical_formula_sum   'Lu24 In2 Ag2 Te8'
_cell_volume   982.98777964
_cell_formula_units_Z   2
loop_
 _symmetry_equiv_pos_site_id
 _symmetry_equiv_pos_as_xyz
  1  'x, y, z'
loop_
 _atom_site_type_symbol
 _atom_site_label
 _atom_site_symmetry_multiplicity
 _atom_site_fract_x
 _atom_site_fract_y
 _atom_site_fract_z
 _atom_site_occupancy
  Lu  Lu0  1  0.750000  0.681039  0.892338  1
  Lu  Lu1  1  0.250000  0.370343  0.473786  1
  Lu  Lu2  1  0.750000  0.870343  0.026214  1
  Lu  Lu3  1  0.750000  0.969876  0.840267  1
  Lu  Lu4  1  0.250000  0.181039  0.607662  1
  Lu  Lu5  1  0.250000  0.744316  0.269556  1
  Lu  Lu6  1  0.750000  0.108064  0.490694  1
  Lu  Lu7  1  0.750000  0.564592  0.140135  1
  Lu  Lu8  1  0.250000  0.329611  0.109373  1
  Lu  Lu9  1  0.250000  0.027312  0.163421  1
  Lu  Lu10  1  0.250000  0.469876  0.659733  1
  Lu  Lu11  1  0.250000  0.758941  0.768411  1
  Lu  Lu12  1  0.750000  0.527312  0.336579  1
  Lu  Lu13  1  0.750000  0.938127  0.639228  1
  Lu  Lu14  1  0.250000  0.608064  0.009306  1
  Lu  Lu15  1  0.750000  0.258941  0.731589  1
  Lu  Lu16  1  0.750000  0.244316  0.230444  1
  Lu  Lu17  1  0.750000  0.619006  0.532825  1
  Lu  Lu18  1  0.750000  0.829611  0.390627  1
  Lu  Lu19  1  0.250000  0.119006  0.967175  1
  Lu  Lu20  1  0.250000  0.888486  0.508939  1
  Lu  Lu21  1  0.750000  0.388486  0.991061  1
  Lu  Lu22  1  0.250000  0.438127  0.860772  1
  Lu  Lu23  1  0.250000  0.064592  0.359865  1
  In  In24  1  0.750000  0.131817  0.075175  1
  In  In25  1  0.250000  0.631817  0.424825  1
  Ag  Ag26  1  0.250000  0.864442  0.923028  1
  Ag  Ag27  1  0.750000  0.364442  0.576972  1
  Te  Te28  1  0.250000  0.771634  0.126643  1
  Te  Te29  1  0.250000  0.731812  0.627877  1
  Te  Te30  1  0.250000  0.042080  0.736333  1
  Te  Te31  1  0.750000  0.271634  0.373357  1
  Te  Te32  1  0.750000  0.542080  0.763667  1
  Te  Te33  1  0.250000  0.458500  0.236386  1
  Te  Te34  1  0.750000  0.958500  0.263614  1
  Te  Te35  1  0.750000  0.231812  0.872123  1
