# generated using pymatgen
data_Ta8Fe4Co3Si14Pt
_symmetry_space_group_name_H-M   'P 1'
_cell_length_a   9.26332288
_cell_length_b   9.25983161
_cell_length_c   9.23564975
_cell_angle_alpha   94.27555587
_cell_angle_beta   94.19591822
_cell_angle_gamma   148.35815561
_symmetry_Int_Tables_number   1
_chemical_formula_structural   Ta8Fe4Co3Si14Pt
_chemical_formula_sum   'Ta8 Fe4 Co3 Si14 Pt1'
_cell_volume   400.05453295
_cell_formula_units_Z   1
loop_
 _symmetry_equiv_pos_site_id
 _symmetry_equiv_pos_as_xyz
  1  'x, y, z'
loop_
 _atom_site_type_symbol
 _atom_site_label
 _atom_site_symmetry_multiplicity
 _atom_site_fract_x
 _atom_site_fract_y
 _atom_site_fract_z
 _atom_site_occupancy
  Ta  Ta0  1  0.688509  0.498257  0.187517  1
  Ta  Ta1  1  0.498633  0.690114  0.189137  1
  Ta  Ta2  1  0.501275  0.310068  0.812269  1
  Ta  Ta3  1  0.311171  0.503143  0.811299  1
  Ta  Ta4  1  0.866165  0.869236  0.733410  1
  Ta  Ta5  1  0.133562  0.866895  0.999543  1
  Ta  Ta6  1  0.865398  0.133035  0.999478  1
  Ta  Ta7  1  0.130524  0.133858  0.265998  1
  Fe  Fe8  1  0.600063  0.399360  0.500965  1
  Fe  Fe9  1  0.397001  0.899445  0.795818  1
  Fe  Fe10  1  0.903323  0.098562  0.500533  1
  Fe  Fe11  1  0.395575  0.603935  0.499067  1
  Co  Co12  1  0.905811  0.400262  0.804421  1
  Co  Co13  1  0.600575  0.095260  0.197055  1
  Co  Co14  1  0.100022  0.602872  0.204110  1
  Si  Si15  1  0.750723  0.751314  0.000031  1
  Si  Si16  1  0.248408  0.249174  0.999471  1
  Si  Si17  1  0.093336  0.499063  0.593266  1
  Si  Si18  1  0.533466  0.120320  0.598478  1
  Si  Si19  1  0.506914  0.910793  0.406990  1
  Si  Si20  1  0.873273  0.461584  0.402590  1
  Si  Si21  1  0.705320  0.001963  0.702809  1
  Si  Si22  1  0.988706  0.690195  0.710748  1
  Si  Si23  1  0.682846  0.689678  0.413208  1
  Si  Si24  1  0.292829  0.709241  0.000118  1
  Si  Si25  1  0.310474  0.012821  0.288634  1
  Si  Si26  1  0.708190  0.289849  0.000061  1
  Si  Si27  1  0.310224  0.317082  0.587559  1
  Si  Si28  1  0.998082  0.294569  0.297176  1
  Pt  Pt29  1  0.099602  0.898056  0.498242  1
