# generated using pymatgen
data_NdNpSc2(ReB6)2
_symmetry_space_group_name_H-M   'P 1'
_cell_length_a   3.61724600
_cell_length_b   9.03557368
_cell_length_c   11.43312871
_cell_angle_alpha   90.08010519
_cell_angle_beta   90.00000000
_cell_angle_gamma   90.00000000
_symmetry_Int_Tables_number   1
_chemical_formula_structural   NdNpSc2(ReB6)2
_chemical_formula_sum   'Nd2 Np2 Sc4 Re4 B24'
_cell_volume   373.67878733
_cell_formula_units_Z   2
loop_
 _symmetry_equiv_pos_site_id
 _symmetry_equiv_pos_as_xyz
  1  'x, y, z'
loop_
 _atom_site_type_symbol
 _atom_site_label
 _atom_site_symmetry_multiplicity
 _atom_site_fract_x
 _atom_site_fract_y
 _atom_site_fract_z
 _atom_site_occupancy
  Nd  Nd0  1  0.000000  0.821062  0.086002  1
  Nd  Nd1  1  0.000000  0.178938  0.913998  1
  Np  Np2  1  0.000000  0.320346  0.414693  1
  Np  Np3  1  0.000000  0.679654  0.585307  1
  Sc  Sc4  1  0.000000  0.945429  0.374240  1
  Sc  Sc5  1  0.000000  0.054571  0.625760  1
  Sc  Sc6  1  0.000000  0.444352  0.129239  1
  Sc  Sc7  1  0.000000  0.555648  0.870761  1
  Re  Re8  1  0.000000  0.636585  0.324182  1
  Re  Re9  1  0.000000  0.363415  0.675818  1
  Re  Re10  1  0.000000  0.144663  0.187385  1
  Re  Re11  1  0.000000  0.855337  0.812615  1
  B  B12  1  0.500000  0.553088  0.434272  1
  B  B13  1  0.500000  0.446912  0.565728  1
  B  B14  1  0.500000  0.056312  0.070969  1
  B  B15  1  0.500000  0.943688  0.929031  1
  B  B16  1  0.500000  0.752742  0.420737  1
  B  B17  1  0.500000  0.247258  0.579263  1
  B  B18  1  0.500000  0.254894  0.084747  1
  B  B19  1  0.500000  0.745106  0.915253  1
  B  B20  1  0.500000  0.793252  0.268386  1
  B  B21  1  0.500000  0.206748  0.731614  1
  B  B22  1  0.500000  0.295815  0.237639  1
  B  B23  1  0.500000  0.704185  0.762361  1
  B  B24  1  0.500000  0.627209  0.185828  1
  B  B25  1  0.500000  0.372791  0.814172  1
  B  B26  1  0.500000  0.131280  0.319491  1
  B  B27  1  0.500000  0.868720  0.680509  1
  B  B28  1  0.500000  0.982919  0.217390  1
  B  B29  1  0.500000  0.017081  0.782610  1
  B  B30  1  0.500000  0.480351  0.288068  1
  B  B31  1  0.500000  0.519649  0.711932  1
  B  B32  1  0.500000  0.594513  0.026052  1
  B  B33  1  0.500000  0.405487  0.973948  1
  B  B34  1  0.500000  0.100911  0.473202  1
  B  B35  1  0.500000  0.899089  0.526798  1
