# generated using pymatgen
data_YbY3Al15(SiIr2)3
_symmetry_space_group_name_H-M   'P 1'
_cell_length_a   7.53619733
_cell_length_b   7.52650735
_cell_length_c   9.35229905
_cell_angle_alpha   90.00522770
_cell_angle_beta   89.90057455
_cell_angle_gamma   119.75960679
_symmetry_Int_Tables_number   1
_chemical_formula_structural   YbY3Al15(SiIr2)3
_chemical_formula_sum   'Yb1 Y3 Al15 Si3 Ir6'
_cell_volume   460.51191727
_cell_formula_units_Z   1
loop_
 _symmetry_equiv_pos_site_id
 _symmetry_equiv_pos_as_xyz
  1  'x, y, z'
loop_
 _atom_site_type_symbol
 _atom_site_label
 _atom_site_symmetry_multiplicity
 _atom_site_fract_x
 _atom_site_fract_y
 _atom_site_fract_z
 _atom_site_occupancy
  Yb  Yb0  1  0.993970  0.669050  0.247787  1
  Y  Y1  1  0.004977  0.325110  0.753984  1
  Y  Y2  1  0.680088  0.001046  0.247102  1
  Y  Y3  1  0.324044  0.004466  0.750182  1
  Al  Al4  1  0.997586  0.668584  0.923589  1
  Al  Al5  1  0.998381  0.664005  0.574251  1
  Al  Al6  1  0.335144  0.998972  0.423526  1
  Al  Al7  1  0.002394  0.337911  0.427968  1
  Al  Al8  1  0.663206  0.998849  0.576509  1
  Al  Al9  1  0.659456  0.993918  0.921461  1
  Al  Al10  1  0.334202  0.998989  0.076313  1
  Al  Al11  1  0.336366  0.335864  0.557501  1
  Al  Al12  1  0.665858  0.665276  0.442057  1
  Al  Al13  1  0.664939  0.664698  0.058871  1
  Al  Al14  1  0.339340  0.335868  0.942698  1
  Al  Al15  1  0.334906  0.547114  0.250043  1
  Al  Al16  1  0.665329  0.450950  0.750514  1
  Al  Al17  1  0.546582  0.335564  0.250170  1
  Al  Al18  1  0.450280  0.662788  0.749619  1
  Si  Si19  1  0.133494  0.128972  0.250663  1
  Si  Si20  1  0.870886  0.871931  0.749930  1
  Si  Si21  1  0.001250  0.338766  0.073103  1
  Ir  Ir22  1  0.677721  0.327509  0.001123  1
  Ir  Ir23  1  0.321168  0.664037  0.999560  1
  Ir  Ir24  1  0.328734  0.671218  0.500097  1
  Ir  Ir25  1  0.671071  0.327757  0.499797  1
  Ir  Ir26  1  0.999108  0.009136  0.001571  1
  Ir  Ir27  1  0.999519  0.001653  0.500014  1
