# generated using pymatgen
data_Rb2Ag2GeSe4
_symmetry_space_group_name_H-M   'P 1'
_cell_length_a   13.69143114
_cell_length_b   12.05305834
_cell_length_c   8.02506223
_cell_angle_alpha   83.40369940
_cell_angle_beta   60.98682965
_cell_angle_gamma   35.60947447
_symmetry_Int_Tables_number   1
_chemical_formula_structural   Rb2Ag2GeSe4
_chemical_formula_sum   'Rb4 Ag4 Ge2 Se8'
_cell_volume   563.70994630
_cell_formula_units_Z   2
loop_
 _symmetry_equiv_pos_site_id
 _symmetry_equiv_pos_as_xyz
  1  'x, y, z'
loop_
 _atom_site_type_symbol
 _atom_site_label
 _atom_site_symmetry_multiplicity
 _atom_site_fract_x
 _atom_site_fract_y
 _atom_site_fract_z
 _atom_site_occupancy
  Rb  Rb0  1  0.313339  0.313339  0.686661  1
  Rb  Rb1  1  0.686661  0.686661  0.313339  1
  Rb  Rb2  1  0.563339  0.563339  0.936661  1
  Rb  Rb3  1  0.936661  0.936661  0.563339  1
  Ag  Ag4  1  0.179116  0.179116  0.320884  1
  Ag  Ag5  1  0.929116  0.929116  0.070884  1
  Ag  Ag6  1  0.070884  0.070884  0.929116  1
  Ag  Ag7  1  0.320884  0.320884  0.179116  1
  Ge  Ge8  1  0.500000  0.500000  0.500000  1
  Ge  Ge9  1  0.750000  0.750000  0.750000  1
  Se  Se10  1  0.904372  0.715435  0.392640  1
  Se  Se11  1  0.987553  0.392640  0.715435  1
  Se  Se12  1  0.534565  0.345628  0.262447  1
  Se  Se13  1  0.392640  0.987553  0.904372  1
  Se  Se14  1  0.262447  0.857360  0.534565  1
  Se  Se15  1  0.715435  0.904372  0.987553  1
  Se  Se16  1  0.857360  0.262447  0.345628  1
  Se  Se17  1  0.345628  0.534565  0.857360  1
