# generated using pymatgen
data_Lu3CoI3
_symmetry_space_group_name_H-M   'P 1'
_cell_length_a   4.04958800
_cell_length_b   8.71072771
_cell_length_c   12.14005706
_cell_angle_alpha   85.83970211
_cell_angle_beta   90.00000000
_cell_angle_gamma   90.00000000
_symmetry_Int_Tables_number   1
_chemical_formula_structural   Lu3CoI3
_chemical_formula_sum   'Lu6 Co2 I6'
_cell_volume   427.11037880
_cell_formula_units_Z   2
loop_
 _symmetry_equiv_pos_site_id
 _symmetry_equiv_pos_as_xyz
  1  'x, y, z'
loop_
 _atom_site_type_symbol
 _atom_site_label
 _atom_site_symmetry_multiplicity
 _atom_site_fract_x
 _atom_site_fract_y
 _atom_site_fract_z
 _atom_site_occupancy
  Lu  Lu0  1  0.750000  0.137411  0.124083  1
  Lu  Lu1  1  0.250000  0.862589  0.875917  1
  Lu  Lu2  1  0.750000  0.094324  0.696542  1
  Lu  Lu3  1  0.250000  0.905676  0.303458  1
  Lu  Lu4  1  0.250000  0.242948  0.903164  1
  Lu  Lu5  1  0.750000  0.757052  0.096836  1
  Co  Co6  1  0.750000  0.046659  0.913474  1
  Co  Co7  1  0.250000  0.953341  0.086526  1
  I  I8  1  0.250000  0.350352  0.637081  1
  I  I9  1  0.750000  0.649648  0.362919  1
  I  I10  1  0.750000  0.140984  0.388760  1
  I  I11  1  0.250000  0.859016  0.611240  1
  I  I12  1  0.250000  0.426055  0.134208  1
  I  I13  1  0.750000  0.573945  0.865792  1
