# generated using pymatgen
data_Th2Mn3Al20Co
_symmetry_space_group_name_H-M   'P 1'
_cell_length_a   6.83282960
_cell_length_b   6.83104821
_cell_length_c   9.07439851
_cell_angle_alpha   90.28013711
_cell_angle_beta   90.14935419
_cell_angle_gamma   97.37893761
_symmetry_Int_Tables_number   1
_chemical_formula_structural   Th2Mn3Al20Co
_chemical_formula_sum   'Th2 Mn3 Al20 Co1'
_cell_volume   420.03615757
_cell_formula_units_Z   1
loop_
 _symmetry_equiv_pos_site_id
 _symmetry_equiv_pos_as_xyz
  1  'x, y, z'
loop_
 _atom_site_type_symbol
 _atom_site_label
 _atom_site_symmetry_multiplicity
 _atom_site_fract_x
 _atom_site_fract_y
 _atom_site_fract_z
 _atom_site_occupancy
  Th  Th0  1  0.872352  0.122810  0.751310  1
  Th  Th1  1  0.127648  0.877190  0.248690  1
  Mn  Mn2  1  0.000000  0.500000  0.000000  1
  Mn  Mn3  1  0.500000  0.000000  0.000000  1
  Mn  Mn4  1  0.500000  0.000000  0.500000  1
  Al  Al5  1  0.519400  0.779109  0.749372  1
  Al  Al6  1  0.480600  0.220891  0.250628  1
  Al  Al7  1  0.590390  0.867002  0.250115  1
  Al  Al8  1  0.770885  0.770958  0.999547  1
  Al  Al9  1  0.161655  0.839112  0.599593  1
  Al  Al10  1  0.229115  0.229042  0.000453  1
  Al  Al11  1  0.133565  0.409361  0.249951  1
  Al  Al12  1  0.623747  0.376428  0.951396  1
  Al  Al13  1  0.838808  0.162066  0.099006  1
  Al  Al14  1  0.377855  0.624231  0.450586  1
  Al  Al15  1  0.161192  0.837934  0.900994  1
  Al  Al16  1  0.221134  0.480338  0.751269  1
  Al  Al17  1  0.376253  0.623572  0.048604  1
  Al  Al18  1  0.838345  0.160888  0.400407  1
  Al  Al19  1  0.622145  0.375769  0.549414  1
  Al  Al20  1  0.409610  0.132998  0.749885  1
  Al  Al21  1  0.778866  0.519662  0.248731  1
  Al  Al22  1  0.769962  0.771456  0.500571  1
  Al  Al23  1  0.230038  0.228544  0.499429  1
  Al  Al24  1  0.866435  0.590639  0.750049  1
  Co  Co25  1  0.000000  0.500000  0.500000  1
