# generated using pymatgen
data_Cs12Na8Ti4As11P
_symmetry_space_group_name_H-M   'P 1'
_cell_length_a   10.93005131
_cell_length_b   10.93005138
_cell_length_c   16.71153357
_cell_angle_alpha   90.00954716
_cell_angle_beta   90.00954582
_cell_angle_gamma   142.67411824
_symmetry_Int_Tables_number   1
_chemical_formula_structural   Cs12Na8Ti4As11P
_chemical_formula_sum   'Cs12 Na8 Ti4 As11 P1'
_cell_volume   1210.54897624
_cell_formula_units_Z   1
loop_
 _symmetry_equiv_pos_site_id
 _symmetry_equiv_pos_as_xyz
  1  'x, y, z'
loop_
 _atom_site_type_symbol
 _atom_site_label
 _atom_site_symmetry_multiplicity
 _atom_site_fract_x
 _atom_site_fract_y
 _atom_site_fract_z
 _atom_site_occupancy
  Cs  Cs0  1  0.945185  0.608535  0.826501  1
  Cs  Cs1  1  0.554969  0.891058  0.327189  1
  Cs  Cs2  1  0.391567  0.054789  0.173369  1
  Cs  Cs3  1  0.054789  0.391567  0.173369  1
  Cs  Cs4  1  0.891058  0.554969  0.327189  1
  Cs  Cs5  1  0.444303  0.108267  0.672433  1
  Cs  Cs6  1  0.608535  0.945185  0.826501  1
  Cs  Cs7  1  0.275824  0.275824  0.317311  1
  Cs  Cs8  1  0.777990  0.777990  0.183912  1
  Cs  Cs9  1  0.221757  0.221757  0.816722  1
  Cs  Cs10  1  0.722059  0.722059  0.683181  1
  Cs  Cs11  1  0.108267  0.444303  0.672433  1
  Na  Na12  1  0.920870  0.079306  0.000020  1
  Na  Na13  1  0.580357  0.423383  0.499318  1
  Na  Na14  1  0.079306  0.920870  0.000020  1
  Na  Na15  1  0.423383  0.580357  0.499318  1
  Na  Na16  1  0.754668  0.245528  0.000045  1
  Na  Na17  1  0.745613  0.254382  0.499952  1
  Na  Na18  1  0.245528  0.754668  0.000045  1
  Na  Na19  1  0.254382  0.745613  0.499952  1
  Ti  Ti20  1  0.584275  0.415748  0.000122  1
  Ti  Ti21  1  0.914823  0.080660  0.498919  1
  Ti  Ti22  1  0.415748  0.584275  0.000122  1
  Ti  Ti23  1  0.080660  0.914823  0.498919  1
  As  As24  1  0.860294  0.554418  0.088320  1
  As  As25  1  0.445963  0.139773  0.911954  1
  As  As26  1  0.639148  0.944152  0.587378  1
  As  As27  1  0.944152  0.639148  0.587378  1
  As  As28  1  0.139773  0.445963  0.911954  1
  As  As29  1  0.554418  0.860294  0.088320  1
  As  As30  1  0.358726  0.054029  0.410915  1
  As  As31  1  0.190758  0.190758  0.579859  1
  As  As32  1  0.689343  0.689343  0.920017  1
  As  As33  1  0.310788  0.310788  0.080412  1
  As  As34  1  0.054029  0.358726  0.410915  1
  P  P35  1  0.816690  0.816690  0.425718  1
