# generated using pymatgen
data_KYbTlB2Pt7
_symmetry_space_group_name_H-M   'P 1'
_cell_length_a   8.32502387
_cell_length_b   8.32502378
_cell_length_c   8.32502246
_cell_angle_alpha   39.01482403
_cell_angle_beta   39.01483206
_cell_angle_gamma   39.01483108
_symmetry_Int_Tables_number   1
_chemical_formula_structural   KYbTlB2Pt7
_chemical_formula_sum   'K1 Yb1 Tl1 B2 Pt7'
_cell_volume   205.63725926
_cell_formula_units_Z   1
loop_
 _symmetry_equiv_pos_site_id
 _symmetry_equiv_pos_as_xyz
  1  'x, y, z'
loop_
 _atom_site_type_symbol
 _atom_site_label
 _atom_site_symmetry_multiplicity
 _atom_site_fract_x
 _atom_site_fract_y
 _atom_site_fract_z
 _atom_site_occupancy
  K  K0  1  0.855675  0.855675  0.855675  1
  Yb  Yb1  1  0.002993  0.002993  0.002993  1
  Tl  Tl2  1  0.147718  0.147718  0.147718  1
  B  B3  1  0.666689  0.666689  0.666689  1
  B  B4  1  0.331334  0.331334  0.331334  1
  Pt  Pt5  1  0.436856  0.931713  0.436856  1
  Pt  Pt6  1  0.436856  0.436856  0.931713  1
  Pt  Pt7  1  0.931713  0.436856  0.436856  1
  Pt  Pt8  1  0.561590  0.067756  0.561590  1
  Pt  Pt9  1  0.561590  0.561590  0.067756  1
  Pt  Pt10  1  0.067756  0.561590  0.561590  1
  Pt  Pt11  1  0.499225  0.499225  0.499225  1
