# generated using pymatgen
data_CeGd(B4W)2
_symmetry_space_group_name_H-M   'P 1'
_cell_length_a   3.66818100
_cell_length_b   6.06341118
_cell_length_c   11.72698127
_cell_angle_alpha   89.90223447
_cell_angle_beta   90.00000000
_cell_angle_gamma   90.00000000
_symmetry_Int_Tables_number   1
_chemical_formula_structural   CeGd(B4W)2
_chemical_formula_sum   'Ce2 Gd2 B16 W4'
_cell_volume   260.82749873
_cell_formula_units_Z   2
loop_
 _symmetry_equiv_pos_site_id
 _symmetry_equiv_pos_as_xyz
  1  'x, y, z'
loop_
 _atom_site_type_symbol
 _atom_site_label
 _atom_site_symmetry_multiplicity
 _atom_site_fract_x
 _atom_site_fract_y
 _atom_site_fract_z
 _atom_site_occupancy
  Ce  Ce0  1  0.000000  0.625500  0.348779  1
  Ce  Ce1  1  0.000000  0.374500  0.651221  1
  Gd  Gd2  1  0.000000  0.125642  0.149688  1
  Gd  Gd3  1  0.000000  0.874358  0.850312  1
  B  B4  1  0.500000  0.786164  0.185016  1
  B  B5  1  0.500000  0.213836  0.814984  1
  B  B6  1  0.500000  0.285976  0.313988  1
  B  B7  1  0.500000  0.714024  0.686012  1
  B  B8  1  0.500000  0.865318  0.032081  1
  B  B9  1  0.500000  0.134682  0.967919  1
  B  B10  1  0.500000  0.364352  0.467764  1
  B  B11  1  0.500000  0.635648  0.532236  1
  B  B12  1  0.500000  0.886381  0.452823  1
  B  B13  1  0.500000  0.113619  0.547177  1
  B  B14  1  0.500000  0.385785  0.046764  1
  B  B15  1  0.500000  0.614215  0.953236  1
  B  B16  1  0.500000  0.974612  0.307598  1
  B  B17  1  0.500000  0.025388  0.692402  1
  B  B18  1  0.500000  0.476629  0.191779  1
  B  B19  1  0.500000  0.523371  0.808221  1
  W  W20  1  0.000000  0.629501  0.085016  1
  W  W21  1  0.000000  0.370499  0.914984  1
  W  W22  1  0.000000  0.131697  0.414777  1
  W  W23  1  0.000000  0.868303  0.585223  1
