# generated using pymatgen
data_HoEr9(RuPb3)2
_symmetry_space_group_name_H-M   'P 1'
_cell_length_a   9.25546200
_cell_length_b   9.25546131
_cell_length_c   6.53468900
_cell_angle_alpha   90.00000000
_cell_angle_beta   90.00000000
_cell_angle_gamma   119.99999531
_symmetry_Int_Tables_number   1
_chemical_formula_structural   HoEr9(RuPb3)2
_chemical_formula_sum   'Ho1 Er9 Ru2 Pb6'
_cell_volume   484.78787318
_cell_formula_units_Z   1
loop_
 _symmetry_equiv_pos_site_id
 _symmetry_equiv_pos_as_xyz
  1  'x, y, z'
loop_
 _atom_site_type_symbol
 _atom_site_label
 _atom_site_symmetry_multiplicity
 _atom_site_fract_x
 _atom_site_fract_y
 _atom_site_fract_z
 _atom_site_occupancy
  Ho  Ho0  1  0.333333  0.666667  0.500000  1
  Er  Er1  1  0.999953  0.763755  0.750066  1
  Er  Er2  1  0.236245  0.000047  0.249934  1
  Er  Er3  1  0.763802  0.000047  0.750066  1
  Er  Er4  1  0.999953  0.236198  0.249934  1
  Er  Er5  1  0.666667  0.333333  0.500000  1
  Er  Er6  1  0.763802  0.763755  0.249934  1
  Er  Er7  1  0.236245  0.236198  0.750066  1
  Er  Er8  1  0.333333  0.666667  0.000000  1
  Er  Er9  1  0.666667  0.333333  0.000000  1
  Ru  Ru10  1  0.000000  0.000000  0.000000  1
  Ru  Ru11  1  0.000000  0.000000  0.500000  1
  Pb  Pb12  1  0.402689  0.402466  0.249799  1
  Pb  Pb13  1  0.999777  0.402466  0.750201  1
  Pb  Pb14  1  0.999777  0.597311  0.249799  1
  Pb  Pb15  1  0.597534  0.000223  0.249799  1
  Pb  Pb16  1  0.402689  0.000223  0.750201  1
  Pb  Pb17  1  0.597534  0.597311  0.750201  1
