# generated using pymatgen
data_Y12GaCo4Sn
_symmetry_space_group_name_H-M   'P 1'
_cell_length_a   8.36676950
_cell_length_b   8.36676960
_cell_length_c   8.36676952
_cell_angle_alpha   107.10393407
_cell_angle_beta   109.96185996
_cell_angle_gamma   111.37678884
_symmetry_Int_Tables_number   1
_chemical_formula_structural   Y12GaCo4Sn
_chemical_formula_sum   'Y12 Ga1 Co4 Sn1'
_cell_volume   450.22412608
_cell_formula_units_Z   1
loop_
 _symmetry_equiv_pos_site_id
 _symmetry_equiv_pos_as_xyz
  1  'x, y, z'
loop_
 _atom_site_type_symbol
 _atom_site_label
 _atom_site_symmetry_multiplicity
 _atom_site_fract_x
 _atom_site_fract_y
 _atom_site_fract_z
 _atom_site_occupancy
  Y  Y0  1  0.704471  0.274490  0.978961  1
  Y  Y1  1  0.295529  0.725510  0.021039  1
  Y  Y2  1  0.704471  0.725510  0.429981  1
  Y  Y3  1  0.295529  0.274490  0.570019  1
  Y  Y4  1  0.804647  0.120210  0.315563  1
  Y  Y5  1  0.804647  0.489084  0.684437  1
  Y  Y6  1  0.195353  0.879790  0.684437  1
  Y  Y7  1  0.195353  0.510916  0.315563  1
  Y  Y8  1  0.601462  0.785346  0.816115  1
  Y  Y9  1  0.969231  0.785346  0.183885  1
  Y  Y10  1  0.030769  0.214654  0.816115  1
  Y  Y11  1  0.398538  0.214654  0.183885  1
  Ga  Ga12  1  0.500000  0.500000  0.000000  1
  Co  Co13  1  0.878245  0.500000  0.378245  1
  Co  Co14  1  0.121755  0.500000  0.621755  1
  Co  Co15  1  0.000000  0.111115  0.111115  1
  Co  Co16  1  0.000000  0.888885  0.888885  1
  Sn  Sn17  1  0.500000  0.000000  0.500000  1
