# generated using pymatgen
data_K9Hg2
_symmetry_space_group_name_H-M   'P 1'
_cell_length_a   11.24046404
_cell_length_b   13.27024558
_cell_length_c   14.54380618
_cell_angle_alpha   122.12909026
_cell_angle_beta   118.65929236
_cell_angle_gamma   21.98109581
_symmetry_Int_Tables_number   1
_chemical_formula_structural   K9Hg2
_chemical_formula_sum   'K9 Hg2'
_cell_volume   687.02278720
_cell_formula_units_Z   1
loop_
 _symmetry_equiv_pos_site_id
 _symmetry_equiv_pos_as_xyz
  1  'x, y, z'
loop_
 _atom_site_type_symbol
 _atom_site_label
 _atom_site_symmetry_multiplicity
 _atom_site_fract_x
 _atom_site_fract_y
 _atom_site_fract_z
 _atom_site_occupancy
  K  K0  1  0.015784  0.800411  0.841512  1
  K  K1  1  0.997579  0.508034  0.883156  1
  K  K2  1  0.612685  0.762801  0.575731  1
  K  K3  1  0.428963  0.564298  0.182417  1
  K  K4  1  0.421435  0.842516  0.099286  1
  K  K5  1  0.354785  0.271324  0.188701  1
  K  K6  1  0.037205  0.089375  0.792045  1
  K  K7  1  0.686039  0.328748  0.483356  1
  K  K8  1  0.623097  0.025144  0.490888  1
  Hg  Hg9  1  0.913740  0.479964  0.316557  1
  Hg  Hg10  1  0.132664  0.115736  0.358889  1
