# generated using pymatgen
data_ErTm11Tc4
_symmetry_space_group_name_H-M   'P 1'
_cell_length_a   6.15373600
_cell_length_b   7.38943960
_cell_length_c   9.00464900
_cell_angle_alpha   90.00000000
_cell_angle_beta   90.00000000
_cell_angle_gamma   90.05653251
_symmetry_Int_Tables_number   1
_chemical_formula_structural   ErTm11Tc4
_chemical_formula_sum   'Er1 Tm11 Tc4'
_cell_volume   409.46514729
_cell_formula_units_Z   1
loop_
 _symmetry_equiv_pos_site_id
 _symmetry_equiv_pos_as_xyz
  1  'x, y, z'
loop_
 _atom_site_type_symbol
 _atom_site_label
 _atom_site_symmetry_multiplicity
 _atom_site_fract_x
 _atom_site_fract_y
 _atom_site_fract_z
 _atom_site_occupancy
  Er  Er0  1  0.624394  0.039507  0.250000  1
  Tm  Tm1  1  0.125623  0.459420  0.750000  1
  Tm  Tm2  1  0.656609  0.325644  0.937300  1
  Tm  Tm3  1  0.375487  0.960672  0.750000  1
  Tm  Tm4  1  0.874863  0.539789  0.250000  1
  Tm  Tm5  1  0.155628  0.175519  0.437854  1
  Tm  Tm6  1  0.844113  0.823826  0.562714  1
  Tm  Tm7  1  0.155628  0.175519  0.062146  1
  Tm  Tm8  1  0.844113  0.823826  0.937286  1
  Tm  Tm9  1  0.656609  0.325644  0.562700  1
  Tm  Tm10  1  0.343123  0.675245  0.062183  1
  Tm  Tm11  1  0.343123  0.675245  0.437817  1
  Tc  Tc12  1  0.542869  0.616673  0.750000  1
  Tc  Tc13  1  0.956678  0.115936  0.750000  1
  Tc  Tc14  1  0.044384  0.883502  0.250000  1
  Tc  Tc15  1  0.456758  0.384035  0.250000  1
