# generated using pymatgen
data_Ba6Ho3Tm(WO9)2
_symmetry_space_group_name_H-M   'P 1'
_cell_length_a   6.07404143
_cell_length_b   8.60434411
_cell_length_c   10.52562101
_cell_angle_alpha   65.87530097
_cell_angle_beta   73.22932034
_cell_angle_gamma   90.00041620
_symmetry_Int_Tables_number   1
_chemical_formula_structural   Ba6Ho3Tm(WO9)2
_chemical_formula_sum   'Ba6 Ho3 Tm1 W2 O18'
_cell_volume   476.30279778
_cell_formula_units_Z   1
loop_
 _symmetry_equiv_pos_site_id
 _symmetry_equiv_pos_as_xyz
  1  'x, y, z'
loop_
 _atom_site_type_symbol
 _atom_site_label
 _atom_site_symmetry_multiplicity
 _atom_site_fract_x
 _atom_site_fract_y
 _atom_site_fract_z
 _atom_site_occupancy
  Ba  Ba0  1  0.500003  0.265879  0.000000  1
  Ba  Ba1  1  0.839579  0.579964  0.320842  1
  Ba  Ba2  1  0.160432  0.900818  0.679153  1
  Ba  Ba3  1  0.499998  0.734119  0.000000  1
  Ba  Ba4  1  0.839568  0.099185  0.320843  1
  Ba  Ba5  1  0.160421  0.420030  0.679160  1
  Ho  Ho6  1  0.999997  0.999999  0.000002  1
  Ho  Ho7  1  0.329592  0.329592  0.340818  1
  Ho  Ho8  1  0.670409  0.670408  0.659183  1
  Tm  Tm9  1  0.000001  0.500000  0.000000  1
  W  W10  1  0.334276  0.834269  0.331447  1
  W  W11  1  0.665722  0.165731  0.668554  1
  O  O12  1  0.000001  0.248134  0.000003  1
  O  O13  1  0.330808  0.601138  0.338402  1
  O  O14  1  0.669190  0.939548  0.661599  1
  O  O15  1  0.161802  0.411838  0.176309  1
  O  O16  1  0.490263  0.759379  0.481240  1
  O  O17  1  0.817900  0.089289  0.821437  1
  O  O18  1  0.338097  0.588163  0.823689  1
  O  O19  1  0.639347  0.910709  0.178565  1
  O  O20  1  0.971499  0.240626  0.518756  1
  O  O21  1  0.999998  0.751865  0.999998  1
  O  O22  1  0.330809  0.060453  0.338401  1
  O  O23  1  0.669194  0.398864  0.661597  1
  O  O24  1  0.838202  0.588163  0.823690  1
  O  O25  1  0.182099  0.910711  0.178564  1
  O  O26  1  0.509738  0.240622  0.518758  1
  O  O27  1  0.661901  0.411838  0.176310  1
  O  O28  1  0.028500  0.759373  0.481245  1
  O  O29  1  0.360655  0.089291  0.821433  1
