# generated using pymatgen
data_Li2Yb2TmAlGe3
_symmetry_space_group_name_H-M   'P 1'
_cell_length_a   7.05471534
_cell_length_b   7.13668487
_cell_length_c   4.28044100
_cell_angle_alpha   90.00000000
_cell_angle_beta   90.00000000
_cell_angle_gamma   120.77185699
_symmetry_Int_Tables_number   1
_chemical_formula_structural   Li2Yb2TmAlGe3
_chemical_formula_sum   'Li2 Yb2 Tm1 Al1 Ge3'
_cell_volume   185.16739282
_cell_formula_units_Z   1
loop_
 _symmetry_equiv_pos_site_id
 _symmetry_equiv_pos_as_xyz
  1  'x, y, z'
loop_
 _atom_site_type_symbol
 _atom_site_label
 _atom_site_symmetry_multiplicity
 _atom_site_fract_x
 _atom_site_fract_y
 _atom_site_fract_z
 _atom_site_occupancy
  Li  Li0  1  0.237991  0.996907  0.500000  1
  Li  Li1  1  0.997325  0.236728  0.500000  1
  Yb  Yb2  1  0.423379  0.424220  0.000000  1
  Yb  Yb3  1  0.572628  0.007195  0.000000  1
  Tm  Tm4  1  0.007301  0.578999  0.000000  1
  Al  Al5  1  0.756023  0.754573  0.500000  1
  Ge  Ge6  1  0.335498  0.667908  0.500000  1
  Ge  Ge7  1  0.681162  0.350985  0.500000  1
  Ge  Ge8  1  0.988694  0.982486  0.000000  1
