# generated using pymatgen
data_Dy3Pa(ReN3)4
_symmetry_space_group_name_H-M   'P 1'
_cell_length_a   5.37127510
_cell_length_b   5.67809083
_cell_length_c   7.75334100
_cell_angle_alpha   90.00000000
_cell_angle_beta   90.00000000
_cell_angle_gamma   89.89540993
_symmetry_Int_Tables_number   1
_chemical_formula_structural   Dy3Pa(ReN3)4
_chemical_formula_sum   'Dy3 Pa1 Re4 N12'
_cell_volume   236.46555807
_cell_formula_units_Z   1
loop_
 _symmetry_equiv_pos_site_id
 _symmetry_equiv_pos_as_xyz
  1  'x, y, z'
loop_
 _atom_site_type_symbol
 _atom_site_label
 _atom_site_symmetry_multiplicity
 _atom_site_fract_x
 _atom_site_fract_y
 _atom_site_fract_z
 _atom_site_occupancy
  Dy  Dy0  1  0.016950  0.932663  0.250000  1
  Dy  Dy1  1  0.509281  0.566434  0.750000  1
  Dy  Dy2  1  0.991032  0.066359  0.750000  1
  Pa  Pa3  1  0.474537  0.429792  0.250000  1
  Re  Re4  1  0.504332  0.003777  0.506353  1
  Re  Re5  1  0.988801  0.503186  0.994675  1
  Re  Re6  1  0.988801  0.503186  0.505325  1
  Re  Re7  1  0.504332  0.003777  0.993647  1
  N  N8  1  0.698930  0.294197  0.544538  1
  N  N9  1  0.313625  0.691384  0.053502  1
  N  N10  1  0.198268  0.201759  0.049435  1
  N  N11  1  0.419491  0.981794  0.750000  1
  N  N12  1  0.900591  0.523819  0.250000  1
  N  N13  1  0.313625  0.691384  0.446498  1
  N  N14  1  0.802741  0.794669  0.955159  1
  N  N15  1  0.698930  0.294197  0.955462  1
  N  N16  1  0.802741  0.794669  0.544841  1
  N  N17  1  0.080385  0.484980  0.750000  1
  N  N18  1  0.198268  0.201759  0.450565  1
  N  N19  1  0.594339  0.036217  0.250000  1
