# generated using pymatgen
data_TbHo4Fe3(P3Ru4)4
_symmetry_space_group_name_H-M   'P 1'
_cell_length_a   12.48127100
_cell_length_b   12.48127146
_cell_length_c   3.88977400
_cell_angle_alpha   90.00000000
_cell_angle_beta   90.00000000
_cell_angle_gamma   120.00000143
_symmetry_Int_Tables_number   1
_chemical_formula_structural   TbHo4Fe3(P3Ru4)4
_chemical_formula_sum   'Tb1 Ho4 Fe3 P12 Ru16'
_cell_volume   524.77439471
_cell_formula_units_Z   1
loop_
 _symmetry_equiv_pos_site_id
 _symmetry_equiv_pos_as_xyz
  1  'x, y, z'
loop_
 _atom_site_type_symbol
 _atom_site_label
 _atom_site_symmetry_multiplicity
 _atom_site_fract_x
 _atom_site_fract_y
 _atom_site_fract_z
 _atom_site_occupancy
  Tb  Tb0  1  0.666667  0.333333  0.000000  1
  Ho  Ho1  1  0.000002  0.181716  0.500000  1
  Ho  Ho2  1  0.818284  0.818285  0.500000  1
  Ho  Ho3  1  0.181715  0.999998  0.500000  1
  Ho  Ho4  1  0.333333  0.666667  0.000000  1
  Fe  Fe5  1  0.000032  0.716671  0.500000  1
  Fe  Fe6  1  0.283329  0.283361  0.500000  1
  Fe  Fe7  1  0.716639  0.999968  0.500000  1
  P  P8  1  0.000031  0.813540  0.000000  1
  P  P9  1  0.186460  0.186490  0.000000  1
  P  P10  1  0.813510  0.999969  0.000000  1
  P  P11  1  0.690070  0.162731  0.500000  1
  P  P12  1  0.837269  0.527339  0.500000  1
  P  P13  1  0.472661  0.309930  0.500000  1
  P  P14  1  0.162976  0.690001  0.500000  1
  P  P15  1  0.527025  0.837024  0.500000  1
  P  P16  1  0.309999  0.472975  0.500000  1
  P  P17  1  0.999965  0.373211  0.000000  1
  P  P18  1  0.626789  0.626754  0.000000  1
  P  P19  1  0.373246  0.000035  0.000000  1
  Ru  Ru20  1  0.999977  0.557978  0.000000  1
  Ru  Ru21  1  0.442022  0.441999  0.000000  1
  Ru  Ru22  1  0.558001  0.000023  0.000000  1
  Ru  Ru23  1  0.807018  0.181529  0.000000  1
  Ru  Ru24  1  0.818471  0.625489  0.000000  1
  Ru  Ru25  1  0.374511  0.192982  0.000000  1
  Ru  Ru26  1  0.181700  0.806894  0.000000  1
  Ru  Ru27  1  0.625195  0.818300  0.000000  1
  Ru  Ru28  1  0.193106  0.374805  0.000000  1
  Ru  Ru29  1  0.874107  0.363305  0.500000  1
  Ru  Ru30  1  0.636695  0.510802  0.500000  1
  Ru  Ru31  1  0.489198  0.125893  0.500000  1
  Ru  Ru32  1  0.363302  0.873534  0.500000  1
  Ru  Ru33  1  0.510232  0.636698  0.500000  1
  Ru  Ru34  1  0.126466  0.489768  0.500000  1
  Ru  Ru35  1  0.000000  0.000000  0.000000  1
