# generated using pymatgen
data_Hf3Zn3CoAu2
_symmetry_space_group_name_H-M   'P 1'
_cell_length_a   7.21048800
_cell_length_b   7.21048856
_cell_length_c   3.44637600
_cell_angle_alpha   90.00000000
_cell_angle_beta   90.00000000
_cell_angle_gamma   119.99998828
_symmetry_Int_Tables_number   1
_chemical_formula_structural   Hf3Zn3CoAu2
_chemical_formula_sum   'Hf3 Zn3 Co1 Au2'
_cell_volume   155.17533460
_cell_formula_units_Z   1
loop_
 _symmetry_equiv_pos_site_id
 _symmetry_equiv_pos_as_xyz
  1  'x, y, z'
loop_
 _atom_site_type_symbol
 _atom_site_label
 _atom_site_symmetry_multiplicity
 _atom_site_fract_x
 _atom_site_fract_y
 _atom_site_fract_z
 _atom_site_occupancy
  Hf  Hf0  1  0.422603  0.033223  0.000000  1
  Hf  Hf1  1  0.966777  0.389381  0.000000  1
  Hf  Hf2  1  0.610619  0.577397  0.000000  1
  Zn  Zn3  1  0.726241  0.004082  0.500000  1
  Zn  Zn4  1  0.277842  0.273759  0.500000  1
  Zn  Zn5  1  0.995918  0.722159  0.500000  1
  Co  Co6  1  0.666667  0.333334  0.500000  1
  Au  Au7  1  0.000000  0.000000  0.000000  1
  Au  Au8  1  0.333333  0.666666  0.500000  1
