# generated using pymatgen
data_CePu7(GeAs2)2
_symmetry_space_group_name_H-M   'P 1'
_cell_length_a   7.60600321
_cell_length_b   7.60389271
_cell_length_c   7.60608235
_cell_angle_alpha   109.40426827
_cell_angle_beta   109.43308144
_cell_angle_gamma   109.37911817
_symmetry_Int_Tables_number   1
_chemical_formula_structural   CePu7(GeAs2)2
_chemical_formula_sum   'Ce1 Pu7 Ge2 As4'
_cell_volume   339.45638131
_cell_formula_units_Z   1
loop_
 _symmetry_equiv_pos_site_id
 _symmetry_equiv_pos_as_xyz
  1  'x, y, z'
loop_
 _atom_site_type_symbol
 _atom_site_label
 _atom_site_symmetry_multiplicity
 _atom_site_fract_x
 _atom_site_fract_y
 _atom_site_fract_z
 _atom_site_occupancy
  Ce  Ce0  1  0.646782  0.647770  0.647852  1
  Pu  Pu1  1  0.147582  0.148608  0.148422  1
  Pu  Pu2  1  0.501197  0.000306  0.851566  1
  Pu  Pu3  1  0.850439  0.498991  0.999885  1
  Pu  Pu4  1  0.001593  0.850484  0.500138  1
  Pu  Pu5  1  0.351067  0.500983  0.999326  1
  Pu  Pu6  1  0.999738  0.352017  0.501035  1
  Pu  Pu7  1  0.502759  0.001895  0.352309  1
  Ge  Ge8  1  0.623979  0.373953  0.248059  1
  Ge  Ge9  1  0.247834  0.624934  0.373276  1
  As  As10  1  0.751028  0.875351  0.127226  1
  As  As11  1  0.127014  0.751512  0.876288  1
  As  As12  1  0.372633  0.246645  0.623837  1
  As  As13  1  0.876357  0.126552  0.750783  1
