# generated using pymatgen
data_NaP4(IrO7)2
_symmetry_space_group_name_H-M   'P 1'
_cell_length_a   4.86265605
_cell_length_b   7.00015412
_cell_length_c   8.07146813
_cell_angle_alpha   90.66753864
_cell_angle_beta   92.65269458
_cell_angle_gamma   105.12480846
_symmetry_Int_Tables_number   1
_chemical_formula_structural   NaP4(IrO7)2
_chemical_formula_sum   'Na1 P4 Ir2 O14'
_cell_volume   264.86571981
_cell_formula_units_Z   1
loop_
 _symmetry_equiv_pos_site_id
 _symmetry_equiv_pos_as_xyz
  1  'x, y, z'
loop_
 _atom_site_type_symbol
 _atom_site_label
 _atom_site_symmetry_multiplicity
 _atom_site_fract_x
 _atom_site_fract_y
 _atom_site_fract_z
 _atom_site_occupancy
  Na  Na0  1  0.927090  0.996115  0.004525  1
  P  P1  1  0.014997  0.624842  0.755016  1
  P  P2  1  0.986490  0.375347  0.245321  1
  P  P3  1  0.615963  0.238618  0.695174  1
  P  P4  1  0.384385  0.762095  0.305509  1
  Ir  Ir5  1  0.500053  0.499064  0.000315  1
  Ir  Ir6  1  0.000032  0.999831  0.500497  1
  O  O7  1  0.261797  0.534871  0.799992  1
  O  O8  1  0.739110  0.464802  0.200703  1
  O  O9  1  0.789563  0.458749  0.643365  1
  O  O10  1  0.212490  0.540931  0.356179  1
  O  O11  1  0.816766  0.099096  0.695540  1
  O  O12  1  0.181208  0.899479  0.305078  1
  O  O13  1  0.856740  0.676467  0.905305  1
  O  O14  1  0.142466  0.321949  0.094663  1
  O  O15  1  0.373443  0.195608  0.562515  1
  O  O16  1  0.625579  0.805265  0.439017  1
  O  O17  1  0.127078  0.806768  0.652998  1
  O  O18  1  0.873425  0.192155  0.346274  1
  O  O19  1  0.536097  0.246472  0.878720  1
  O  O20  1  0.471525  0.754577  0.123097  1
