# generated using pymatgen
data_Y5Si12Rh19
_symmetry_space_group_name_H-M   'P 1'
_cell_length_a   12.80708700
_cell_length_b   12.80708615
_cell_length_c   3.96894200
_cell_angle_alpha   90.00000000
_cell_angle_beta   90.00000000
_cell_angle_gamma   119.99999961
_symmetry_Int_Tables_number   1
_chemical_formula_structural   Y5Si12Rh19
_chemical_formula_sum   'Y5 Si12 Rh19'
_cell_volume   563.77534130
_cell_formula_units_Z   1
loop_
 _symmetry_equiv_pos_site_id
 _symmetry_equiv_pos_as_xyz
  1  'x, y, z'
loop_
 _atom_site_type_symbol
 _atom_site_label
 _atom_site_symmetry_multiplicity
 _atom_site_fract_x
 _atom_site_fract_y
 _atom_site_fract_z
 _atom_site_occupancy
  Y  Y0  1  0.000000  0.186869  0.500000  1
  Y  Y1  1  0.813131  0.813131  0.500000  1
  Y  Y2  1  0.186869  0.000000  0.500000  1
  Y  Y3  1  0.666667  0.333333  0.000000  1
  Y  Y4  1  0.333333  0.666667  0.000000  1
  Si  Si5  1  0.477812  0.313690  0.500000  1
  Si  Si6  1  0.817875  0.000000  0.000000  1
  Si  Si7  1  0.182125  0.182125  0.000000  1
  Si  Si8  1  0.000000  0.817875  0.000000  1
  Si  Si9  1  0.371808  0.000000  0.000000  1
  Si  Si10  1  0.686310  0.164122  0.500000  1
  Si  Si11  1  0.835878  0.522188  0.500000  1
  Si  Si12  1  0.522188  0.835878  0.500000  1
  Si  Si13  1  0.164122  0.686310  0.500000  1
  Si  Si14  1  0.313690  0.477812  0.500000  1
  Si  Si15  1  0.000000  0.371808  0.000000  1
  Si  Si16  1  0.628192  0.628192  0.000000  1
  Rh  Rh17  1  0.806974  0.182727  0.000000  1
  Rh  Rh18  1  0.375753  0.193026  0.000000  1
  Rh  Rh19  1  0.640052  0.513296  0.500000  1
  Rh  Rh20  1  0.873244  0.359948  0.500000  1
  Rh  Rh21  1  0.359948  0.873244  0.500000  1
  Rh  Rh22  1  0.513296  0.640052  0.500000  1
  Rh  Rh23  1  0.126756  0.486704  0.500000  1
  Rh  Rh24  1  0.817273  0.624247  0.000000  1
  Rh  Rh25  1  0.624247  0.817273  0.000000  1
  Rh  Rh26  1  0.182727  0.806974  0.000000  1
  Rh  Rh27  1  0.193026  0.375753  0.000000  1
  Rh  Rh28  1  0.000000  0.720764  0.500000  1
  Rh  Rh29  1  0.279236  0.279236  0.500000  1
  Rh  Rh30  1  0.720764  0.000000  0.500000  1
  Rh  Rh31  1  0.000000  0.554986  0.000000  1
  Rh  Rh32  1  0.445014  0.445014  0.000000  1
  Rh  Rh33  1  0.554986  0.000000  0.000000  1
  Rh  Rh34  1  0.000000  0.000000  0.000000  1
  Rh  Rh35  1  0.486704  0.126756  0.500000  1
