# generated using pymatgen
data_NdZr2Co9
_symmetry_space_group_name_H-M   'P 1'
_cell_length_a   8.45011023
_cell_length_b   8.45010905
_cell_length_c   8.45010972
_cell_angle_alpha   33.89470640
_cell_angle_beta   33.89472051
_cell_angle_gamma   33.89470880
_symmetry_Int_Tables_number   1
_chemical_formula_structural   NdZr2Co9
_chemical_formula_sum   'Nd1 Zr2 Co9'
_cell_volume   167.23388244
_cell_formula_units_Z   1
loop_
 _symmetry_equiv_pos_site_id
 _symmetry_equiv_pos_as_xyz
  1  'x, y, z'
loop_
 _atom_site_type_symbol
 _atom_site_label
 _atom_site_symmetry_multiplicity
 _atom_site_fract_x
 _atom_site_fract_y
 _atom_site_fract_z
 _atom_site_occupancy
  Nd  Nd0  1  0.000000  0.000000  0.000000  1
  Zr  Zr1  1  0.859827  0.859827  0.859827  1
  Zr  Zr2  1  0.140173  0.140173  0.140173  1
  Co  Co3  1  0.335866  0.335866  0.335866  1
  Co  Co4  1  0.411963  0.411963  0.921173  1
  Co  Co5  1  0.588037  0.588037  0.078827  1
  Co  Co6  1  0.664134  0.664134  0.664134  1
  Co  Co7  1  0.078827  0.588037  0.588037  1
  Co  Co8  1  0.411963  0.921173  0.411963  1
  Co  Co9  1  0.921173  0.411963  0.411963  1
  Co  Co10  1  0.500000  0.500000  0.500000  1
  Co  Co11  1  0.588037  0.078827  0.588037  1
