# generated using pymatgen
data_LiDy6P12Rh17
_symmetry_space_group_name_H-M   'P 1'
_cell_length_a   3.92948500
_cell_length_b   11.22693400
_cell_length_c   12.77739900
_cell_angle_alpha   90.00000000
_cell_angle_beta   90.00000000
_cell_angle_gamma   90.00000000
_symmetry_Int_Tables_number   1
_chemical_formula_structural   LiDy6P12Rh17
_chemical_formula_sum   'Li1 Dy6 P12 Rh17'
_cell_volume   563.68861272
_cell_formula_units_Z   1
loop_
 _symmetry_equiv_pos_site_id
 _symmetry_equiv_pos_as_xyz
  1  'x, y, z'
loop_
 _atom_site_type_symbol
 _atom_site_label
 _atom_site_symmetry_multiplicity
 _atom_site_fract_x
 _atom_site_fract_y
 _atom_site_fract_z
 _atom_site_occupancy
  Li  Li0  1  0.500000  0.500000  0.157214  1
  Dy  Dy1  1  0.000000  0.500000  0.516679  1
  Dy  Dy2  1  0.500000  0.000000  0.478870  1
  Dy  Dy3  1  0.500000  0.815410  0.205254  1
  Dy  Dy4  1  0.500000  0.184590  0.205254  1
  Dy  Dy5  1  0.000000  0.683312  0.795367  1
  Dy  Dy6  1  0.000000  0.316688  0.795367  1
  P  P7  1  0.500000  0.500000  0.880929  1
  P  P8  1  0.000000  0.000000  0.120749  1
  P  P9  1  0.500000  0.500000  0.347511  1
  P  P10  1  0.000000  0.000000  0.648414  1
  P  P11  1  0.500000  0.315024  0.618887  1
  P  P12  1  0.500000  0.684976  0.618887  1
  P  P13  1  0.000000  0.186684  0.382231  1
  P  P14  1  0.000000  0.813316  0.382231  1
  P  P15  1  0.500000  0.846275  0.892087  1
  P  P16  1  0.500000  0.153725  0.892087  1
  P  P17  1  0.000000  0.657581  0.107770  1
  P  P18  1  0.000000  0.342419  0.107770  1
  Rh  Rh19  1  0.000000  0.000000  0.829870  1
  Rh  Rh20  1  0.500000  0.500000  0.702168  1
  Rh  Rh21  1  0.000000  0.000000  0.298914  1
  Rh  Rh22  1  0.000000  0.500000  0.983410  1
  Rh  Rh23  1  0.500000  0.000000  0.019454  1
  Rh  Rh24  1  0.500000  0.331888  0.994498  1
  Rh  Rh25  1  0.500000  0.668112  0.994498  1
  Rh  Rh26  1  0.000000  0.165252  0.005175  1
  Rh  Rh27  1  0.000000  0.834748  0.005175  1
  Rh  Rh28  1  0.500000  0.290156  0.433206  1
  Rh  Rh29  1  0.500000  0.709844  0.433206  1
  Rh  Rh30  1  0.000000  0.204129  0.571679  1
  Rh  Rh31  1  0.000000  0.795871  0.571679  1
  Rh  Rh32  1  0.500000  0.874016  0.711217  1
  Rh  Rh33  1  0.500000  0.125984  0.711217  1
  Rh  Rh34  1  0.000000  0.626272  0.290537  1
  Rh  Rh35  1  0.000000  0.373728  0.290537  1
