# generated using pymatgen
data_Nd3ThZn4(IrRh)2
_symmetry_space_group_name_H-M   'P 1'
_cell_length_a   3.97764200
_cell_length_b   7.44535600
_cell_length_c   16.65654700
_cell_angle_alpha   90.00000000
_cell_angle_beta   90.00000000
_cell_angle_gamma   90.00000000
_symmetry_Int_Tables_number   1
_chemical_formula_structural   Nd3ThZn4(IrRh)2
_chemical_formula_sum   'Nd6 Th2 Zn8 Ir4 Rh4'
_cell_volume   493.28298531
_cell_formula_units_Z   2
loop_
 _symmetry_equiv_pos_site_id
 _symmetry_equiv_pos_as_xyz
  1  'x, y, z'
loop_
 _atom_site_type_symbol
 _atom_site_label
 _atom_site_symmetry_multiplicity
 _atom_site_fract_x
 _atom_site_fract_y
 _atom_site_fract_z
 _atom_site_occupancy
  Nd  Nd0  1  0.750000  0.330120  0.437589  1
  Nd  Nd1  1  0.750000  0.946818  0.284691  1
  Nd  Nd2  1  0.750000  0.830120  0.062411  1
  Nd  Nd3  1  0.750000  0.446818  0.215309  1
  Nd  Nd4  1  0.250000  0.050757  0.714531  1
  Nd  Nd5  1  0.250000  0.550757  0.785469  1
  Th  Th6  1  0.250000  0.171431  0.939905  1
  Th  Th7  1  0.250000  0.671431  0.560095  1
  Zn  Zn8  1  0.750000  0.009696  0.559934  1
  Zn  Zn9  1  0.250000  0.618547  0.348565  1
  Zn  Zn10  1  0.750000  0.379980  0.654179  1
  Zn  Zn11  1  0.250000  0.502066  0.059925  1
  Zn  Zn12  1  0.750000  0.509696  0.940066  1
  Zn  Zn13  1  0.250000  0.002066  0.440075  1
  Zn  Zn14  1  0.250000  0.118547  0.151435  1
  Zn  Zn15  1  0.750000  0.879980  0.845821  1
  Ir  Ir16  1  0.750000  0.749686  0.439867  1
  Ir  Ir17  1  0.750000  0.247360  0.820070  1
  Ir  Ir18  1  0.750000  0.747360  0.679930  1
  Ir  Ir19  1  0.750000  0.249686  0.060133  1
  Rh  Rh20  1  0.250000  0.241077  0.311719  1
  Rh  Rh21  1  0.250000  0.252463  0.565327  1
  Rh  Rh22  1  0.250000  0.741077  0.188281  1
  Rh  Rh23  1  0.250000  0.752463  0.934673  1
