# generated using pymatgen
data_Cs8Na4HoEr3Sb8
_symmetry_space_group_name_H-M   'P 1'
_cell_length_a   11.64771235
_cell_length_b   11.64771058
_cell_length_c   7.59029910
_cell_angle_alpha   89.98607650
_cell_angle_beta   90.01392701
_cell_angle_gamma   100.26633376
_symmetry_Int_Tables_number   1
_chemical_formula_structural   Cs8Na4HoEr3Sb8
_chemical_formula_sum   'Cs8 Na4 Ho1 Er3 Sb8'
_cell_volume   1013.28293616
_cell_formula_units_Z   1
loop_
 _symmetry_equiv_pos_site_id
 _symmetry_equiv_pos_as_xyz
  1  'x, y, z'
loop_
 _atom_site_type_symbol
 _atom_site_label
 _atom_site_symmetry_multiplicity
 _atom_site_fract_x
 _atom_site_fract_y
 _atom_site_fract_z
 _atom_site_occupancy
  Cs  Cs0  1  0.070686  0.429317  0.249958  1
  Cs  Cs1  1  0.429317  0.070686  0.750042  1
  Cs  Cs2  1  0.929419  0.570689  0.750085  1
  Cs  Cs3  1  0.570689  0.929419  0.249915  1
  Cs  Cs4  1  0.677025  0.322906  0.212424  1
  Cs  Cs5  1  0.823014  0.177036  0.712509  1
  Cs  Cs6  1  0.322906  0.677025  0.787576  1
  Cs  Cs7  1  0.177036  0.823014  0.287491  1
  Na  Na8  1  0.381283  0.381283  0.000000  1
  Na  Na9  1  0.118681  0.118681  0.500000  1
  Na  Na10  1  0.618547  0.618547  0.000000  1
  Na  Na11  1  0.881563  0.881563  0.500000  1
  Ho  Ho12  1  0.630650  0.630650  0.500000  1
  Er  Er13  1  0.130531  0.130531  0.000000  1
  Er  Er14  1  0.369202  0.369202  0.500000  1
  Er  Er15  1  0.869517  0.869517  0.000000  1
  Sb  Sb16  1  0.841328  0.659299  0.249349  1
  Sb  Sb17  1  0.659299  0.841328  0.750651  1
  Sb  Sb18  1  0.159249  0.340734  0.749995  1
  Sb  Sb19  1  0.340734  0.159249  0.250005  1
  Sb  Sb20  1  0.905432  0.094622  0.208785  1
  Sb  Sb21  1  0.594417  0.404850  0.709145  1
  Sb  Sb22  1  0.094622  0.905432  0.791215  1
  Sb  Sb23  1  0.404850  0.594417  0.290855  1
