# generated using pymatgen
data_Er18Zr2IrRh11
_symmetry_space_group_name_H-M   'P 1'
_cell_length_a   10.88179601
_cell_length_b   10.88179656
_cell_length_c   6.31718500
_cell_angle_alpha   90.04918305
_cell_angle_beta   90.04918305
_cell_angle_gamma   90.05235790
_symmetry_Int_Tables_number   1
_chemical_formula_structural   Er18Zr2IrRh11
_chemical_formula_sum   'Er18 Zr2 Ir1 Rh11'
_cell_volume   748.03906119
_cell_formula_units_Z   1
loop_
 _symmetry_equiv_pos_site_id
 _symmetry_equiv_pos_as_xyz
  1  'x, y, z'
loop_
 _atom_site_type_symbol
 _atom_site_label
 _atom_site_symmetry_multiplicity
 _atom_site_fract_x
 _atom_site_fract_y
 _atom_site_fract_z
 _atom_site_occupancy
  Er  Er0  1  0.287870  0.085886  0.376398  1
  Er  Er1  1  0.287825  0.912421  0.877541  1
  Er  Er2  1  0.711777  0.087423  0.877212  1
  Er  Er3  1  0.711490  0.912372  0.376349  1
  Er  Er4  1  0.588245  0.792612  0.876492  1
  Er  Er5  1  0.588171  0.207278  0.376570  1
  Er  Er6  1  0.409506  0.793183  0.376308  1
  Er  Er7  1  0.411439  0.207094  0.876529  1
  Er  Er8  1  0.207388  0.411755  0.623508  1
  Er  Er9  1  0.206817  0.590494  0.123692  1
  Er  Er10  1  0.792722  0.411829  0.123430  1
  Er  Er11  1  0.792906  0.588561  0.623471  1
  Er  Er12  1  0.914114  0.712130  0.123602  1
  Er  Er13  1  0.912577  0.288223  0.622788  1
  Er  Er14  1  0.087579  0.712175  0.622459  1
  Er  Er15  1  0.087628  0.288510  0.123651  1
  Er  Er16  1  0.499831  0.499830  0.000180  1
  Er  Er17  1  0.500170  0.500169  0.499820  1
  Zr  Zr18  1  0.000270  0.999605  0.499911  1
  Zr  Zr19  1  0.000395  0.999730  0.000089  1
  Ir  Ir20  1  0.144739  0.855261  0.250000  1
  Rh  Rh21  1  0.855737  0.144263  0.250000  1
  Rh  Rh22  1  0.854504  0.855598  0.749936  1
  Rh  Rh23  1  0.144402  0.145496  0.750064  1
  Rh  Rh24  1  0.655444  0.344556  0.750000  1
  Rh  Rh25  1  0.655428  0.655176  0.249948  1
  Rh  Rh26  1  0.344824  0.344572  0.250052  1
  Rh  Rh27  1  0.345303  0.654697  0.750000  1
  Rh  Rh28  1  0.500866  0.000192  0.121800  1
  Rh  Rh29  1  0.500451  0.000226  0.622447  1
  Rh  Rh30  1  0.999774  0.499549  0.877553  1
  Rh  Rh31  1  0.999808  0.499134  0.378200  1
