# generated using pymatgen
data_Zr2Cu3Ni4
_symmetry_space_group_name_H-M   'P 1'
_cell_length_a   4.78130138
_cell_length_b   4.77576332
_cell_length_c   6.35173733
_cell_angle_alpha   82.42918358
_cell_angle_beta   81.89001257
_cell_angle_gamma   119.93534553
_symmetry_Int_Tables_number   1
_chemical_formula_structural   Zr2Cu3Ni4
_chemical_formula_sum   'Zr2 Cu3 Ni4'
_cell_volume   120.92767557
_cell_formula_units_Z   1
loop_
 _symmetry_equiv_pos_site_id
 _symmetry_equiv_pos_as_xyz
  1  'x, y, z'
loop_
 _atom_site_type_symbol
 _atom_site_label
 _atom_site_symmetry_multiplicity
 _atom_site_fract_x
 _atom_site_fract_y
 _atom_site_fract_z
 _atom_site_occupancy
  Zr  Zr0  1  0.598654  0.598632  0.241263  1
  Zr  Zr1  1  0.397765  0.402662  0.755939  1
  Cu  Cu2  1  0.290351  0.962187  0.154837  1
  Cu  Cu3  1  0.034468  0.705638  0.846519  1
  Cu  Cu4  1  0.710634  0.040781  0.845883  1
  Ni  Ni5  1  0.999487  0.000324  0.500545  1
  Ni  Ni6  1  0.968315  0.289307  0.157558  1
  Ni  Ni7  1  0.500430  0.000158  0.499288  1
  Ni  Ni8  1  0.999896  0.500310  0.498167  1
