# generated using pymatgen
data_Y12Lu8CdIn5Ru2
_symmetry_space_group_name_H-M   'P 1'
_cell_length_a   9.69071306
_cell_length_b   9.74537872
_cell_length_c   9.60198601
_cell_angle_alpha   90.00000049
_cell_angle_beta   89.99662015
_cell_angle_gamma   120.18678472
_symmetry_Int_Tables_number   1
_chemical_formula_structural   Y12Lu8CdIn5Ru2
_chemical_formula_sum   'Y12 Lu8 Cd1 In5 Ru2'
_cell_volume   783.83681862
_cell_formula_units_Z   1
loop_
 _symmetry_equiv_pos_site_id
 _symmetry_equiv_pos_as_xyz
  1  'x, y, z'
loop_
 _atom_site_type_symbol
 _atom_site_label
 _atom_site_symmetry_multiplicity
 _atom_site_fract_x
 _atom_site_fract_y
 _atom_site_fract_z
 _atom_site_occupancy
  Y  Y0  1  0.790961  0.210431  0.938501  1
  Y  Y1  1  0.790961  0.580529  0.938501  1
  Y  Y2  1  0.418153  0.209076  0.936847  1
  Y  Y3  1  0.209944  0.791090  0.061320  1
  Y  Y4  1  0.209944  0.418856  0.061320  1
  Y  Y5  1  0.580827  0.790414  0.063531  1
  Y  Y6  1  0.540216  0.460539  0.254607  1
  Y  Y7  1  0.540216  0.079678  0.254607  1
  Y  Y8  1  0.923846  0.461923  0.254425  1
  Y  Y9  1  0.462619  0.541692  0.745432  1
  Y  Y10  1  0.462619  0.920926  0.745432  1
  Y  Y11  1  0.080771  0.540385  0.745643  1
  Lu  Lu12  1  0.995668  0.997834  0.502588  1
  Lu  Lu13  1  0.996389  0.998194  0.997504  1
  Lu  Lu14  1  0.211247  0.789831  0.440472  1
  Lu  Lu15  1  0.211247  0.421417  0.440472  1
  Lu  Lu16  1  0.577920  0.788961  0.438574  1
  Lu  Lu17  1  0.789593  0.211871  0.559578  1
  Lu  Lu18  1  0.789593  0.577721  0.559578  1
  Lu  Lu19  1  0.421261  0.210630  0.561244  1
  Cd  Cd20  1  0.769826  0.884913  0.749108  1
  In  In21  1  0.885785  0.116424  0.251214  1
  In  In22  1  0.885785  0.769361  0.251214  1
  In  In23  1  0.228239  0.114120  0.251070  1
  In  In24  1  0.114226  0.882940  0.748582  1
  In  In25  1  0.114226  0.231285  0.748582  1
  Ru  Ru26  1  0.330599  0.665300  0.256024  1
  Ru  Ru27  1  0.667318  0.333659  0.744031  1
