# generated using pymatgen
data_TbY8ScCd3Ru
_symmetry_space_group_name_H-M   'P 1'
_cell_length_a   9.57173288
_cell_length_b   9.57131307
_cell_length_c   9.81000820
_cell_angle_alpha   89.99999956
_cell_angle_beta   89.95089811
_cell_angle_gamma   119.99855158
_symmetry_Int_Tables_number   1
_chemical_formula_structural   TbY8ScCd3Ru
_chemical_formula_sum   'Tb2 Y16 Sc2 Cd6 Ru2'
_cell_volume   778.33797513
_cell_formula_units_Z   2
loop_
 _symmetry_equiv_pos_site_id
 _symmetry_equiv_pos_as_xyz
  1  'x, y, z'
loop_
 _atom_site_type_symbol
 _atom_site_label
 _atom_site_symmetry_multiplicity
 _atom_site_fract_x
 _atom_site_fract_y
 _atom_site_fract_z
 _atom_site_occupancy
  Tb  Tb0  1  0.208484  0.791574  0.440413  1
  Tb  Tb1  1  0.208484  0.416910  0.440413  1
  Y  Y2  1  0.583861  0.791931  0.440955  1
  Y  Y3  1  0.791766  0.208287  0.559192  1
  Y  Y4  1  0.791766  0.583479  0.559192  1
  Y  Y5  1  0.416573  0.208286  0.559192  1
  Y  Y6  1  0.791773  0.208288  0.940784  1
  Y  Y7  1  0.791773  0.583485  0.940784  1
  Y  Y8  1  0.416489  0.208245  0.940812  1
  Y  Y9  1  0.208242  0.791882  0.059086  1
  Y  Y10  1  0.208242  0.416360  0.059086  1
  Y  Y11  1  0.583554  0.791777  0.059097  1
  Y  Y12  1  0.541022  0.458989  0.250026  1
  Y  Y13  1  0.541022  0.082034  0.250026  1
  Y  Y14  1  0.917904  0.458952  0.250032  1
  Y  Y15  1  0.459017  0.541076  0.750004  1
  Y  Y16  1  0.459017  0.917941  0.750004  1
  Y  Y17  1  0.082076  0.541038  0.749961  1
  Sc  Sc18  1  0.999931  0.999965  0.499927  1
  Sc  Sc19  1  0.999975  0.999987  0.000224  1
  Cd  Cd20  1  0.889117  0.110756  0.249931  1
  Cd  Cd21  1  0.889117  0.778363  0.249931  1
  Cd  Cd22  1  0.221643  0.110822  0.249870  1
  Cd  Cd23  1  0.110798  0.889166  0.750125  1
  Cd  Cd24  1  0.110798  0.221630  0.750125  1
  Cd  Cd25  1  0.778269  0.889133  0.749994  1
  Ru  Ru26  1  0.332643  0.666322  0.250916  1
  Ru  Ru27  1  0.666641  0.333320  0.749898  1
