# generated using pymatgen
data_Tb2Tm4Ni20P13
_symmetry_space_group_name_H-M   'P 1'
_cell_length_a   12.62919077
_cell_length_b   12.64145685
_cell_length_c   3.73544400
_cell_angle_alpha   90.00000000
_cell_angle_beta   90.00000000
_cell_angle_gamma   120.01701449
_symmetry_Int_Tables_number   1
_chemical_formula_structural   Tb2Tm4Ni20P13
_chemical_formula_sum   'Tb2 Tm4 Ni20 P13'
_cell_volume   516.38191841
_cell_formula_units_Z   1
loop_
 _symmetry_equiv_pos_site_id
 _symmetry_equiv_pos_as_xyz
  1  'x, y, z'
loop_
 _atom_site_type_symbol
 _atom_site_label
 _atom_site_symmetry_multiplicity
 _atom_site_fract_x
 _atom_site_fract_y
 _atom_site_fract_z
 _atom_site_occupancy
  Tb  Tb0  1  0.718180  0.529691  0.000000  1
  Tb  Tb1  1  0.811144  0.281516  0.000000  1
  Tm  Tm2  1  0.470311  0.188530  0.000000  1
  Tm  Tm3  1  0.528857  0.811030  0.500000  1
  Tm  Tm4  1  0.281894  0.470645  0.500000  1
  Tm  Tm5  1  0.188804  0.718036  0.500000  1
  Ni  Ni6  1  0.333316  0.666395  0.000000  1
  Ni  Ni7  1  0.665284  0.332482  0.500000  1
  Ni  Ni8  1  0.197025  0.092386  0.000000  1
  Ni  Ni9  1  0.896227  0.804280  0.000000  1
  Ni  Ni10  1  0.907885  0.103893  0.000000  1
  Ni  Ni11  1  0.849656  0.927437  0.500000  1
  Ni  Ni12  1  0.078632  0.151261  0.500000  1
  Ni  Ni13  1  0.073858  0.922376  0.500000  1
  Ni  Ni14  1  0.437140  0.417148  0.000000  1
  Ni  Ni15  1  0.980641  0.562592  0.000000  1
  Ni  Ni16  1  0.581251  0.019695  0.000000  1
  Ni  Ni17  1  0.564538  0.587294  0.500000  1
  Ni  Ni18  1  0.022855  0.435125  0.500000  1
  Ni  Ni19  1  0.412596  0.978288  0.500000  1
  Ni  Ni20  1  0.079050  0.320947  0.000000  1
  Ni  Ni21  1  0.242518  0.921208  0.000000  1
  Ni  Ni22  1  0.678957  0.758423  0.000000  1
  Ni  Ni23  1  0.931216  0.683191  0.500000  1
  Ni  Ni24  1  0.751024  0.068740  0.500000  1
  Ni  Ni25  1  0.318016  0.247669  0.500000  1
  P  P26  1  0.234537  0.284358  0.000000  1
  P  P27  1  0.050059  0.765408  0.000000  1
  P  P28  1  0.714933  0.950427  0.000000  1
  P  P29  1  0.768113  0.721064  0.500000  1
  P  P30  1  0.952569  0.231586  0.500000  1
  P  P31  1  0.280824  0.048455  0.500000  1
  P  P32  1  0.475922  0.614701  0.000000  1
  P  P33  1  0.139008  0.523898  0.000000  1
  P  P34  1  0.384805  0.860693  0.000000  1
  P  P35  1  0.523313  0.385895  0.500000  1
  P  P36  1  0.863011  0.475965  0.500000  1
  P  P37  1  0.611377  0.136850  0.500000  1
  P  P38  1  0.000657  0.000424  0.000000  1
