# generated using pymatgen
data_Tb3Ho4Er(CdPd)2
_symmetry_space_group_name_H-M   'P 1'
_cell_length_a   9.68723660
_cell_length_b   9.68723661
_cell_length_c   9.68426600
_cell_angle_alpha   60.01014345
_cell_angle_beta   60.01014341
_cell_angle_gamma   59.97971041
_symmetry_Int_Tables_number   1
_chemical_formula_structural   Tb3Ho4Er(CdPd)2
_chemical_formula_sum   'Tb6 Ho8 Er2 Cd4 Pd4'
_cell_volume   642.61585412
_cell_formula_units_Z   2
loop_
 _symmetry_equiv_pos_site_id
 _symmetry_equiv_pos_as_xyz
  1  'x, y, z'
loop_
 _atom_site_type_symbol
 _atom_site_label
 _atom_site_symmetry_multiplicity
 _atom_site_fract_x
 _atom_site_fract_y
 _atom_site_fract_z
 _atom_site_occupancy
  Tb  Tb0  1  0.934590  0.565410  0.565410  1
  Tb  Tb1  1  0.565410  0.934590  0.934590  1
  Tb  Tb2  1  0.565410  0.934590  0.565410  1
  Tb  Tb3  1  0.934590  0.565410  0.934590  1
  Tb  Tb4  1  0.565442  0.565442  0.934558  1
  Tb  Tb5  1  0.934558  0.934558  0.565442  1
  Ho  Ho6  1  0.353513  0.353513  0.353593  1
  Ho  Ho7  1  0.353513  0.353513  0.939381  1
  Ho  Ho8  1  0.353593  0.939381  0.353513  1
  Ho  Ho9  1  0.939381  0.353593  0.353513  1
  Ho  Ho10  1  0.811262  0.188738  0.188738  1
  Ho  Ho11  1  0.188738  0.811262  0.811262  1
  Ho  Ho12  1  0.188738  0.811262  0.188738  1
  Ho  Ho13  1  0.811262  0.188738  0.811262  1
  Er  Er14  1  0.188897  0.188897  0.811103  1
  Er  Er15  1  0.811103  0.811103  0.188897  1
  Cd  Cd16  1  0.581832  0.581832  0.581707  1
  Cd  Cd17  1  0.581832  0.581832  0.254628  1
  Cd  Cd18  1  0.581707  0.254628  0.581832  1
  Cd  Cd19  1  0.254628  0.581707  0.581832  1
  Pd  Pd20  1  0.144297  0.144297  0.144244  1
  Pd  Pd21  1  0.144297  0.144297  0.567163  1
  Pd  Pd22  1  0.144244  0.567163  0.144297  1
  Pd  Pd23  1  0.567163  0.144244  0.144297  1
