# generated using pymatgen
data_Nd8In2IrOs
_symmetry_space_group_name_H-M   'P 1'
_cell_length_a   9.97232020
_cell_length_b   9.97231268
_cell_length_c   9.98008100
_cell_angle_alpha   59.97568052
_cell_angle_beta   59.97561656
_cell_angle_gamma   59.93082492
_symmetry_Int_Tables_number   1
_chemical_formula_structural   Nd8In2IrOs
_chemical_formula_sum   'Nd16 In4 Ir2 Os2'
_cell_volume   701.17081051
_cell_formula_units_Z   2
loop_
 _symmetry_equiv_pos_site_id
 _symmetry_equiv_pos_as_xyz
  1  'x, y, z'
loop_
 _atom_site_type_symbol
 _atom_site_label
 _atom_site_symmetry_multiplicity
 _atom_site_fract_x
 _atom_site_fract_y
 _atom_site_fract_z
 _atom_site_occupancy
  Nd  Nd0  1  0.347611  0.347611  0.347307  1
  Nd  Nd1  1  0.347609  0.347610  0.957475  1
  Nd  Nd2  1  0.347813  0.957164  0.347510  1
  Nd  Nd3  1  0.957164  0.347814  0.347509  1
  Nd  Nd4  1  0.809257  0.190622  0.193500  1
  Nd  Nd5  1  0.190623  0.809255  0.806622  1
  Nd  Nd6  1  0.190623  0.809256  0.193501  1
  Nd  Nd7  1  0.809256  0.190623  0.806622  1
  Nd  Nd8  1  0.191583  0.191582  0.808420  1
  Nd  Nd9  1  0.806712  0.806713  0.193289  1
  Nd  Nd10  1  0.941156  0.556457  0.560384  1
  Nd  Nd11  1  0.556460  0.941155  0.942003  1
  Nd  Nd12  1  0.556456  0.941157  0.560382  1
  Nd  Nd13  1  0.941154  0.556459  0.942004  1
  Nd  Nd14  1  0.560446  0.560446  0.939554  1
  Nd  Nd15  1  0.942682  0.942682  0.557319  1
  In  In16  1  0.580805  0.580805  0.581052  1
  In  In17  1  0.580806  0.580806  0.257338  1
  In  In18  1  0.580950  0.256471  0.581283  1
  In  In19  1  0.256471  0.580950  0.581283  1
  Ir  Ir20  1  0.142111  0.580133  0.138878  1
  Ir  Ir21  1  0.580133  0.142111  0.138878  1
  Os  Os22  1  0.141061  0.141059  0.136663  1
  Os  Os23  1  0.141057  0.141057  0.581223  1
