# generated using pymatgen
data_Lu20Ru5Au7
_symmetry_space_group_name_H-M   'P 1'
_cell_length_a   10.99963060
_cell_length_b   10.99963011
_cell_length_c   6.29099900
_cell_angle_alpha   89.87882047
_cell_angle_beta   89.87882048
_cell_angle_gamma   90.35839763
_symmetry_Int_Tables_number   1
_chemical_formula_structural   Lu20Ru5Au7
_chemical_formula_sum   'Lu20 Ru5 Au7'
_cell_volume   761.14140272
_cell_formula_units_Z   1
loop_
 _symmetry_equiv_pos_site_id
 _symmetry_equiv_pos_as_xyz
  1  'x, y, z'
loop_
 _atom_site_type_symbol
 _atom_site_label
 _atom_site_symmetry_multiplicity
 _atom_site_fract_x
 _atom_site_fract_y
 _atom_site_fract_z
 _atom_site_occupancy
  Lu  Lu0  1  0.084559  0.304980  0.137541  1
  Lu  Lu1  1  0.802953  0.418499  0.141059  1
  Lu  Lu2  1  0.199075  0.594180  0.137219  1
  Lu  Lu3  1  0.924938  0.706158  0.142657  1
  Lu  Lu4  1  0.405820  0.800925  0.362781  1
  Lu  Lu5  1  0.581501  0.197047  0.358941  1
  Lu  Lu6  1  0.293842  0.075062  0.357343  1
  Lu  Lu7  1  0.695020  0.915441  0.362459  1
  Lu  Lu8  1  0.416128  0.197006  0.856753  1
  Lu  Lu9  1  0.700502  0.082061  0.861370  1
  Lu  Lu10  1  0.293244  0.911488  0.870874  1
  Lu  Lu11  1  0.579271  0.801603  0.859962  1
  Lu  Lu12  1  0.088512  0.706756  0.629126  1
  Lu  Lu13  1  0.917939  0.299498  0.638630  1
  Lu  Lu14  1  0.198397  0.420729  0.640038  1
  Lu  Lu15  1  0.802994  0.583872  0.643247  1
  Lu  Lu16  1  0.008373  0.996989  0.001670  1
  Lu  Lu17  1  0.500110  0.498187  0.000022  1
  Lu  Lu18  1  0.501813  0.499890  0.499978  1
  Lu  Lu19  1  0.003011  0.991627  0.498330  1
  Ru  Ru20  1  0.150707  0.849293  0.250000  1
  Ru  Ru21  1  0.000959  0.500866  0.389211  1
  Ru  Ru22  1  0.499134  0.999041  0.110789  1
  Ru  Ru23  1  0.498933  0.999303  0.613133  1
  Ru  Ru24  1  0.000697  0.501067  0.886867  1
  Au  Au25  1  0.345309  0.342631  0.252141  1
  Au  Au26  1  0.657369  0.654691  0.247859  1
  Au  Au27  1  0.847261  0.152739  0.250000  1
  Au  Au28  1  0.346146  0.653854  0.750000  1
  Au  Au29  1  0.156447  0.156892  0.746188  1
  Au  Au30  1  0.843108  0.843553  0.753812  1
  Au  Au31  1  0.655930  0.344070  0.750000  1
