# generated using pymatgen
data_Li2Ni9MoP7Ru2
_symmetry_space_group_name_H-M   'P 1'
_cell_length_a   9.09235145
_cell_length_b   9.07692217
_cell_length_c   3.59214800
_cell_angle_alpha   90.00000000
_cell_angle_beta   90.00000000
_cell_angle_gamma   120.18171436
_symmetry_Int_Tables_number   1
_chemical_formula_structural   Li2Ni9MoP7Ru2
_chemical_formula_sum   'Li2 Ni9 Mo1 P7 Ru2'
_cell_volume   256.27222390
_cell_formula_units_Z   1
loop_
 _symmetry_equiv_pos_site_id
 _symmetry_equiv_pos_as_xyz
  1  'x, y, z'
loop_
 _atom_site_type_symbol
 _atom_site_label
 _atom_site_symmetry_multiplicity
 _atom_site_fract_x
 _atom_site_fract_y
 _atom_site_fract_z
 _atom_site_occupancy
  Li  Li0  1  0.333188  0.666651  0.000000  1
  Li  Li1  1  0.667019  0.333762  0.500000  1
  Ni  Ni2  1  0.708238  0.875448  0.000000  1
  Ni  Ni3  1  0.166782  0.290580  0.000000  1
  Ni  Ni4  1  0.125571  0.835422  0.000000  1
  Ni  Ni5  1  0.624442  0.562521  0.000000  1
  Ni  Ni6  1  0.936570  0.373352  0.000000  1
  Ni  Ni7  1  0.439282  0.064114  0.000000  1
  Ni  Ni8  1  0.557559  0.946412  0.500000  1
  Ni  Ni9  1  0.387618  0.441434  0.500000  1
  Ni  Ni10  1  0.056879  0.612451  0.500000  1
  Mo  Mo11  1  0.876703  0.782262  0.500000  1
  P  P12  1  0.582481  0.709261  0.500000  1
  P  P13  1  0.124006  0.413770  0.500000  1
  P  P14  1  0.290863  0.876322  0.500000  1
  P  P15  1  0.001823  0.004661  0.000000  1
  P  P16  1  0.877902  0.580707  0.000000  1
  P  P17  1  0.705447  0.122618  0.000000  1
  P  P18  1  0.415781  0.293446  0.000000  1
  Ru  Ru19  1  0.905024  0.122964  0.500000  1
  Ru  Ru20  1  0.216821  0.091841  0.500000  1
