# generated using pymatgen
data_ErTmFe8(P3W)2
_symmetry_space_group_name_H-M   'P 1'
_cell_length_a   3.68917200
_cell_length_b   10.42165600
_cell_length_c   11.94565600
_cell_angle_alpha   90.00000000
_cell_angle_beta   90.00000000
_cell_angle_gamma   90.00000000
_symmetry_Int_Tables_number   1
_chemical_formula_structural   ErTmFe8(P3W)2
_chemical_formula_sum   'Er2 Tm2 Fe16 P12 W4'
_cell_volume   459.27799904
_cell_formula_units_Z   2
loop_
 _symmetry_equiv_pos_site_id
 _symmetry_equiv_pos_as_xyz
  1  'x, y, z'
loop_
 _atom_site_type_symbol
 _atom_site_label
 _atom_site_symmetry_multiplicity
 _atom_site_fract_x
 _atom_site_fract_y
 _atom_site_fract_z
 _atom_site_occupancy
  Er  Er0  1  0.250000  0.581993  0.706773  1
  Er  Er1  1  0.250000  0.918007  0.206773  1
  Tm  Tm2  1  0.750000  0.418251  0.293292  1
  Tm  Tm3  1  0.750000  0.081749  0.793292  1
  Fe  Fe4  1  0.250000  0.407210  0.490840  1
  Fe  Fe5  1  0.250000  0.092790  0.990840  1
  Fe  Fe6  1  0.750000  0.592760  0.508755  1
  Fe  Fe7  1  0.750000  0.907240  0.008755  1
  Fe  Fe8  1  0.250000  0.218693  0.176690  1
  Fe  Fe9  1  0.250000  0.281307  0.676690  1
  Fe  Fe10  1  0.750000  0.781435  0.823319  1
  Fe  Fe11  1  0.750000  0.718565  0.323319  1
  Fe  Fe12  1  0.250000  0.877678  0.701205  1
  Fe  Fe13  1  0.250000  0.622322  0.201205  1
  Fe  Fe14  1  0.750000  0.122660  0.299024  1
  Fe  Fe15  1  0.750000  0.377340  0.799024  1
  Fe  Fe16  1  0.250000  0.462680  0.933501  1
  Fe  Fe17  1  0.250000  0.037320  0.433501  1
  Fe  Fe18  1  0.750000  0.537157  0.066731  1
  Fe  Fe19  1  0.750000  0.962843  0.566731  1
  P  P20  1  0.250000  0.425471  0.115428  1
  P  P21  1  0.250000  0.074529  0.615428  1
  P  P22  1  0.750000  0.574672  0.884814  1
  P  P23  1  0.750000  0.925328  0.384814  1
  P  P24  1  0.250000  0.264650  0.865789  1
  P  P25  1  0.250000  0.235350  0.365789  1
  P  P26  1  0.750000  0.735019  0.134275  1
  P  P27  1  0.750000  0.764981  0.634275  1
  P  P28  1  0.250000  0.592103  0.389814  1
  P  P29  1  0.250000  0.907897  0.889814  1
  P  P30  1  0.750000  0.407766  0.609924  1
  P  P31  1  0.750000  0.092234  0.109924  1
  W  W32  1  0.250000  0.704444  0.988344  1
  W  W33  1  0.250000  0.795556  0.488344  1
  W  W34  1  0.750000  0.295616  0.011479  1
  W  W35  1  0.750000  0.204384  0.511479  1
