# generated using pymatgen
data_CdIn11Ir4
_symmetry_space_group_name_H-M   'P 1'
_cell_length_a   7.09488182
_cell_length_b   7.16923296
_cell_length_c   7.27688500
_cell_angle_alpha   90.00000000
_cell_angle_beta   90.00000000
_cell_angle_gamma   89.82928664
_symmetry_Int_Tables_number   1
_chemical_formula_structural   CdIn11Ir4
_chemical_formula_sum   'Cd1 In11 Ir4'
_cell_volume   370.13609823
_cell_formula_units_Z   1
loop_
 _symmetry_equiv_pos_site_id
 _symmetry_equiv_pos_as_xyz
  1  'x, y, z'
loop_
 _atom_site_type_symbol
 _atom_site_label
 _atom_site_symmetry_multiplicity
 _atom_site_fract_x
 _atom_site_fract_y
 _atom_site_fract_z
 _atom_site_occupancy
  Cd  Cd0  1  0.000000  0.500000  0.500000  1
  In  In1  1  0.500000  0.000000  0.000000  1
  In  In2  1  0.500000  0.000000  0.500000  1
  In  In3  1  0.000000  0.500000  0.000000  1
  In  In4  1  0.345228  0.651181  0.243048  1
  In  In5  1  0.654772  0.348819  0.243048  1
  In  In6  1  0.151138  0.159156  0.736095  1
  In  In7  1  0.848862  0.840844  0.736095  1
  In  In8  1  0.654772  0.348819  0.756952  1
  In  In9  1  0.345228  0.651181  0.756952  1
  In  In10  1  0.848862  0.840844  0.263905  1
  In  In11  1  0.151138  0.159156  0.263905  1
  Ir  Ir12  1  0.157401  0.849014  0.500000  1
  Ir  Ir13  1  0.842599  0.150986  0.500000  1
  Ir  Ir14  1  0.343670  0.341308  0.000000  1
  Ir  Ir15  1  0.656330  0.658692  0.000000  1
