# generated using pymatgen
data_Er3AlZn2Si2Pt
_symmetry_space_group_name_H-M   'P 1'
_cell_length_a   6.85464301
_cell_length_b   6.85464230
_cell_length_c   4.24408400
_cell_angle_alpha   90.00000000
_cell_angle_beta   90.00000000
_cell_angle_gamma   120.89029225
_symmetry_Int_Tables_number   1
_chemical_formula_structural   Er3AlZn2Si2Pt
_chemical_formula_sum   'Er3 Al1 Zn2 Si2 Pt1'
_cell_volume   171.12670163
_cell_formula_units_Z   1
loop_
 _symmetry_equiv_pos_site_id
 _symmetry_equiv_pos_as_xyz
  1  'x, y, z'
loop_
 _atom_site_type_symbol
 _atom_site_label
 _atom_site_symmetry_multiplicity
 _atom_site_fract_x
 _atom_site_fract_y
 _atom_site_fract_z
 _atom_site_occupancy
  Er  Er0  1  0.417837  0.996540  0.500000  1
  Er  Er1  1  0.996540  0.417837  0.500000  1
  Er  Er2  1  0.586266  0.586266  0.500000  1
  Al  Al3  1  0.228443  0.228443  0.000000  1
  Zn  Zn4  1  0.755692  0.002519  0.000000  1
  Zn  Zn5  1  0.002519  0.755692  0.000000  1
  Si  Si6  1  0.334589  0.663154  0.000000  1
  Si  Si7  1  0.663154  0.334589  0.000000  1
  Pt  Pt8  1  0.014959  0.014959  0.500000  1
