# generated using pymatgen
data_RbLa2TaO6
_symmetry_space_group_name_H-M   'P 1'
_cell_length_a   5.82752100
_cell_length_b   7.05021452
_cell_length_c   8.97336800
_cell_angle_alpha   104.50782570
_cell_angle_beta   90.00000000
_cell_angle_gamma   114.41146903
_symmetry_Int_Tables_number   1
_chemical_formula_structural   RbLa2TaO6
_chemical_formula_sum   'Rb2 La4 Ta2 O12'
_cell_volume   322.76028484
_cell_formula_units_Z   2
loop_
 _symmetry_equiv_pos_site_id
 _symmetry_equiv_pos_as_xyz
  1  'x, y, z'
loop_
 _atom_site_type_symbol
 _atom_site_label
 _atom_site_symmetry_multiplicity
 _atom_site_fract_x
 _atom_site_fract_y
 _atom_site_fract_z
 _atom_site_occupancy
  Rb  Rb0  1  0.118038  0.236075  0.477773  1
  Rb  Rb1  1  0.881962  0.763925  0.522227  1
  La  La2  1  0.129417  0.258833  0.929615  1
  La  La3  1  0.870583  0.741167  0.070385  1
  La  La4  1  0.587977  0.175955  0.203992  1
  La  La5  1  0.412023  0.824045  0.796008  1
  Ta  Ta6  1  0.340513  0.681026  0.292318  1
  Ta  Ta7  1  0.659487  0.318974  0.707682  1
  O  O8  1  0.779020  0.100245  0.714474  1
  O  O9  1  0.678775  0.899755  0.285526  1
  O  O10  1  0.748172  0.000000  0.000000  1
  O  O11  1  0.004416  0.471445  0.168763  1
  O  O12  1  0.220980  0.899755  0.285526  1
  O  O13  1  0.995584  0.528555  0.831237  1
  O  O14  1  0.532971  0.528555  0.831237  1
  O  O15  1  0.670445  0.340888  0.505906  1
  O  O16  1  0.329555  0.659112  0.494094  1
  O  O17  1  0.251828  0.000000  0.000000  1
  O  O18  1  0.467029  0.471445  0.168763  1
  O  O19  1  0.321225  0.100245  0.714474  1
