# generated using pymatgen
data_Th2(CN2)3
_symmetry_space_group_name_H-M   'P 1'
_cell_length_a   7.55469416
_cell_length_b   7.55469531
_cell_length_c   5.35464578
_cell_angle_alpha   87.12148859
_cell_angle_beta   87.12148588
_cell_angle_gamma   30.51954370
_symmetry_Int_Tables_number   1
_chemical_formula_structural   Th2(CN2)3
_chemical_formula_sum   'Th2 C3 N6'
_cell_volume   154.98714393
_cell_formula_units_Z   1
loop_
 _symmetry_equiv_pos_site_id
 _symmetry_equiv_pos_as_xyz
  1  'x, y, z'
loop_
 _atom_site_type_symbol
 _atom_site_label
 _atom_site_symmetry_multiplicity
 _atom_site_fract_x
 _atom_site_fract_y
 _atom_site_fract_z
 _atom_site_occupancy
  Th  Th0  1  0.874539  0.874539  0.584063  1
  Th  Th1  1  0.125461  0.125461  0.415937  1
  C  C2  1  0.327127  0.327127  0.101568  1
  C  C3  1  0.672873  0.672873  0.898432  1
  C  C4  1  0.000000  0.000000  0.000000  1
  N  N5  1  0.971935  0.971935  0.225101  1
  N  N6  1  0.028065  0.028065  0.774899  1
  N  N7  1  0.691818  0.691818  0.668279  1
  N  N8  1  0.308182  0.308182  0.331721  1
  N  N9  1  0.656014  0.656014  0.125166  1
  N  N10  1  0.343986  0.343986  0.874834  1
