# generated using pymatgen
data_Na4PrTc3(P3Ir4)4
_symmetry_space_group_name_H-M   'P 1'
_cell_length_a   12.60315800
_cell_length_b   12.60315887
_cell_length_c   4.00672000
_cell_angle_alpha   90.00000000
_cell_angle_beta   90.00000000
_cell_angle_gamma   119.99999772
_symmetry_Int_Tables_number   1
_chemical_formula_structural   Na4PrTc3(P3Ir4)4
_chemical_formula_sum   'Na4 Pr1 Tc3 P12 Ir16'
_cell_volume   551.16093372
_cell_formula_units_Z   1
loop_
 _symmetry_equiv_pos_site_id
 _symmetry_equiv_pos_as_xyz
  1  'x, y, z'
loop_
 _atom_site_type_symbol
 _atom_site_label
 _atom_site_symmetry_multiplicity
 _atom_site_fract_x
 _atom_site_fract_y
 _atom_site_fract_z
 _atom_site_occupancy
  Na  Na0  1  0.333333  0.666667  0.500000  1
  Na  Na1  1  0.999634  0.820326  0.000000  1
  Na  Na2  1  0.179674  0.179308  0.000000  1
  Na  Na3  1  0.820692  0.000366  0.000000  1
  Pr  Pr4  1  0.666667  0.333333  0.500000  1
  Tc  Tc5  1  0.995108  0.453446  0.500000  1
  Tc  Tc6  1  0.546554  0.541663  0.500000  1
  Tc  Tc7  1  0.458337  0.004892  0.500000  1
  P  P8  1  0.002942  0.640402  0.500000  1
  P  P9  1  0.359598  0.362540  0.500000  1
  P  P10  1  0.637460  0.997058  0.500000  1
  P  P11  1  0.514503  0.686266  0.000000  1
  P  P12  1  0.313734  0.828237  0.000000  1
  P  P13  1  0.171763  0.485497  0.000000  1
  P  P14  1  0.478050  0.164206  0.000000  1
  P  P15  1  0.686156  0.521950  0.000000  1
  P  P16  1  0.835794  0.313844  0.000000  1
  P  P17  1  0.002228  0.180144  0.500000  1
  P  P18  1  0.819856  0.822085  0.500000  1
  P  P19  1  0.177915  0.997772  0.500000  1
  Ir  Ir20  1  0.512509  0.872777  0.000000  1
  Ir  Ir21  1  0.127223  0.639733  0.000000  1
  Ir  Ir22  1  0.360267  0.487491  0.000000  1
  Ir  Ir23  1  0.490345  0.358062  0.000000  1
  Ir  Ir24  1  0.867718  0.509655  0.000000  1
  Ir  Ir25  1  0.641938  0.132282  0.000000  1
  Ir  Ir26  1  0.002390  0.287438  0.000000  1
  Ir  Ir27  1  0.712562  0.714951  0.000000  1
  Ir  Ir28  1  0.285049  0.997610  0.000000  1
  Ir  Ir29  1  0.619690  0.800359  0.500000  1
  Ir  Ir30  1  0.199641  0.819331  0.500000  1
  Ir  Ir31  1  0.180669  0.380310  0.500000  1
  Ir  Ir32  1  0.372465  0.180628  0.500000  1
  Ir  Ir33  1  0.808163  0.627535  0.500000  1
  Ir  Ir34  1  0.819372  0.191837  0.500000  1
  Ir  Ir35  1  0.000000  0.000000  0.500000  1
