# generated using pymatgen
data_DyY(OsO4)2
_symmetry_space_group_name_H-M   'P 1'
_cell_length_a   5.37031980
_cell_length_b   7.73026976
_cell_length_c   7.46296621
_cell_angle_alpha   79.30624875
_cell_angle_beta   91.23192162
_cell_angle_gamma   94.22482061
_symmetry_Int_Tables_number   1
_chemical_formula_structural   DyY(OsO4)2
_chemical_formula_sum   'Dy2 Y2 Os4 O16'
_cell_volume   303.60019183
_cell_formula_units_Z   2
loop_
 _symmetry_equiv_pos_site_id
 _symmetry_equiv_pos_as_xyz
  1  'x, y, z'
loop_
 _atom_site_type_symbol
 _atom_site_label
 _atom_site_symmetry_multiplicity
 _atom_site_fract_x
 _atom_site_fract_y
 _atom_site_fract_z
 _atom_site_occupancy
  Dy  Dy0  1  0.261892  0.112622  0.610688  1
  Dy  Dy1  1  0.738068  0.887411  0.389366  1
  Y  Y2  1  0.195207  0.169591  0.100868  1
  Y  Y3  1  0.804758  0.830384  0.899070  1
  Os  Os4  1  0.247047  0.662330  0.208074  1
  Os  Os5  1  0.752886  0.337633  0.791915  1
  Os  Os6  1  0.715959  0.336011  0.299649  1
  Os  Os7  1  0.283999  0.663964  0.700317  1
  O  O8  1  0.048322  0.472530  0.715581  1
  O  O9  1  0.951842  0.527494  0.284360  1
  O  O10  1  0.615742  0.328495  0.548618  1
  O  O11  1  0.384486  0.671474  0.451318  1
  O  O12  1  0.845417  0.317934  0.053879  1
  O  O13  1  0.154605  0.682039  0.946161  1
  O  O14  1  0.413050  0.443057  0.195472  1
  O  O15  1  0.587007  0.556972  0.804705  1
  O  O16  1  0.049998  0.885023  0.179992  1
  O  O17  1  0.949950  0.114883  0.820066  1
  O  O18  1  0.491142  0.111405  0.323021  1
  O  O19  1  0.508796  0.888604  0.676986  1
  O  O20  1  0.451250  0.196512  0.867255  1
  O  O21  1  0.548605  0.803571  0.132689  1
  O  O22  1  0.977162  0.163530  0.382059  1
  O  O23  1  0.022810  0.836533  0.617891  1
