# generated using pymatgen
data_Li6Hf5URh12
_symmetry_space_group_name_H-M   'P 1'
_cell_length_a   4.46508700
_cell_length_b   6.21115000
_cell_length_c   13.31346900
_cell_angle_alpha   90.00000000
_cell_angle_beta   90.00219244
_cell_angle_gamma   90.00000000
_symmetry_Int_Tables_number   1
_chemical_formula_structural   Li6Hf5URh12
_chemical_formula_sum   'Li6 Hf5 U1 Rh12'
_cell_volume   369.22676412
_cell_formula_units_Z   1
loop_
 _symmetry_equiv_pos_site_id
 _symmetry_equiv_pos_as_xyz
  1  'x, y, z'
loop_
 _atom_site_type_symbol
 _atom_site_label
 _atom_site_symmetry_multiplicity
 _atom_site_fract_x
 _atom_site_fract_y
 _atom_site_fract_z
 _atom_site_occupancy
  Li  Li0  1  0.000000  0.500000  0.000000  1
  Li  Li1  1  0.499881  0.000000  0.171077  1
  Li  Li2  1  0.999898  0.500000  0.334093  1
  Li  Li3  1  0.500001  0.000000  0.500000  1
  Li  Li4  1  0.000102  0.500000  0.665907  1
  Li  Li5  1  0.500119  0.000000  0.828923  1
  Hf  Hf6  1  0.499885  0.500000  0.171713  1
  Hf  Hf7  1  0.999900  0.000000  0.336624  1
  Hf  Hf8  1  0.500001  0.500000  0.500000  1
  Hf  Hf9  1  0.000100  0.000000  0.663376  1
  Hf  Hf10  1  0.500115  0.500000  0.828287  1
  U  U11  1  0.000000  0.000000  0.000000  1
  Rh  Rh12  1  0.500001  0.251329  0.000000  1
  Rh  Rh13  1  0.500001  0.748671  0.000000  1
  Rh  Rh14  1  0.999890  0.245530  0.163078  1
  Rh  Rh15  1  0.999890  0.754470  0.163078  1
  Rh  Rh16  1  0.499891  0.248516  0.333223  1
  Rh  Rh17  1  0.499891  0.751484  0.333223  1
  Rh  Rh18  1  0.000000  0.251609  0.500000  1
  Rh  Rh19  1  0.000000  0.748391  0.500000  1
  Rh  Rh20  1  0.500109  0.248516  0.666777  1
  Rh  Rh21  1  0.500109  0.751484  0.666777  1
  Rh  Rh22  1  0.000110  0.245530  0.836922  1
  Rh  Rh23  1  0.000110  0.754470  0.836922  1
