# generated using pymatgen
data_Sr4Bi3F17
_symmetry_space_group_name_H-M   'P 1'
_cell_length_a   9.32141516
_cell_length_b   9.36343876
_cell_length_c   9.42854000
_cell_angle_alpha   72.63622814
_cell_angle_beta   72.75237579
_cell_angle_gamma   72.92338126
_symmetry_Int_Tables_number   1
_chemical_formula_structural   Sr4Bi3F17
_chemical_formula_sum   'Sr8 Bi6 F34'
_cell_volume   730.85979908
_cell_formula_units_Z   2
loop_
 _symmetry_equiv_pos_site_id
 _symmetry_equiv_pos_as_xyz
  1  'x, y, z'
loop_
 _atom_site_type_symbol
 _atom_site_label
 _atom_site_symmetry_multiplicity
 _atom_site_fract_x
 _atom_site_fract_y
 _atom_site_fract_z
 _atom_site_occupancy
  Sr  Sr0  1  0.296855  0.911781  0.034146  1
  Sr  Sr1  1  0.253284  0.264595  0.264516  1
  Sr  Sr2  1  0.896426  0.056119  0.303391  1
  Sr  Sr3  1  0.949822  0.702533  0.099296  1
  Sr  Sr4  1  0.049172  0.315942  0.888376  1
  Sr  Sr5  1  0.096166  0.966553  0.692415  1
  Sr  Sr6  1  0.734811  0.745023  0.738916  1
  Sr  Sr7  1  0.691372  0.105712  0.948080  1
  Bi  Bi8  1  0.618662  0.458082  0.160808  1
  Bi  Bi9  1  0.151677  0.617154  0.460823  1
  Bi  Bi10  1  0.537979  0.847120  0.384007  1
  Bi  Bi11  1  0.469572  0.179961  0.611706  1
  Bi  Bi12  1  0.813319  0.385342  0.542871  1
  Bi  Bi13  1  0.382391  0.537405  0.841361  1
  F  F14  1  0.008918  0.995973  0.992187  1
  F  F15  1  0.162468  0.461328  0.025614  1
  F  F16  1  0.133030  0.144122  0.131197  1
  F  F17  1  0.483114  0.343334  0.051601  1
  F  F18  1  0.450810  0.021156  0.163136  1
  F  F19  1  0.795096  0.252805  0.068286  1
  F  F20  1  0.024278  0.161344  0.453446  1
  F  F21  1  0.038788  0.494234  0.341330  1
  F  F22  1  0.079883  0.800306  0.246595  1
  F  F23  1  0.345846  0.534823  0.258086  1
  F  F24  1  0.633193  0.686758  0.209714  1
  F  F25  1  0.555680  0.237992  0.337141  1
  F  F26  1  0.343697  0.048537  0.483745  1
  F  F27  1  0.811520  0.360867  0.297505  1
  F  F28  1  0.751641  0.928053  0.202645  1
  F  F29  1  0.308796  0.789484  0.392572  1
  F  F30  1  0.250117  0.347232  0.542831  1
  F  F31  1  0.550307  0.421973  0.531825  1
  F  F32  1  0.745249  0.657403  0.465144  1
  F  F33  1  0.719016  0.161596  0.645326  1
  F  F34  1  0.250740  0.088748  0.783585  1
  F  F35  1  0.200365  0.594038  0.701196  1
  F  F36  1  0.658846  0.956198  0.511717  1
  F  F37  1  0.459600  0.745485  0.653970  1
  F  F38  1  0.381144  0.291540  0.819774  1
  F  F39  1  0.658978  0.445500  0.767598  1
  F  F40  1  0.925457  0.215116  0.747321  1
  F  F41  1  0.947715  0.518934  0.655701  1
  F  F42  1  0.977571  0.837631  0.545976  1
  F  F43  1  0.206550  0.752485  0.911226  1
  F  F44  1  0.539672  0.974153  0.839991  1
  F  F45  1  0.508223  0.657701  0.958426  1
  F  F46  1  0.861464  0.865257  0.864073  1
  F  F47  1  0.836719  0.548570  0.975812  1
