# generated using pymatgen
data_Dy2TmMg3AgSn2
_symmetry_space_group_name_H-M   'P 1'
_cell_length_a   7.48045891
_cell_length_b   7.48045880
_cell_length_c   4.52436200
_cell_angle_alpha   90.00000000
_cell_angle_beta   90.00000000
_cell_angle_gamma   119.64990567
_symmetry_Int_Tables_number   1
_chemical_formula_structural   Dy2TmMg3AgSn2
_chemical_formula_sum   'Dy2 Tm1 Mg3 Ag1 Sn2'
_cell_volume   220.02182706
_cell_formula_units_Z   1
loop_
 _symmetry_equiv_pos_site_id
 _symmetry_equiv_pos_as_xyz
  1  'x, y, z'
loop_
 _atom_site_type_symbol
 _atom_site_label
 _atom_site_symmetry_multiplicity
 _atom_site_fract_x
 _atom_site_fract_y
 _atom_site_fract_z
 _atom_site_occupancy
  Dy  Dy0  1  0.582520  0.999081  0.000000  1
  Dy  Dy1  1  0.999081  0.582520  0.000000  1
  Tm  Tm2  1  0.416036  0.416036  0.000000  1
  Mg  Mg3  1  0.236389  0.000635  0.500000  1
  Mg  Mg4  1  0.000635  0.236389  0.500000  1
  Mg  Mg5  1  0.763354  0.763354  0.500000  1
  Ag  Ag6  1  0.002532  0.002532  0.000000  1
  Sn  Sn7  1  0.334547  0.664906  0.500000  1
  Sn  Sn8  1  0.664906  0.334547  0.500000  1
