# generated using pymatgen
data_CeHo7(MgRu)2
_symmetry_space_group_name_H-M   'P 1'
_cell_length_a   9.67676346
_cell_length_b   9.67619634
_cell_length_c   9.75428520
_cell_angle_alpha   59.49676015
_cell_angle_beta   59.49635946
_cell_angle_gamma   59.45230861
_symmetry_Int_Tables_number   1
_chemical_formula_structural   CeHo7(MgRu)2
_chemical_formula_sum   'Ce2 Ho14 Mg4 Ru4'
_cell_volume   638.21340912
_cell_formula_units_Z   2
loop_
 _symmetry_equiv_pos_site_id
 _symmetry_equiv_pos_as_xyz
  1  'x, y, z'
loop_
 _atom_site_type_symbol
 _atom_site_label
 _atom_site_symmetry_multiplicity
 _atom_site_fract_x
 _atom_site_fract_y
 _atom_site_fract_z
 _atom_site_occupancy
  Ce  Ce0  1  0.338828  0.338753  0.343826  1
  Ce  Ce1  1  0.339423  0.339376  0.978207  1
  Ho  Ho2  1  0.344966  0.961313  0.347439  1
  Ho  Ho3  1  0.961287  0.345005  0.347411  1
  Ho  Ho4  1  0.813380  0.186479  0.187209  1
  Ho  Ho5  1  0.186447  0.813960  0.811946  1
  Ho  Ho6  1  0.186497  0.813363  0.187228  1
  Ho  Ho7  1  0.813995  0.186413  0.811947  1
  Ho  Ho8  1  0.186837  0.186833  0.812608  1
  Ho  Ho9  1  0.813070  0.813086  0.186998  1
  Ho  Ho10  1  0.937137  0.562607  0.563284  1
  Ho  Ho11  1  0.561858  0.938370  0.937226  1
  Ho  Ho12  1  0.562581  0.937127  0.563338  1
  Ho  Ho13  1  0.938375  0.561884  0.937190  1
  Ho  Ho14  1  0.563138  0.563139  0.936243  1
  Ho  Ho15  1  0.937583  0.937586  0.561579  1
  Mg  Mg16  1  0.579181  0.579196  0.578592  1
  Mg  Mg17  1  0.579092  0.579081  0.262329  1
  Mg  Mg18  1  0.578853  0.260668  0.579911  1
  Mg  Mg19  1  0.260650  0.578838  0.579898  1
  Ru  Ru20  1  0.146244  0.146287  0.132200  1
  Ru  Ru21  1  0.147096  0.147135  0.575181  1
  Ru  Ru22  1  0.152796  0.570704  0.139102  1
  Ru  Ru23  1  0.570686  0.152796  0.139107  1
