# generated using pymatgen
data_Y13Th3(MgCo)4
_symmetry_space_group_name_H-M   'P 1'
_cell_length_a   9.64599817
_cell_length_b   9.66280600
_cell_length_c   9.66280600
_cell_angle_alpha   60.00000000
_cell_angle_beta   59.94234292
_cell_angle_gamma   59.94234052
_symmetry_Int_Tables_number   1
_chemical_formula_structural   Y13Th3(MgCo)4
_chemical_formula_sum   'Y13 Th3 Mg4 Co4'
_cell_volume   636.29668159
_cell_formula_units_Z   1
loop_
 _symmetry_equiv_pos_site_id
 _symmetry_equiv_pos_as_xyz
  1  'x, y, z'
loop_
 _atom_site_type_symbol
 _atom_site_label
 _atom_site_symmetry_multiplicity
 _atom_site_fract_x
 _atom_site_fract_y
 _atom_site_fract_z
 _atom_site_occupancy
  Y  Y0  1  0.958577  0.347141  0.347141  1
  Y  Y1  1  0.812965  0.187168  0.187168  1
  Y  Y2  1  0.187683  0.813318  0.813318  1
  Y  Y3  1  0.187683  0.813318  0.185680  1
  Y  Y4  1  0.812965  0.187168  0.812699  1
  Y  Y5  1  0.187683  0.185680  0.813318  1
  Y  Y6  1  0.812965  0.812699  0.187168  1
  Y  Y7  1  0.935904  0.564550  0.564550  1
  Y  Y8  1  0.563133  0.936522  0.936522  1
  Y  Y9  1  0.563133  0.936522  0.563823  1
  Y  Y10  1  0.935904  0.564550  0.934996  1
  Y  Y11  1  0.563133  0.563823  0.936522  1
  Y  Y12  1  0.935904  0.934996  0.564550  1
  Th  Th13  1  0.339994  0.345036  0.345036  1
  Th  Th14  1  0.339994  0.345036  0.969935  1
  Th  Th15  1  0.339994  0.969935  0.345036  1
  Mg  Mg16  1  0.579946  0.579583  0.579583  1
  Mg  Mg17  1  0.579946  0.579583  0.260888  1
  Mg  Mg18  1  0.579946  0.260888  0.579583  1
  Mg  Mg19  1  0.258231  0.580590  0.580590  1
  Co  Co20  1  0.153518  0.139306  0.139306  1
  Co  Co21  1  0.153518  0.139306  0.567870  1
  Co  Co22  1  0.153518  0.567870  0.139306  1
  Co  Co23  1  0.563759  0.145414  0.145414  1
