# generated using pymatgen
data_TbY9(IrRh2)2
_symmetry_space_group_name_H-M   'P 1'
_cell_length_a   10.95878100
_cell_length_b   10.95878100
_cell_length_c   6.40283900
_cell_angle_alpha   90.00000000
_cell_angle_beta   90.00000000
_cell_angle_gamma   90.00000000
_symmetry_Int_Tables_number   1
_chemical_formula_structural   TbY9(IrRh2)2
_chemical_formula_sum   'Tb2 Y18 Ir4 Rh8'
_cell_volume   768.94818781
_cell_formula_units_Z   2
loop_
 _symmetry_equiv_pos_site_id
 _symmetry_equiv_pos_as_xyz
  1  'x, y, z'
loop_
 _atom_site_type_symbol
 _atom_site_label
 _atom_site_symmetry_multiplicity
 _atom_site_fract_x
 _atom_site_fract_y
 _atom_site_fract_z
 _atom_site_occupancy
  Tb  Tb0  1  0.000000  0.000000  0.500000  1
  Tb  Tb1  1  0.000000  0.000000  0.000000  1
  Y  Y2  1  0.291588  0.090213  0.379232  1
  Y  Y3  1  0.291588  0.909787  0.879232  1
  Y  Y4  1  0.708412  0.090213  0.879232  1
  Y  Y5  1  0.708412  0.909787  0.379232  1
  Y  Y6  1  0.587861  0.789880  0.879983  1
  Y  Y7  1  0.587861  0.210120  0.379983  1
  Y  Y8  1  0.412139  0.789880  0.379983  1
  Y  Y9  1  0.412139  0.210120  0.879983  1
  Y  Y10  1  0.210120  0.412139  0.620017  1
  Y  Y11  1  0.210120  0.587861  0.120017  1
  Y  Y12  1  0.789880  0.412139  0.120017  1
  Y  Y13  1  0.789880  0.587861  0.620017  1
  Y  Y14  1  0.909787  0.708412  0.120768  1
  Y  Y15  1  0.909787  0.291588  0.620768  1
  Y  Y16  1  0.090213  0.708412  0.620768  1
  Y  Y17  1  0.090213  0.291588  0.120768  1
  Y  Y18  1  0.500000  0.500000  0.000000  1
  Y  Y19  1  0.500000  0.500000  0.500000  1
  Ir  Ir20  1  0.654591  0.345409  0.750000  1
  Ir  Ir21  1  0.654591  0.654591  0.250000  1
  Ir  Ir22  1  0.345409  0.345409  0.250000  1
  Ir  Ir23  1  0.345409  0.654591  0.750000  1
  Rh  Rh24  1  0.847014  0.152986  0.250000  1
  Rh  Rh25  1  0.847014  0.847014  0.750000  1
  Rh  Rh26  1  0.152986  0.152986  0.750000  1
  Rh  Rh27  1  0.152986  0.847014  0.250000  1
  Rh  Rh28  1  0.500000  0.000000  0.125810  1
  Rh  Rh29  1  0.500000  0.000000  0.625810  1
  Rh  Rh30  1  0.000000  0.500000  0.874190  1
  Rh  Rh31  1  0.000000  0.500000  0.374190  1
