# generated using pymatgen
data_YTm4(FeB3)2
_symmetry_space_group_name_H-M   'P 1'
_cell_length_a   8.22427125
_cell_length_b   8.22427049
_cell_length_c   8.22426965
_cell_angle_alpha   38.28176968
_cell_angle_beta   38.28177869
_cell_angle_gamma   38.28176101
_symmetry_Int_Tables_number   1
_chemical_formula_structural   YTm4(FeB3)2
_chemical_formula_sum   'Y1 Tm4 Fe2 B6'
_cell_volume   191.75476538
_cell_formula_units_Z   1
loop_
 _symmetry_equiv_pos_site_id
 _symmetry_equiv_pos_as_xyz
  1  'x, y, z'
loop_
 _atom_site_type_symbol
 _atom_site_label
 _atom_site_symmetry_multiplicity
 _atom_site_fract_x
 _atom_site_fract_y
 _atom_site_fract_z
 _atom_site_occupancy
  Y  Y0  1  0.000000  0.000000  0.000000  1
  Tm  Tm1  1  0.582776  0.582776  0.582776  1
  Tm  Tm2  1  0.417224  0.417224  0.417224  1
  Tm  Tm3  1  0.749489  0.749489  0.749489  1
  Tm  Tm4  1  0.250511  0.250511  0.250511  1
  Fe  Fe5  1  0.882309  0.882309  0.882309  1
  Fe  Fe6  1  0.117691  0.117691  0.117691  1
  B  B7  1  0.500000  0.831598  0.168402  1
  B  B8  1  0.168402  0.500000  0.831598  1
  B  B9  1  0.831598  0.168402  0.500000  1
  B  B10  1  0.500000  0.168402  0.831598  1
  B  B11  1  0.831598  0.500000  0.168402  1
  B  B12  1  0.168402  0.831598  0.500000  1
