# generated using pymatgen
data_LiHo16In3Pd4
_symmetry_space_group_name_H-M   'P 1'
_cell_length_a   9.67178584
_cell_length_b   9.67178571
_cell_length_c   9.67178621
_cell_angle_alpha   60.06210008
_cell_angle_beta   60.06210023
_cell_angle_gamma   60.06210474
_symmetry_Int_Tables_number   1
_chemical_formula_structural   LiHo16In3Pd4
_chemical_formula_sum   'Li1 Ho16 In3 Pd4'
_cell_volume   640.64264507
_cell_formula_units_Z   1
loop_
 _symmetry_equiv_pos_site_id
 _symmetry_equiv_pos_as_xyz
  1  'x, y, z'
loop_
 _atom_site_type_symbol
 _atom_site_label
 _atom_site_symmetry_multiplicity
 _atom_site_fract_x
 _atom_site_fract_y
 _atom_site_fract_z
 _atom_site_occupancy
  Li  Li0  1  0.822342  0.822342  0.822342  1
  Ho  Ho1  1  0.186132  0.186132  0.812760  1
  Ho  Ho2  1  0.603400  0.603400  0.189280  1
  Ho  Ho3  1  0.441623  0.059855  0.441623  1
  Ho  Ho4  1  0.441623  0.441623  0.059855  1
  Ho  Ho5  1  0.815852  0.184207  0.815852  1
  Ho  Ho6  1  0.186132  0.812760  0.186132  1
  Ho  Ho7  1  0.438976  0.062491  0.062491  1
  Ho  Ho8  1  0.184207  0.815852  0.815852  1
  Ho  Ho9  1  0.062491  0.438976  0.062491  1
  Ho  Ho10  1  0.815852  0.815852  0.184207  1
  Ho  Ho11  1  0.189280  0.603400  0.603400  1
  Ho  Ho12  1  0.059855  0.441623  0.441623  1
  Ho  Ho13  1  0.062491  0.062491  0.438976  1
  Ho  Ho14  1  0.812760  0.186132  0.186132  1
  Ho  Ho15  1  0.603400  0.189280  0.603400  1
  Ho  Ho16  1  0.602026  0.602026  0.602026  1
  In  In17  1  0.833472  0.833472  0.503684  1
  In  In18  1  0.503684  0.833472  0.833472  1
  In  In19  1  0.833472  0.503684  0.833472  1
  Pd  Pd20  1  0.393691  0.818215  0.393691  1
  Pd  Pd21  1  0.395335  0.395335  0.395335  1
  Pd  Pd22  1  0.818215  0.393691  0.393691  1
  Pd  Pd23  1  0.393691  0.393691  0.818215  1
