# generated using pymatgen
data_Rb2CeY5F20
_symmetry_space_group_name_H-M   'P 1'
_cell_length_a   8.40014834
_cell_length_b   8.40642958
_cell_length_c   8.33600005
_cell_angle_alpha   60.22704907
_cell_angle_beta   60.29405561
_cell_angle_gamma   59.47091790
_symmetry_Int_Tables_number   1
_chemical_formula_structural   Rb2CeY5F20
_chemical_formula_sum   'Rb2 Ce1 Y5 F20'
_cell_volume   416.15972593
_cell_formula_units_Z   1
loop_
 _symmetry_equiv_pos_site_id
 _symmetry_equiv_pos_as_xyz
  1  'x, y, z'
loop_
 _atom_site_type_symbol
 _atom_site_label
 _atom_site_symmetry_multiplicity
 _atom_site_fract_x
 _atom_site_fract_y
 _atom_site_fract_z
 _atom_site_occupancy
  Rb  Rb0  1  0.249229  0.249259  0.250752  1
  Rb  Rb1  1  0.749248  0.749240  0.750771  1
  Ce  Ce2  1  0.757616  0.757662  0.242384  1
  Y  Y3  1  0.759081  0.239236  0.240919  1
  Y  Y4  1  0.239184  0.759057  0.760816  1
  Y  Y5  1  0.239155  0.758927  0.241063  1
  Y  Y6  1  0.758937  0.239146  0.760845  1
  Y  Y7  1  0.240252  0.240277  0.759748  1
  F  F8  1  0.832464  0.491364  0.508602  1
  F  F9  1  0.171278  0.500286  0.499719  1
  F  F10  1  0.491398  0.832430  0.167536  1
  F  F11  1  0.500281  0.171283  0.828722  1
  F  F12  1  0.490786  0.834123  0.509214  1
  F  F13  1  0.171455  0.500270  0.828545  1
  F  F14  1  0.500266  0.171443  0.499734  1
  F  F15  1  0.834106  0.490774  0.165894  1
  F  F16  1  0.500134  0.500080  0.826850  1
  F  F17  1  0.500070  0.500131  0.172936  1
  F  F18  1  0.173150  0.827063  0.499866  1
  F  F19  1  0.827064  0.173137  0.499930  1
  F  F20  1  0.110415  0.110106  0.109789  1
  F  F21  1  0.893182  0.893717  0.879439  1
  F  F22  1  0.110122  0.110410  0.669683  1
  F  F23  1  0.120561  0.666338  0.106818  1
  F  F24  1  0.893722  0.893154  0.333685  1
  F  F25  1  0.890211  0.330310  0.889585  1
  F  F26  1  0.666315  0.120560  0.106278  1
  F  F27  1  0.330317  0.890215  0.889878  1
