# generated using pymatgen
data_Ti6SeS7
_symmetry_space_group_name_H-M   'P 1'
_cell_length_a   9.52591411
_cell_length_b   9.64812515
_cell_length_c   3.39712000
_cell_angle_alpha   90.00000000
_cell_angle_beta   90.00000000
_cell_angle_gamma   120.00421686
_symmetry_Int_Tables_number   1
_chemical_formula_structural   Ti6SeS7
_chemical_formula_sum   'Ti6 Se1 S7'
_cell_volume   270.37881087
_cell_formula_units_Z   1
loop_
 _symmetry_equiv_pos_site_id
 _symmetry_equiv_pos_as_xyz
  1  'x, y, z'
loop_
 _atom_site_type_symbol
 _atom_site_label
 _atom_site_symmetry_multiplicity
 _atom_site_fract_x
 _atom_site_fract_y
 _atom_site_fract_z
 _atom_site_occupancy
  Ti  Ti0  1  0.646551  0.139933  0.249999  1
  Ti  Ti1  1  0.484032  0.353216  0.249999  1
  Ti  Ti2  1  0.867380  0.513470  0.249999  1
  Ti  Ti3  1  0.132977  0.488944  0.750001  1
  Ti  Ti4  1  0.508798  0.637789  0.750001  1
  Ti  Ti5  1  0.353726  0.867805  0.750001  1
  Se  Se6  1  0.656955  0.951560  0.750001  1
  S  S7  1  0.356745  0.049354  0.249999  1
  S  S8  1  0.950497  0.311994  0.249999  1
  S  S9  1  0.689144  0.636709  0.249999  1
  S  S10  1  0.333859  0.667593  0.249999  1
  S  S11  1  0.665705  0.335066  0.750001  1
  S  S12  1  0.303802  0.355276  0.750001  1
  S  S13  1  0.049831  0.691291  0.750001  1
