# generated using pymatgen
data_V12FeSi2Ni
_symmetry_space_group_name_H-M   'P 1'
_cell_length_a   4.68122600
_cell_length_b   4.67215300
_cell_length_c   9.37916600
_cell_angle_alpha   90.00000000
_cell_angle_beta   90.00000000
_cell_angle_gamma   90.00000000
_symmetry_Int_Tables_number   1
_chemical_formula_structural   V12FeSi2Ni
_chemical_formula_sum   'V12 Fe1 Si2 Ni1'
_cell_volume   205.13552970
_cell_formula_units_Z   1
loop_
 _symmetry_equiv_pos_site_id
 _symmetry_equiv_pos_as_xyz
  1  'x, y, z'
loop_
 _atom_site_type_symbol
 _atom_site_label
 _atom_site_symmetry_multiplicity
 _atom_site_fract_x
 _atom_site_fract_y
 _atom_site_fract_z
 _atom_site_occupancy
  V  V0  1  0.000000  0.500000  0.117512  1
  V  V1  1  0.000000  0.500000  0.634606  1
  V  V2  1  0.500000  0.245965  0.749766  1
  V  V3  1  0.500000  0.251427  0.249628  1
  V  V4  1  0.749289  0.000000  0.997663  1
  V  V5  1  0.753350  0.000000  0.502131  1
  V  V6  1  0.000000  0.500000  0.873529  1
  V  V7  1  0.000000  0.500000  0.375544  1
  V  V8  1  0.500000  0.754035  0.749766  1
  V  V9  1  0.500000  0.748573  0.249628  1
  V  V10  1  0.250711  0.000000  0.997663  1
  V  V11  1  0.246650  0.000000  0.502131  1
  Fe  Fe12  1  0.000000  0.000000  0.753090  1
  Si  Si13  1  0.500000  0.500000  0.499485  1
  Si  Si14  1  0.000000  0.000000  0.249840  1
  Ni  Ni15  1  0.500000  0.500000  0.998020  1
