# generated using pymatgen
data_La7(YbIr2)3
_symmetry_space_group_name_H-M   'P 1'
_cell_length_a   11.31340491
_cell_length_b   11.36830300
_cell_length_c   6.51038721
_cell_angle_alpha   90.00000000
_cell_angle_beta   90.60311636
_cell_angle_gamma   90.00000000
_symmetry_Int_Tables_number   1
_chemical_formula_structural   La7(YbIr2)3
_chemical_formula_sum   'La14 Yb6 Ir12'
_cell_volume   837.28195033
_cell_formula_units_Z   2
loop_
 _symmetry_equiv_pos_site_id
 _symmetry_equiv_pos_as_xyz
  1  'x, y, z'
loop_
 _atom_site_type_symbol
 _atom_site_label
 _atom_site_symmetry_multiplicity
 _atom_site_fract_x
 _atom_site_fract_y
 _atom_site_fract_z
 _atom_site_occupancy
  La  La0  1  0.711833  0.088846  0.893672  1
  La  La1  1  0.711833  0.911154  0.393672  1
  La  La2  1  0.583380  0.788710  0.888408  1
  La  La3  1  0.583380  0.211290  0.388408  1
  La  La4  1  0.404774  0.794300  0.388680  1
  La  La5  1  0.404774  0.205700  0.888680  1
  La  La6  1  0.213904  0.408805  0.612249  1
  La  La7  1  0.213904  0.591195  0.112249  1
  La  La8  1  0.787897  0.409595  0.110268  1
  La  La9  1  0.787897  0.590405  0.610268  1
  La  La10  1  0.910035  0.713090  0.113874  1
  La  La11  1  0.910035  0.286910  0.613874  1
  La  La12  1  0.092634  0.714354  0.613661  1
  La  La13  1  0.092634  0.285646  0.113661  1
  Yb  Yb14  1  0.290331  0.085595  0.384368  1
  Yb  Yb15  1  0.290331  0.914405  0.884368  1
  Yb  Yb16  1  0.004862  0.001188  0.497966  1
  Yb  Yb17  1  0.004862  0.998812  0.997966  1
  Yb  Yb18  1  0.498568  0.498087  0.995941  1
  Yb  Yb19  1  0.498568  0.501913  0.495941  1
  Ir  Ir20  1  0.847703  0.156289  0.249225  1
  Ir  Ir21  1  0.847703  0.843711  0.749225  1
  Ir  Ir22  1  0.152308  0.160989  0.750383  1
  Ir  Ir23  1  0.152308  0.839011  0.250383  1
  Ir  Ir24  1  0.654152  0.342640  0.749417  1
  Ir  Ir25  1  0.654152  0.657360  0.249417  1
  Ir  Ir26  1  0.344113  0.346374  0.245171  1
  Ir  Ir27  1  0.344113  0.653626  0.745171  1
  Ir  Ir28  1  0.502646  0.000399  0.124169  1
  Ir  Ir29  1  0.502646  0.999601  0.624169  1
  Ir  Ir30  1  0.000860  0.500516  0.882547  1
  Ir  Ir31  1  0.000860  0.499484  0.382547  1
