# generated using pymatgen
data_Pr(SiTc2)2
_symmetry_space_group_name_H-M   'P 1'
_cell_length_a   7.33233221
_cell_length_b   7.33233152
_cell_length_c   4.10981900
_cell_angle_alpha   90.00000000
_cell_angle_beta   90.00000000
_cell_angle_gamma   147.30315387
_symmetry_Int_Tables_number   1
_chemical_formula_structural   Pr(SiTc2)2
_chemical_formula_sum   'Pr1 Si2 Tc4'
_cell_volume   119.35941361
_cell_formula_units_Z   1
loop_
 _symmetry_equiv_pos_site_id
 _symmetry_equiv_pos_as_xyz
  1  'x, y, z'
loop_
 _atom_site_type_symbol
 _atom_site_label
 _atom_site_symmetry_multiplicity
 _atom_site_fract_x
 _atom_site_fract_y
 _atom_site_fract_z
 _atom_site_occupancy
  Pr  Pr0  1  0.000000  0.000000  0.000000  1
  Si  Si1  1  0.590738  0.409262  0.500000  1
  Si  Si2  1  0.409262  0.590738  0.500000  1
  Tc  Tc3  1  0.810842  0.189158  0.500000  1
  Tc  Tc4  1  0.189158  0.810842  0.500000  1
  Tc  Tc5  1  0.695520  0.304480  0.000000  1
  Tc  Tc6  1  0.304480  0.695520  0.000000  1
