# generated using pymatgen
data_LiLaCdPt3
_symmetry_space_group_name_H-M   'P 1'
_cell_length_a   5.29677489
_cell_length_b   5.29677431
_cell_length_c   5.29677506
_cell_angle_alpha   63.01027335
_cell_angle_beta   63.01026330
_cell_angle_gamma   63.01027270
_symmetry_Int_Tables_number   1
_chemical_formula_structural   LiLaCdPt3
_chemical_formula_sum   'Li1 La1 Cd1 Pt3'
_cell_volume   112.10175097
_cell_formula_units_Z   1
loop_
 _symmetry_equiv_pos_site_id
 _symmetry_equiv_pos_as_xyz
  1  'x, y, z'
loop_
 _atom_site_type_symbol
 _atom_site_label
 _atom_site_symmetry_multiplicity
 _atom_site_fract_x
 _atom_site_fract_y
 _atom_site_fract_z
 _atom_site_occupancy
  Li  Li0  1  0.627618  0.627618  0.627618  1
  La  La1  1  0.246903  0.246903  0.246903  1
  Cd  Cd2  1  0.996547  0.996547  0.996547  1
  Pt  Pt3  1  0.627119  0.627119  0.124696  1
  Pt  Pt4  1  0.627119  0.124696  0.627119  1
  Pt  Pt5  1  0.124696  0.627119  0.627119  1
