# generated using pymatgen
data_Tb11YGaCo6
_symmetry_space_group_name_H-M   'P 1'
_cell_length_a   8.34683559
_cell_length_b   8.34790601
_cell_length_c   8.34790742
_cell_angle_alpha   109.52646154
_cell_angle_beta   109.41347698
_cell_angle_gamma   109.47894486
_symmetry_Int_Tables_number   1
_chemical_formula_structural   Tb11YGaCo6
_chemical_formula_sum   'Tb11 Y1 Ga1 Co6'
_cell_volume   447.74096912
_cell_formula_units_Z   1
loop_
 _symmetry_equiv_pos_site_id
 _symmetry_equiv_pos_as_xyz
  1  'x, y, z'
loop_
 _atom_site_type_symbol
 _atom_site_label
 _atom_site_symmetry_multiplicity
 _atom_site_fract_x
 _atom_site_fract_y
 _atom_site_fract_z
 _atom_site_occupancy
  Tb  Tb0  1  0.806771  0.699711  0.506589  1
  Tb  Tb1  1  0.193128  0.300200  0.493500  1
  Tb  Tb2  1  0.193128  0.699629  0.892928  1
  Tb  Tb3  1  0.806771  0.300181  0.107060  1
  Tb  Tb4  1  0.699852  0.506620  0.806841  1
  Tb  Tb5  1  0.300108  0.493191  0.193166  1
  Tb  Tb6  1  0.699852  0.893012  0.193232  1
  Tb  Tb7  1  0.300108  0.106942  0.806917  1
  Tb  Tb8  1  0.506758  0.806886  0.699871  1
  Tb  Tb9  1  0.493562  0.193205  0.300357  1
  Tb  Tb10  1  0.106888  0.806765  0.300123  1
  Y  Y11  1  0.893902  0.193247  0.700655  1
  Ga  Ga12  1  0.999874  0.000160  0.999714  1
  Co  Co13  1  0.886165  0.386696  0.499470  1
  Co  Co14  1  0.113844  0.613791  0.500053  1
  Co  Co15  1  0.386079  0.499782  0.886297  1
  Co  Co16  1  0.613698  0.500072  0.113626  1
  Co  Co17  1  0.499756  0.886244  0.386090  1
  Co  Co18  1  0.499756  0.113666  0.613512  1
