# generated using pymatgen
data_Tm8Cd2CoRu
_symmetry_space_group_name_H-M   'P 1'
_cell_length_a   9.50284006
_cell_length_b   9.43171485
_cell_length_c   9.43171999
_cell_angle_alpha   59.51844872
_cell_angle_beta   59.75020961
_cell_angle_gamma   59.75027331
_symmetry_Int_Tables_number   1
_chemical_formula_structural   Tm8Cd2CoRu
_chemical_formula_sum   'Tm16 Cd4 Co2 Ru2'
_cell_volume   593.30301849
_cell_formula_units_Z   2
loop_
 _symmetry_equiv_pos_site_id
 _symmetry_equiv_pos_as_xyz
  1  'x, y, z'
loop_
 _atom_site_type_symbol
 _atom_site_label
 _atom_site_symmetry_multiplicity
 _atom_site_fract_x
 _atom_site_fract_y
 _atom_site_fract_z
 _atom_site_occupancy
  Tm  Tm0  1  0.439433  0.437299  0.057505  1
  Tm  Tm1  1  0.590181  0.598551  0.598552  1
  Tm  Tm2  1  0.187111  0.812889  0.812889  1
  Tm  Tm3  1  0.065762  0.057505  0.437299  1
  Tm  Tm4  1  0.439072  0.060928  0.060928  1
  Tm  Tm5  1  0.813897  0.188527  0.809179  1
  Tm  Tm6  1  0.439432  0.057505  0.437301  1
  Tm  Tm7  1  0.593636  0.210490  0.602237  1
  Tm  Tm8  1  0.813897  0.809181  0.188525  1
  Tm  Tm9  1  0.212716  0.598552  0.598551  1
  Tm  Tm10  1  0.809167  0.190833  0.190833  1
  Tm  Tm11  1  0.061512  0.438488  0.438488  1
  Tm  Tm12  1  0.188397  0.809179  0.188527  1
  Tm  Tm13  1  0.593637  0.602237  0.210490  1
  Tm  Tm14  1  0.188397  0.188525  0.809181  1
  Tm  Tm15  1  0.065763  0.437301  0.057505  1
  Cd  Cd16  1  0.831171  0.829785  0.507872  1
  Cd  Cd17  1  0.831311  0.830136  0.830136  1
  Cd  Cd18  1  0.508415  0.830136  0.830136  1
  Cd  Cd19  1  0.831171  0.507872  0.829785  1
  Co  Co20  1  0.388784  0.829528  0.392905  1
  Co  Co21  1  0.388783  0.392905  0.829528  1
  Ru  Ru22  1  0.389057  0.390825  0.390825  1
  Ru  Ru23  1  0.829295  0.390825  0.390825  1
