# generated using pymatgen
data_Zr3Ti3Ge2As
_symmetry_space_group_name_H-M   'P 1'
_cell_length_a   7.06364600
_cell_length_b   7.06364574
_cell_length_c   3.79812200
_cell_angle_alpha   90.00000000
_cell_angle_beta   90.00000000
_cell_angle_gamma   120.00001059
_symmetry_Int_Tables_number   1
_chemical_formula_structural   Zr3Ti3Ge2As
_chemical_formula_sum   'Zr3 Ti3 Ge2 As1'
_cell_volume   164.11842184
_cell_formula_units_Z   1
loop_
 _symmetry_equiv_pos_site_id
 _symmetry_equiv_pos_as_xyz
  1  'x, y, z'
loop_
 _atom_site_type_symbol
 _atom_site_label
 _atom_site_symmetry_multiplicity
 _atom_site_fract_x
 _atom_site_fract_y
 _atom_site_fract_z
 _atom_site_occupancy
  Zr  Zr0  1  0.407808  0.407660  0.500000  1
  Zr  Zr1  1  0.592340  0.000148  0.500000  1
  Zr  Zr2  1  0.999852  0.592192  0.500000  1
  Ti  Ti3  1  0.000515  0.247302  0.000000  1
  Ti  Ti4  1  0.246787  0.999485  0.000000  1
  Ti  Ti5  1  0.752698  0.753213  0.000000  1
  Ge  Ge6  1  0.000000  0.000000  0.500000  1
  Ge  Ge7  1  0.333333  0.666667  0.000000  1
  As  As8  1  0.666667  0.333333  0.000000  1
