# generated using pymatgen
data_PrSi4(IrRu)3
_symmetry_space_group_name_H-M   'P 1'
_cell_length_a   7.04386700
_cell_length_b   7.04386696
_cell_length_c   3.86788200
_cell_angle_alpha   90.00000000
_cell_angle_beta   90.00000000
_cell_angle_gamma   119.99999551
_symmetry_Int_Tables_number   1
_chemical_formula_structural   PrSi4(IrRu)3
_chemical_formula_sum   'Pr1 Si4 Ir3 Ru3'
_cell_volume   166.19814005
_cell_formula_units_Z   1
loop_
 _symmetry_equiv_pos_site_id
 _symmetry_equiv_pos_as_xyz
  1  'x, y, z'
loop_
 _atom_site_type_symbol
 _atom_site_label
 _atom_site_symmetry_multiplicity
 _atom_site_fract_x
 _atom_site_fract_y
 _atom_site_fract_z
 _atom_site_occupancy
  Pr  Pr0  1  0.000000  0.000000  0.000000  1
  Si  Si1  1  0.333333  0.666667  0.000000  1
  Si  Si2  1  0.799522  0.200478  0.500000  1
  Si  Si3  1  0.799522  0.599045  0.500000  1
  Si  Si4  1  0.400955  0.200478  0.500000  1
  Ir  Ir5  1  0.200432  0.799568  0.500000  1
  Ir  Ir6  1  0.200432  0.400863  0.500000  1
  Ir  Ir7  1  0.599137  0.799568  0.500000  1
  Ru  Ru8  1  0.535311  0.464689  0.000000  1
  Ru  Ru9  1  0.535311  0.070621  0.000000  1
  Ru  Ru10  1  0.929379  0.464689  0.000000  1
