# generated using pymatgen
data_Li16Ca6Hg7
_symmetry_space_group_name_H-M   'P 1'
_cell_length_a   9.69144400
_cell_length_b   9.69144345
_cell_length_c   9.69144400
_cell_angle_alpha   120.00000186
_cell_angle_beta   90.00000000
_cell_angle_gamma   120.00000186
_symmetry_Int_Tables_number   1
_chemical_formula_structural   Li16Ca6Hg7
_chemical_formula_sum   'Li16 Ca6 Hg7'
_cell_volume   643.65096561
_cell_formula_units_Z   1
loop_
 _symmetry_equiv_pos_site_id
 _symmetry_equiv_pos_as_xyz
  1  'x, y, z'
loop_
 _atom_site_type_symbol
 _atom_site_label
 _atom_site_symmetry_multiplicity
 _atom_site_fract_x
 _atom_site_fract_y
 _atom_site_fract_z
 _atom_site_occupancy
  Li  Li0  1  0.379709  0.759417  0.139126  1
  Li  Li1  1  0.826238  0.652475  0.173763  1
  Li  Li2  1  0.521287  0.347526  0.173763  1
  Li  Li3  1  0.826238  0.347526  0.173763  1
  Li  Li4  1  0.139126  0.759417  0.379709  1
  Li  Li5  1  0.620291  0.759417  0.379709  1
  Li  Li6  1  0.620291  0.240582  0.379709  1
  Li  Li7  1  0.826238  0.652475  0.478713  1
  Li  Li8  1  0.173763  0.347526  0.521287  1
  Li  Li9  1  0.379709  0.759417  0.620291  1
  Li  Li10  1  0.379709  0.240582  0.620291  1
  Li  Li11  1  0.860874  0.240582  0.620291  1
  Li  Li12  1  0.173763  0.652475  0.826238  1
  Li  Li13  1  0.478713  0.652475  0.826238  1
  Li  Li14  1  0.173763  0.347526  0.826238  1
  Li  Li15  1  0.620291  0.240582  0.860874  1
  Ca  Ca16  1  0.791180  0.000000  0.208819  1
  Ca  Ca17  1  0.208820  0.417642  0.208820  1
  Ca  Ca18  1  0.208820  0.000000  0.208820  1
  Ca  Ca19  1  0.791180  0.000000  0.791180  1
  Ca  Ca20  1  0.208819  0.000000  0.791180  1
  Ca  Ca21  1  0.791180  0.582359  0.791180  1
  Hg  Hg22  1  0.500000  0.000000  0.000000  1
  Hg  Hg23  1  0.000000  0.500000  0.000000  1
  Hg  Hg24  1  0.500000  0.500000  0.000000  1
  Hg  Hg25  1  0.500000  0.000000  0.500000  1
  Hg  Hg26  1  0.000000  0.000000  0.500000  1
  Hg  Hg27  1  0.000000  0.500000  0.500000  1
  Hg  Hg28  1  0.500000  0.500000  0.500000  1
