# generated using pymatgen
data_Nd8Er9Lu3Pt16
_symmetry_space_group_name_H-M   'P 1'
_cell_length_a   7.61222200
_cell_length_b   7.70067989
_cell_length_c   14.97768700
_cell_angle_alpha   90.00000000
_cell_angle_beta   90.00000000
_cell_angle_gamma   89.97253021
_symmetry_Int_Tables_number   1
_chemical_formula_structural   Nd8Er9Lu3Pt16
_chemical_formula_sum   'Nd8 Er9 Lu3 Pt16'
_cell_volume   877.98119953
_cell_formula_units_Z   1
loop_
 _symmetry_equiv_pos_site_id
 _symmetry_equiv_pos_as_xyz
  1  'x, y, z'
loop_
 _atom_site_type_symbol
 _atom_site_label
 _atom_site_symmetry_multiplicity
 _atom_site_fract_x
 _atom_site_fract_y
 _atom_site_fract_z
 _atom_site_occupancy
  Nd  Nd0  1  0.501468  0.678115  0.595330  1
  Nd  Nd1  1  0.003075  0.823012  0.904435  1
  Nd  Nd2  1  0.498220  0.322765  0.096273  1
  Nd  Nd3  1  0.997932  0.177652  0.403903  1
  Nd  Nd4  1  0.498220  0.322765  0.403727  1
  Nd  Nd5  1  0.997932  0.177652  0.096097  1
  Nd  Nd6  1  0.501468  0.678115  0.904670  1
  Nd  Nd7  1  0.003075  0.823012  0.595565  1
  Er  Er8  1  0.655354  0.167804  0.622818  1
  Er  Er9  1  0.156058  0.331060  0.877129  1
  Er  Er10  1  0.344360  0.831458  0.123630  1
  Er  Er11  1  0.844378  0.668117  0.376644  1
  Er  Er12  1  0.344360  0.831458  0.376370  1
  Er  Er13  1  0.844378  0.668117  0.123356  1
  Er  Er14  1  0.655354  0.167804  0.877182  1
  Er  Er15  1  0.156058  0.331060  0.622871  1
  Er  Er16  1  0.819663  0.509174  0.750000  1
  Lu  Lu17  1  0.319793  0.991610  0.750000  1
  Lu  Lu18  1  0.180164  0.491669  0.250000  1
  Lu  Lu19  1  0.680321  0.008654  0.250000  1
  Pt  Pt20  1  0.677124  0.965463  0.455103  1
  Pt  Pt21  1  0.177248  0.534428  0.044491  1
  Pt  Pt22  1  0.322622  0.034465  0.956142  1
  Pt  Pt23  1  0.822444  0.465473  0.544015  1
  Pt  Pt24  1  0.322622  0.034465  0.543858  1
  Pt  Pt25  1  0.822444  0.465473  0.955985  1
  Pt  Pt26  1  0.677124  0.965463  0.044897  1
  Pt  Pt27  1  0.177248  0.534428  0.455509  1
  Pt  Pt28  1  0.451316  0.373420  0.750000  1
  Pt  Pt29  1  0.953284  0.124033  0.750000  1
  Pt  Pt30  1  0.547103  0.624209  0.250000  1
  Pt  Pt31  1  0.047005  0.875023  0.250000  1
  Pt  Pt32  1  0.682472  0.864855  0.750000  1
  Pt  Pt33  1  0.185986  0.637638  0.750000  1
  Pt  Pt34  1  0.315785  0.137097  0.250000  1
  Pt  Pt35  1  0.816542  0.362995  0.250000  1
