# generated using pymatgen
data_Cs11RbIn2(FeSe6)2
_symmetry_space_group_name_H-M   'P 1'
_cell_length_a   11.23677891
_cell_length_b   11.23782217
_cell_length_c   14.31960084
_cell_angle_alpha   89.86227605
_cell_angle_beta   89.92743986
_cell_angle_gamma   140.05668091
_symmetry_Int_Tables_number   1
_chemical_formula_structural   Cs11RbIn2(FeSe6)2
_chemical_formula_sum   'Cs11 Rb1 In2 Fe2 Se12'
_cell_volume   1160.92327983
_cell_formula_units_Z   1
loop_
 _symmetry_equiv_pos_site_id
 _symmetry_equiv_pos_as_xyz
  1  'x, y, z'
loop_
 _atom_site_type_symbol
 _atom_site_label
 _atom_site_symmetry_multiplicity
 _atom_site_fract_x
 _atom_site_fract_y
 _atom_site_fract_z
 _atom_site_occupancy
  Cs  Cs0  1  0.143476  0.142599  0.327218  1
  Cs  Cs1  1  0.644096  0.643107  0.169404  1
  Cs  Cs2  1  0.358150  0.357372  0.825222  1
  Cs  Cs3  1  0.162158  0.520721  0.127672  1
  Cs  Cs4  1  0.481881  0.836470  0.874016  1
  Cs  Cs5  1  0.976939  0.335513  0.629202  1
  Cs  Cs6  1  0.663859  0.019015  0.373823  1
  Cs  Cs7  1  0.836517  0.487530  0.873512  1
  Cs  Cs8  1  0.514961  0.162071  0.128347  1
  Cs  Cs9  1  0.013288  0.663552  0.373479  1
  Cs  Cs10  1  0.336311  0.983094  0.629720  1
  Rb  Rb11  1  0.848808  0.848010  0.663870  1
  In  In12  1  0.921782  0.083885  0.998637  1
  In  In13  1  0.415297  0.576597  0.501461  1
  Fe  Fe14  1  0.085594  0.921797  0.998687  1
  Fe  Fe15  1  0.576850  0.414487  0.501573  1
  Se  Se16  1  0.286988  0.274575  0.573711  1
  Se  Se17  1  0.711098  0.698597  0.425694  1
  Se  Se18  1  0.217178  0.204328  0.073363  1
  Se  Se19  1  0.808531  0.795991  0.918031  1
  Se  Se20  1  0.691657  0.990963  0.122526  1
  Se  Se21  1  0.013286  0.318018  0.879308  1
  Se  Se22  1  0.512973  0.807667  0.625062  1
  Se  Se23  1  0.188447  0.491450  0.379501  1
  Se  Se24  1  0.298209  0.002342  0.888236  1
  Se  Se25  1  0.001873  0.711197  0.113307  1
  Se  Se26  1  0.502601  0.208396  0.389102  1
  Se  Se27  1  0.787192  0.500659  0.616314  1
