# generated using pymatgen
data_Tb12InGa(CoOs)2
_symmetry_space_group_name_H-M   'P 1'
_cell_length_a   8.42062814
_cell_length_b   8.42058136
_cell_length_c   8.42062901
_cell_angle_alpha   112.75087692
_cell_angle_beta   110.29524603
_cell_angle_gamma   105.45140474
_symmetry_Int_Tables_number   1
_chemical_formula_structural   Tb12InGa(CoOs)2
_chemical_formula_sum   'Tb12 In1 Ga1 Co2 Os2'
_cell_volume   457.72118540
_cell_formula_units_Z   1
loop_
 _symmetry_equiv_pos_site_id
 _symmetry_equiv_pos_as_xyz
  1  'x, y, z'
loop_
 _atom_site_type_symbol
 _atom_site_label
 _atom_site_symmetry_multiplicity
 _atom_site_fract_x
 _atom_site_fract_y
 _atom_site_fract_z
 _atom_site_occupancy
  Tb  Tb0  1  0.045627  0.740204  0.305406  1
  Tb  Tb1  1  0.954373  0.259796  0.694594  1
  Tb  Tb2  1  0.565202  0.259796  0.305424  1
  Tb  Tb3  1  0.434798  0.740204  0.694576  1
  Tb  Tb4  1  0.674861  0.857318  0.182458  1
  Tb  Tb5  1  0.325138  0.507586  0.182448  1
  Tb  Tb6  1  0.325139  0.142682  0.817542  1
  Tb  Tb7  1  0.674862  0.492414  0.817552  1
  Tb  Tb8  1  0.179602  0.220806  0.400421  1
  Tb  Tb9  1  0.820384  0.220806  0.041204  1
  Tb  Tb10  1  0.179616  0.779194  0.958796  1
  Tb  Tb11  1  0.820398  0.779194  0.599579  1
  In  In12  1  0.500000  0.000000  0.500000  1
  Ga  Ga13  1  0.000000  0.500000  0.500000  1
  Co  Co14  1  0.889302  0.889307  0.000005  1
  Co  Co15  1  0.110698  0.110693  0.999995  1
  Os  Os16  1  0.671866  0.500000  0.171866  1
  Os  Os17  1  0.328134  0.500000  0.828134  1
