# generated using pymatgen
data_Dy4Ho(Th3Ru2)3
_symmetry_space_group_name_H-M   'P 1'
_cell_length_a   9.77379219
_cell_length_b   9.90958272
_cell_length_c   6.35794679
_cell_angle_alpha   90.15323018
_cell_angle_beta   90.17560284
_cell_angle_gamma   120.56267613
_symmetry_Int_Tables_number   1
_chemical_formula_structural   Dy4Ho(Th3Ru2)3
_chemical_formula_sum   'Dy4 Ho1 Th9 Ru6'
_cell_volume   530.23484747
_cell_formula_units_Z   1
loop_
 _symmetry_equiv_pos_site_id
 _symmetry_equiv_pos_as_xyz
  1  'x, y, z'
loop_
 _atom_site_type_symbol
 _atom_site_label
 _atom_site_symmetry_multiplicity
 _atom_site_fract_x
 _atom_site_fract_y
 _atom_site_fract_z
 _atom_site_occupancy
  Dy  Dy0  1  0.460092  0.536492  0.298533  1
  Dy  Dy1  1  0.073183  0.535180  0.301254  1
  Dy  Dy2  1  0.924020  0.460114  0.798922  1
  Dy  Dy3  1  0.251314  0.125436  0.508797  1
  Ho  Ho4  1  0.541122  0.078685  0.794858  1
  Th  Th5  1  0.748186  0.876116  0.011946  1
  Th  Th6  1  0.666224  0.332002  0.271375  1
  Th  Th7  1  0.127794  0.873328  0.004927  1
  Th  Th8  1  0.459243  0.922618  0.301326  1
  Th  Th9  1  0.537164  0.460775  0.797101  1
  Th  Th10  1  0.879547  0.131872  0.513280  1
  Th  Th11  1  0.125346  0.250532  0.011452  1
  Th  Th12  1  0.876194  0.747897  0.507839  1
  Th  Th13  1  0.333053  0.666617  0.771086  1
  Ru  Ru14  1  0.809618  0.629934  0.046578  1
  Ru  Ru15  1  0.818250  0.181267  0.051586  1
  Ru  Ru16  1  0.632565  0.819894  0.542926  1
  Ru  Ru17  1  0.371716  0.189626  0.040925  1
  Ru  Ru18  1  0.182299  0.374281  0.559735  1
  Ru  Ru19  1  0.183071  0.807334  0.549551  1
