# generated using pymatgen
data_Er8TaRe9(Si8Ru)2
_symmetry_space_group_name_H-M   'P 1'
_cell_length_a   6.73531894
_cell_length_b   6.73842433
_cell_length_c   12.92010973
_cell_angle_alpha   89.75181840
_cell_angle_beta   89.61195055
_cell_angle_gamma   89.86224169
_symmetry_Int_Tables_number   1
_chemical_formula_structural   Er8TaRe9(Si8Ru)2
_chemical_formula_sum   'Er8 Ta1 Re9 Si16 Ru2'
_cell_volume   586.36422321
_cell_formula_units_Z   1
loop_
 _symmetry_equiv_pos_site_id
 _symmetry_equiv_pos_as_xyz
  1  'x, y, z'
loop_
 _atom_site_type_symbol
 _atom_site_label
 _atom_site_symmetry_multiplicity
 _atom_site_fract_x
 _atom_site_fract_y
 _atom_site_fract_z
 _atom_site_occupancy
  Er  Er0  1  0.339807  0.995819  0.470727  1
  Er  Er1  1  0.513131  0.820917  0.717609  1
  Er  Er2  1  0.482550  0.179350  0.215960  1
  Er  Er3  1  0.821826  0.517279  0.283126  1
  Er  Er4  1  0.180110  0.484768  0.783144  1
  Er  Er5  1  0.661438  0.999054  0.975507  1
  Er  Er6  1  0.003304  0.336093  0.526948  1
  Er  Er7  1  0.003845  0.660740  0.027444  1
  Ta  Ta8  1  0.844245  0.156338  0.750809  1
  Re  Re9  1  0.336637  0.330374  0.998857  1
  Re  Re10  1  0.182092  0.974367  0.869133  1
  Re  Re11  1  0.491678  0.690492  0.129116  1
  Re  Re12  1  0.528033  0.303211  0.634067  1
  Re  Re13  1  0.696463  0.475267  0.866782  1
  Re  Re14  1  0.313767  0.511407  0.369705  1
  Re  Re15  1  0.796664  0.030482  0.365089  1
  Re  Re16  1  0.966338  0.203721  0.136516  1
  Re  Re17  1  0.028722  0.811631  0.629812  1
  Si  Si18  1  0.214092  0.116147  0.680877  1
  Si  Si19  1  0.398550  0.682365  0.938348  1
  Si  Si20  1  0.599527  0.315188  0.441318  1
  Si  Si21  1  0.684381  0.401896  0.059835  1
  Si  Si22  1  0.320074  0.599045  0.560214  1
  Si  Si23  1  0.794978  0.891345  0.182062  1
  Si  Si24  1  0.108723  0.204929  0.318259  1
  Si  Si25  1  0.882650  0.785080  0.817940  1
  Si  Si26  1  0.257431  0.984244  0.062335  1
  Si  Si27  1  0.511771  0.801429  0.309084  1
  Si  Si28  1  0.468806  0.192854  0.819567  1
  Si  Si29  1  0.807135  0.529743  0.682033  1
  Si  Si30  1  0.200330  0.486586  0.188514  1
  Si  Si31  1  0.737874  0.012535  0.555249  1
  Si  Si32  1  0.985021  0.263823  0.945526  1
  Si  Si33  1  0.017417  0.739708  0.438195  1
  Ru  Ru34  1  0.148511  0.851173  0.248284  1
  Ru  Ru35  1  0.672080  0.660606  0.502010  1
