# generated using pymatgen
data_Pu8Si12IrPdRh2
_symmetry_space_group_name_H-M   'P 1'
_cell_length_a   8.16898300
_cell_length_b   8.16898342
_cell_length_c   7.87317900
_cell_angle_alpha   90.00000000
_cell_angle_beta   90.00000000
_cell_angle_gamma   120.00000234
_symmetry_Int_Tables_number   1
_chemical_formula_structural   Pu8Si12IrPdRh2
_chemical_formula_sum   'Pu8 Si12 Ir1 Pd1 Rh2'
_cell_volume   455.00561267
_cell_formula_units_Z   1
loop_
 _symmetry_equiv_pos_site_id
 _symmetry_equiv_pos_as_xyz
  1  'x, y, z'
loop_
 _atom_site_type_symbol
 _atom_site_label
 _atom_site_symmetry_multiplicity
 _atom_site_fract_x
 _atom_site_fract_y
 _atom_site_fract_z
 _atom_site_occupancy
  Pu  Pu0  1  0.000000  0.000000  0.250084  1
  Pu  Pu1  1  0.000000  0.000000  0.751077  1
  Pu  Pu2  1  0.508930  0.491070  0.247309  1
  Pu  Pu3  1  0.508930  0.017859  0.247309  1
  Pu  Pu4  1  0.982141  0.491070  0.247309  1
  Pu  Pu5  1  0.499254  0.500746  0.751292  1
  Pu  Pu6  1  0.499254  0.998509  0.751292  1
  Pu  Pu7  1  0.001491  0.500746  0.751292  1
  Si  Si8  1  0.164819  0.835181  0.504192  1
  Si  Si9  1  0.164819  0.329636  0.504192  1
  Si  Si10  1  0.670364  0.835181  0.504192  1
  Si  Si11  1  0.836335  0.163665  0.497905  1
  Si  Si12  1  0.836335  0.672673  0.497905  1
  Si  Si13  1  0.327327  0.163665  0.497905  1
  Si  Si14  1  0.836531  0.163469  0.001449  1
  Si  Si15  1  0.836531  0.673063  0.001449  1
  Si  Si16  1  0.326937  0.163469  0.001449  1
  Si  Si17  1  0.166278  0.833722  0.997193  1
  Si  Si18  1  0.166278  0.332554  0.997193  1
  Si  Si19  1  0.667446  0.833722  0.997193  1
  Ir  Ir20  1  0.666667  0.333333  0.512755  1
  Pd  Pd21  1  0.333333  0.666667  0.474922  1
  Rh  Rh22  1  0.666667  0.333333  0.980675  1
  Rh  Rh23  1  0.333333  0.666667  0.032466  1
