# generated using pymatgen
data_ErTmGaB2Rh5
_symmetry_space_group_name_H-M   'P 1'
_cell_length_a   9.44129800
_cell_length_b   9.44120600
_cell_length_c   3.19686500
_cell_angle_alpha   90.00000000
_cell_angle_beta   90.00000000
_cell_angle_gamma   90.00000000
_symmetry_Int_Tables_number   1
_chemical_formula_structural   ErTmGaB2Rh5
_chemical_formula_sum   'Er2 Tm2 Ga2 B4 Rh10'
_cell_volume   284.95972060
_cell_formula_units_Z   2
loop_
 _symmetry_equiv_pos_site_id
 _symmetry_equiv_pos_as_xyz
  1  'x, y, z'
loop_
 _atom_site_type_symbol
 _atom_site_label
 _atom_site_symmetry_multiplicity
 _atom_site_fract_x
 _atom_site_fract_y
 _atom_site_fract_z
 _atom_site_occupancy
  Er  Er0  1  0.825453  0.325450  0.000000  1
  Er  Er1  1  0.325453  0.174550  0.000000  1
  Tm  Tm2  1  0.674533  0.825459  0.000000  1
  Tm  Tm3  1  0.174533  0.674541  0.000000  1
  Ga  Ga4  1  0.000005  0.999993  0.000000  1
  Ga  Ga5  1  0.500005  0.500007  0.000000  1
  B  B6  1  0.622886  0.122802  0.000000  1
  B  B7  1  0.122886  0.377198  0.000000  1
  B  B8  1  0.877106  0.622978  0.000000  1
  B  B9  1  0.377106  0.877022  0.000000  1
  Rh  Rh10  1  0.070778  0.218308  0.500000  1
  Rh  Rh11  1  0.218249  0.929002  0.500000  1
  Rh  Rh12  1  0.781641  0.070608  0.500000  1
  Rh  Rh13  1  0.929174  0.781699  0.500000  1
  Rh  Rh14  1  0.429174  0.718301  0.500000  1
  Rh  Rh15  1  0.570778  0.281692  0.500000  1
  Rh  Rh16  1  0.718249  0.570998  0.500000  1
  Rh  Rh17  1  0.281641  0.429392  0.500000  1
  Rh  Rh18  1  0.500175  0.999830  0.500000  1
  Rh  Rh19  1  0.000175  0.500170  0.500000  1
