# generated using pymatgen
data_Rb3Na2SiP3
_symmetry_space_group_name_H-M   'P 1'
_cell_length_a   10.45004648
_cell_length_b   10.45004602
_cell_length_c   15.29992100
_cell_angle_alpha   90.00000000
_cell_angle_beta   90.00000000
_cell_angle_gamma   142.45282238
_symmetry_Int_Tables_number   1
_chemical_formula_structural   Rb3Na2SiP3
_chemical_formula_sum   'Rb12 Na8 Si4 P12'
_cell_volume   1018.21239116
_cell_formula_units_Z   4
loop_
 _symmetry_equiv_pos_site_id
 _symmetry_equiv_pos_as_xyz
  1  'x, y, z'
loop_
 _atom_site_type_symbol
 _atom_site_label
 _atom_site_symmetry_multiplicity
 _atom_site_fract_x
 _atom_site_fract_y
 _atom_site_fract_z
 _atom_site_occupancy
  Rb  Rb0  1  0.939221  0.607760  0.827112  1
  Rb  Rb1  1  0.560779  0.892240  0.327112  1
  Rb  Rb2  1  0.392240  0.060779  0.172888  1
  Rb  Rb3  1  0.060779  0.392240  0.172888  1
  Rb  Rb4  1  0.892240  0.560779  0.327112  1
  Rb  Rb5  1  0.439221  0.107760  0.672888  1
  Rb  Rb6  1  0.607760  0.939221  0.827112  1
  Rb  Rb7  1  0.267107  0.267107  0.319692  1
  Rb  Rb8  1  0.767107  0.767107  0.180308  1
  Rb  Rb9  1  0.232893  0.232893  0.819692  1
  Rb  Rb10  1  0.732893  0.732893  0.680308  1
  Rb  Rb11  1  0.107760  0.439221  0.672888  1
  Na  Na12  1  0.921281  0.078719  0.000000  1
  Na  Na13  1  0.578719  0.421281  0.500000  1
  Na  Na14  1  0.078719  0.921281  0.000000  1
  Na  Na15  1  0.421281  0.578719  0.500000  1
  Na  Na16  1  0.755827  0.244173  0.000000  1
  Na  Na17  1  0.744173  0.255827  0.500000  1
  Na  Na18  1  0.244173  0.755827  0.000000  1
  Na  Na19  1  0.255827  0.744173  0.500000  1
  Si  Si20  1  0.584355  0.415645  0.000000  1
  Si  Si21  1  0.915645  0.084355  0.500000  1
  Si  Si22  1  0.415645  0.584355  0.000000  1
  Si  Si23  1  0.084355  0.915645  0.500000  1
  P  P24  1  0.848499  0.546449  0.090013  1
  P  P25  1  0.453551  0.151501  0.909987  1
  P  P26  1  0.651501  0.953551  0.590013  1
  P  P27  1  0.953551  0.651501  0.590013  1
  P  P28  1  0.151501  0.453551  0.909987  1
  P  P29  1  0.546449  0.848499  0.090013  1
  P  P30  1  0.348499  0.046449  0.409987  1
  P  P31  1  0.178831  0.178831  0.577356  1
  P  P32  1  0.678831  0.678831  0.922644  1
  P  P33  1  0.321169  0.321169  0.077356  1
  P  P34  1  0.046449  0.348499  0.409987  1
  P  P35  1  0.821169  0.821169  0.422644  1
