# generated using pymatgen
data_Sc2GeB2Ir4Ru
_symmetry_space_group_name_H-M   'P 1'
_cell_length_a   9.40004100
_cell_length_b   9.40004100
_cell_length_c   3.06392600
_cell_angle_alpha   90.00000000
_cell_angle_beta   90.00000000
_cell_angle_gamma   90.00000000
_symmetry_Int_Tables_number   1
_chemical_formula_structural   Sc2GeB2Ir4Ru
_chemical_formula_sum   'Sc4 Ge2 B4 Ir8 Ru2'
_cell_volume   270.73086304
_cell_formula_units_Z   2
loop_
 _symmetry_equiv_pos_site_id
 _symmetry_equiv_pos_as_xyz
  1  'x, y, z'
loop_
 _atom_site_type_symbol
 _atom_site_label
 _atom_site_symmetry_multiplicity
 _atom_site_fract_x
 _atom_site_fract_y
 _atom_site_fract_z
 _atom_site_occupancy
  Sc  Sc0  1  0.672478  0.172478  0.000000  1
  Sc  Sc1  1  0.327522  0.827522  0.000000  1
  Sc  Sc2  1  0.172478  0.327522  0.000000  1
  Sc  Sc3  1  0.827522  0.672478  0.000000  1
  Ge  Ge4  1  0.000000  0.000000  0.000000  1
  Ge  Ge5  1  0.500000  0.500000  0.000000  1
  B  B6  1  0.122327  0.622327  0.000000  1
  B  B7  1  0.877673  0.377673  0.000000  1
  B  B8  1  0.622327  0.877673  0.000000  1
  B  B9  1  0.377673  0.122327  0.000000  1
  Ir  Ir10  1  0.214827  0.072413  0.500000  1
  Ir  Ir11  1  0.785173  0.927587  0.500000  1
  Ir  Ir12  1  0.072413  0.785173  0.500000  1
  Ir  Ir13  1  0.714827  0.427587  0.500000  1
  Ir  Ir14  1  0.927587  0.214827  0.500000  1
  Ir  Ir15  1  0.285173  0.572413  0.500000  1
  Ir  Ir16  1  0.572413  0.714827  0.500000  1
  Ir  Ir17  1  0.427587  0.285173  0.500000  1
  Ru  Ru18  1  0.500000  0.000000  0.500000  1
  Ru  Ru19  1  0.000000  0.500000  0.500000  1
