# generated using pymatgen
data_Dy2ZnRuPt
_symmetry_space_group_name_H-M   'P 1'
_cell_length_a   5.49643242
_cell_length_b   5.49643356
_cell_length_c   5.49643326
_cell_angle_alpha   135.40362927
_cell_angle_beta   115.11273500
_cell_angle_gamma   82.15629734
_symmetry_Int_Tables_number   1
_chemical_formula_structural   Dy2ZnRuPt
_chemical_formula_sum   'Dy2 Zn1 Ru1 Pt1'
_cell_volume   101.91550327
_cell_formula_units_Z   1
loop_
 _symmetry_equiv_pos_site_id
 _symmetry_equiv_pos_as_xyz
  1  'x, y, z'
loop_
 _atom_site_type_symbol
 _atom_site_label
 _atom_site_symmetry_multiplicity
 _atom_site_fract_x
 _atom_site_fract_y
 _atom_site_fract_z
 _atom_site_occupancy
  Dy  Dy0  1  0.699802  0.203186  0.496617  1
  Dy  Dy1  1  0.293431  0.796815  0.496618  1
  Zn  Zn2  1  0.011390  0.000000  0.011390  1
  Ru  Ru3  1  0.264583  0.500001  0.764584  1
  Pt  Pt4  1  0.730792  0.499999  0.230792  1
