# generated using pymatgen
data_Cs2Tb5YS10
_symmetry_space_group_name_H-M   'P 1'
_cell_length_a   4.03080700
_cell_length_b   12.06281118
_cell_length_c   21.52724032
_cell_angle_alpha   90.01977462
_cell_angle_beta   90.00000000
_cell_angle_gamma   90.00000000
_symmetry_Int_Tables_number   1
_chemical_formula_structural   Cs2Tb5YS10
_chemical_formula_sum   'Cs4 Tb10 Y2 S20'
_cell_volume   1046.71601052
_cell_formula_units_Z   2
loop_
 _symmetry_equiv_pos_site_id
 _symmetry_equiv_pos_as_xyz
  1  'x, y, z'
loop_
 _atom_site_type_symbol
 _atom_site_label
 _atom_site_symmetry_multiplicity
 _atom_site_fract_x
 _atom_site_fract_y
 _atom_site_fract_z
 _atom_site_occupancy
  Cs  Cs0  1  0.250000  0.853918  0.093212  1
  Cs  Cs1  1  0.750000  0.146082  0.906788  1
  Cs  Cs2  1  0.750000  0.353906  0.406792  1
  Cs  Cs3  1  0.250000  0.646094  0.593208  1
  Tb  Tb4  1  0.750000  0.797513  0.825522  1
  Tb  Tb5  1  0.250000  0.202487  0.174478  1
  Tb  Tb6  1  0.250000  0.297458  0.674448  1
  Tb  Tb7  1  0.750000  0.702542  0.325552  1
  Tb  Tb8  1  0.250000  0.958042  0.697466  1
  Tb  Tb9  1  0.750000  0.041958  0.302534  1
  Tb  Tb10  1  0.750000  0.458032  0.802500  1
  Tb  Tb11  1  0.250000  0.541968  0.197500  1
  Tb  Tb12  1  0.750000  0.390903  0.052896  1
  Tb  Tb13  1  0.250000  0.609097  0.947104  1
  Y  Y14  1  0.250000  0.891063  0.447056  1
  Y  Y15  1  0.750000  0.108937  0.552944  1
  S  S16  1  0.250000  0.951601  0.568605  1
  S  S17  1  0.750000  0.048399  0.431395  1
  S  S18  1  0.750000  0.451364  0.931238  1
  S  S19  1  0.250000  0.548636  0.068762  1
  S  S20  1  0.750000  0.761973  0.951500  1
  S  S21  1  0.250000  0.238027  0.048500  1
  S  S22  1  0.250000  0.261601  0.548468  1
  S  S23  1  0.750000  0.738399  0.451532  1
  S  S24  1  0.250000  0.946714  0.824323  1
  S  S25  1  0.750000  0.053286  0.175677  1
  S  S26  1  0.750000  0.446709  0.675668  1
  S  S27  1  0.250000  0.553291  0.324332  1
  S  S28  1  0.750000  0.126139  0.682579  1
  S  S29  1  0.250000  0.873861  0.317421  1
  S  S30  1  0.250000  0.626122  0.817301  1
  S  S31  1  0.750000  0.373878  0.182699  1
  S  S32  1  0.750000  0.689832  0.198786  1
  S  S33  1  0.250000  0.310168  0.801214  1
  S  S34  1  0.250000  0.189835  0.301208  1
  S  S35  1  0.750000  0.810165  0.698792  1
