# generated using pymatgen
data_K6BaSr5(InP4)2
_symmetry_space_group_name_H-M   'P 1'
_cell_length_a   10.26898956
_cell_length_b   10.24344424
_cell_length_c   7.55763928
_cell_angle_alpha   89.99999902
_cell_angle_beta   89.69654295
_cell_angle_gamma   119.91774199
_symmetry_Int_Tables_number   1
_chemical_formula_structural   K6BaSr5(InP4)2
_chemical_formula_sum   'K6 Ba1 Sr5 In2 P8'
_cell_volume   689.03579992
_cell_formula_units_Z   1
loop_
 _symmetry_equiv_pos_site_id
 _symmetry_equiv_pos_as_xyz
  1  'x, y, z'
loop_
 _atom_site_type_symbol
 _atom_site_label
 _atom_site_symmetry_multiplicity
 _atom_site_fract_x
 _atom_site_fract_y
 _atom_site_fract_z
 _atom_site_occupancy
  K  K0  1  0.724758  0.862379  0.170170  1
  K  K1  1  0.863027  0.136049  0.673003  1
  K  K2  1  0.863027  0.726979  0.673003  1
  K  K3  1  0.137537  0.273323  0.173474  1
  K  K4  1  0.137537  0.864213  0.173474  1
  K  K5  1  0.275551  0.137776  0.672388  1
  Ba  Ba6  1  0.055347  0.527674  0.503054  1
  Sr  Sr7  1  0.472323  0.941184  0.501326  1
  Sr  Sr8  1  0.472323  0.531140  0.501326  1
  Sr  Sr9  1  0.528108  0.469210  0.001716  1
  Sr  Sr10  1  0.528108  0.058896  0.001716  1
  Sr  Sr11  1  0.934130  0.467065  0.001996  1
  In  In12  1  0.334149  0.667075  0.883159  1
  In  In13  1  0.664083  0.332041  0.382106  1
  P  P14  1  0.667384  0.333691  0.734610  1
  P  P15  1  0.607632  0.803816  0.758386  1
  P  P16  1  0.800445  0.193507  0.259353  1
  P  P17  1  0.800445  0.606938  0.259353  1
  P  P18  1  0.340628  0.670314  0.233435  1
  P  P19  1  0.200774  0.390642  0.768749  1
  P  P20  1  0.200774  0.810132  0.768749  1
  P  P21  1  0.391911  0.195955  0.263853  1
