# generated using pymatgen
data_Ce6HoTm9(CdRu)4
_symmetry_space_group_name_H-M   'P 1'
_cell_length_a   9.52483250
_cell_length_b   9.52483302
_cell_length_c   9.60180210
_cell_angle_alpha   60.13851928
_cell_angle_beta   60.13851925
_cell_angle_gamma   60.55668796
_symmetry_Int_Tables_number   1
_chemical_formula_structural   Ce6HoTm9(CdRu)4
_chemical_formula_sum   'Ce6 Ho1 Tm9 Cd4 Ru4'
_cell_volume   619.81229120
_cell_formula_units_Z   1
loop_
 _symmetry_equiv_pos_site_id
 _symmetry_equiv_pos_as_xyz
  1  'x, y, z'
loop_
 _atom_site_type_symbol
 _atom_site_label
 _atom_site_symmetry_multiplicity
 _atom_site_fract_x
 _atom_site_fract_y
 _atom_site_fract_z
 _atom_site_occupancy
  Ce  Ce0  1  0.188749  0.810995  0.184430  1
  Ce  Ce1  1  0.810995  0.188750  0.184431  1
  Ce  Ce2  1  0.348083  0.348083  0.956304  1
  Ce  Ce3  1  0.349805  0.956531  0.347824  1
  Ce  Ce4  1  0.956531  0.349805  0.347824  1
  Ce  Ce5  1  0.344682  0.344682  0.355643  1
  Ho  Ho6  1  0.809257  0.809258  0.185260  1
  Tm  Tm7  1  0.560289  0.560289  0.937309  1
  Tm  Tm8  1  0.935552  0.563993  0.933441  1
  Tm  Tm9  1  0.563993  0.935552  0.933441  1
  Tm  Tm10  1  0.937284  0.937284  0.565044  1
  Tm  Tm11  1  0.564027  0.933346  0.567045  1
  Tm  Tm12  1  0.933346  0.564027  0.567045  1
  Tm  Tm13  1  0.190490  0.190490  0.804400  1
  Tm  Tm14  1  0.812538  0.186416  0.809068  1
  Tm  Tm15  1  0.186415  0.812539  0.809068  1
  Cd  Cd16  1  0.582822  0.582822  0.252098  1
  Cd  Cd17  1  0.580904  0.253220  0.583579  1
  Cd  Cd18  1  0.253220  0.580904  0.583579  1
  Cd  Cd19  1  0.581529  0.581529  0.580141  1
  Ru  Ru20  1  0.142709  0.142709  0.562842  1
  Ru  Ru21  1  0.154669  0.581143  0.149497  1
  Ru  Ru22  1  0.581143  0.154669  0.149497  1
  Ru  Ru23  1  0.130966  0.130966  0.151186  1
