# generated using pymatgen
data_Er8Be(Si5Mo4)3
_symmetry_space_group_name_H-M   'P 1'
_cell_length_a   6.71959517
_cell_length_b   6.90644928
_cell_length_c   12.87759000
_cell_angle_alpha   90.00000000
_cell_angle_beta   90.00000000
_cell_angle_gamma   89.84821482
_symmetry_Int_Tables_number   1
_chemical_formula_structural   Er8Be(Si5Mo4)3
_chemical_formula_sum   'Er8 Be1 Si15 Mo12'
_cell_volume   597.62809498
_cell_formula_units_Z   1
loop_
 _symmetry_equiv_pos_site_id
 _symmetry_equiv_pos_as_xyz
  1  'x, y, z'
loop_
 _atom_site_type_symbol
 _atom_site_label
 _atom_site_symmetry_multiplicity
 _atom_site_fract_x
 _atom_site_fract_y
 _atom_site_fract_z
 _atom_site_occupancy
  Er  Er0  1  0.996402  0.167901  0.093010  1
  Er  Er1  1  0.001811  0.833583  0.904981  1
  Er  Er2  1  0.500815  0.670544  0.904111  1
  Er  Er3  1  0.001811  0.833583  0.595019  1
  Er  Er4  1  0.495635  0.332444  0.092889  1
  Er  Er5  1  0.996402  0.167901  0.406990  1
  Er  Er6  1  0.495635  0.332444  0.407111  1
  Er  Er7  1  0.500815  0.670544  0.595889  1
  Be  Be8  1  0.040818  0.131690  0.750000  1
  Si  Si9  1  0.964589  0.868483  0.250000  1
  Si  Si10  1  0.464816  0.632032  0.250000  1
  Si  Si11  1  0.537093  0.367988  0.750000  1
  Si  Si12  1  0.296328  0.879275  0.750000  1
  Si  Si13  1  0.696180  0.132324  0.250000  1
  Si  Si14  1  0.196946  0.367468  0.250000  1
  Si  Si15  1  0.804205  0.629503  0.750000  1
  Si  Si16  1  0.161503  0.457201  0.546628  1
  Si  Si17  1  0.838462  0.540564  0.454950  1
  Si  Si18  1  0.338774  0.958062  0.453877  1
  Si  Si19  1  0.838462  0.540564  0.045050  1
  Si  Si20  1  0.661600  0.042902  0.546071  1
  Si  Si21  1  0.161503  0.457201  0.953372  1
  Si  Si22  1  0.661600  0.042902  0.953929  1
  Si  Si23  1  0.338774  0.958062  0.046123  1
  Mo  Mo24  1  0.166613  0.494071  0.750000  1
  Mo  Mo25  1  0.833169  0.498413  0.250000  1
  Mo  Mo26  1  0.333219  0.001379  0.250000  1
  Mo  Mo27  1  0.667867  0.002871  0.750000  1
  Mo  Mo28  1  0.330451  0.165884  0.625842  1
  Mo  Mo29  1  0.669551  0.835495  0.375144  1
  Mo  Mo30  1  0.168046  0.664229  0.374930  1
  Mo  Mo31  1  0.669551  0.835495  0.124856  1
  Mo  Mo32  1  0.836027  0.328444  0.627523  1
  Mo  Mo33  1  0.330451  0.165884  0.874158  1
  Mo  Mo34  1  0.836027  0.328444  0.872477  1
  Mo  Mo35  1  0.168046  0.664229  0.125070  1
