# generated using pymatgen
data_CsRb5(LiPb4)2
_symmetry_space_group_name_H-M   'P 1'
_cell_length_a   9.13071912
_cell_length_b   9.13071868
_cell_length_c   10.77290300
_cell_angle_alpha   89.99823096
_cell_angle_beta   90.00176753
_cell_angle_gamma   133.94040603
_symmetry_Int_Tables_number   1
_chemical_formula_structural   CsRb5(LiPb4)2
_chemical_formula_sum   'Cs1 Rb5 Li2 Pb8'
_cell_volume   646.71442259
_cell_formula_units_Z   1
loop_
 _symmetry_equiv_pos_site_id
 _symmetry_equiv_pos_as_xyz
  1  'x, y, z'
loop_
 _atom_site_type_symbol
 _atom_site_label
 _atom_site_symmetry_multiplicity
 _atom_site_fract_x
 _atom_site_fract_y
 _atom_site_fract_z
 _atom_site_occupancy
  Cs  Cs0  1  0.227762  0.772238  0.249999  1
  Rb  Rb1  1  0.770642  0.229358  0.749999  1
  Rb  Rb2  1  0.612704  0.387296  0.047538  1
  Rb  Rb3  1  0.387348  0.612652  0.952220  1
  Rb  Rb4  1  0.387350  0.612650  0.547782  1
  Rb  Rb5  1  0.612701  0.387299  0.452456  1
  Li  Li6  1  0.999854  0.000146  0.999776  1
  Li  Li7  1  0.999855  0.000145  0.500220  1
  Pb  Pb8  1  0.191622  0.265349  0.250001  1
  Pb  Pb9  1  0.808641  0.733981  0.750004  1
  Pb  Pb10  1  0.734651  0.808378  0.250001  1
  Pb  Pb11  1  0.266019  0.191359  0.750004  1
  Pb  Pb12  1  0.832152  0.167848  0.106143  1
  Pb  Pb13  1  0.168274  0.831726  0.893553  1
  Pb  Pb14  1  0.168274  0.831726  0.606452  1
  Pb  Pb15  1  0.832151  0.167849  0.393853  1
