# generated using pymatgen
data_LiNd4Lu5Si8
_symmetry_space_group_name_H-M   'P 1'
_cell_length_a   7.32292800
_cell_length_b   7.72947500
_cell_length_c   14.64386200
_cell_angle_alpha   90.00000000
_cell_angle_beta   90.00000000
_cell_angle_gamma   90.00000000
_symmetry_Int_Tables_number   1
_chemical_formula_structural   LiNd4Lu5Si8
_chemical_formula_sum   'Li2 Nd8 Lu10 Si16'
_cell_volume   828.87757196
_cell_formula_units_Z   2
loop_
 _symmetry_equiv_pos_site_id
 _symmetry_equiv_pos_as_xyz
  1  'x, y, z'
loop_
 _atom_site_type_symbol
 _atom_site_label
 _atom_site_symmetry_multiplicity
 _atom_site_fract_x
 _atom_site_fract_y
 _atom_site_fract_z
 _atom_site_occupancy
  Li  Li0  1  0.657546  0.994519  0.750000  1
  Li  Li1  1  0.842454  0.494519  0.250000  1
  Nd  Nd2  1  0.012313  0.185100  0.399695  1
  Nd  Nd3  1  0.522491  0.325744  0.398502  1
  Nd  Nd4  1  0.487687  0.685100  0.899695  1
  Nd  Nd5  1  0.487687  0.685100  0.600305  1
  Nd  Nd6  1  0.977509  0.825744  0.601498  1
  Nd  Nd7  1  0.977509  0.825744  0.898502  1
  Nd  Nd8  1  0.522491  0.325744  0.101498  1
  Nd  Nd9  1  0.012313  0.185100  0.100305  1
  Lu  Lu10  1  0.333410  0.173377  0.624748  1
  Lu  Lu11  1  0.676615  0.813518  0.374700  1
  Lu  Lu12  1  0.166590  0.673377  0.375252  1
  Lu  Lu13  1  0.823385  0.313518  0.874700  1
  Lu  Lu14  1  0.823385  0.313518  0.625300  1
  Lu  Lu15  1  0.341064  0.005739  0.250000  1
  Lu  Lu16  1  0.333410  0.173377  0.875252  1
  Lu  Lu17  1  0.166590  0.673377  0.124748  1
  Lu  Lu18  1  0.676615  0.813518  0.125300  1
  Lu  Lu19  1  0.158936  0.505739  0.750000  1
  Si  Si20  1  0.276581  0.880725  0.750000  1
  Si  Si21  1  0.463736  0.612114  0.250000  1
  Si  Si22  1  0.036264  0.112114  0.750000  1
  Si  Si23  1  0.530072  0.392998  0.750000  1
  Si  Si24  1  0.151935  0.468012  0.540557  1
  Si  Si25  1  0.969928  0.892998  0.250000  1
  Si  Si26  1  0.717164  0.109150  0.250000  1
  Si  Si27  1  0.848087  0.536626  0.031081  1
  Si  Si28  1  0.348065  0.968012  0.040557  1
  Si  Si29  1  0.151935  0.468012  0.959443  1
  Si  Si30  1  0.651913  0.036626  0.531081  1
  Si  Si31  1  0.348065  0.968012  0.459443  1
  Si  Si32  1  0.848087  0.536626  0.468919  1
  Si  Si33  1  0.782836  0.609150  0.750000  1
  Si  Si34  1  0.223419  0.380725  0.250000  1
  Si  Si35  1  0.651913  0.036626  0.968919  1
