# generated using pymatgen
data_RbRe(Cl2O)2
_symmetry_space_group_name_H-M   'P 1'
_cell_length_a   6.66467678
_cell_length_b   10.83423400
_cell_length_c   12.12155346
_cell_angle_alpha   90.00000000
_cell_angle_beta   89.05865592
_cell_angle_gamma   90.00000000
_symmetry_Int_Tables_number   1
_chemical_formula_structural   RbRe(Cl2O)2
_chemical_formula_sum   'Rb4 Re4 Cl16 O8'
_cell_volume   875.13885683
_cell_formula_units_Z   4
loop_
 _symmetry_equiv_pos_site_id
 _symmetry_equiv_pos_as_xyz
  1  'x, y, z'
loop_
 _atom_site_type_symbol
 _atom_site_label
 _atom_site_symmetry_multiplicity
 _atom_site_fract_x
 _atom_site_fract_y
 _atom_site_fract_z
 _atom_site_occupancy
  Rb  Rb0  1  0.188726  0.615132  0.134892  1
  Rb  Rb1  1  0.811272  0.115131  0.365108  1
  Rb  Rb2  1  0.188727  0.884870  0.634892  1
  Rb  Rb3  1  0.811273  0.384869  0.865108  1
  Re  Re4  1  0.311072  0.197601  0.056330  1
  Re  Re5  1  0.688928  0.697601  0.443670  1
  Re  Re6  1  0.311072  0.302399  0.556329  1
  Re  Re7  1  0.688928  0.802399  0.943670  1
  Cl  Cl8  1  0.697164  0.608202  0.059835  1
  Cl  Cl9  1  0.888328  0.883394  0.081089  1
  Cl  Cl10  1  0.991152  0.290160  0.127488  1
  Cl  Cl11  1  0.459688  0.324460  0.187362  1
  Cl  Cl12  1  0.540311  0.824460  0.312638  1
  Cl  Cl13  1  0.008847  0.790161  0.372513  1
  Cl  Cl14  1  0.111672  0.383393  0.418911  1
  Cl  Cl15  1  0.302836  0.108202  0.440164  1
  Cl  Cl16  1  0.697164  0.891798  0.559836  1
  Cl  Cl17  1  0.888329  0.616607  0.581089  1
  Cl  Cl18  1  0.991153  0.209839  0.627486  1
  Cl  Cl19  1  0.459689  0.175540  0.687361  1
  Cl  Cl20  1  0.540312  0.675541  0.812638  1
  Cl  Cl21  1  0.008848  0.709840  0.872513  1
  Cl  Cl22  1  0.111672  0.116606  0.918911  1
  Cl  Cl23  1  0.302836  0.391799  0.940165  1
  O  O24  1  0.463486  0.834683  0.010080  1
  O  O25  1  0.276149  0.075468  0.145425  1
  O  O26  1  0.723852  0.575467  0.354575  1
  O  O27  1  0.536514  0.334682  0.489921  1
  O  O28  1  0.463486  0.665318  0.510079  1
  O  O29  1  0.276148  0.424533  0.645424  1
  O  O30  1  0.723851  0.924534  0.854575  1
  O  O31  1  0.536514  0.165318  0.989920  1
