# generated using pymatgen
data_Pa2Br5ClO2
_symmetry_space_group_name_H-M   'P 1'
_cell_length_a   9.42968988
_cell_length_b   9.42969043
_cell_length_c   10.22972859
_cell_angle_alpha   64.98957933
_cell_angle_beta   64.98957737
_cell_angle_gamma   24.73965768
_symmetry_Int_Tables_number   1
_chemical_formula_structural   Pa2Br5ClO2
_chemical_formula_sum   'Pa2 Br5 Cl1 O2'
_cell_volume   343.16560208
_cell_formula_units_Z   1
loop_
 _symmetry_equiv_pos_site_id
 _symmetry_equiv_pos_as_xyz
  1  'x, y, z'
loop_
 _atom_site_type_symbol
 _atom_site_label
 _atom_site_symmetry_multiplicity
 _atom_site_fract_x
 _atom_site_fract_y
 _atom_site_fract_z
 _atom_site_occupancy
  Pa  Pa0  1  0.196121  0.196121  0.671987  1
  Pa  Pa1  1  0.802411  0.802411  0.327147  1
  Br  Br2  1  0.941432  0.941432  0.349490  1
  Br  Br3  1  0.324532  0.324532  0.729302  1
  Br  Br4  1  0.673105  0.673105  0.272728  1
  Br  Br5  1  0.623019  0.623019  0.905119  1
  Br  Br6  1  0.374546  0.374546  0.093782  1
  Cl  Cl7  1  0.065591  0.065591  0.651010  1
  O  O8  1  0.726065  0.726065  0.578156  1
  O  O9  1  0.273179  0.273179  0.421279  1
