# generated using pymatgen
data_Er8Ta9Ti2Si16Mo
_symmetry_space_group_name_H-M   'P 1'
_cell_length_a   7.00293536
_cell_length_b   6.99795356
_cell_length_c   12.90919860
_cell_angle_alpha   90.01239467
_cell_angle_beta   89.98056766
_cell_angle_gamma   89.92867225
_symmetry_Int_Tables_number   1
_chemical_formula_structural   Er8Ta9Ti2Si16Mo
_chemical_formula_sum   'Er8 Ta9 Ti2 Si16 Mo1'
_cell_volume   632.63043925
_cell_formula_units_Z   1
loop_
 _symmetry_equiv_pos_site_id
 _symmetry_equiv_pos_as_xyz
  1  'x, y, z'
loop_
 _atom_site_type_symbol
 _atom_site_label
 _atom_site_symmetry_multiplicity
 _atom_site_fract_x
 _atom_site_fract_y
 _atom_site_fract_z
 _atom_site_occupancy
  Er  Er0  1  0.341316  0.001312  0.467970  1
  Er  Er1  1  0.498291  0.841547  0.718554  1
  Er  Er2  1  0.500328  0.159033  0.217063  1
  Er  Er3  1  0.841714  0.498142  0.281545  1
  Er  Er4  1  0.158983  0.500521  0.783399  1
  Er  Er5  1  0.657898  0.000092  0.968466  1
  Er  Er6  1  0.002062  0.339944  0.531508  1
  Er  Er7  1  0.999209  0.659877  0.031260  1
  Ta  Ta8  1  0.173392  0.826715  0.249351  1
  Ta  Ta9  1  0.827421  0.173719  0.750910  1
  Ta  Ta10  1  0.670680  0.670688  0.499657  1
  Ta  Ta11  1  0.152123  0.006651  0.873565  1
  Ta  Ta12  1  0.492968  0.653380  0.122925  1
  Ta  Ta13  1  0.506770  0.347058  0.624371  1
  Ta  Ta14  1  0.652829  0.491906  0.877398  1
  Ta  Ta15  1  0.347662  0.506814  0.375849  1
  Ta  Ta16  1  0.846405  0.992440  0.373494  1
  Ti  Ti17  1  0.007785  0.152414  0.126425  1
  Ti  Ti18  1  0.992259  0.846570  0.627045  1
  Si  Si19  1  0.202421  0.132535  0.681529  1
  Si  Si20  1  0.366775  0.705826  0.930888  1
  Si  Si21  1  0.634219  0.293964  0.431282  1
  Si  Si22  1  0.705270  0.365614  0.069603  1
  Si  Si23  1  0.294189  0.635319  0.569097  1
  Si  Si24  1  0.796834  0.867872  0.180966  1
  Si  Si25  1  0.134831  0.202606  0.317538  1
  Si  Si26  1  0.865084  0.796413  0.818365  1
  Si  Si27  1  0.292083  0.957370  0.063643  1
  Si  Si28  1  0.545362  0.795310  0.313173  1
  Si  Si29  1  0.452757  0.206147  0.814849  1
  Si  Si30  1  0.796684  0.546545  0.685503  1
  Si  Si31  1  0.204788  0.451884  0.183854  1
  Si  Si32  1  0.707279  0.044113  0.564555  1
  Si  Si33  1  0.956600  0.294030  0.937834  1
  Si  Si34  1  0.045030  0.705034  0.436914  1
  Mo  Mo35  1  0.329701  0.330598  0.999652  1
