# generated using pymatgen
data_La2Dy3YCoI10
_symmetry_space_group_name_H-M   'P 1'
_cell_length_a   7.82491222
_cell_length_b   9.85107546
_cell_length_c   9.77442973
_cell_angle_alpha   106.86890463
_cell_angle_beta   95.89973803
_cell_angle_gamma   105.57997972
_symmetry_Int_Tables_number   1
_chemical_formula_structural   La2Dy3YCoI10
_chemical_formula_sum   'La2 Dy3 Y1 Co1 I10'
_cell_volume   681.05785036
_cell_formula_units_Z   1
loop_
 _symmetry_equiv_pos_site_id
 _symmetry_equiv_pos_as_xyz
  1  'x, y, z'
loop_
 _atom_site_type_symbol
 _atom_site_label
 _atom_site_symmetry_multiplicity
 _atom_site_fract_x
 _atom_site_fract_y
 _atom_site_fract_z
 _atom_site_occupancy
  La  La0  1  0.886894  0.958145  0.229659  1
  La  La1  1  0.112855  0.041673  0.770157  1
  Dy  Dy2  1  0.028279  0.717122  0.914228  1
  Dy  Dy3  1  0.971787  0.282927  0.085685  1
  Dy  Dy4  1  0.655211  0.875429  0.837291  1
  Y  Y5  1  0.345856  0.124916  0.163082  1
  Co  Co6  1  0.999199  0.999650  0.999593  1
  I  I7  1  0.650813  0.552487  0.730180  1
  I  I8  1  0.349097  0.447661  0.269845  1
  I  I9  1  0.728953  0.909082  0.540447  1
  I  I10  1  0.271022  0.090897  0.459701  1
  I  I11  1  0.082713  0.379001  0.823511  1
  I  I12  1  0.917453  0.620991  0.176548  1
  I  I13  1  0.444812  0.816238  0.088870  1
  I  I14  1  0.555110  0.183700  0.911048  1
  I  I15  1  0.225395  0.736396  0.656626  1
  I  I16  1  0.774550  0.263683  0.343527  1
