# generated using pymatgen
data_MgSc2Ni7B2
_symmetry_space_group_name_H-M   'P 1'
_cell_length_a   4.90619461
_cell_length_b   4.89234658
_cell_length_c   13.91213000
_cell_angle_alpha   90.00000000
_cell_angle_beta   90.00000000
_cell_angle_gamma   120.13926232
_symmetry_Int_Tables_number   1
_chemical_formula_structural   MgSc2Ni7B2
_chemical_formula_sum   'Mg2 Sc4 Ni14 B4'
_cell_volume   288.78530390
_cell_formula_units_Z   2
loop_
 _symmetry_equiv_pos_site_id
 _symmetry_equiv_pos_as_xyz
  1  'x, y, z'
loop_
 _atom_site_type_symbol
 _atom_site_label
 _atom_site_symmetry_multiplicity
 _atom_site_fract_x
 _atom_site_fract_y
 _atom_site_fract_z
 _atom_site_occupancy
  Mg  Mg0  1  0.333224  0.666662  0.466924  1
  Mg  Mg1  1  0.666776  0.333338  0.966924  1
  Sc  Sc2  1  0.666591  0.333393  0.531599  1
  Sc  Sc3  1  0.333409  0.666607  0.031599  1
  Sc  Sc4  1  0.666787  0.333488  0.753909  1
  Sc  Sc5  1  0.333213  0.666512  0.253909  1
  Ni  Ni6  1  0.833356  0.667397  0.354126  1
  Ni  Ni7  1  0.332184  0.166001  0.354075  1
  Ni  Ni8  1  0.000509  0.999962  0.999598  1
  Ni  Ni9  1  0.999491  0.000038  0.499598  1
  Ni  Ni10  1  0.833309  0.165955  0.145900  1
  Ni  Ni11  1  0.667287  0.833993  0.645910  1
  Ni  Ni12  1  0.166447  0.332984  0.645868  1
  Ni  Ni13  1  0.833553  0.667016  0.145868  1
  Ni  Ni14  1  0.332713  0.166007  0.145910  1
  Ni  Ni15  1  0.667816  0.833999  0.854075  1
  Ni  Ni16  1  0.166644  0.332603  0.854126  1
  Ni  Ni17  1  0.166691  0.834045  0.645900  1
  Ni  Ni18  1  0.166528  0.834034  0.853992  1
  Ni  Ni19  1  0.833472  0.165966  0.353992  1
  B  B20  1  0.666622  0.333317  0.249917  1
  B  B21  1  0.333378  0.666683  0.749917  1
  B  B22  1  0.000048  0.000155  0.748181  1
  B  B23  1  0.999952  0.999845  0.248181  1
