# generated using pymatgen
data_Er7Sc(WC2)4
_symmetry_space_group_name_H-M   'P 1'
_cell_length_a   5.69372915
_cell_length_b   5.69372949
_cell_length_c   9.71508691
_cell_angle_alpha   90.49059532
_cell_angle_beta   90.49059270
_cell_angle_gamma   90.34803831
_symmetry_Int_Tables_number   1
_chemical_formula_structural   Er7Sc(WC2)4
_chemical_formula_sum   'Er7 Sc1 W4 C8'
_cell_volume   314.92002295
_cell_formula_units_Z   1
loop_
 _symmetry_equiv_pos_site_id
 _symmetry_equiv_pos_as_xyz
  1  'x, y, z'
loop_
 _atom_site_type_symbol
 _atom_site_label
 _atom_site_symmetry_multiplicity
 _atom_site_fract_x
 _atom_site_fract_y
 _atom_site_fract_z
 _atom_site_occupancy
  Er  Er0  1  0.201579  0.201579  0.342293  1
  Er  Er1  1  0.297340  0.700336  0.840147  1
  Er  Er2  1  0.700336  0.297340  0.840147  1
  Er  Er3  1  0.700503  0.299670  0.157470  1
  Er  Er4  1  0.299670  0.700503  0.157470  1
  Er  Er5  1  0.198724  0.198724  0.657352  1
  Er  Er6  1  0.801629  0.801629  0.345493  1
  Sc  Sc7  1  0.795594  0.795594  0.657794  1
  W  W8  1  0.324128  0.679815  0.501880  1
  W  W9  1  0.820233  0.820233  0.997922  1
  W  W10  1  0.177048  0.177048  0.998071  1
  W  W11  1  0.679815  0.324128  0.501880  1
  C  C12  1  0.999237  0.999237  0.155505  1
  C  C13  1  0.505286  0.505286  0.657697  1
  C  C14  1  0.505588  0.000570  0.504047  1
  C  C15  1  0.501127  0.501127  0.344433  1
  C  C16  1  0.993394  0.993394  0.838464  1
  C  C17  1  0.498855  0.999346  0.998945  1
  C  C18  1  0.999346  0.498855  0.998945  1
  C  C19  1  0.000570  0.505588  0.504047  1
