# generated using pymatgen
data_Ta2(CoPt)3
_symmetry_space_group_name_H-M   'P 1'
_cell_length_a   4.38212200
_cell_length_b   4.81696879
_cell_length_c   5.41316395
_cell_angle_alpha   90.78948325
_cell_angle_beta   90.00000000
_cell_angle_gamma   90.00000000
_symmetry_Int_Tables_number   1
_chemical_formula_structural   Ta2(CoPt)3
_chemical_formula_sum   'Ta2 Co3 Pt3'
_cell_volume   114.25316709
_cell_formula_units_Z   1
loop_
 _symmetry_equiv_pos_site_id
 _symmetry_equiv_pos_as_xyz
  1  'x, y, z'
loop_
 _atom_site_type_symbol
 _atom_site_label
 _atom_site_symmetry_multiplicity
 _atom_site_fract_x
 _atom_site_fract_y
 _atom_site_fract_z
 _atom_site_occupancy
  Ta  Ta0  1  0.500000  0.657913  0.488479  1
  Ta  Ta1  1  0.000000  0.354800  0.009772  1
  Co  Co2  1  0.000000  0.823045  0.248885  1
  Co  Co3  1  0.000000  0.327264  0.494652  1
  Co  Co4  1  0.500000  0.674048  0.009411  1
  Pt  Pt5  1  0.500000  0.158356  0.248824  1
  Pt  Pt6  1  0.000000  0.828430  0.754328  1
  Pt  Pt7  1  0.500000  0.176143  0.745650  1
