# generated using pymatgen
data_CaNdSiPd14
_symmetry_space_group_name_H-M   'P 1'
_cell_length_a   8.96794400
_cell_length_b   8.96794400
_cell_length_c   7.11371900
_cell_angle_alpha   90.00000000
_cell_angle_beta   90.00000000
_cell_angle_gamma   90.00000000
_symmetry_Int_Tables_number   1
_chemical_formula_structural   CaNdSiPd14
_chemical_formula_sum   'Ca2 Nd2 Si2 Pd28'
_cell_volume   572.11387619
_cell_formula_units_Z   2
loop_
 _symmetry_equiv_pos_site_id
 _symmetry_equiv_pos_as_xyz
  1  'x, y, z'
loop_
 _atom_site_type_symbol
 _atom_site_label
 _atom_site_symmetry_multiplicity
 _atom_site_fract_x
 _atom_site_fract_y
 _atom_site_fract_z
 _atom_site_occupancy
  Ca  Ca0  1  0.000000  0.000000  0.500000  1
  Ca  Ca1  1  0.500000  0.500000  0.500000  1
  Nd  Nd2  1  0.500000  0.000000  0.938786  1
  Nd  Nd3  1  0.000000  0.500000  0.061214  1
  Si  Si4  1  0.500000  0.000000  0.448456  1
  Si  Si5  1  0.000000  0.500000  0.551544  1
  Pd  Pd6  1  0.333949  0.833949  0.616751  1
  Pd  Pd7  1  0.333949  0.166051  0.616751  1
  Pd  Pd8  1  0.666051  0.833949  0.616751  1
  Pd  Pd9  1  0.666051  0.166051  0.616751  1
  Pd  Pd10  1  0.166051  0.666051  0.383249  1
  Pd  Pd11  1  0.166051  0.333949  0.383249  1
  Pd  Pd12  1  0.833949  0.666051  0.383249  1
  Pd  Pd13  1  0.833949  0.333949  0.383249  1
  Pd  Pd14  1  0.500000  0.770260  0.257611  1
  Pd  Pd15  1  0.500000  0.229740  0.257611  1
  Pd  Pd16  1  0.270260  0.000000  0.257611  1
  Pd  Pd17  1  0.729740  0.000000  0.257611  1
  Pd  Pd18  1  0.000000  0.729740  0.742389  1
  Pd  Pd19  1  0.000000  0.270260  0.742389  1
  Pd  Pd20  1  0.229740  0.500000  0.742389  1
  Pd  Pd21  1  0.770260  0.500000  0.742389  1
  Pd  Pd22  1  0.500000  0.348992  0.856343  1
  Pd  Pd23  1  0.500000  0.651008  0.856343  1
  Pd  Pd24  1  0.848992  0.000000  0.856343  1
  Pd  Pd25  1  0.151008  0.000000  0.856343  1
  Pd  Pd26  1  0.000000  0.151008  0.143657  1
  Pd  Pd27  1  0.000000  0.848992  0.143657  1
  Pd  Pd28  1  0.651008  0.500000  0.143657  1
  Pd  Pd29  1  0.348992  0.500000  0.143657  1
  Pd  Pd30  1  0.250000  0.750000  0.000000  1
  Pd  Pd31  1  0.250000  0.250000  0.000000  1
  Pd  Pd32  1  0.750000  0.750000  0.000000  1
  Pd  Pd33  1  0.750000  0.250000  0.000000  1
