# generated using pymatgen
data_Tb4Zr3InIr4
_symmetry_space_group_name_H-M   'P 1'
_cell_length_a   4.47217000
_cell_length_b   7.20762151
_cell_length_c   8.33809300
_cell_angle_alpha   93.37103858
_cell_angle_beta   90.00000000
_cell_angle_gamma   90.00000000
_symmetry_Int_Tables_number   1
_chemical_formula_structural   Tb4Zr3InIr4
_chemical_formula_sum   'Tb4 Zr3 In1 Ir4'
_cell_volume   268.30260604
_cell_formula_units_Z   1
loop_
 _symmetry_equiv_pos_site_id
 _symmetry_equiv_pos_as_xyz
  1  'x, y, z'
loop_
 _atom_site_type_symbol
 _atom_site_label
 _atom_site_symmetry_multiplicity
 _atom_site_fract_x
 _atom_site_fract_y
 _atom_site_fract_z
 _atom_site_occupancy
  Tb  Tb0  1  0.250000  0.033465  0.335148  1
  Tb  Tb1  1  0.250000  0.519516  0.179706  1
  Tb  Tb2  1  0.750000  0.992285  0.667428  1
  Tb  Tb3  1  0.750000  0.463888  0.815054  1
  Zr  Zr4  1  0.250000  0.130913  0.927282  1
  Zr  Zr5  1  0.250000  0.642484  0.564340  1
  Zr  Zr6  1  0.750000  0.859341  0.072569  1
  In  In7  1  0.750000  0.356452  0.426148  1
  Ir  Ir8  1  0.250000  0.268391  0.630341  1
  Ir  Ir9  1  0.250000  0.758387  0.898581  1
  Ir  Ir10  1  0.750000  0.745634  0.387819  1
  Ir  Ir11  1  0.750000  0.229244  0.095584  1
