# generated using pymatgen
data_Y4Ho16CdIn5Ru2
_symmetry_space_group_name_H-M   'P 1'
_cell_length_a   9.69241428
_cell_length_b   9.74892165
_cell_length_c   9.66847400
_cell_angle_alpha   90.00000000
_cell_angle_beta   90.00000000
_cell_angle_gamma   120.19304772
_symmetry_Int_Tables_number   1
_chemical_formula_structural   Y4Ho16CdIn5Ru2
_chemical_formula_sum   'Y4 Ho16 Cd1 In5 Ru2'
_cell_volume   789.63974576
_cell_formula_units_Z   1
loop_
 _symmetry_equiv_pos_site_id
 _symmetry_equiv_pos_as_xyz
  1  'x, y, z'
loop_
 _atom_site_type_symbol
 _atom_site_label
 _atom_site_symmetry_multiplicity
 _atom_site_fract_x
 _atom_site_fract_y
 _atom_site_fract_z
 _atom_site_occupancy
  Y  Y0  1  0.540636  0.460047  0.250000  1
  Y  Y1  1  0.540636  0.080589  0.250000  1
  Y  Y2  1  0.922887  0.461444  0.250000  1
  Y  Y3  1  0.081915  0.540957  0.750000  1
  Ho  Ho4  1  0.996389  0.998194  0.502228  1
  Ho  Ho5  1  0.996389  0.998194  0.997772  1
  Ho  Ho6  1  0.210731  0.790294  0.439846  1
  Ho  Ho7  1  0.210731  0.420437  0.439846  1
  Ho  Ho8  1  0.579160  0.789581  0.437645  1
  Ho  Ho9  1  0.789831  0.211073  0.560423  1
  Ho  Ho10  1  0.789831  0.578757  0.560423  1
  Ho  Ho11  1  0.419864  0.209932  0.562256  1
  Ho  Ho12  1  0.789831  0.211073  0.939577  1
  Ho  Ho13  1  0.789831  0.578757  0.939577  1
  Ho  Ho14  1  0.419864  0.209932  0.937744  1
  Ho  Ho15  1  0.210731  0.790294  0.060154  1
  Ho  Ho16  1  0.210731  0.420437  0.060154  1
  Ho  Ho17  1  0.579160  0.789581  0.062355  1
  Ho  Ho18  1  0.462151  0.542492  0.750000  1
  Ho  Ho19  1  0.462151  0.919658  0.750000  1
  Cd  Cd20  1  0.766062  0.883031  0.750000  1
  In  In21  1  0.884801  0.117870  0.250000  1
  In  In22  1  0.884801  0.766931  0.250000  1
  In  In23  1  0.230881  0.115441  0.250000  1
  In  In24  1  0.115980  0.881993  0.750000  1
  In  In25  1  0.115980  0.233986  0.750000  1
  Ru  Ru26  1  0.330327  0.665164  0.250000  1
  Ru  Ru27  1  0.667722  0.333861  0.750000  1
