# generated using pymatgen
data_Y2In2PdPt3
_symmetry_space_group_name_H-M   'P 1'
_cell_length_a   4.59175600
_cell_length_b   4.59175570
_cell_length_c   9.08577500
_cell_angle_alpha   90.00000000
_cell_angle_beta   90.00000000
_cell_angle_gamma   120.00000215
_symmetry_Int_Tables_number   1
_chemical_formula_structural   Y2In2PdPt3
_chemical_formula_sum   'Y2 In2 Pd1 Pt3'
_cell_volume   165.90144784
_cell_formula_units_Z   1
loop_
 _symmetry_equiv_pos_site_id
 _symmetry_equiv_pos_as_xyz
  1  'x, y, z'
loop_
 _atom_site_type_symbol
 _atom_site_label
 _atom_site_symmetry_multiplicity
 _atom_site_fract_x
 _atom_site_fract_y
 _atom_site_fract_z
 _atom_site_occupancy
  Y  Y0  1  0.666667  0.333333  0.747844  1
  Y  Y1  1  0.333333  0.666667  0.254173  1
  In  In2  1  0.000000  0.000000  0.999421  1
  In  In3  1  0.000000  0.000000  0.499436  1
  Pd  Pd4  1  0.666667  0.333333  0.089655  1
  Pt  Pt5  1  0.333333  0.666667  0.910836  1
  Pt  Pt6  1  0.333333  0.666667  0.592757  1
  Pt  Pt7  1  0.666667  0.333333  0.405878  1
