# generated using pymatgen
data_Ba4IrOs5O18
_symmetry_space_group_name_H-M   'P 1'
_cell_length_a   8.18000859
_cell_length_b   8.18524285
_cell_length_c   8.18000906
_cell_angle_alpha   109.60889403
_cell_angle_beta   109.12719804
_cell_angle_gamma   109.65197169
_symmetry_Int_Tables_number   1
_chemical_formula_structural   Ba4IrOs5O18
_chemical_formula_sum   'Ba4 Ir1 Os5 O18'
_cell_volume   421.74110923
_cell_formula_units_Z   1
loop_
 _symmetry_equiv_pos_site_id
 _symmetry_equiv_pos_as_xyz
  1  'x, y, z'
loop_
 _atom_site_type_symbol
 _atom_site_label
 _atom_site_symmetry_multiplicity
 _atom_site_fract_x
 _atom_site_fract_y
 _atom_site_fract_z
 _atom_site_occupancy
  Ba  Ba0  1  0.000402  0.001500  0.383590  1
  Ba  Ba1  1  0.001253  0.382230  0.998690  1
  Ba  Ba2  1  0.616460  0.617770  0.619024  1
  Ba  Ba3  1  0.382091  0.998500  0.998902  1
  Ir  Ir4  1  0.363215  0.500000  0.863215  1
  Os  Os5  1  0.865128  0.365640  0.499715  1
  Os  Os6  1  0.499600  0.134397  0.632988  1
  Os  Os7  1  0.134075  0.634360  0.499488  1
  Os  Os8  1  0.498591  0.865603  0.365203  1
  Os  Os9  1  0.635792  0.500000  0.135792  1
  O  O10  1  0.334632  0.000000  0.334632  1
  O  O11  1  0.342321  0.338561  0.007305  1
  O  O12  1  0.000317  0.664936  0.665615  1
  O  O13  1  0.668744  0.661439  0.003759  1
  O  O14  1  0.000679  0.335064  0.335381  1
  O  O15  1  0.664814  0.000000  0.664814  1
  O  O16  1  0.369268  0.300477  0.637401  1
  O  O17  1  0.062965  0.338368  0.693656  1
  O  O18  1  0.724443  0.352964  0.655580  1
  O  O19  1  0.355287  0.661632  0.724597  1
  O  O20  1  0.275963  0.932037  0.628799  1
  O  O21  1  0.651822  0.372559  0.303081  1
  O  O22  1  0.302614  0.647036  0.371480  1
  O  O23  1  0.696764  0.067963  0.343926  1
  O  O24  1  0.930524  0.627441  0.279264  1
  O  O25  1  0.656256  0.725791  0.354847  1
  O  O26  1  0.629055  0.274209  0.930466  1
  O  O27  1  0.336923  0.699523  0.068790  1
