# generated using pymatgen
data_Ho5Co16Si4Mo3P8
_symmetry_space_group_name_H-M   'P 1'
_cell_length_a   12.14690118
_cell_length_b   12.13032541
_cell_length_c   3.70359700
_cell_angle_alpha   90.00000000
_cell_angle_beta   90.00000000
_cell_angle_gamma   119.93928617
_symmetry_Int_Tables_number   1
_chemical_formula_structural   Ho5Co16Si4Mo3P8
_chemical_formula_sum   'Ho5 Co16 Si4 Mo3 P8'
_cell_volume   472.88733005
_cell_formula_units_Z   1
loop_
 _symmetry_equiv_pos_site_id
 _symmetry_equiv_pos_as_xyz
  1  'x, y, z'
loop_
 _atom_site_type_symbol
 _atom_site_label
 _atom_site_symmetry_multiplicity
 _atom_site_fract_x
 _atom_site_fract_y
 _atom_site_fract_z
 _atom_site_occupancy
  Ho  Ho0  1  0.666588  0.333574  0.000000  1
  Ho  Ho1  1  0.335118  0.666239  0.000000  1
  Ho  Ho2  1  0.815703  0.814610  0.500000  1
  Ho  Ho3  1  0.185407  0.000542  0.500000  1
  Ho  Ho4  1  0.998673  0.182986  0.500000  1
  Co  Co5  1  0.878760  0.352987  0.500000  1
  Co  Co6  1  0.645591  0.525895  0.500000  1
  Co  Co7  1  0.475817  0.122176  0.500000  1
  Co  Co8  1  0.357410  0.875446  0.500000  1
  Co  Co9  1  0.516896  0.646283  0.500000  1
  Co  Co10  1  0.126716  0.476823  0.500000  1
  Co  Co11  1  0.805404  0.175445  0.000000  1
  Co  Co12  1  0.823156  0.629186  0.000000  1
  Co  Co13  1  0.371091  0.195521  0.000000  1
  Co  Co14  1  0.179655  0.807147  0.000000  1
  Co  Co15  1  0.624744  0.820728  0.000000  1
  Co  Co16  1  0.196011  0.373700  0.000000  1
  Co  Co17  1  0.276047  0.279870  0.500000  1
  Co  Co18  1  0.719920  0.995428  0.500000  1
  Co  Co19  1  0.000989  0.724710  0.500000  1
  Co  Co20  1  0.999892  0.000170  0.000000  1
  Si  Si21  1  0.685957  0.165112  0.500000  1
  Si  Si22  1  0.835067  0.521065  0.500000  1
  Si  Si23  1  0.479402  0.314975  0.500000  1
  Si  Si24  1  0.166143  0.686335  0.500000  1
  Mo  Mo25  1  0.443127  0.445911  0.000000  1
  Mo  Mo26  1  0.555574  0.998400  0.000000  1
  Mo  Mo27  1  0.001054  0.556654  0.000000  1
  P  P28  1  0.520217  0.834230  0.500000  1
  P  P29  1  0.312724  0.478926  0.500000  1
  P  P30  1  0.179189  0.179655  0.000000  1
  P  P31  1  0.819518  0.998165  0.000000  1
  P  P32  1  0.001265  0.820790  0.000000  1
  P  P33  1  0.639301  0.638870  0.000000  1
  P  P34  1  0.361987  0.001057  0.000000  1
  P  P35  1  0.999885  0.360390  0.000000  1
