# generated using pymatgen
data_Tb3YGa18PdRh5
_symmetry_space_group_name_H-M   'P 1'
_cell_length_a   7.59813060
_cell_length_b   7.59809997
_cell_length_c   9.51653900
_cell_angle_alpha   90.03105245
_cell_angle_beta   90.03353361
_cell_angle_gamma   119.84511885
_symmetry_Int_Tables_number   1
_chemical_formula_structural   Tb3YGa18PdRh5
_chemical_formula_sum   'Tb3 Y1 Ga18 Pd1 Rh5'
_cell_volume   476.53722315
_cell_formula_units_Z   1
loop_
 _symmetry_equiv_pos_site_id
 _symmetry_equiv_pos_as_xyz
  1  'x, y, z'
loop_
 _atom_site_type_symbol
 _atom_site_label
 _atom_site_symmetry_multiplicity
 _atom_site_fract_x
 _atom_site_fract_y
 _atom_site_fract_z
 _atom_site_occupancy
  Tb  Tb0  1  0.003525  0.330981  0.749009  1
  Tb  Tb1  1  0.668955  0.996396  0.251012  1
  Tb  Tb2  1  0.331034  0.003560  0.749008  1
  Y  Y3  1  0.996420  0.669013  0.251009  1
  Ga  Ga4  1  0.127953  0.128072  0.252349  1
  Ga  Ga5  1  0.871984  0.871973  0.747672  1
  Ga  Ga6  1  0.999999  0.337555  0.080518  1
  Ga  Ga7  1  0.000088  0.662529  0.919367  1
  Ga  Ga8  1  0.000389  0.665593  0.578551  1
  Ga  Ga9  1  0.334299  0.999590  0.421520  1
  Ga  Ga10  1  0.999688  0.334471  0.421550  1
  Ga  Ga11  1  0.665579  0.000336  0.578583  1
  Ga  Ga12  1  0.662517  0.000033  0.919346  1
  Ga  Ga13  1  0.337414  0.999914  0.080521  1
  Ga  Ga14  1  0.332991  0.332993  0.563678  1
  Ga  Ga15  1  0.667040  0.666990  0.436396  1
  Ga  Ga16  1  0.662974  0.662933  0.065833  1
  Ga  Ga17  1  0.336998  0.337001  0.934074  1
  Ga  Ga18  1  0.337833  0.546851  0.250607  1
  Ga  Ga19  1  0.662269  0.453263  0.749395  1
  Ga  Ga20  1  0.546724  0.337554  0.250600  1
  Ga  Ga21  1  0.453240  0.662314  0.749397  1
  Pd  Pd22  1  0.999990  0.999990  0.000056  1
  Rh  Rh23  1  0.671374  0.328640  0.000097  1
  Rh  Rh24  1  0.328686  0.671399  0.000057  1
  Rh  Rh25  1  0.328607  0.671484  0.499944  1
  Rh  Rh26  1  0.671447  0.328522  0.499911  1
  Rh  Rh27  1  0.999980  0.000050  0.499943  1
