# generated using pymatgen
data_Ce9Ho(Si2Ru3)2
_symmetry_space_group_name_H-M   'P 1'
_cell_length_a   8.28891971
_cell_length_b   8.28891921
_cell_length_c   8.28891943
_cell_angle_alpha   109.70469716
_cell_angle_beta   109.70470062
_cell_angle_gamma   109.70470443
_symmetry_Int_Tables_number   1
_chemical_formula_structural   Ce9Ho(Si2Ru3)2
_chemical_formula_sum   'Ce9 Ho1 Si4 Ru6'
_cell_volume   434.57032899
_cell_formula_units_Z   1
loop_
 _symmetry_equiv_pos_site_id
 _symmetry_equiv_pos_as_xyz
  1  'x, y, z'
loop_
 _atom_site_type_symbol
 _atom_site_label
 _atom_site_symmetry_multiplicity
 _atom_site_fract_x
 _atom_site_fract_y
 _atom_site_fract_z
 _atom_site_occupancy
  Ce  Ce0  1  0.298401  0.547669  0.752209  1
  Ce  Ce1  1  0.752209  0.298401  0.547669  1
  Ce  Ce2  1  0.547669  0.752209  0.298401  1
  Ce  Ce3  1  0.727776  0.500360  0.004862  1
  Ce  Ce4  1  0.004862  0.727776  0.500360  1
  Ce  Ce5  1  0.500360  0.004862  0.727776  1
  Ce  Ce6  1  0.245869  0.198348  0.950144  1
  Ce  Ce7  1  0.950144  0.245869  0.198348  1
  Ce  Ce8  1  0.198348  0.950144  0.245869  1
  Ho  Ho9  1  0.760268  0.760268  0.760268  1
  Si  Si10  1  0.393768  0.393768  0.393768  1
  Si  Si11  1  0.103683  0.500275  0.000862  1
  Si  Si12  1  0.000862  0.103683  0.500275  1
  Si  Si13  1  0.500275  0.000862  0.103683  1
  Ru  Ru14  1  0.886608  0.135516  0.750097  1
  Ru  Ru15  1  0.750097  0.886608  0.135516  1
  Ru  Ru16  1  0.135516  0.750097  0.886608  1
  Ru  Ru17  1  0.254835  0.618738  0.369712  1
  Ru  Ru18  1  0.369712  0.254835  0.618738  1
  Ru  Ru19  1  0.618738  0.369712  0.254835  1
