# generated using pymatgen
data_SmHo3Al18Pd5W
_symmetry_space_group_name_H-M   'P 1'
_cell_length_a   7.63574529
_cell_length_b   7.64226280
_cell_length_c   9.54013124
_cell_angle_alpha   89.65403599
_cell_angle_beta   89.60641189
_cell_angle_gamma   118.80110598
_symmetry_Int_Tables_number   1
_chemical_formula_structural   SmHo3Al18Pd5W
_chemical_formula_sum   'Sm1 Ho3 Al18 Pd5 W1'
_cell_volume   487.80281798
_cell_formula_units_Z   1
loop_
 _symmetry_equiv_pos_site_id
 _symmetry_equiv_pos_as_xyz
  1  'x, y, z'
loop_
 _atom_site_type_symbol
 _atom_site_label
 _atom_site_symmetry_multiplicity
 _atom_site_fract_x
 _atom_site_fract_y
 _atom_site_fract_z
 _atom_site_occupancy
  Sm  Sm0  1  0.995285  0.678904  0.247361  1
  Ho  Ho1  1  0.004701  0.318779  0.753743  1
  Ho  Ho2  1  0.680488  0.995446  0.246388  1
  Ho  Ho3  1  0.319462  0.005409  0.753327  1
  Al  Al4  1  0.136991  0.137781  0.248837  1
  Al  Al5  1  0.862723  0.863446  0.750504  1
  Al  Al6  1  0.003237  0.335127  0.075521  1
  Al  Al7  1  0.997064  0.663815  0.920991  1
  Al  Al8  1  0.998511  0.659600  0.580637  1
  Al  Al9  1  0.340730  0.002606  0.422641  1
  Al  Al10  1  0.001634  0.338157  0.422986  1
  Al  Al11  1  0.660123  0.998808  0.579075  1
  Al  Al12  1  0.663610  0.997367  0.922733  1
  Al  Al13  1  0.337520  0.004620  0.075388  1
  Al  Al14  1  0.332950  0.333026  0.554718  1
  Al  Al15  1  0.666095  0.667081  0.448406  1
  Al  Al16  1  0.666335  0.667520  0.049149  1
  Al  Al17  1  0.333122  0.333284  0.947780  1
  Al  Al18  1  0.345035  0.552252  0.250333  1
  Al  Al19  1  0.655918  0.446995  0.749760  1
  Al  Al20  1  0.551098  0.342128  0.250337  1
  Al  Al21  1  0.446813  0.656787  0.749678  1
  Pd  Pd22  1  0.672736  0.327554  0.999632  1
  Pd  Pd23  1  0.327390  0.672695  0.999640  1
  Pd  Pd24  1  0.327892  0.672376  0.500414  1
  Pd  Pd25  1  0.672096  0.327433  0.500475  1
  Pd  Pd26  1  0.000024  0.000307  0.500611  1
  W  W27  1  0.000419  0.000697  0.998934  1
