# generated using pymatgen
data_Na2FeCo3As4
_symmetry_space_group_name_H-M   'P 1'
_cell_length_a   5.35412000
_cell_length_b   6.67587604
_cell_length_c   5.36215354
_cell_angle_alpha   66.69975950
_cell_angle_beta   90.00004280
_cell_angle_gamma   90.00004283
_symmetry_Int_Tables_number   1
_chemical_formula_structural   Na2FeCo3As4
_chemical_formula_sum   'Na2 Fe1 Co3 As4'
_cell_volume   176.03078781
_cell_formula_units_Z   1
loop_
 _symmetry_equiv_pos_site_id
 _symmetry_equiv_pos_as_xyz
  1  'x, y, z'
loop_
 _atom_site_type_symbol
 _atom_site_label
 _atom_site_symmetry_multiplicity
 _atom_site_fract_x
 _atom_site_fract_y
 _atom_site_fract_z
 _atom_site_occupancy
  Na  Na0  1  0.998154  0.000001  0.999999  1
  Na  Na1  1  0.501997  0.999999  0.500000  1
  Fe  Fe2  1  0.250273  0.500000  0.500002  1
  Co  Co3  1  0.249717  0.499999  0.000000  1
  Co  Co4  1  0.750223  0.500001  0.000000  1
  Co  Co5  1  0.749423  0.499999  0.500000  1
  As  As6  1  0.497496  0.716673  0.145453  1
  As  As7  1  0.002609  0.716752  0.640908  1
  As  As8  1  0.002610  0.283247  0.359091  1
  As  As9  1  0.497498  0.283326  0.854547  1
