# generated using pymatgen
data_Dy2Th(SnRh)3
_symmetry_space_group_name_H-M   'P 1'
_cell_length_a   7.56936319
_cell_length_b   7.56936330
_cell_length_c   3.92997800
_cell_angle_alpha   90.00000000
_cell_angle_beta   90.00000000
_cell_angle_gamma   119.23156848
_symmetry_Int_Tables_number   1
_chemical_formula_structural   Dy2Th(SnRh)3
_chemical_formula_sum   'Dy2 Th1 Sn3 Rh3'
_cell_volume   196.49453323
_cell_formula_units_Z   1
loop_
 _symmetry_equiv_pos_site_id
 _symmetry_equiv_pos_as_xyz
  1  'x, y, z'
loop_
 _atom_site_type_symbol
 _atom_site_label
 _atom_site_symmetry_multiplicity
 _atom_site_fract_x
 _atom_site_fract_y
 _atom_site_fract_z
 _atom_site_occupancy
  Dy  Dy0  1  0.593688  0.999663  0.500000  1
  Dy  Dy1  1  0.999663  0.593688  0.500000  1
  Th  Th2  1  0.413129  0.413129  0.500000  1
  Sn  Sn3  1  0.753975  0.753975  0.000000  1
  Sn  Sn4  1  0.257477  0.988674  0.000000  1
  Sn  Sn5  1  0.988674  0.257477  0.000000  1
  Rh  Rh6  1  0.652815  0.333475  0.000000  1
  Rh  Rh7  1  0.333475  0.652815  0.000000  1
  Rh  Rh8  1  0.007105  0.007105  0.500000  1
