# generated using pymatgen
data_Hf7Nb3GaSn7
_symmetry_space_group_name_H-M   'P 1'
_cell_length_a   5.80094100
_cell_length_b   8.62467725
_cell_length_c   8.62471200
_cell_angle_alpha   120.00054606
_cell_angle_beta   89.99943040
_cell_angle_gamma   90.00051529
_symmetry_Int_Tables_number   1
_chemical_formula_structural   Hf7Nb3GaSn7
_chemical_formula_sum   'Hf7 Nb3 Ga1 Sn7'
_cell_volume   373.69229600
_cell_formula_units_Z   1
loop_
 _symmetry_equiv_pos_site_id
 _symmetry_equiv_pos_as_xyz
  1  'x, y, z'
loop_
 _atom_site_type_symbol
 _atom_site_label
 _atom_site_symmetry_multiplicity
 _atom_site_fract_x
 _atom_site_fract_y
 _atom_site_fract_z
 _atom_site_occupancy
  Hf  Hf0  1  0.999980  0.333327  0.666663  1
  Hf  Hf1  1  0.735730  0.276997  0.000504  1
  Hf  Hf2  1  0.735751  0.723503  0.723011  1
  Hf  Hf3  1  0.735727  0.999502  0.276475  1
  Hf  Hf4  1  0.264278  0.723549  0.000509  1
  Hf  Hf5  1  0.264271  0.276946  0.276456  1
  Hf  Hf6  1  0.264248  0.999500  0.723030  1
  Nb  Nb7  1  0.499987  0.333336  0.666691  1
  Nb  Nb8  1  0.499980  0.666662  0.333325  1
  Nb  Nb9  1  0.999984  0.666678  0.333353  1
  Ga  Ga10  1  0.500074  0.999997  0.999964  1
  Sn  Sn11  1  0.754610  0.612518  0.002052  1
  Sn  Sn12  1  0.754607  0.389531  0.387493  1
  Sn  Sn13  1  0.754600  0.997954  0.610474  1
  Sn  Sn14  1  0.245361  0.389538  0.002041  1
  Sn  Sn15  1  0.245384  0.612498  0.610467  1
  Sn  Sn16  1  0.245385  0.997960  0.387490  1
  Sn  Sn17  1  0.000040  0.000002  0.000002  1
