# generated using pymatgen
data_Ti3Mn3SiBP
_symmetry_space_group_name_H-M   'P 1'
_cell_length_a   6.29309400
_cell_length_b   6.29309463
_cell_length_c   3.14138500
_cell_angle_alpha   90.00000000
_cell_angle_beta   90.00000000
_cell_angle_gamma   119.99999669
_symmetry_Int_Tables_number   1
_chemical_formula_structural   Ti3Mn3SiBP
_chemical_formula_sum   'Ti3 Mn3 Si1 B1 P1'
_cell_volume   107.74082409
_cell_formula_units_Z   1
loop_
 _symmetry_equiv_pos_site_id
 _symmetry_equiv_pos_as_xyz
  1  'x, y, z'
loop_
 _atom_site_type_symbol
 _atom_site_label
 _atom_site_symmetry_multiplicity
 _atom_site_fract_x
 _atom_site_fract_y
 _atom_site_fract_z
 _atom_site_occupancy
  Ti  Ti0  1  0.616166  0.007081  0.000000  1
  Ti  Ti1  1  0.992919  0.609085  0.000000  1
  Ti  Ti2  1  0.390915  0.383834  0.000000  1
  Mn  Mn3  1  0.240390  0.002761  0.500000  1
  Mn  Mn4  1  0.997239  0.237629  0.500000  1
  Mn  Mn5  1  0.762371  0.759610  0.500000  1
  Si  Si6  1  0.333333  0.666667  0.500000  1
  B  B7  1  0.000000  0.000000  0.000000  1
  P  P8  1  0.666667  0.333333  0.500000  1
