# generated using pymatgen
data_DyTa4(NbSn3)2
_symmetry_space_group_name_H-M   'P 1'
_cell_length_a   5.79565600
_cell_length_b   5.79694544
_cell_length_c   9.60014500
_cell_angle_alpha   90.00000000
_cell_angle_beta   90.00000000
_cell_angle_gamma   120.00736303
_symmetry_Int_Tables_number   1
_chemical_formula_structural   DyTa4(NbSn3)2
_chemical_formula_sum   'Dy1 Ta4 Nb2 Sn6'
_cell_volume   279.30454967
_cell_formula_units_Z   1
loop_
 _symmetry_equiv_pos_site_id
 _symmetry_equiv_pos_as_xyz
  1  'x, y, z'
loop_
 _atom_site_type_symbol
 _atom_site_label
 _atom_site_symmetry_multiplicity
 _atom_site_fract_x
 _atom_site_fract_y
 _atom_site_fract_z
 _atom_site_occupancy
  Dy  Dy0  1  0.000000  0.000000  0.999938  1
  Ta  Ta1  1  0.000000  0.500000  0.750781  1
  Ta  Ta2  1  0.500000  0.500000  0.750731  1
  Ta  Ta3  1  0.500000  0.000000  0.750731  1
  Ta  Ta4  1  0.000000  0.500000  0.249326  1
  Nb  Nb5  1  0.500000  0.500000  0.249593  1
  Nb  Nb6  1  0.500000  0.000000  0.249593  1
  Sn  Sn7  1  0.666986  0.333493  0.499934  1
  Sn  Sn8  1  0.333014  0.666507  0.499934  1
  Sn  Sn9  1  0.666706  0.333352  0.000076  1
  Sn  Sn10  1  0.333294  0.666648  0.000076  1
  Sn  Sn11  1  0.000000  0.000000  0.668534  1
  Sn  Sn12  1  0.000000  0.000000  0.330750  1
