# generated using pymatgen
data_Tm4Fe13Ni3(P3W)4
_symmetry_space_group_name_H-M   'P 1'
_cell_length_a   3.67659400
_cell_length_b   10.30744733
_cell_length_c   12.01333737
_cell_angle_alpha   89.94354972
_cell_angle_beta   90.00000000
_cell_angle_gamma   90.00000000
_symmetry_Int_Tables_number   1
_chemical_formula_structural   Tm4Fe13Ni3(P3W)4
_chemical_formula_sum   'Tm4 Fe13 Ni3 P12 W4'
_cell_volume   455.26080404
_cell_formula_units_Z   1
loop_
 _symmetry_equiv_pos_site_id
 _symmetry_equiv_pos_as_xyz
  1  'x, y, z'
loop_
 _atom_site_type_symbol
 _atom_site_label
 _atom_site_symmetry_multiplicity
 _atom_site_fract_x
 _atom_site_fract_y
 _atom_site_fract_z
 _atom_site_occupancy
  Tm  Tm0  1  0.250000  0.582634  0.709615  1
  Tm  Tm1  1  0.250000  0.918554  0.208120  1
  Tm  Tm2  1  0.750000  0.416375  0.290897  1
  Tm  Tm3  1  0.750000  0.081577  0.791720  1
  Fe  Fe4  1  0.750000  0.908720  0.012992  1
  Fe  Fe5  1  0.250000  0.217586  0.173269  1
  Fe  Fe6  1  0.250000  0.282192  0.672817  1
  Fe  Fe7  1  0.750000  0.781595  0.826431  1
  Fe  Fe8  1  0.750000  0.715954  0.325131  1
  Fe  Fe9  1  0.250000  0.882604  0.700047  1
  Fe  Fe10  1  0.250000  0.619463  0.198863  1
  Fe  Fe11  1  0.750000  0.117538  0.301242  1
  Fe  Fe12  1  0.750000  0.382764  0.801884  1
  Fe  Fe13  1  0.250000  0.463975  0.935695  1
  Fe  Fe14  1  0.250000  0.035347  0.435914  1
  Fe  Fe15  1  0.750000  0.536880  0.066731  1
  Fe  Fe16  1  0.750000  0.963013  0.564969  1
  Ni  Ni17  1  0.250000  0.407156  0.484566  1
  Ni  Ni18  1  0.250000  0.095545  0.983232  1
  Ni  Ni19  1  0.750000  0.591030  0.515097  1
  P  P20  1  0.250000  0.421495  0.115542  1
  P  P21  1  0.250000  0.078005  0.615709  1
  P  P22  1  0.750000  0.577730  0.885174  1
  P  P23  1  0.750000  0.921033  0.384241  1
  P  P24  1  0.250000  0.272254  0.857590  1
  P  P25  1  0.250000  0.227069  0.357091  1
  P  P26  1  0.750000  0.735554  0.137690  1
  P  P27  1  0.750000  0.771089  0.642393  1
  P  P28  1  0.250000  0.596631  0.384158  1
  P  P29  1  0.250000  0.904778  0.887347  1
  P  P30  1  0.750000  0.401383  0.617200  1
  P  P31  1  0.750000  0.094046  0.115247  1
  W  W32  1  0.250000  0.703684  0.991504  1
  W  W33  1  0.250000  0.795348  0.490877  1
  W  W34  1  0.750000  0.296451  0.009614  1
  W  W35  1  0.750000  0.202949  0.509391  1
