# generated using pymatgen
data_Y10CoHg3
_symmetry_space_group_name_H-M   'P 1'
_cell_length_a   9.65632100
_cell_length_b   9.65632136
_cell_length_c   9.57409000
_cell_angle_alpha   90.00000000
_cell_angle_beta   90.00000000
_cell_angle_gamma   119.99999533
_symmetry_Int_Tables_number   1
_chemical_formula_structural   Y10CoHg3
_chemical_formula_sum   'Y20 Co2 Hg6'
_cell_volume   773.12828593
_cell_formula_units_Z   2
loop_
 _symmetry_equiv_pos_site_id
 _symmetry_equiv_pos_as_xyz
  1  'x, y, z'
loop_
 _atom_site_type_symbol
 _atom_site_label
 _atom_site_symmetry_multiplicity
 _atom_site_fract_x
 _atom_site_fract_y
 _atom_site_fract_z
 _atom_site_occupancy
  Y  Y0  1  0.000000  0.000000  0.500000  1
  Y  Y1  1  0.000000  0.000000  0.000000  1
  Y  Y2  1  0.542258  0.457742  0.250000  1
  Y  Y3  1  0.542258  0.084516  0.250000  1
  Y  Y4  1  0.915484  0.457742  0.250000  1
  Y  Y5  1  0.457742  0.542258  0.750000  1
  Y  Y6  1  0.457742  0.915484  0.750000  1
  Y  Y7  1  0.084516  0.542258  0.750000  1
  Y  Y8  1  0.211065  0.788935  0.435203  1
  Y  Y9  1  0.211065  0.422132  0.435203  1
  Y  Y10  1  0.577868  0.788935  0.435203  1
  Y  Y11  1  0.788935  0.211065  0.564797  1
  Y  Y12  1  0.788935  0.577868  0.564797  1
  Y  Y13  1  0.422132  0.211065  0.564797  1
  Y  Y14  1  0.788935  0.211065  0.935203  1
  Y  Y15  1  0.788935  0.577868  0.935203  1
  Y  Y16  1  0.422132  0.211065  0.935203  1
  Y  Y17  1  0.211065  0.788935  0.064797  1
  Y  Y18  1  0.211065  0.422132  0.064797  1
  Y  Y19  1  0.577868  0.788935  0.064797  1
  Co  Co20  1  0.333333  0.666667  0.250000  1
  Co  Co21  1  0.666667  0.333333  0.750000  1
  Hg  Hg22  1  0.880629  0.119371  0.250000  1
  Hg  Hg23  1  0.880629  0.761258  0.250000  1
  Hg  Hg24  1  0.238742  0.119371  0.250000  1
  Hg  Hg25  1  0.119371  0.880629  0.750000  1
  Hg  Hg26  1  0.119371  0.238742  0.750000  1
  Hg  Hg27  1  0.761258  0.880629  0.750000  1
