# generated using pymatgen
data_Sc10Ga3Bi2Ir
_symmetry_space_group_name_H-M   'P 1'
_cell_length_a   8.26099272
_cell_length_b   8.26099242
_cell_length_c   8.30622672
_cell_angle_alpha   126.54623592
_cell_angle_beta   126.54623720
_cell_angle_gamma   78.61131655
_symmetry_Int_Tables_number   1
_chemical_formula_structural   Sc10Ga3Bi2Ir
_chemical_formula_sum   'Sc10 Ga3 Bi2 Ir1'
_cell_volume   354.84624337
_cell_formula_units_Z   1
loop_
 _symmetry_equiv_pos_site_id
 _symmetry_equiv_pos_as_xyz
  1  'x, y, z'
loop_
 _atom_site_type_symbol
 _atom_site_label
 _atom_site_symmetry_multiplicity
 _atom_site_fract_x
 _atom_site_fract_y
 _atom_site_fract_z
 _atom_site_occupancy
  Sc  Sc0  1  0.002070  0.006281  0.008352  1
  Sc  Sc1  1  0.493719  0.497930  0.991648  1
  Sc  Sc2  1  0.017052  0.504830  0.802719  1
  Sc  Sc3  1  0.714333  0.202110  0.197281  1
  Sc  Sc4  1  0.514586  0.699640  0.500000  1
  Sc  Sc5  1  0.195924  0.035753  0.500000  1
  Sc  Sc6  1  0.995170  0.482948  0.197281  1
  Sc  Sc7  1  0.297890  0.785667  0.802719  1
  Sc  Sc8  1  0.464247  0.304076  0.500000  1
  Sc  Sc9  1  0.800360  0.985414  0.500000  1
  Ga  Ga10  1  0.365531  0.860997  0.226527  1
  Ga  Ga11  1  0.639003  0.134469  0.773473  1
  Ga  Ga12  1  0.860283  0.639717  0.500000  1
  Bi  Bi13  1  0.755965  0.744035  0.000000  1
  Bi  Bi14  1  0.255965  0.244035  0.000000  1
  Ir  Ir15  1  0.127904  0.372096  0.500000  1
