# generated using pymatgen
data_Dy3Er(MoN3)4
_symmetry_space_group_name_H-M   'P 1'
_cell_length_a   7.32289464
_cell_length_b   7.32289420
_cell_length_c   6.27453329
_cell_angle_alpha   73.42929831
_cell_angle_beta   73.42929318
_cell_angle_gamma   81.31600218
_symmetry_Int_Tables_number   1
_chemical_formula_structural   Dy3Er(MoN3)4
_chemical_formula_sum   'Dy3 Er1 Mo4 N12'
_cell_volume   308.21303369
_cell_formula_units_Z   1
loop_
 _symmetry_equiv_pos_site_id
 _symmetry_equiv_pos_as_xyz
  1  'x, y, z'
loop_
 _atom_site_type_symbol
 _atom_site_label
 _atom_site_symmetry_multiplicity
 _atom_site_fract_x
 _atom_site_fract_y
 _atom_site_fract_z
 _atom_site_occupancy
  Dy  Dy0  1  0.706967  0.293033  0.250000  1
  Dy  Dy1  1  0.087103  0.912897  0.250000  1
  Dy  Dy2  1  0.293081  0.706919  0.750000  1
  Er  Er3  1  0.912430  0.087570  0.750000  1
  Mo  Mo4  1  0.800661  0.619182  0.772534  1
  Mo  Mo5  1  0.199385  0.380132  0.228440  1
  Mo  Mo6  1  0.619868  0.800615  0.271560  1
  Mo  Mo7  1  0.380818  0.199339  0.727466  1
  N  N8  1  0.217894  0.000382  0.845194  1
  N  N9  1  0.367255  0.347097  0.431554  1
  N  N10  1  0.634432  0.653623  0.567386  1
  N  N11  1  0.625403  0.110852  0.662828  1
  N  N12  1  0.999618  0.782106  0.654806  1
  N  N13  1  0.781193  0.000958  0.150563  1
  N  N14  1  0.110811  0.624387  0.161213  1
  N  N15  1  0.889148  0.374597  0.837172  1
  N  N16  1  0.999042  0.218807  0.349437  1
  N  N17  1  0.346377  0.365568  0.932614  1
  N  N18  1  0.652903  0.632745  0.068446  1
  N  N19  1  0.375613  0.889189  0.338787  1
