# generated using pymatgen
data_Yb3VCoC6
_symmetry_space_group_name_H-M   'P 1'
_cell_length_a   8.10730000
_cell_length_b   8.10730021
_cell_length_c   4.99236300
_cell_angle_alpha   90.00000000
_cell_angle_beta   90.00000000
_cell_angle_gamma   120.00000621
_symmetry_Int_Tables_number   1
_chemical_formula_structural   Yb3VCoC6
_chemical_formula_sum   'Yb6 V2 Co2 C12'
_cell_volume   284.17721863
_cell_formula_units_Z   2
loop_
 _symmetry_equiv_pos_site_id
 _symmetry_equiv_pos_as_xyz
  1  'x, y, z'
loop_
 _atom_site_type_symbol
 _atom_site_label
 _atom_site_symmetry_multiplicity
 _atom_site_fract_x
 _atom_site_fract_y
 _atom_site_fract_z
 _atom_site_occupancy
  Yb  Yb0  1  0.609817  0.677255  0.750000  1
  Yb  Yb1  1  0.932563  0.609817  0.250000  1
  Yb  Yb2  1  0.677255  0.067437  0.250000  1
  Yb  Yb3  1  0.322745  0.932563  0.750000  1
  Yb  Yb4  1  0.067437  0.390183  0.750000  1
  Yb  Yb5  1  0.390183  0.322745  0.250000  1
  V  V6  1  0.000000  0.000000  0.500000  1
  V  V7  1  0.000000  0.000000  0.000000  1
  Co  Co8  1  0.666667  0.333333  0.750000  1
  Co  Co9  1  0.333333  0.666667  0.250000  1
  C  C10  1  0.953293  0.763768  0.750000  1
  C  C11  1  0.189526  0.953293  0.250000  1
  C  C12  1  0.763768  0.810474  0.250000  1
  C  C13  1  0.236232  0.189526  0.750000  1
  C  C14  1  0.810474  0.046707  0.750000  1
  C  C15  1  0.046707  0.236232  0.250000  1
  C  C16  1  0.861192  0.574630  0.750000  1
  C  C17  1  0.286562  0.861192  0.250000  1
  C  C18  1  0.574630  0.713438  0.250000  1
  C  C19  1  0.425370  0.286562  0.750000  1
  C  C20  1  0.138808  0.425370  0.250000  1
  C  C21  1  0.713438  0.138808  0.750000  1
