# generated using pymatgen
data_Pr5Ho3Sc12Si15Ag
_symmetry_space_group_name_H-M   'P 1'
_cell_length_a   7.22186449
_cell_length_b   7.45479417
_cell_length_c   14.24974636
_cell_angle_alpha   90.07101388
_cell_angle_beta   89.64544834
_cell_angle_gamma   90.27883182
_symmetry_Int_Tables_number   1
_chemical_formula_structural   Pr5Ho3Sc12Si15Ag
_chemical_formula_sum   'Pr5 Ho3 Sc12 Si15 Ag1'
_cell_volume   767.14657510
_cell_formula_units_Z   1
loop_
 _symmetry_equiv_pos_site_id
 _symmetry_equiv_pos_as_xyz
  1  'x, y, z'
loop_
 _atom_site_type_symbol
 _atom_site_label
 _atom_site_symmetry_multiplicity
 _atom_site_fract_x
 _atom_site_fract_y
 _atom_site_fract_z
 _atom_site_occupancy
  Pr  Pr0  1  0.491423  0.675630  0.597494  1
  Pr  Pr1  1  0.989221  0.833456  0.595883  1
  Pr  Pr2  1  0.989095  0.829472  0.903689  1
  Pr  Pr3  1  0.511357  0.327074  0.096273  1
  Pr  Pr4  1  0.013596  0.171475  0.097836  1
  Ho  Ho5  1  0.006712  0.172852  0.396241  1
  Ho  Ho6  1  0.511246  0.322639  0.397607  1
  Ho  Ho7  1  0.488643  0.677234  0.901029  1
  Sc  Sc8  1  0.345452  0.173696  0.627592  1
  Sc  Sc9  1  0.665055  0.823581  0.374217  1
  Sc  Sc10  1  0.665811  0.000318  0.752938  1
  Sc  Sc11  1  0.165793  0.674416  0.372895  1
  Sc  Sc12  1  0.830475  0.325000  0.877146  1
  Sc  Sc13  1  0.823559  0.326572  0.624973  1
  Sc  Sc14  1  0.836764  0.499314  0.252502  1
  Sc  Sc15  1  0.337669  0.997719  0.250326  1
  Sc  Sc16  1  0.330181  0.175157  0.876285  1
  Sc  Sc17  1  0.170808  0.674626  0.126762  1
  Sc  Sc18  1  0.669047  0.822770  0.126250  1
  Sc  Sc19  1  0.163404  0.500401  0.754667  1
  Si  Si20  1  0.290233  0.880023  0.751755  1
  Si  Si21  1  0.464720  0.619484  0.250587  1
  Si  Si22  1  0.037922  0.130688  0.749713  1
  Si  Si23  1  0.535829  0.382330  0.753787  1
  Si  Si24  1  0.963839  0.877518  0.251136  1
  Si  Si25  1  0.710597  0.121853  0.251796  1
  Si  Si26  1  0.848678  0.537830  0.039566  1
  Si  Si27  1  0.348504  0.956368  0.038369  1
  Si  Si28  1  0.157606  0.466498  0.960930  1
  Si  Si29  1  0.655579  0.044449  0.533777  1
  Si  Si30  1  0.339289  0.968983  0.458001  1
  Si  Si31  1  0.834653  0.532244  0.455830  1
  Si  Si32  1  0.787464  0.621355  0.753394  1
  Si  Si33  1  0.212654  0.375410  0.252371  1
  Si  Si34  1  0.650356  0.032350  0.959677  1
  Ag  Ag35  1  0.156763  0.449219  0.536707  1
