# generated using pymatgen
data_DyHo2Be2Co9B4
_symmetry_space_group_name_H-M   'P 1'
_cell_length_a   5.03271601
_cell_length_b   5.03123698
_cell_length_c   9.34796400
_cell_angle_alpha   90.00006758
_cell_angle_beta   90.00005167
_cell_angle_gamma   119.99557191
_symmetry_Int_Tables_number   1
_chemical_formula_structural   DyHo2Be2Co9B4
_chemical_formula_sum   'Dy1 Ho2 Be2 Co9 B4'
_cell_volume   204.99545750
_cell_formula_units_Z   1
loop_
 _symmetry_equiv_pos_site_id
 _symmetry_equiv_pos_as_xyz
  1  'x, y, z'
loop_
 _atom_site_type_symbol
 _atom_site_label
 _atom_site_symmetry_multiplicity
 _atom_site_fract_x
 _atom_site_fract_y
 _atom_site_fract_z
 _atom_site_occupancy
  Dy  Dy0  1  0.999990  0.999999  0.000115  1
  Ho  Ho1  1  0.999994  0.999998  0.337755  1
  Ho  Ho2  1  0.999998  0.999999  0.662181  1
  Be  Be3  1  0.333442  0.666648  0.000086  1
  Be  Be4  1  0.666542  0.333351  0.000086  1
  Co  Co5  1  0.499992  0.999995  0.499921  1
  Co  Co6  1  0.499987  0.500011  0.499880  1
  Co  Co7  1  0.000002  0.500002  0.499931  1
  Co  Co8  1  0.499995  0.000001  0.190295  1
  Co  Co9  1  0.499992  0.500000  0.190247  1
  Co  Co10  1  0.999995  0.499999  0.190316  1
  Co  Co11  1  0.500001  0.000001  0.809794  1
  Co  Co12  1  0.500000  0.500001  0.809775  1
  Co  Co13  1  0.999986  0.499995  0.809694  1
  B  B14  1  0.333408  0.666616  0.342144  1
  B  B15  1  0.666582  0.333385  0.342147  1
  B  B16  1  0.666599  0.333336  0.657814  1
  B  B17  1  0.333393  0.666664  0.657817  1
