# generated using pymatgen
data_Sr2Ca(NdSn2)2
_symmetry_space_group_name_H-M   'P 1'
_cell_length_a   8.29778500
_cell_length_b   8.70545400
_cell_length_c   16.41826600
_cell_angle_alpha   90.00000000
_cell_angle_beta   90.00000000
_cell_angle_gamma   90.00000000
_symmetry_Int_Tables_number   1
_chemical_formula_structural   Sr2Ca(NdSn2)2
_chemical_formula_sum   'Sr8 Ca4 Nd8 Sn16'
_cell_volume   1185.98962667
_cell_formula_units_Z   4
loop_
 _symmetry_equiv_pos_site_id
 _symmetry_equiv_pos_as_xyz
  1  'x, y, z'
loop_
 _atom_site_type_symbol
 _atom_site_label
 _atom_site_symmetry_multiplicity
 _atom_site_fract_x
 _atom_site_fract_y
 _atom_site_fract_z
 _atom_site_occupancy
  Sr  Sr0  1  0.488891  0.318590  0.905378  1
  Sr  Sr1  1  0.988891  0.181410  0.594622  1
  Sr  Sr2  1  0.511109  0.681410  0.405378  1
  Sr  Sr3  1  0.011109  0.818590  0.094622  1
  Sr  Sr4  1  0.511109  0.681410  0.094622  1
  Sr  Sr5  1  0.011109  0.818590  0.405378  1
  Sr  Sr6  1  0.488891  0.318590  0.594622  1
  Sr  Sr7  1  0.988891  0.181410  0.905378  1
  Ca  Ca8  1  0.158978  0.490395  0.750000  1
  Ca  Ca9  1  0.658978  0.009605  0.750000  1
  Ca  Ca10  1  0.841022  0.509605  0.250000  1
  Ca  Ca11  1  0.341022  0.990395  0.250000  1
  Nd  Nd12  1  0.324336  0.829901  0.877836  1
  Nd  Nd13  1  0.824336  0.670099  0.622164  1
  Nd  Nd14  1  0.675664  0.170099  0.377836  1
  Nd  Nd15  1  0.175664  0.329901  0.122164  1
  Nd  Nd16  1  0.675664  0.170099  0.122164  1
  Nd  Nd17  1  0.175664  0.329901  0.377836  1
  Nd  Nd18  1  0.324336  0.829901  0.622164  1
  Nd  Nd19  1  0.824336  0.670099  0.877836  1
  Sn  Sn20  1  0.341064  0.038730  0.040898  1
  Sn  Sn21  1  0.841064  0.461270  0.459102  1
  Sn  Sn22  1  0.658936  0.961270  0.540898  1
  Sn  Sn23  1  0.158936  0.538730  0.959102  1
  Sn  Sn24  1  0.658936  0.961270  0.959102  1
  Sn  Sn25  1  0.158936  0.538730  0.540898  1
  Sn  Sn26  1  0.341064  0.038730  0.459102  1
  Sn  Sn27  1  0.841064  0.461270  0.040898  1
  Sn  Sn28  1  0.526878  0.619748  0.750000  1
  Sn  Sn29  1  0.026878  0.880252  0.750000  1
  Sn  Sn30  1  0.473122  0.380252  0.250000  1
  Sn  Sn31  1  0.973122  0.119748  0.250000  1
  Sn  Sn32  1  0.279552  0.120533  0.750000  1
  Sn  Sn33  1  0.779552  0.379467  0.750000  1
  Sn  Sn34  1  0.720448  0.879467  0.250000  1
  Sn  Sn35  1  0.220448  0.620533  0.250000  1
