# generated using pymatgen
data_Lu3Ga2Ni7
_symmetry_space_group_name_H-M   'P 1'
_cell_length_a   5.09700900
_cell_length_b   5.09700938
_cell_length_c   15.78422000
_cell_angle_alpha   90.00000000
_cell_angle_beta   90.00000000
_cell_angle_gamma   119.99999107
_symmetry_Int_Tables_number   1
_chemical_formula_structural   Lu3Ga2Ni7
_chemical_formula_sum   'Lu6 Ga4 Ni14'
_cell_volume   355.12776583
_cell_formula_units_Z   2
loop_
 _symmetry_equiv_pos_site_id
 _symmetry_equiv_pos_as_xyz
  1  'x, y, z'
loop_
 _atom_site_type_symbol
 _atom_site_label
 _atom_site_symmetry_multiplicity
 _atom_site_fract_x
 _atom_site_fract_y
 _atom_site_fract_z
 _atom_site_occupancy
  Lu  Lu0  1  0.333333  0.666667  0.538564  1
  Lu  Lu1  1  0.666667  0.333333  0.038564  1
  Lu  Lu2  1  0.666667  0.333333  0.461436  1
  Lu  Lu3  1  0.333333  0.666667  0.961436  1
  Lu  Lu4  1  0.333333  0.666667  0.750000  1
  Lu  Lu5  1  0.666667  0.333333  0.250000  1
  Ga  Ga6  1  0.333333  0.666667  0.250000  1
  Ga  Ga7  1  0.666667  0.333333  0.750000  1
  Ga  Ga8  1  0.000000  0.000000  0.250000  1
  Ga  Ga9  1  0.000000  0.000000  0.750000  1
  Ni  Ni10  1  0.000000  0.000000  0.000000  1
  Ni  Ni11  1  0.000000  0.000000  0.500000  1
  Ni  Ni12  1  0.166805  0.333611  0.125231  1
  Ni  Ni13  1  0.833195  0.666389  0.625231  1
  Ni  Ni14  1  0.666389  0.833195  0.125231  1
  Ni  Ni15  1  0.166805  0.833195  0.125231  1
  Ni  Ni16  1  0.833195  0.166805  0.625231  1
  Ni  Ni17  1  0.333611  0.166805  0.625231  1
  Ni  Ni18  1  0.833195  0.666389  0.874769  1
  Ni  Ni19  1  0.833195  0.166805  0.874769  1
  Ni  Ni20  1  0.333611  0.166805  0.874769  1
  Ni  Ni21  1  0.666389  0.833195  0.374769  1
  Ni  Ni22  1  0.166805  0.833195  0.374769  1
  Ni  Ni23  1  0.166805  0.333611  0.374769  1
