# generated using pymatgen
data_Tb3Yb6DyGe8
_symmetry_space_group_name_H-M   'P 1'
_cell_length_a   7.46350600
_cell_length_b   7.89604200
_cell_length_c   15.23269700
_cell_angle_alpha   90.00045063
_cell_angle_beta   90.00000000
_cell_angle_gamma   90.00000000
_symmetry_Int_Tables_number   1
_chemical_formula_structural   Tb3Yb6DyGe8
_chemical_formula_sum   'Tb6 Yb12 Dy2 Ge16'
_cell_volume   897.69568874
_cell_formula_units_Z   2
loop_
 _symmetry_equiv_pos_site_id
 _symmetry_equiv_pos_as_xyz
  1  'x, y, z'
loop_
 _atom_site_type_symbol
 _atom_site_label
 _atom_site_symmetry_multiplicity
 _atom_site_fract_x
 _atom_site_fract_y
 _atom_site_fract_z
 _atom_site_occupancy
  Tb  Tb0  1  0.182688  0.672398  0.878694  1
  Tb  Tb1  1  0.682688  0.827602  0.621306  1
  Tb  Tb2  1  0.317316  0.172415  0.378683  1
  Tb  Tb3  1  0.817316  0.327585  0.121317  1
  Tb  Tb4  1  0.182684  0.672398  0.621303  1
  Tb  Tb5  1  0.682684  0.827602  0.878697  1
  Yb  Yb6  1  0.977669  0.812745  0.404546  1
  Yb  Yb7  1  0.477669  0.687255  0.095454  1
  Yb  Yb8  1  0.522332  0.312749  0.595450  1
  Yb  Yb9  1  0.022332  0.187251  0.904550  1
  Yb  Yb10  1  0.022320  0.187256  0.595449  1
  Yb  Yb11  1  0.522320  0.312744  0.904551  1
  Yb  Yb12  1  0.477682  0.687248  0.404545  1
  Yb  Yb13  1  0.977682  0.812752  0.095455  1
  Yb  Yb14  1  0.346478  0.020048  0.750001  1
  Yb  Yb15  1  0.846478  0.479952  0.749999  1
  Yb  Yb16  1  0.153516  0.520033  0.249999  1
  Yb  Yb17  1  0.653516  0.979967  0.250001  1
  Dy  Dy18  1  0.317311  0.172386  0.121311  1
  Dy  Dy19  1  0.817311  0.327614  0.378689  1
  Ge  Ge20  1  0.846940  0.533172  0.540230  1
  Ge  Ge21  1  0.346940  0.966828  0.959770  1
  Ge  Ge22  1  0.653089  0.033225  0.459737  1
  Ge  Ge23  1  0.153089  0.466775  0.040263  1
  Ge  Ge24  1  0.153013  0.466789  0.459740  1
  Ge  Ge25  1  0.653013  0.033211  0.040260  1
  Ge  Ge26  1  0.346951  0.966807  0.540251  1
  Ge  Ge27  1  0.846951  0.533193  0.959749  1
  Ge  Ge28  1  0.978930  0.882458  0.749999  1
  Ge  Ge29  1  0.478930  0.617542  0.750001  1
  Ge  Ge30  1  0.521069  0.382420  0.250008  1
  Ge  Ge31  1  0.021069  0.117580  0.249992  1
  Ge  Ge32  1  0.237272  0.384616  0.750000  1
  Ge  Ge33  1  0.737272  0.115384  0.750000  1
  Ge  Ge34  1  0.262740  0.884637  0.249988  1
  Ge  Ge35  1  0.762740  0.615363  0.250012  1
