# generated using pymatgen
data_LaNdS3
_symmetry_space_group_name_H-M   'P 1'
_cell_length_a   4.10939100
_cell_length_b   7.59120600
_cell_length_c   15.74616500
_cell_angle_alpha   90.00000000
_cell_angle_beta   90.00000000
_cell_angle_gamma   90.00000000
_symmetry_Int_Tables_number   1
_chemical_formula_structural   LaNdS3
_chemical_formula_sum   'La4 Nd4 S12'
_cell_volume   491.20529572
_cell_formula_units_Z   4
loop_
 _symmetry_equiv_pos_site_id
 _symmetry_equiv_pos_as_xyz
  1  'x, y, z'
loop_
 _atom_site_type_symbol
 _atom_site_label
 _atom_site_symmetry_multiplicity
 _atom_site_fract_x
 _atom_site_fract_y
 _atom_site_fract_z
 _atom_site_occupancy
  La  La0  1  0.250000  0.142750  0.796236  1
  La  La1  1  0.250000  0.642750  0.703764  1
  La  La2  1  0.750000  0.857250  0.203764  1
  La  La3  1  0.750000  0.357250  0.296236  1
  Nd  Nd4  1  0.250000  0.767085  0.456599  1
  Nd  Nd5  1  0.250000  0.267085  0.043401  1
  Nd  Nd6  1  0.750000  0.232915  0.543401  1
  Nd  Nd7  1  0.750000  0.732915  0.956599  1
  S  S8  1  0.250000  0.148679  0.217730  1
  S  S9  1  0.250000  0.648679  0.282270  1
  S  S10  1  0.750000  0.851321  0.782270  1
  S  S11  1  0.750000  0.351321  0.717730  1
  S  S12  1  0.250000  0.010497  0.607266  1
  S  S13  1  0.250000  0.510497  0.892734  1
  S  S14  1  0.750000  0.989503  0.392734  1
  S  S15  1  0.750000  0.489503  0.107266  1
  S  S16  1  0.250000  0.374623  0.434230  1
  S  S17  1  0.250000  0.874623  0.065770  1
  S  S18  1  0.750000  0.625377  0.565770  1
  S  S19  1  0.750000  0.125377  0.934230  1
