# generated using pymatgen
data_DyLuNb2(SbRh)4
_symmetry_space_group_name_H-M   'P 1'
_cell_length_a   6.36190097
_cell_length_b   4.49428700
_cell_length_c   8.98755437
_cell_angle_alpha   90.00000000
_cell_angle_beta   90.06323819
_cell_angle_gamma   90.00000000
_symmetry_Int_Tables_number   1
_chemical_formula_structural   DyLuNb2(SbRh)4
_chemical_formula_sum   'Dy1 Lu1 Nb2 Sb4 Rh4'
_cell_volume   256.97387476
_cell_formula_units_Z   1
loop_
 _symmetry_equiv_pos_site_id
 _symmetry_equiv_pos_as_xyz
  1  'x, y, z'
loop_
 _atom_site_type_symbol
 _atom_site_label
 _atom_site_symmetry_multiplicity
 _atom_site_fract_x
 _atom_site_fract_y
 _atom_site_fract_z
 _atom_site_occupancy
  Dy  Dy0  1  0.005172  0.499999  0.375674  1
  Lu  Lu1  1  0.505201  0.000000  0.624420  1
  Nb  Nb2  1  0.495578  0.000000  0.122430  1
  Nb  Nb3  1  0.994671  0.499999  0.877392  1
  Sb  Sb4  1  0.987162  0.000000  0.123268  1
  Sb  Sb5  1  0.510175  0.499999  0.373662  1
  Sb  Sb6  1  0.009186  0.000000  0.628944  1
  Sb  Sb7  1  0.485846  0.499999  0.874280  1
  Rh  Rh8  1  0.734682  0.499999  0.110702  1
  Rh  Rh9  1  0.271030  0.000000  0.355805  1
  Rh  Rh10  1  0.764949  0.499999  0.645748  1
  Rh  Rh11  1  0.236354  0.000000  0.887682  1
