# generated using pymatgen
data_Sr6ScMn2Co2O15
_symmetry_space_group_name_H-M   'P 1'
_cell_length_a   7.01774487
_cell_length_b   7.01774529
_cell_length_c   7.01774518
_cell_angle_alpha   87.54468356
_cell_angle_beta   87.54468161
_cell_angle_gamma   87.54467198
_symmetry_Int_Tables_number   1
_chemical_formula_structural   Sr6ScMn2Co2O15
_chemical_formula_sum   'Sr6 Sc1 Mn2 Co2 O15'
_cell_volume   344.68962700
_cell_formula_units_Z   1
loop_
 _symmetry_equiv_pos_site_id
 _symmetry_equiv_pos_as_xyz
  1  'x, y, z'
loop_
 _atom_site_type_symbol
 _atom_site_label
 _atom_site_symmetry_multiplicity
 _atom_site_fract_x
 _atom_site_fract_y
 _atom_site_fract_z
 _atom_site_occupancy
  Sr  Sr0  1  0.500000  0.858575  0.141425  1
  Sr  Sr1  1  0.141425  0.500000  0.858575  1
  Sr  Sr2  1  0.858575  0.141425  0.500000  1
  Sr  Sr3  1  0.000000  0.681130  0.318870  1
  Sr  Sr4  1  0.318870  0.000000  0.681130  1
  Sr  Sr5  1  0.681130  0.318870  0.000000  1
  Sc  Sc6  1  0.500000  0.500000  0.500000  1
  Mn  Mn7  1  0.710152  0.710152  0.710152  1
  Mn  Mn8  1  0.289848  0.289848  0.289848  1
  Co  Co9  1  0.908411  0.908411  0.908411  1
  Co  Co10  1  0.091589  0.091589  0.091589  1
  O  O11  1  0.357899  0.548641  0.239290  1
  O  O12  1  0.239290  0.357899  0.548641  1
  O  O13  1  0.548641  0.239290  0.357899  1
  O  O14  1  0.642101  0.760710  0.451359  1
  O  O15  1  0.451359  0.642101  0.760710  1
  O  O16  1  0.760710  0.451359  0.642101  1
  O  O17  1  0.198164  0.027924  0.338219  1
  O  O18  1  0.338219  0.198164  0.027924  1
  O  O19  1  0.027924  0.338219  0.198164  1
  O  O20  1  0.801836  0.661781  0.972076  1
  O  O21  1  0.972076  0.801836  0.661781  1
  O  O22  1  0.153208  0.846792  0.000000  1
  O  O23  1  0.846792  0.000000  0.153208  1
  O  O24  1  0.000000  0.153208  0.846792  1
  O  O25  1  0.661781  0.972076  0.801836  1
