# generated using pymatgen
data_HgIrRuPbO7
_symmetry_space_group_name_H-M   'P 1'
_cell_length_a   7.34074947
_cell_length_b   7.34074996
_cell_length_c   7.25475800
_cell_angle_alpha   60.38675618
_cell_angle_beta   60.38675403
_cell_angle_gamma   60.97933687
_symmetry_Int_Tables_number   1
_chemical_formula_structural   HgIrRuPbO7
_chemical_formula_sum   'Hg2 Ir2 Ru2 Pb2 O14'
_cell_volume   280.06077888
_cell_formula_units_Z   2
loop_
 _symmetry_equiv_pos_site_id
 _symmetry_equiv_pos_as_xyz
  1  'x, y, z'
loop_
 _atom_site_type_symbol
 _atom_site_label
 _atom_site_symmetry_multiplicity
 _atom_site_fract_x
 _atom_site_fract_y
 _atom_site_fract_z
 _atom_site_occupancy
  Hg  Hg0  1  0.125000  0.125000  0.625000  1
  Hg  Hg1  1  0.125000  0.125000  0.125000  1
  Ir  Ir2  1  0.625000  0.625000  0.125000  1
  Ir  Ir3  1  0.625000  0.625000  0.625000  1
  Ru  Ru4  1  0.125000  0.625000  0.625000  1
  Ru  Ru5  1  0.625000  0.125000  0.625000  1
  Pb  Pb6  1  0.625000  0.125000  0.125000  1
  Pb  Pb7  1  0.125000  0.625000  0.125000  1
  O  O8  1  0.705049  0.705049  0.294951  1
  O  O9  1  0.315041  0.315041  0.684959  1
  O  O10  1  0.685832  0.306067  0.706547  1
  O  O11  1  0.306067  0.685832  0.301554  1
  O  O12  1  0.306067  0.685832  0.706547  1
  O  O13  1  0.685832  0.306067  0.301554  1
  O  O14  1  0.544951  0.544951  0.955049  1
  O  O15  1  0.934959  0.934959  0.565041  1
  O  O16  1  0.564168  0.943933  0.543453  1
  O  O17  1  0.943933  0.564168  0.948446  1
  O  O18  1  0.943933  0.564168  0.543453  1
  O  O19  1  0.564168  0.943933  0.948446  1
  O  O20  1  0.233223  0.233223  0.266777  1
  O  O21  1  0.016777  0.016777  0.983223  1
