# generated using pymatgen
data_Dy12Th4Mg3InRu4
_symmetry_space_group_name_H-M   'P 1'
_cell_length_a   9.75599853
_cell_length_b   9.75600030
_cell_length_c   9.75599607
_cell_angle_alpha   59.95623988
_cell_angle_beta   59.95633103
_cell_angle_gamma   59.95622733
_symmetry_Int_Tables_number   1
_chemical_formula_structural   Dy12Th4Mg3InRu4
_chemical_formula_sum   'Dy12 Th4 Mg3 In1 Ru4'
_cell_volume   655.94766453
_cell_formula_units_Z   1
loop_
 _symmetry_equiv_pos_site_id
 _symmetry_equiv_pos_as_xyz
  1  'x, y, z'
loop_
 _atom_site_type_symbol
 _atom_site_label
 _atom_site_symmetry_multiplicity
 _atom_site_fract_x
 _atom_site_fract_y
 _atom_site_fract_z
 _atom_site_occupancy
  Dy  Dy0  1  0.811805  0.187209  0.187208  1
  Dy  Dy1  1  0.187754  0.811274  0.811272  1
  Dy  Dy2  1  0.187210  0.811804  0.187209  1
  Dy  Dy3  1  0.811272  0.187754  0.811273  1
  Dy  Dy4  1  0.187209  0.187209  0.811804  1
  Dy  Dy5  1  0.811272  0.811275  0.187753  1
  Dy  Dy6  1  0.935727  0.564196  0.564198  1
  Dy  Dy7  1  0.561712  0.936959  0.936961  1
  Dy  Dy8  1  0.564194  0.935727  0.564194  1
  Dy  Dy9  1  0.936961  0.561711  0.936961  1
  Dy  Dy10  1  0.564197  0.564196  0.935727  1
  Dy  Dy11  1  0.936962  0.936960  0.561711  1
  Th  Th12  1  0.345436  0.345429  0.345435  1
  Th  Th13  1  0.347677  0.347669  0.958890  1
  Th  Th14  1  0.347671  0.958895  0.347671  1
  Th  Th15  1  0.958889  0.347670  0.347677  1
  Mg  Mg16  1  0.579099  0.579099  0.261875  1
  Mg  Mg17  1  0.579102  0.261870  0.579101  1
  Mg  Mg18  1  0.261876  0.579098  0.579098  1
  In  In19  1  0.581979  0.581980  0.581979  1
  Ru  Ru20  1  0.143560  0.143564  0.143562  1
  Ru  Ru21  1  0.144560  0.144569  0.569314  1
  Ru  Ru22  1  0.144564  0.569315  0.144564  1
  Ru  Ru23  1  0.569313  0.144567  0.144561  1
