# generated using pymatgen
data_YTm4Co(P2Ru3)6
_symmetry_space_group_name_H-M   'P 1'
_cell_length_a   12.46682886
_cell_length_b   12.46682839
_cell_length_c   3.95620600
_cell_angle_alpha   90.00000000
_cell_angle_beta   90.00000000
_cell_angle_gamma   120.07765723
_symmetry_Int_Tables_number   1
_chemical_formula_structural   YTm4Co(P2Ru3)6
_chemical_formula_sum   'Y1 Tm4 Co1 P12 Ru18'
_cell_volume   532.08513881
_cell_formula_units_Z   1
loop_
 _symmetry_equiv_pos_site_id
 _symmetry_equiv_pos_as_xyz
  1  'x, y, z'
loop_
 _atom_site_type_symbol
 _atom_site_label
 _atom_site_symmetry_multiplicity
 _atom_site_fract_x
 _atom_site_fract_y
 _atom_site_fract_z
 _atom_site_occupancy
  Y  Y0  1  0.182651  0.182651  0.500000  1
  Tm  Tm1  1  0.666772  0.333429  0.000000  1
  Tm  Tm2  1  0.333429  0.666772  0.000000  1
  Tm  Tm3  1  0.817124  0.999906  0.500000  1
  Tm  Tm4  1  0.999906  0.817124  0.500000  1
  Co  Co5  1  0.999253  0.999253  0.000000  1
  P  P6  1  0.373172  0.373172  0.000000  1
  P  P7  1  0.627247  0.999879  0.000000  1
  P  P8  1  0.999879  0.627247  0.000000  1
  P  P9  1  0.829858  0.306555  0.500000  1
  P  P10  1  0.693846  0.524022  0.500000  1
  P  P11  1  0.476405  0.169965  0.500000  1
  P  P12  1  0.306555  0.829858  0.500000  1
  P  P13  1  0.524022  0.693846  0.500000  1
  P  P14  1  0.169965  0.476405  0.500000  1
  P  P15  1  0.823576  0.823576  0.000000  1
  P  P16  1  0.176172  0.998967  0.000000  1
  P  P17  1  0.998967  0.176172  0.000000  1
  Ru  Ru18  1  0.815175  0.189898  0.000000  1
  Ru  Ru19  1  0.809994  0.625579  0.000000  1
  Ru  Ru20  1  0.375747  0.184185  0.000000  1
  Ru  Ru21  1  0.189898  0.815175  0.000000  1
  Ru  Ru22  1  0.625579  0.809994  0.000000  1
  Ru  Ru23  1  0.184185  0.375747  0.000000  1
  Ru  Ru24  1  0.556561  0.556561  0.000000  1
  Ru  Ru25  1  0.443776  0.999645  0.000000  1
  Ru  Ru26  1  0.999645  0.443776  0.000000  1
  Ru  Ru27  1  0.634488  0.126853  0.500000  1
  Ru  Ru28  1  0.873235  0.507969  0.500000  1
  Ru  Ru29  1  0.492489  0.365793  0.500000  1
  Ru  Ru30  1  0.126853  0.634488  0.500000  1
  Ru  Ru31  1  0.507969  0.873235  0.500000  1
  Ru  Ru32  1  0.365793  0.492489  0.500000  1
  Ru  Ru33  1  0.721825  0.721825  0.500000  1
  Ru  Ru34  1  0.278693  0.999296  0.500000  1
  Ru  Ru35  1  0.999296  0.278693  0.500000  1
