# generated using pymatgen
data_Y16Lu4Si15Rh
_symmetry_space_group_name_H-M   'P 1'
_cell_length_a   7.39211956
_cell_length_b   7.64163932
_cell_length_c   14.58853400
_cell_angle_alpha   89.66881112
_cell_angle_beta   89.67006446
_cell_angle_gamma   90.18499623
_symmetry_Int_Tables_number   1
_chemical_formula_structural   Y16Lu4Si15Rh
_chemical_formula_sum   'Y16 Lu4 Si15 Rh1'
_cell_volume   824.04400294
_cell_formula_units_Z   1
loop_
 _symmetry_equiv_pos_site_id
 _symmetry_equiv_pos_as_xyz
  1  'x, y, z'
loop_
 _atom_site_type_symbol
 _atom_site_label
 _atom_site_symmetry_multiplicity
 _atom_site_fract_x
 _atom_site_fract_y
 _atom_site_fract_z
 _atom_site_occupancy
  Y  Y0  1  0.974316  0.816562  0.098171  1
  Y  Y1  1  0.471476  0.682583  0.401036  1
  Y  Y2  1  0.528574  0.322457  0.900284  1
  Y  Y3  1  0.029484  0.183808  0.599402  1
  Y  Y4  1  0.027880  0.184973  0.901693  1
  Y  Y5  1  0.529560  0.318119  0.598876  1
  Y  Y6  1  0.473829  0.682434  0.099893  1
  Y  Y7  1  0.969923  0.817534  0.400301  1
  Y  Y8  1  0.683615  0.811234  0.882101  1
  Y  Y9  1  0.178958  0.681163  0.622077  1
  Y  Y10  1  0.817634  0.333997  0.118515  1
  Y  Y11  1  0.315788  0.177596  0.375982  1
  Y  Y12  1  0.320624  0.179131  0.123783  1
  Y  Y13  1  0.819174  0.319670  0.376949  1
  Y  Y14  1  0.176076  0.674941  0.878240  1
  Y  Y15  1  0.683151  0.819170  0.622689  1
  Lu  Lu16  1  0.648245  0.993038  0.248798  1
  Lu  Lu17  1  0.148277  0.510298  0.247888  1
  Lu  Lu18  1  0.848148  0.486964  0.757419  1
  Lu  Lu19  1  0.352796  0.010039  0.751945  1
  Si  Si20  1  0.766615  0.631496  0.251559  1
  Si  Si21  1  0.267296  0.870098  0.250677  1
  Si  Si22  1  0.731634  0.124615  0.749050  1
  Si  Si23  1  0.234355  0.370725  0.746992  1
  Si  Si24  1  0.016969  0.105286  0.248565  1
  Si  Si25  1  0.520945  0.397550  0.251407  1
  Si  Si26  1  0.474309  0.604816  0.747172  1
  Si  Si27  1  0.979604  0.899198  0.748882  1
  Si  Si28  1  0.354577  0.972663  0.540337  1
  Si  Si29  1  0.646828  0.027816  0.042037  1
  Si  Si30  1  0.147231  0.470909  0.459717  1
  Si  Si31  1  0.155061  0.473332  0.042112  1
  Si  Si32  1  0.643303  0.027799  0.458988  1
  Si  Si33  1  0.353422  0.970148  0.960852  1
  Si  Si34  1  0.853781  0.527974  0.539387  1
  Rh  Rh35  1  0.856539  0.519864  0.956227  1
