# generated using pymatgen
data_Hf9Zr10Si16Tc
_symmetry_space_group_name_H-M   'P 1'
_cell_length_a   7.07947788
_cell_length_b   7.07947753
_cell_length_c   12.91012086
_cell_angle_alpha   89.83634415
_cell_angle_beta   89.83634167
_cell_angle_gamma   89.97525291
_symmetry_Int_Tables_number   1
_chemical_formula_structural   Hf9Zr10Si16Tc
_chemical_formula_sum   'Hf9 Zr10 Si16 Tc1'
_cell_volume   647.03706995
_cell_formula_units_Z   1
loop_
 _symmetry_equiv_pos_site_id
 _symmetry_equiv_pos_as_xyz
  1  'x, y, z'
loop_
 _atom_site_type_symbol
 _atom_site_label
 _atom_site_symmetry_multiplicity
 _atom_site_fract_x
 _atom_site_fract_y
 _atom_site_fract_z
 _atom_site_occupancy
  Hf  Hf0  1  0.324600  0.675400  0.250000  1
  Hf  Hf1  1  0.499075  0.354324  0.123735  1
  Hf  Hf2  1  0.503836  0.644173  0.629271  1
  Hf  Hf3  1  0.854469  0.001303  0.876135  1
  Hf  Hf4  1  0.146612  0.998630  0.377754  1
  Hf  Hf5  1  0.645676  0.500925  0.376265  1
  Hf  Hf6  1  0.355827  0.496164  0.870729  1
  Hf  Hf7  1  0.001370  0.853388  0.122246  1
  Hf  Hf8  1  0.998697  0.145531  0.623865  1
  Zr  Zr9  1  0.823762  0.823800  0.502313  1
  Zr  Zr10  1  0.176200  0.176238  0.997687  1
  Zr  Zr11  1  0.496515  0.152298  0.532570  1
  Zr  Zr12  1  0.503946  0.847858  0.030984  1
  Zr  Zr13  1  0.651669  0.003596  0.284190  1
  Zr  Zr14  1  0.345253  0.997882  0.782552  1
  Zr  Zr15  1  0.847702  0.503485  0.967430  1
  Zr  Zr16  1  0.152142  0.496054  0.469016  1
  Zr  Zr17  1  0.002118  0.654747  0.717448  1
  Zr  Zr18  1  0.996404  0.348331  0.215810  1
  Si  Si19  1  0.794316  0.145249  0.071707  1
  Si  Si20  1  0.205933  0.852935  0.572621  1
  Si  Si21  1  0.645643  0.703966  0.823293  1
  Si  Si22  1  0.355230  0.295508  0.321775  1
  Si  Si23  1  0.854751  0.205684  0.428293  1
  Si  Si24  1  0.147065  0.794067  0.927379  1
  Si  Si25  1  0.704492  0.644770  0.178225  1
  Si  Si26  1  0.296034  0.354357  0.676707  1
  Si  Si27  1  0.556127  0.203782  0.931975  1
  Si  Si28  1  0.448867  0.799257  0.437113  1
  Si  Si29  1  0.697543  0.957881  0.688068  1
  Si  Si30  1  0.301041  0.049939  0.186932  1
  Si  Si31  1  0.796218  0.443873  0.568025  1
  Si  Si32  1  0.200743  0.551133  0.062887  1
  Si  Si33  1  0.950061  0.698959  0.313068  1
  Si  Si34  1  0.042119  0.302457  0.811932  1
  Tc  Tc35  1  0.677943  0.322057  0.750000  1
