# generated using pymatgen
data_YbDyNbIr3
_symmetry_space_group_name_H-M   'P 1'
_cell_length_a   5.64073019
_cell_length_b   5.64073136
_cell_length_c   5.25065783
_cell_angle_alpha   57.51048908
_cell_angle_beta   57.51049082
_cell_angle_gamma   60.00000476
_symmetry_Int_Tables_number   1
_chemical_formula_structural   YbDyNbIr3
_chemical_formula_sum   'Yb1 Dy1 Nb1 Ir3'
_cell_volume   113.49025919
_cell_formula_units_Z   1
loop_
 _symmetry_equiv_pos_site_id
 _symmetry_equiv_pos_as_xyz
  1  'x, y, z'
loop_
 _atom_site_type_symbol
 _atom_site_label
 _atom_site_symmetry_multiplicity
 _atom_site_fract_x
 _atom_site_fract_y
 _atom_site_fract_z
 _atom_site_occupancy
  Yb  Yb0  1  0.750473  0.750473  0.748579  1
  Dy  Dy1  1  0.500173  0.500173  0.499481  1
  Nb  Nb2  1  0.125725  0.125725  0.622825  1
  Ir  Ir3  1  0.626028  0.123800  0.126371  1
  Ir  Ir4  1  0.123800  0.123800  0.126371  1
  Ir  Ir5  1  0.123800  0.626028  0.126371  1
