# generated using pymatgen
data_Lu9ScIn8CoCu3
_symmetry_space_group_name_H-M   'P 1'
_cell_length_a   3.54037300
_cell_length_b   7.91645944
_cell_length_c   17.67913600
_cell_angle_alpha   89.92608531
_cell_angle_beta   90.00000000
_cell_angle_gamma   90.00000000
_symmetry_Int_Tables_number   1
_chemical_formula_structural   Lu9ScIn8CoCu3
_chemical_formula_sum   'Lu9 Sc1 In8 Co1 Cu3'
_cell_volume   495.49660839
_cell_formula_units_Z   1
loop_
 _symmetry_equiv_pos_site_id
 _symmetry_equiv_pos_as_xyz
  1  'x, y, z'
loop_
 _atom_site_type_symbol
 _atom_site_label
 _atom_site_symmetry_multiplicity
 _atom_site_fract_x
 _atom_site_fract_y
 _atom_site_fract_z
 _atom_site_occupancy
  Lu  Lu0  1  0.500000  0.498516  0.499012  1
  Lu  Lu1  1  0.500000  0.877092  0.414677  1
  Lu  Lu2  1  0.500000  0.123498  0.585100  1
  Lu  Lu3  1  0.500000  0.622564  0.916504  1
  Lu  Lu4  1  0.500000  0.383252  0.088358  1
  Lu  Lu5  1  0.500000  0.265346  0.275152  1
  Lu  Lu6  1  0.500000  0.750515  0.721573  1
  Lu  Lu7  1  0.500000  0.249133  0.780720  1
  Lu  Lu8  1  0.500000  0.731072  0.218009  1
  Sc  Sc9  1  0.500000  0.998345  0.000972  1
  In  In10  1  0.000000  0.204103  0.431750  1
  In  In11  1  0.000000  0.795164  0.567421  1
  In  In12  1  0.000000  0.291572  0.935206  1
  In  In13  1  0.000000  0.707206  0.067494  1
  In  In14  1  0.000000  0.568988  0.348380  1
  In  In15  1  0.000000  0.430406  0.650300  1
  In  In16  1  0.000000  0.931420  0.853241  1
  In  In17  1  0.000000  0.070426  0.148189  1
  Co  Co18  1  0.000000  0.469197  0.195009  1
  Cu  Cu19  1  0.000000  0.968375  0.300652  1
  Cu  Cu20  1  0.000000  0.032222  0.699493  1
  Cu  Cu21  1  0.000000  0.531587  0.802788  1
