# generated using pymatgen
data_Rb8Li4DyIn3As8
_symmetry_space_group_name_H-M   'P 1'
_cell_length_a   10.56846214
_cell_length_b   10.56846319
_cell_length_c   6.65275476
_cell_angle_alpha   89.91398341
_cell_angle_beta   90.08601865
_cell_angle_gamma   102.12376042
_symmetry_Int_Tables_number   1
_chemical_formula_structural   Rb8Li4DyIn3As8
_chemical_formula_sum   'Rb8 Li4 Dy1 In3 As8'
_cell_volume   726.48772076
_cell_formula_units_Z   1
loop_
 _symmetry_equiv_pos_site_id
 _symmetry_equiv_pos_as_xyz
  1  'x, y, z'
loop_
 _atom_site_type_symbol
 _atom_site_label
 _atom_site_symmetry_multiplicity
 _atom_site_fract_x
 _atom_site_fract_y
 _atom_site_fract_z
 _atom_site_occupancy
  Rb  Rb0  1  0.574324  0.926579  0.751371  1
  Rb  Rb1  1  0.926579  0.574324  0.248629  1
  Rb  Rb2  1  0.424190  0.068121  0.244692  1
  Rb  Rb3  1  0.068121  0.424190  0.755308  1
  Rb  Rb4  1  0.679292  0.327173  0.784444  1
  Rb  Rb5  1  0.827714  0.172795  0.277743  1
  Rb  Rb6  1  0.327173  0.679292  0.215556  1
  Rb  Rb7  1  0.172795  0.827714  0.722257  1
  Li  Li8  1  0.622085  0.622085  0.000000  1
  Li  Li9  1  0.878762  0.878762  0.500000  1
  Li  Li10  1  0.378765  0.378765  0.000000  1
  Li  Li11  1  0.117787  0.117787  0.500000  1
  Dy  Dy12  1  0.373636  0.373636  0.500000  1
  In  In13  1  0.866993  0.866993  0.000000  1
  In  In14  1  0.630666  0.630666  0.500000  1
  In  In15  1  0.130161  0.130161  0.000000  1
  As  As16  1  0.342862  0.155564  0.752712  1
  As  As17  1  0.155564  0.342862  0.247288  1
  As  As18  1  0.655378  0.844002  0.252822  1
  As  As19  1  0.844002  0.655378  0.747178  1
  As  As20  1  0.907396  0.089681  0.771963  1
  As  As21  1  0.597141  0.408933  0.265442  1
  As  As22  1  0.089681  0.907396  0.228037  1
  As  As23  1  0.408933  0.597141  0.734558  1
