# generated using pymatgen
data_PrLu5Np3O18
_symmetry_space_group_name_H-M   'P 1'
_cell_length_a   9.42490203
_cell_length_b   9.43077549
_cell_length_c   5.11239028
_cell_angle_alpha   90.00000124
_cell_angle_beta   89.96652433
_cell_angle_gamma   120.02062096
_symmetry_Int_Tables_number   1
_chemical_formula_structural   PrLu5Np3O18
_chemical_formula_sum   'Pr1 Lu5 Np3 O18'
_cell_volume   393.44905260
_cell_formula_units_Z   1
loop_
 _symmetry_equiv_pos_site_id
 _symmetry_equiv_pos_as_xyz
  1  'x, y, z'
loop_
 _atom_site_type_symbol
 _atom_site_label
 _atom_site_symmetry_multiplicity
 _atom_site_fract_x
 _atom_site_fract_y
 _atom_site_fract_z
 _atom_site_occupancy
  Pr  Pr0  1  0.000000  0.625490  0.000000  1
  Lu  Lu1  1  0.000000  0.291095  0.500000  1
  Lu  Lu2  1  0.367910  0.368534  0.002211  1
  Lu  Lu3  1  0.295018  0.001243  0.500936  1
  Lu  Lu4  1  0.704982  0.706224  0.499064  1
  Lu  Lu5  1  0.632090  0.000624  0.997789  1
  Np  Np6  1  0.338558  0.667267  0.502100  1
  Np  Np7  1  0.000000  0.004506  0.000000  1
  Np  Np8  1  0.661442  0.328708  0.497900  1
  O  O9  1  0.092615  0.888219  0.775511  1
  O  O10  1  0.227478  0.772851  0.293430  1
  O  O11  1  0.126886  0.531629  0.709798  1
  O  O12  1  0.418444  0.878675  0.731012  1
  O  O13  1  0.233841  0.452471  0.273827  1
  O  O14  1  0.122939  0.216793  0.783098  1
  O  O15  1  0.215044  0.123587  0.218688  1
  O  O16  1  0.550206  0.783378  0.281108  1
  O  O17  1  0.462443  0.580500  0.724034  1
  O  O18  1  0.784956  0.908543  0.781312  1
  O  O19  1  0.449794  0.233172  0.718892  1
  O  O20  1  0.581556  0.460231  0.268988  1
  O  O21  1  0.537557  0.118057  0.275966  1
  O  O22  1  0.772522  0.545373  0.706570  1
  O  O23  1  0.907385  0.795603  0.224489  1
  O  O24  1  0.766159  0.218629  0.726173  1
  O  O25  1  0.873114  0.404743  0.290202  1
  O  O26  1  0.877061  0.093855  0.216902  1
