# generated using pymatgen
data_Ba2Ta5WS12
_symmetry_space_group_name_H-M   'P 1'
_cell_length_a   5.79631700
_cell_length_b   5.79631695
_cell_length_c   16.04432100
_cell_angle_alpha   90.00000000
_cell_angle_beta   90.00000000
_cell_angle_gamma   119.99999458
_symmetry_Int_Tables_number   1
_chemical_formula_structural   Ba2Ta5WS12
_chemical_formula_sum   'Ba2 Ta5 W1 S12'
_cell_volume   466.82730673
_cell_formula_units_Z   1
loop_
 _symmetry_equiv_pos_site_id
 _symmetry_equiv_pos_as_xyz
  1  'x, y, z'
loop_
 _atom_site_type_symbol
 _atom_site_label
 _atom_site_symmetry_multiplicity
 _atom_site_fract_x
 _atom_site_fract_y
 _atom_site_fract_z
 _atom_site_occupancy
  Ba  Ba0  1  0.000000  0.000000  0.501303  1
  Ba  Ba1  1  0.000000  0.000000  0.998697  1
  Ta  Ta2  1  0.000000  0.000000  0.750000  1
  Ta  Ta3  1  0.333333  0.666667  0.250000  1
  Ta  Ta4  1  0.666667  0.333333  0.750000  1
  Ta  Ta5  1  0.666667  0.333333  0.250000  1
  Ta  Ta6  1  0.333333  0.666667  0.750000  1
  W  W7  1  0.000000  0.000000  0.250000  1
  S  S8  1  0.332365  0.000000  0.153416  1
  S  S9  1  0.000000  0.332365  0.153416  1
  S  S10  1  0.667635  0.667635  0.153416  1
  S  S11  1  0.336865  0.336865  0.652508  1
  S  S12  1  0.667635  0.667635  0.346584  1
  S  S13  1  0.663135  0.000000  0.652508  1
  S  S14  1  0.000000  0.663135  0.652508  1
  S  S15  1  0.000000  0.663135  0.847492  1
  S  S16  1  0.336865  0.336865  0.847492  1
  S  S17  1  0.000000  0.332365  0.346584  1
  S  S18  1  0.332365  0.000000  0.346584  1
  S  S19  1  0.663135  0.000000  0.847492  1
