# generated using pymatgen
data_Zr6CoNi19As13
_symmetry_space_group_name_H-M   'P 1'
_cell_length_a   12.98398300
_cell_length_b   12.98398315
_cell_length_c   3.75038200
_cell_angle_alpha   90.00000000
_cell_angle_beta   90.00000000
_cell_angle_gamma   120.00000218
_symmetry_Int_Tables_number   1
_chemical_formula_structural   Zr6CoNi19As13
_chemical_formula_sum   'Zr6 Co1 Ni19 As13'
_cell_volume   547.54776306
_cell_formula_units_Z   1
loop_
 _symmetry_equiv_pos_site_id
 _symmetry_equiv_pos_as_xyz
  1  'x, y, z'
loop_
 _atom_site_type_symbol
 _atom_site_label
 _atom_site_symmetry_multiplicity
 _atom_site_fract_x
 _atom_site_fract_y
 _atom_site_fract_z
 _atom_site_occupancy
  Zr  Zr0  1  0.717294  0.522711  0.000000  1
  Zr  Zr1  1  0.805417  0.282706  0.000000  1
  Zr  Zr2  1  0.477289  0.194583  0.000000  1
  Zr  Zr3  1  0.524950  0.805805  0.500000  1
  Zr  Zr4  1  0.280854  0.475050  0.500000  1
  Zr  Zr5  1  0.194195  0.719146  0.500000  1
  Co  Co6  1  0.666667  0.333333  0.500000  1
  Ni  Ni7  1  0.892188  0.798675  0.000000  1
  Ni  Ni8  1  0.906487  0.107812  0.000000  1
  Ni  Ni9  1  0.201325  0.093513  0.000000  1
  Ni  Ni10  1  0.841120  0.923997  0.500000  1
  Ni  Ni11  1  0.082878  0.158880  0.500000  1
  Ni  Ni12  1  0.076003  0.917122  0.500000  1
  Ni  Ni13  1  0.333333  0.666667  0.000000  1
  Ni  Ni14  1  0.980536  0.564828  0.000000  1
  Ni  Ni15  1  0.584292  0.019464  0.000000  1
  Ni  Ni16  1  0.435172  0.415708  0.000000  1
  Ni  Ni17  1  0.928869  0.678286  0.500000  1
  Ni  Ni18  1  0.749417  0.071131  0.500000  1
  Ni  Ni19  1  0.321714  0.250583  0.500000  1
  Ni  Ni20  1  0.417893  0.980192  0.500000  1
  Ni  Ni21  1  0.562299  0.582107  0.500000  1
  Ni  Ni22  1  0.019808  0.437701  0.500000  1
  Ni  Ni23  1  0.674051  0.750899  0.000000  1
  Ni  Ni24  1  0.076848  0.325949  0.000000  1
  Ni  Ni25  1  0.249101  0.923152  0.000000  1
  As  As26  1  0.858357  0.472944  0.500000  1
  As  As27  1  0.614586  0.141643  0.500000  1
  As  As28  1  0.527056  0.385414  0.500000  1
  As  As29  1  0.765442  0.711608  0.500000  1
  As  As30  1  0.946165  0.234558  0.500000  1
  As  As31  1  0.288392  0.053835  0.500000  1
  As  As32  1  0.388721  0.859926  0.000000  1
  As  As33  1  0.471207  0.611279  0.000000  1
  As  As34  1  0.140074  0.528793  0.000000  1
  As  As35  1  0.713483  0.943500  0.000000  1
  As  As36  1  0.230018  0.286517  0.000000  1
  As  As37  1  0.056500  0.769982  0.000000  1
  As  As38  1  0.000000  0.000000  0.000000  1
