# generated using pymatgen
data_Ce3In3Ir2Pd
_symmetry_space_group_name_H-M   'P 1'
_cell_length_a   7.67548200
_cell_length_b   7.67530573
_cell_length_c   3.93243100
_cell_angle_alpha   90.00000000
_cell_angle_beta   90.00000000
_cell_angle_gamma   120.00013048
_symmetry_Int_Tables_number   1
_chemical_formula_structural   Ce3In3Ir2Pd
_chemical_formula_sum   'Ce3 In3 Ir2 Pd1'
_cell_volume   200.62844760
_cell_formula_units_Z   1
loop_
 _symmetry_equiv_pos_site_id
 _symmetry_equiv_pos_as_xyz
  1  'x, y, z'
loop_
 _atom_site_type_symbol
 _atom_site_label
 _atom_site_symmetry_multiplicity
 _atom_site_fract_x
 _atom_site_fract_y
 _atom_site_fract_z
 _atom_site_occupancy
  Ce  Ce0  1  0.417302  0.999986  0.500000  1
  Ce  Ce1  1  0.000015  0.417362  0.500000  1
  Ce  Ce2  1  0.582738  0.582760  0.500000  1
  In  In3  1  0.745605  0.999688  0.000000  1
  In  In4  1  0.999815  0.745831  0.000000  1
  In  In5  1  0.254501  0.254353  0.000000  1
  Ir  Ir6  1  0.333669  0.666687  0.000000  1
  Ir  Ir7  1  0.666427  0.333444  0.000000  1
  Pd  Pd8  1  0.999928  0.999889  0.500000  1
