# generated using pymatgen
data_Ho5TlPb2O
_symmetry_space_group_name_H-M   'P 1'
_cell_length_a   9.08266718
_cell_length_b   9.08266766
_cell_length_c   9.01004000
_cell_angle_alpha   125.56996194
_cell_angle_beta   125.56995633
_cell_angle_gamma   81.13596264
_symmetry_Int_Tables_number   1
_chemical_formula_structural   Ho5TlPb2O
_chemical_formula_sum   'Ho10 Tl2 Pb4 O2'
_cell_volume   472.31671424
_cell_formula_units_Z   2
loop_
 _symmetry_equiv_pos_site_id
 _symmetry_equiv_pos_as_xyz
  1  'x, y, z'
loop_
 _atom_site_type_symbol
 _atom_site_label
 _atom_site_symmetry_multiplicity
 _atom_site_fract_x
 _atom_site_fract_y
 _atom_site_fract_z
 _atom_site_occupancy
  Ho  Ho0  1  0.996581  0.202148  0.500000  1
  Ho  Ho1  1  0.799976  0.299976  0.801153  1
  Ho  Ho2  1  0.501176  0.001176  0.801153  1
  Ho  Ho3  1  0.498824  0.998824  0.198847  1
  Ho  Ho4  1  0.003419  0.797852  0.500000  1
  Ho  Ho5  1  0.500000  0.500000  0.000000  1
  Ho  Ho6  1  0.200024  0.700024  0.198847  1
  Ho  Ho7  1  0.702148  0.496581  0.500000  1
  Ho  Ho8  1  0.297852  0.503419  0.500000  1
  Ho  Ho9  1  0.000000  0.000000  0.000000  1
  Tl  Tl10  1  0.853807  0.353807  0.207613  1
  Tl  Tl11  1  0.146193  0.646193  0.792387  1
  Pb  Pb12  1  0.350601  0.149399  0.500000  1
  Pb  Pb13  1  0.750000  0.750000  0.000000  1
  Pb  Pb14  1  0.649399  0.850601  0.500000  1
  Pb  Pb15  1  0.250000  0.250000  0.000000  1
  O  O16  1  0.748769  0.248769  0.500000  1
  O  O17  1  0.251231  0.751231  0.500000  1
