# generated using pymatgen
data_YbHo4Sc5(In2Pt)4
_symmetry_space_group_name_H-M   'P 1'
_cell_length_a   3.58265500
_cell_length_b   7.91845187
_cell_length_c   17.75636947
_cell_angle_alpha   89.73772248
_cell_angle_beta   90.00000000
_cell_angle_gamma   90.00000000
_symmetry_Int_Tables_number   1
_chemical_formula_structural   YbHo4Sc5(In2Pt)4
_chemical_formula_sum   'Yb1 Ho4 Sc5 In8 Pt4'
_cell_volume   503.72660969
_cell_formula_units_Z   1
loop_
 _symmetry_equiv_pos_site_id
 _symmetry_equiv_pos_as_xyz
  1  'x, y, z'
loop_
 _atom_site_type_symbol
 _atom_site_label
 _atom_site_symmetry_multiplicity
 _atom_site_fract_x
 _atom_site_fract_y
 _atom_site_fract_z
 _atom_site_occupancy
  Yb  Yb0  1  0.000000  0.000000  0.000000  1
  Ho  Ho1  1  0.000000  0.243091  0.219055  1
  Ho  Ho2  1  0.000000  0.756909  0.780945  1
  Ho  Ho3  1  0.000000  0.259600  0.715308  1
  Ho  Ho4  1  0.000000  0.740400  0.284692  1
  Sc  Sc5  1  0.000000  0.114468  0.415219  1
  Sc  Sc6  1  0.000000  0.885532  0.584781  1
  Sc  Sc7  1  0.000000  0.379390  0.912019  1
  Sc  Sc8  1  0.000000  0.620610  0.087981  1
  Sc  Sc9  1  0.000000  0.500000  0.500000  1
  In  In10  1  0.500000  0.414565  0.356934  1
  In  In11  1  0.500000  0.585435  0.643066  1
  In  In12  1  0.500000  0.081635  0.850117  1
  In  In13  1  0.500000  0.918365  0.149883  1
  In  In14  1  0.500000  0.309177  0.059999  1
  In  In15  1  0.500000  0.690823  0.940001  1
  In  In16  1  0.500000  0.204177  0.557784  1
  In  In17  1  0.500000  0.795823  0.442216  1
  Pt  Pt18  1  0.500000  0.028975  0.309412  1
  Pt  Pt19  1  0.500000  0.971025  0.690588  1
  Pt  Pt20  1  0.500000  0.470660  0.805177  1
  Pt  Pt21  1  0.500000  0.529340  0.194823  1
