# generated using pymatgen
data_SmSc5H18
_symmetry_space_group_name_H-M   'P 1'
_cell_length_a   5.95050000
_cell_length_b   5.97259987
_cell_length_c   6.22064729
_cell_angle_alpha   89.91332440
_cell_angle_beta   90.00050826
_cell_angle_gamma   119.87771498
_symmetry_Int_Tables_number   1
_chemical_formula_structural   SmSc5H18
_chemical_formula_sum   'Sm1 Sc5 H18'
_cell_volume   191.69741761
_cell_formula_units_Z   1
loop_
 _symmetry_equiv_pos_site_id
 _symmetry_equiv_pos_as_xyz
  1  'x, y, z'
loop_
 _atom_site_type_symbol
 _atom_site_label
 _atom_site_symmetry_multiplicity
 _atom_site_fract_x
 _atom_site_fract_y
 _atom_site_fract_z
 _atom_site_occupancy
  Sm  Sm0  1  0.335906  0.000005  0.249993  1
  Sc  Sc1  1  0.660757  0.999993  0.750000  1
  Sc  Sc2  1  0.340692  0.346961  0.749074  1
  Sc  Sc3  1  0.993730  0.653037  0.750912  1
  Sc  Sc4  1  0.671342  0.668996  0.250629  1
  Sc  Sc5  1  0.002341  0.331014  0.249375  1
  H  H6  1  0.328263  0.941258  0.895729  1
  H  H7  1  0.626942  0.670088  0.908962  1
  H  H8  1  0.042786  0.376163  0.909689  1
  H  H9  1  0.304833  0.337044  0.414016  1
  H  H10  1  0.004378  0.678317  0.419530  1
  H  H11  1  0.678487  0.974959  0.415976  1
  H  H12  1  0.703524  0.025046  0.084038  1
  H  H13  1  0.326073  0.321700  0.080462  1
  H  H14  1  0.967794  0.662952  0.085982  1
  H  H15  1  0.666615  0.623845  0.590305  1
  H  H16  1  0.956854  0.329897  0.591035  1
  H  H17  1  0.387015  0.058735  0.604269  1
  H  H18  1  0.003727  0.999993  0.749999  1
  H  H19  1  0.981677  0.000006  0.250002  1
  H  H20  1  0.662141  0.329347  0.828058  1
  H  H21  1  0.687909  0.354480  0.292178  1
  H  H22  1  0.333435  0.645525  0.207844  1
  H  H23  1  0.332780  0.670639  0.671943  1
