# generated using pymatgen
data_YTm3Th4(ReC2)4
_symmetry_space_group_name_H-M   'P 1'
_cell_length_a   5.26541000
_cell_length_b   6.64825570
_cell_length_c   9.81981800
_cell_angle_alpha   90.09336194
_cell_angle_beta   90.00000000
_cell_angle_gamma   90.00000000
_symmetry_Int_Tables_number   1
_chemical_formula_structural   YTm3Th4(ReC2)4
_chemical_formula_sum   'Y1 Tm3 Th4 Re4 C8'
_cell_volume   343.75005071
_cell_formula_units_Z   1
loop_
 _symmetry_equiv_pos_site_id
 _symmetry_equiv_pos_as_xyz
  1  'x, y, z'
loop_
 _atom_site_type_symbol
 _atom_site_label
 _atom_site_symmetry_multiplicity
 _atom_site_fract_x
 _atom_site_fract_y
 _atom_site_fract_z
 _atom_site_occupancy
  Y  Y0  1  0.750000  0.176611  0.948916  1
  Tm  Tm1  1  0.250000  0.826709  0.052778  1
  Tm  Tm2  1  0.750000  0.673057  0.552208  1
  Tm  Tm3  1  0.250000  0.327362  0.447459  1
  Th  Th4  1  0.250000  0.470107  0.785547  1
  Th  Th5  1  0.750000  0.029409  0.287124  1
  Th  Th6  1  0.250000  0.970119  0.713934  1
  Th  Th7  1  0.750000  0.529936  0.214543  1
  Re  Re8  1  0.250000  0.272251  0.136588  1
  Re  Re9  1  0.750000  0.227511  0.634885  1
  Re  Re10  1  0.250000  0.772271  0.364657  1
  Re  Re11  1  0.750000  0.727835  0.863755  1
  C  C12  1  0.250000  0.167541  0.947787  1
  C  C13  1  0.750000  0.829526  0.053000  1
  C  C14  1  0.250000  0.666808  0.552905  1
  C  C15  1  0.750000  0.332888  0.446852  1
  C  C16  1  0.250000  0.041085  0.262357  1
  C  C17  1  0.750000  0.459809  0.760242  1
  C  C18  1  0.250000  0.541463  0.238169  1
  C  C19  1  0.750000  0.957701  0.736293  1
