# generated using pymatgen
data_CeTh(SiTc2)4
_symmetry_space_group_name_H-M   'P 1'
_cell_length_a   4.16758500
_cell_length_b   7.13160322
_cell_length_c   15.71167580
_cell_angle_alpha   90.16278994
_cell_angle_beta   90.00000000
_cell_angle_gamma   90.00000000
_symmetry_Int_Tables_number   1
_chemical_formula_structural   CeTh(SiTc2)4
_chemical_formula_sum   'Ce2 Th2 Si8 Tc16'
_cell_volume   466.97367115
_cell_formula_units_Z   2
loop_
 _symmetry_equiv_pos_site_id
 _symmetry_equiv_pos_as_xyz
  1  'x, y, z'
loop_
 _atom_site_type_symbol
 _atom_site_label
 _atom_site_symmetry_multiplicity
 _atom_site_fract_x
 _atom_site_fract_y
 _atom_site_fract_z
 _atom_site_occupancy
  Ce  Ce0  1  0.000000  0.593210  0.115776  1
  Ce  Ce1  1  0.000000  0.406790  0.884224  1
  Th  Th2  1  0.500000  0.091550  0.382465  1
  Th  Th3  1  0.500000  0.908450  0.617535  1
  Si  Si4  1  0.000000  0.827858  0.472989  1
  Si  Si5  1  0.000000  0.172142  0.527011  1
  Si  Si6  1  0.500000  0.330203  0.026763  1
  Si  Si7  1  0.500000  0.669797  0.973237  1
  Si  Si8  1  0.000000  0.313772  0.272383  1
  Si  Si9  1  0.000000  0.686228  0.727617  1
  Si  Si10  1  0.500000  0.808853  0.224626  1
  Si  Si11  1  0.500000  0.191147  0.775374  1
  Tc  Tc12  1  0.000000  0.142199  0.051186  1
  Tc  Tc13  1  0.000000  0.857801  0.948814  1
  Tc  Tc14  1  0.500000  0.641934  0.448983  1
  Tc  Tc15  1  0.500000  0.358066  0.551017  1
  Tc  Tc16  1  0.000000  0.736456  0.319420  1
  Tc  Tc17  1  0.000000  0.263544  0.680580  1
  Tc  Tc18  1  0.500000  0.237791  0.179509  1
  Tc  Tc19  1  0.500000  0.762209  0.820491  1
  Tc  Tc20  1  0.000000  0.430266  0.420876  1
  Tc  Tc21  1  0.000000  0.569734  0.579124  1
  Tc  Tc22  1  0.500000  0.930801  0.078639  1
  Tc  Tc23  1  0.500000  0.069199  0.921361  1
  Tc  Tc24  1  0.000000  0.003672  0.204979  1
  Tc  Tc25  1  0.000000  0.996328  0.795021  1
  Tc  Tc26  1  0.500000  0.504497  0.294068  1
  Tc  Tc27  1  0.500000  0.495503  0.705932  1
