# generated using pymatgen
data_Y7Er(AgRh)2
_symmetry_space_group_name_H-M   'P 1'
_cell_length_a   9.56501819
_cell_length_b   9.56326096
_cell_length_c   9.53335412
_cell_angle_alpha   60.11290797
_cell_angle_beta   60.09544120
_cell_angle_gamma   60.22913318
_symmetry_Int_Tables_number   1
_chemical_formula_structural   Y7Er(AgRh)2
_chemical_formula_sum   'Y14 Er2 Ag4 Rh4'
_cell_volume   618.66186844
_cell_formula_units_Z   2
loop_
 _symmetry_equiv_pos_site_id
 _symmetry_equiv_pos_as_xyz
  1  'x, y, z'
loop_
 _atom_site_type_symbol
 _atom_site_label
 _atom_site_symmetry_multiplicity
 _atom_site_fract_x
 _atom_site_fract_y
 _atom_site_fract_z
 _atom_site_occupancy
  Y  Y0  1  0.603926  0.189784  0.603185  1
  Y  Y1  1  0.189744  0.603928  0.603108  1
  Y  Y2  1  0.061472  0.437402  0.438411  1
  Y  Y3  1  0.437393  0.061450  0.062725  1
  Y  Y4  1  0.437086  0.061800  0.438070  1
  Y  Y5  1  0.061801  0.437074  0.063041  1
  Y  Y6  1  0.437693  0.437707  0.062295  1
  Y  Y7  1  0.062248  0.062247  0.437750  1
  Y  Y8  1  0.186248  0.813945  0.813952  1
  Y  Y9  1  0.813937  0.186240  0.185860  1
  Y  Y10  1  0.814181  0.186010  0.814185  1
  Y  Y11  1  0.186019  0.814174  0.185625  1
  Y  Y12  1  0.813340  0.813355  0.186644  1
  Y  Y13  1  0.185355  0.185358  0.814637  1
  Er  Er14  1  0.602893  0.602811  0.602292  1
  Er  Er15  1  0.602804  0.602801  0.192120  1
  Ag  Ag16  1  0.831889  0.831920  0.832212  1
  Ag  Ag17  1  0.831900  0.831861  0.503983  1
  Ag  Ag18  1  0.831531  0.504853  0.831802  1
  Ag  Ag19  1  0.504809  0.831561  0.831832  1
  Rh  Rh20  1  0.395318  0.395135  0.391253  1
  Rh  Rh21  1  0.395123  0.395333  0.818264  1
  Rh  Rh22  1  0.397381  0.815883  0.393450  1
  Rh  Rh23  1  0.815908  0.397369  0.393307  1
