# generated using pymatgen
data_YbTm5(LuPt2)4
_symmetry_space_group_name_H-M   'P 1'
_cell_length_a   7.36947600
_cell_length_b   7.45121768
_cell_length_c   14.59993700
_cell_angle_alpha   89.93601347
_cell_angle_beta   90.00000000
_cell_angle_gamma   90.00000000
_symmetry_Int_Tables_number   1
_chemical_formula_structural   YbTm5(LuPt2)4
_chemical_formula_sum   'Yb2 Tm10 Lu8 Pt16'
_cell_volume   801.70496098
_cell_formula_units_Z   2
loop_
 _symmetry_equiv_pos_site_id
 _symmetry_equiv_pos_as_xyz
  1  'x, y, z'
loop_
 _atom_site_type_symbol
 _atom_site_label
 _atom_site_symmetry_multiplicity
 _atom_site_fract_x
 _atom_site_fract_y
 _atom_site_fract_z
 _atom_site_occupancy
  Yb  Yb0  1  0.490161  0.678826  0.907213  1
  Yb  Yb1  1  0.990161  0.821174  0.592787  1
  Tm  Tm2  1  0.490714  0.678367  0.592985  1
  Tm  Tm3  1  0.990714  0.821633  0.907015  1
  Tm  Tm4  1  0.508043  0.317908  0.093786  1
  Tm  Tm5  1  0.008043  0.182092  0.406214  1
  Tm  Tm6  1  0.507784  0.319241  0.408003  1
  Tm  Tm7  1  0.007784  0.180759  0.091997  1
  Tm  Tm8  1  0.806736  0.510433  0.750731  1
  Tm  Tm9  1  0.306736  0.989567  0.749269  1
  Tm  Tm10  1  0.192510  0.490951  0.249715  1
  Tm  Tm11  1  0.692510  0.009049  0.250285  1
  Lu  Lu12  1  0.646036  0.163822  0.622235  1
  Lu  Lu13  1  0.146036  0.336178  0.877765  1
  Lu  Lu14  1  0.355597  0.833254  0.121506  1
  Lu  Lu15  1  0.855597  0.666746  0.378494  1
  Lu  Lu16  1  0.354790  0.832609  0.377540  1
  Lu  Lu17  1  0.854790  0.667391  0.122460  1
  Lu  Lu18  1  0.642832  0.166067  0.877983  1
  Lu  Lu19  1  0.142832  0.333933  0.622017  1
  Pt  Pt20  1  0.686134  0.969920  0.454805  1
  Pt  Pt21  1  0.186134  0.530080  0.045195  1
  Pt  Pt22  1  0.304814  0.039816  0.960831  1
  Pt  Pt23  1  0.804814  0.460184  0.539169  1
  Pt  Pt24  1  0.316959  0.040856  0.539010  1
  Pt  Pt25  1  0.816959  0.459144  0.960990  1
  Pt  Pt26  1  0.693221  0.970716  0.041719  1
  Pt  Pt27  1  0.193221  0.529284  0.458281  1
  Pt  Pt28  1  0.442351  0.378144  0.747365  1
  Pt  Pt29  1  0.942351  0.121856  0.752635  1
  Pt  Pt30  1  0.559231  0.617072  0.249655  1
  Pt  Pt31  1  0.059231  0.882928  0.250345  1
  Pt  Pt32  1  0.672478  0.861633  0.747873  1
  Pt  Pt33  1  0.172478  0.638367  0.752127  1
  Pt  Pt34  1  0.329609  0.141595  0.250084  1
  Pt  Pt35  1  0.829609  0.358405  0.249916  1
