# generated using pymatgen
data_Sc2Tc2B4Ru3
_symmetry_space_group_name_H-M   'P 1'
_cell_length_a   3.03690800
_cell_length_b   8.55094595
_cell_length_c   10.01359692
_cell_angle_alpha   89.99756548
_cell_angle_beta   90.00000000
_cell_angle_gamma   90.00000000
_symmetry_Int_Tables_number   1
_chemical_formula_structural   Sc2Tc2B4Ru3
_chemical_formula_sum   'Sc4 Tc4 B8 Ru6'
_cell_volume   260.03745201
_cell_formula_units_Z   2
loop_
 _symmetry_equiv_pos_site_id
 _symmetry_equiv_pos_as_xyz
  1  'x, y, z'
loop_
 _atom_site_type_symbol
 _atom_site_label
 _atom_site_symmetry_multiplicity
 _atom_site_fract_x
 _atom_site_fract_y
 _atom_site_fract_z
 _atom_site_occupancy
  Sc  Sc0  1  0.500000  0.841401  0.181592  1
  Sc  Sc1  1  0.500000  0.158599  0.818408  1
  Sc  Sc2  1  0.500000  0.658670  0.681495  1
  Sc  Sc3  1  0.500000  0.341330  0.318505  1
  Tc  Tc4  1  0.000000  0.659877  0.952790  1
  Tc  Tc5  1  0.000000  0.340123  0.047210  1
  Tc  Tc6  1  0.000000  0.840148  0.452637  1
  Tc  Tc7  1  0.000000  0.159852  0.547363  1
  B  B8  1  0.500000  0.965189  0.587680  1
  B  B9  1  0.500000  0.034811  0.412320  1
  B  B10  1  0.500000  0.849170  0.900454  1
  B  B11  1  0.500000  0.150830  0.099546  1
  B  B12  1  0.500000  0.650715  0.400282  1
  B  B13  1  0.500000  0.349285  0.599718  1
  B  B14  1  0.500000  0.465482  0.912246  1
  B  B15  1  0.500000  0.534518  0.087754  1
  Ru  Ru16  1  0.000000  0.000000  0.000000  1
  Ru  Ru17  1  0.000000  0.404589  0.760797  1
  Ru  Ru18  1  0.000000  0.595411  0.239203  1
  Ru  Ru19  1  0.000000  0.500000  0.500000  1
  Ru  Ru20  1  0.000000  0.904479  0.739276  1
  Ru  Ru21  1  0.000000  0.095521  0.260724  1
