# generated using pymatgen
data_Tb6Ho9Er5Sn16
_symmetry_space_group_name_H-M   'P 1'
_cell_length_a   8.01808412
_cell_length_b   8.15778022
_cell_length_c   15.42514202
_cell_angle_alpha   90.01306281
_cell_angle_beta   90.01143296
_cell_angle_gamma   90.02630760
_symmetry_Int_Tables_number   1
_chemical_formula_structural   Tb6Ho9Er5Sn16
_chemical_formula_sum   'Tb6 Ho9 Er5 Sn16'
_cell_volume   1008.95480819
_cell_formula_units_Z   1
loop_
 _symmetry_equiv_pos_site_id
 _symmetry_equiv_pos_as_xyz
  1  'x, y, z'
loop_
 _atom_site_type_symbol
 _atom_site_label
 _atom_site_symmetry_multiplicity
 _atom_site_fract_x
 _atom_site_fract_y
 _atom_site_fract_z
 _atom_site_occupancy
  Tb  Tb0  1  0.480669  0.679275  0.403252  1
  Tb  Tb1  1  0.980531  0.820742  0.096800  1
  Tb  Tb2  1  0.480577  0.679236  0.096471  1
  Tb  Tb3  1  0.980477  0.820994  0.403156  1
  Tb  Tb4  1  0.518957  0.320770  0.596862  1
  Tb  Tb5  1  0.019021  0.179220  0.903190  1
  Ho  Ho6  1  0.865811  0.662844  0.622948  1
  Ho  Ho7  1  0.633355  0.162784  0.377425  1
  Ho  Ho8  1  0.133601  0.337333  0.122197  1
  Ho  Ho9  1  0.633583  0.162820  0.122404  1
  Ho  Ho10  1  0.133607  0.337126  0.377587  1
  Ho  Ho11  1  0.366496  0.837498  0.622897  1
  Ho  Ho12  1  0.866597  0.662169  0.877400  1
  Ho  Ho13  1  0.520333  0.320737  0.902687  1
  Ho  Ho14  1  0.020436  0.179073  0.597542  1
  Er  Er15  1  0.365801  0.837453  0.876982  1
  Er  Er16  1  0.197751  0.503402  0.750293  1
  Er  Er17  1  0.697655  0.996627  0.749991  1
  Er  Er18  1  0.802304  0.496563  0.250154  1
  Er  Er19  1  0.302208  0.003438  0.249812  1
  Sn  Sn20  1  0.294934  0.037695  0.041346  1
  Sn  Sn21  1  0.794854  0.461907  0.458418  1
  Sn  Sn22  1  0.706564  0.963383  0.541973  1
  Sn  Sn23  1  0.207239  0.537729  0.957951  1
  Sn  Sn24  1  0.704049  0.961706  0.958004  1
  Sn  Sn25  1  0.204223  0.537843  0.541890  1
  Sn  Sn26  1  0.294210  0.038103  0.458497  1
  Sn  Sn27  1  0.794128  0.461567  0.041516  1
  Sn  Sn28  1  0.563539  0.618795  0.750286  1
  Sn  Sn29  1  0.063761  0.881134  0.750290  1
  Sn  Sn30  1  0.436154  0.380730  0.249754  1
  Sn  Sn31  1  0.936160  0.119634  0.249890  1
  Sn  Sn32  1  0.329526  0.148456  0.750437  1
  Sn  Sn33  1  0.829170  0.351281  0.749761  1
  Sn  Sn34  1  0.670778  0.851897  0.249963  1
  Sn  Sn35  1  0.170944  0.648037  0.249973  1
