# generated using pymatgen
data_Be2V3NiC
_symmetry_space_group_name_H-M   'P 1'
_cell_length_a   7.43125818
_cell_length_b   7.43125759
_cell_length_c   7.43125800
_cell_angle_alpha   60.00000707
_cell_angle_beta   60.00000972
_cell_angle_gamma   60.00000897
_symmetry_Int_Tables_number   1
_chemical_formula_structural   Be2V3NiC
_chemical_formula_sum   'Be8 V12 Ni4 C4'
_cell_volume   290.18308397
_cell_formula_units_Z   4
loop_
 _symmetry_equiv_pos_site_id
 _symmetry_equiv_pos_as_xyz
  1  'x, y, z'
loop_
 _atom_site_type_symbol
 _atom_site_label
 _atom_site_symmetry_multiplicity
 _atom_site_fract_x
 _atom_site_fract_y
 _atom_site_fract_z
 _atom_site_occupancy
  Be  Be0  1  0.737937  0.420688  0.420688  1
  Be  Be1  1  0.420688  0.737937  0.420688  1
  Be  Be2  1  0.420688  0.420688  0.737937  1
  Be  Be3  1  0.420688  0.420688  0.420688  1
  Be  Be4  1  0.512063  0.829312  0.829312  1
  Be  Be5  1  0.829312  0.512063  0.829312  1
  Be  Be6  1  0.829312  0.829312  0.512063  1
  Be  Be7  1  0.829312  0.829312  0.829312  1
  V  V8  1  0.805355  0.805355  0.194645  1
  V  V9  1  0.194645  0.194645  0.805355  1
  V  V10  1  0.805355  0.194645  0.805355  1
  V  V11  1  0.194645  0.805355  0.194645  1
  V  V12  1  0.194645  0.805355  0.805355  1
  V  V13  1  0.805355  0.194645  0.194645  1
  V  V14  1  0.444645  0.444645  0.055355  1
  V  V15  1  0.055355  0.055355  0.444645  1
  V  V16  1  0.444645  0.055355  0.444645  1
  V  V17  1  0.055355  0.444645  0.055355  1
  V  V18  1  0.055355  0.444645  0.444645  1
  V  V19  1  0.444645  0.055355  0.055355  1
  Ni  Ni20  1  0.125000  0.625000  0.625000  1
  Ni  Ni21  1  0.625000  0.125000  0.625000  1
  Ni  Ni22  1  0.625000  0.625000  0.125000  1
  Ni  Ni23  1  0.625000  0.625000  0.625000  1
  C  C24  1  0.625000  0.125000  0.125000  1
  C  C25  1  0.125000  0.625000  0.125000  1
  C  C26  1  0.125000  0.125000  0.625000  1
  C  C27  1  0.125000  0.125000  0.125000  1
