# generated using pymatgen
data_Lu2P7(IrRu5)2
_symmetry_space_group_name_H-M   'P 1'
_cell_length_a   9.38466078
_cell_length_b   9.45021919
_cell_length_c   3.94080200
_cell_angle_alpha   90.00000000
_cell_angle_beta   90.00000000
_cell_angle_gamma   120.19416374
_symmetry_Int_Tables_number   1
_chemical_formula_structural   Lu2P7(IrRu5)2
_chemical_formula_sum   'Lu2 P7 Ir2 Ru10'
_cell_volume   302.08048584
_cell_formula_units_Z   1
loop_
 _symmetry_equiv_pos_site_id
 _symmetry_equiv_pos_as_xyz
  1  'x, y, z'
loop_
 _atom_site_type_symbol
 _atom_site_label
 _atom_site_symmetry_multiplicity
 _atom_site_fract_x
 _atom_site_fract_y
 _atom_site_fract_z
 _atom_site_occupancy
  Lu  Lu0  1  0.668507  0.333645  0.500000  1
  Lu  Lu1  1  0.330545  0.665348  0.000000  1
  P  P2  1  0.599413  0.717215  0.500000  1
  P  P3  1  0.000392  0.000491  0.000000  1
  P  P4  1  0.277192  0.877659  0.500000  1
  P  P5  1  0.115050  0.403144  0.500000  1
  P  P6  1  0.883880  0.575565  0.000000  1
  P  P7  1  0.426099  0.303111  0.000000  1
  P  P8  1  0.698403  0.120615  0.000000  1
  Ir  Ir9  1  0.548718  0.939993  0.500000  1
  Ir  Ir10  1  0.389613  0.448262  0.500000  1
  Ru  Ru11  1  0.913639  0.126610  0.500000  1
  Ru  Ru12  1  0.215223  0.087705  0.500000  1
  Ru  Ru13  1  0.874360  0.791557  0.500000  1
  Ru  Ru14  1  0.725596  0.891777  0.000000  1
  Ru  Ru15  1  0.109798  0.837752  0.000000  1
  Ru  Ru16  1  0.166918  0.272382  0.000000  1
  Ru  Ru17  1  0.433265  0.067654  0.000000  1
  Ru  Ru18  1  0.935317  0.362296  0.000000  1
  Ru  Ru19  1  0.637625  0.569262  0.000000  1
  Ru  Ru20  1  0.050447  0.607956  0.500000  1
