# generated using pymatgen
data_Eu2TmAl3Si2Pt
_symmetry_space_group_name_H-M   'P 1'
_cell_length_a   7.03654852
_cell_length_b   7.03654922
_cell_length_c   4.31600100
_cell_angle_alpha   90.00000000
_cell_angle_beta   90.00000000
_cell_angle_gamma   120.09696522
_symmetry_Int_Tables_number   1
_chemical_formula_structural   Eu2TmAl3Si2Pt
_chemical_formula_sum   'Eu2 Tm1 Al3 Si2 Pt1'
_cell_volume   184.88701541
_cell_formula_units_Z   1
loop_
 _symmetry_equiv_pos_site_id
 _symmetry_equiv_pos_as_xyz
  1  'x, y, z'
loop_
 _atom_site_type_symbol
 _atom_site_label
 _atom_site_symmetry_multiplicity
 _atom_site_fract_x
 _atom_site_fract_y
 _atom_site_fract_z
 _atom_site_occupancy
  Eu  Eu0  1  0.425611  0.002003  0.000000  1
  Eu  Eu1  1  0.002003  0.425611  0.000000  1
  Tm  Tm2  1  0.581085  0.581086  0.000000  1
  Al  Al3  1  0.765378  0.995918  0.500000  1
  Al  Al4  1  0.236151  0.236152  0.500000  1
  Al  Al5  1  0.995918  0.765377  0.500000  1
  Si  Si6  1  0.662232  0.344247  0.500000  1
  Si  Si7  1  0.344246  0.662233  0.500000  1
  Pt  Pt8  1  0.987374  0.987374  0.000000  1
