# generated using pymatgen
data_Yb3Sn3GePtRh
_symmetry_space_group_name_H-M   'P 1'
_cell_length_a   7.28285300
_cell_length_b   7.28285437
_cell_length_c   4.10726200
_cell_angle_alpha   90.00000000
_cell_angle_beta   90.00000000
_cell_angle_gamma   119.99999833
_symmetry_Int_Tables_number   1
_chemical_formula_structural   Yb3Sn3GePtRh
_chemical_formula_sum   'Yb3 Sn3 Ge1 Pt1 Rh1'
_cell_volume   188.66277401
_cell_formula_units_Z   1
loop_
 _symmetry_equiv_pos_site_id
 _symmetry_equiv_pos_as_xyz
  1  'x, y, z'
loop_
 _atom_site_type_symbol
 _atom_site_label
 _atom_site_symmetry_multiplicity
 _atom_site_fract_x
 _atom_site_fract_y
 _atom_site_fract_z
 _atom_site_occupancy
  Yb  Yb0  1  0.408052  0.411354  0.000000  1
  Yb  Yb1  1  0.588646  0.996698  0.000000  1
  Yb  Yb2  1  0.003302  0.591948  0.000000  1
  Sn  Sn3  1  0.008545  0.256201  0.500000  1
  Sn  Sn4  1  0.743799  0.752343  0.500000  1
  Sn  Sn5  1  0.247657  0.991455  0.500000  1
  Ge  Ge6  1  0.666667  0.333333  0.500000  1
  Pt  Pt7  1  0.333333  0.666667  0.500000  1
  Rh  Rh8  1  0.000000  0.000000  0.000000  1
