# generated using pymatgen
data_Nd5Si2Ru
_symmetry_space_group_name_H-M   'P 1'
_cell_length_a   7.92129400
_cell_length_b   8.91173700
_cell_length_c   12.18854700
_cell_angle_alpha   90.00000000
_cell_angle_beta   90.00000000
_cell_angle_gamma   90.00000000
_symmetry_Int_Tables_number   1
_chemical_formula_structural   Nd5Si2Ru
_chemical_formula_sum   'Nd20 Si8 Ru4'
_cell_volume   860.41986792
_cell_formula_units_Z   4
loop_
 _symmetry_equiv_pos_site_id
 _symmetry_equiv_pos_as_xyz
  1  'x, y, z'
loop_
 _atom_site_type_symbol
 _atom_site_label
 _atom_site_symmetry_multiplicity
 _atom_site_fract_x
 _atom_site_fract_y
 _atom_site_fract_z
 _atom_site_occupancy
  Nd  Nd0  1  0.683722  0.466153  0.925648  1
  Nd  Nd1  1  0.183478  0.966092  0.574354  1
  Nd  Nd2  1  0.683722  0.033847  0.925648  1
  Nd  Nd3  1  0.816278  0.466153  0.425648  1
  Nd  Nd4  1  0.964114  0.750000  0.998993  1
  Nd  Nd5  1  0.464000  0.250000  0.501116  1
  Nd  Nd6  1  0.036000  0.250000  0.001116  1
  Nd  Nd7  1  0.535886  0.750000  0.498993  1
  Nd  Nd8  1  0.316522  0.533908  0.074354  1
  Nd  Nd9  1  0.816278  0.033847  0.425648  1
  Nd  Nd10  1  0.316522  0.966092  0.074354  1
  Nd  Nd11  1  0.183478  0.533908  0.574354  1
  Nd  Nd12  1  0.361282  0.750000  0.796536  1
  Nd  Nd13  1  0.861237  0.250000  0.703350  1
  Nd  Nd14  1  0.638763  0.250000  0.203350  1
  Nd  Nd15  1  0.138718  0.750000  0.296536  1
  Nd  Nd16  1  0.837077  0.750000  0.715703  1
  Nd  Nd17  1  0.337095  0.250000  0.784409  1
  Nd  Nd18  1  0.162905  0.250000  0.284409  1
  Nd  Nd19  1  0.662923  0.750000  0.215703  1
  Si  Si20  1  0.568986  0.494965  0.669792  1
  Si  Si21  1  0.931014  0.005035  0.169792  1
  Si  Si22  1  0.431192  0.995000  0.330202  1
  Si  Si23  1  0.068808  0.505000  0.830202  1
  Si  Si24  1  0.431192  0.505000  0.330202  1
  Si  Si25  1  0.068808  0.995000  0.830202  1
  Si  Si26  1  0.568986  0.005035  0.669792  1
  Si  Si27  1  0.931014  0.494965  0.169792  1
  Ru  Ru28  1  0.579743  0.750000  0.983456  1
  Ru  Ru29  1  0.079634  0.250000  0.516446  1
  Ru  Ru30  1  0.420366  0.250000  0.016446  1
  Ru  Ru31  1  0.920257  0.750000  0.483456  1
