# generated using pymatgen
data_Pr4VCo4Tc3(PRh)12
_symmetry_space_group_name_H-M   'P 1'
_cell_length_a   3.85578500
_cell_length_b   10.83214600
_cell_length_c   12.52604700
_cell_angle_alpha   90.00000000
_cell_angle_beta   90.00000000
_cell_angle_gamma   90.00000000
_symmetry_Int_Tables_number   1
_chemical_formula_structural   Pr4VCo4Tc3(PRh)12
_chemical_formula_sum   'Pr4 V1 Co4 Tc3 P12 Rh12'
_cell_volume   523.16821591
_cell_formula_units_Z   1
loop_
 _symmetry_equiv_pos_site_id
 _symmetry_equiv_pos_as_xyz
  1  'x, y, z'
loop_
 _atom_site_type_symbol
 _atom_site_label
 _atom_site_symmetry_multiplicity
 _atom_site_fract_x
 _atom_site_fract_y
 _atom_site_fract_z
 _atom_site_occupancy
  Pr  Pr0  1  0.250000  0.581819  0.705966  1
  Pr  Pr1  1  0.250000  0.917297  0.206348  1
  Pr  Pr2  1  0.750000  0.417035  0.293231  1
  Pr  Pr3  1  0.750000  0.083016  0.794135  1
  V  V4  1  0.750000  0.204149  0.514726  1
  Co  Co5  1  0.250000  0.463970  0.936557  1
  Co  Co6  1  0.250000  0.034699  0.437112  1
  Co  Co7  1  0.750000  0.536302  0.064019  1
  Co  Co8  1  0.750000  0.965704  0.562898  1
  Tc  Tc9  1  0.250000  0.706640  0.985943  1
  Tc  Tc10  1  0.250000  0.795023  0.486100  1
  Tc  Tc11  1  0.750000  0.293459  0.014238  1
  P  P12  1  0.250000  0.422629  0.105455  1
  P  P13  1  0.250000  0.078600  0.605345  1
  P  P14  1  0.750000  0.577220  0.894721  1
  P  P15  1  0.750000  0.922731  0.393827  1
  P  P16  1  0.250000  0.274378  0.874387  1
  P  P17  1  0.250000  0.226342  0.375029  1
  P  P18  1  0.750000  0.725903  0.125334  1
  P  P19  1  0.750000  0.773743  0.624886  1
  P  P20  1  0.250000  0.605236  0.392430  1
  P  P21  1  0.250000  0.894769  0.892168  1
  P  P22  1  0.750000  0.392657  0.607093  1
  P  P23  1  0.750000  0.104899  0.108005  1
  Rh  Rh24  1  0.250000  0.403970  0.487948  1
  Rh  Rh25  1  0.250000  0.095514  0.988063  1
  Rh  Rh26  1  0.750000  0.596749  0.511406  1
  Rh  Rh27  1  0.750000  0.904195  0.011169  1
  Rh  Rh28  1  0.250000  0.227407  0.179356  1
  Rh  Rh29  1  0.250000  0.272175  0.679430  1
  Rh  Rh30  1  0.750000  0.772482  0.820259  1
  Rh  Rh31  1  0.750000  0.727614  0.320449  1
  Rh  Rh32  1  0.250000  0.887461  0.696425  1
  Rh  Rh33  1  0.250000  0.613121  0.197700  1
  Rh  Rh34  1  0.750000  0.113894  0.304566  1
  Rh  Rh35  1  0.750000  0.387201  0.803275  1
