# generated using pymatgen
data_SmBe12Cu
_symmetry_space_group_name_H-M   'P 1'
_cell_length_a   7.29464931
_cell_length_b   7.31972943
_cell_length_c   7.30165682
_cell_angle_alpha   60.53039791
_cell_angle_beta   60.19566580
_cell_angle_gamma   59.94961769
_symmetry_Int_Tables_number   1
_chemical_formula_structural   SmBe12Cu
_chemical_formula_sum   'Sm2 Be24 Cu2'
_cell_volume   277.07186124
_cell_formula_units_Z   2
loop_
 _symmetry_equiv_pos_site_id
 _symmetry_equiv_pos_as_xyz
  1  'x, y, z'
loop_
 _atom_site_type_symbol
 _atom_site_label
 _atom_site_symmetry_multiplicity
 _atom_site_fract_x
 _atom_site_fract_y
 _atom_site_fract_z
 _atom_site_occupancy
  Sm  Sm0  1  0.247124  0.252876  0.252876  1
  Sm  Sm1  1  0.752876  0.747124  0.747124  1
  Be  Be2  1  0.000000  0.000000  0.000000  1
  Be  Be3  1  0.500000  0.500000  0.500000  1
  Be  Be4  1  0.065134  0.292185  0.707815  1
  Be  Be5  1  0.934866  0.707815  0.292185  1
  Be  Be6  1  0.933084  0.292810  0.064444  1
  Be  Be7  1  0.210758  0.439617  0.785945  1
  Be  Be8  1  0.066916  0.707190  0.935556  1
  Be  Be9  1  0.789242  0.560383  0.214055  1
  Be  Be10  1  0.709662  0.064444  0.292810  1
  Be  Be11  1  0.436320  0.214055  0.560383  1
  Be  Be12  1  0.290338  0.935556  0.707190  1
  Be  Be13  1  0.563680  0.785945  0.439617  1
  Be  Be14  1  0.058241  0.934817  0.298049  1
  Be  Be15  1  0.568455  0.221802  0.778198  1
  Be  Be16  1  0.941759  0.065183  0.701951  1
  Be  Be17  1  0.431545  0.778198  0.221802  1
  Be  Be18  1  0.708893  0.298049  0.934817  1
  Be  Be19  1  0.211908  0.564407  0.435593  1
  Be  Be20  1  0.291107  0.701951  0.065183  1
  Be  Be21  1  0.788092  0.435593  0.564407  1
  Be  Be22  1  0.787256  0.214300  0.434674  1
  Be  Be23  1  0.212744  0.785700  0.565326  1
  Be  Be24  1  0.563769  0.434674  0.214300  1
  Be  Be25  1  0.436231  0.565326  0.785700  1
  Cu  Cu26  1  0.302369  0.058035  0.941965  1
  Cu  Cu27  1  0.697631  0.941965  0.058035  1
