# generated using pymatgen
data_Yb4ErCd5
_symmetry_space_group_name_H-M   'P 1'
_cell_length_a   3.79823300
_cell_length_b   3.79823300
_cell_length_c   18.47272400
_cell_angle_alpha   90.00000000
_cell_angle_beta   90.00000000
_cell_angle_gamma   90.00000000
_symmetry_Int_Tables_number   1
_chemical_formula_structural   Yb4ErCd5
_chemical_formula_sum   'Yb4 Er1 Cd5'
_cell_volume   266.49811833
_cell_formula_units_Z   1
loop_
 _symmetry_equiv_pos_site_id
 _symmetry_equiv_pos_as_xyz
  1  'x, y, z'
loop_
 _atom_site_type_symbol
 _atom_site_label
 _atom_site_symmetry_multiplicity
 _atom_site_fract_x
 _atom_site_fract_y
 _atom_site_fract_z
 _atom_site_occupancy
  Yb  Yb0  1  0.000000  0.000000  0.199041  1
  Yb  Yb1  1  0.000000  0.000000  0.399608  1
  Yb  Yb2  1  0.000000  0.000000  0.600392  1
  Yb  Yb3  1  0.000000  0.000000  0.800959  1
  Er  Er4  1  0.000000  0.000000  0.000000  1
  Cd  Cd5  1  0.500000  0.500000  0.098829  1
  Cd  Cd6  1  0.500000  0.500000  0.300730  1
  Cd  Cd7  1  0.500000  0.500000  0.500000  1
  Cd  Cd8  1  0.500000  0.500000  0.699270  1
  Cd  Cd9  1  0.500000  0.500000  0.901171  1
