# generated using pymatgen
data_LiTm2CuSi3
_symmetry_space_group_name_H-M   'P 1'
_cell_length_a   9.01753215
_cell_length_b   9.01753219
_cell_length_c   6.60083700
_cell_angle_alpha   89.73679842
_cell_angle_beta   90.26320158
_cell_angle_gamma   153.39820649
_symmetry_Int_Tables_number   1
_chemical_formula_structural   LiTm2CuSi3
_chemical_formula_sum   'Li2 Tm4 Cu2 Si6'
_cell_volume   240.34833965
_cell_formula_units_Z   2
loop_
 _symmetry_equiv_pos_site_id
 _symmetry_equiv_pos_as_xyz
  1  'x, y, z'
loop_
 _atom_site_type_symbol
 _atom_site_label
 _atom_site_symmetry_multiplicity
 _atom_site_fract_x
 _atom_site_fract_y
 _atom_site_fract_z
 _atom_site_occupancy
  Li  Li0  1  0.191836  0.808164  0.060893  1
  Li  Li1  1  0.808164  0.191836  0.939107  1
  Tm  Tm2  1  0.551359  0.448641  0.250545  1
  Tm  Tm3  1  0.448641  0.551359  0.749455  1
  Tm  Tm4  1  0.343995  0.656005  0.259285  1
  Tm  Tm5  1  0.656005  0.343995  0.740715  1
  Cu  Cu6  1  0.813591  0.186409  0.563898  1
  Cu  Cu7  1  0.186409  0.813591  0.436102  1
  Si  Si8  1  0.938827  0.061173  0.069981  1
  Si  Si9  1  0.061173  0.938827  0.930019  1
  Si  Si10  1  0.061121  0.938879  0.571390  1
  Si  Si11  1  0.938879  0.061121  0.428610  1
  Si  Si12  1  0.720898  0.279102  0.268295  1
  Si  Si13  1  0.279102  0.720898  0.731705  1
