# generated using pymatgen
data_Dy2Ho4BiO12
_symmetry_space_group_name_H-M   'P 1'
_cell_length_a   6.54860628
_cell_length_b   6.54642162
_cell_length_c   6.54687107
_cell_angle_alpha   99.08459781
_cell_angle_beta   99.07337153
_cell_angle_gamma   99.06534361
_symmetry_Int_Tables_number   1
_chemical_formula_structural   Dy2Ho4BiO12
_chemical_formula_sum   'Dy2 Ho4 Bi1 O12'
_cell_volume   268.84166048
_cell_formula_units_Z   1
loop_
 _symmetry_equiv_pos_site_id
 _symmetry_equiv_pos_as_xyz
  1  'x, y, z'
loop_
 _atom_site_type_symbol
 _atom_site_label
 _atom_site_symmetry_multiplicity
 _atom_site_fract_x
 _atom_site_fract_y
 _atom_site_fract_z
 _atom_site_occupancy
  Dy  Dy0  1  0.140941  0.308242  0.609126  1
  Dy  Dy1  1  0.390850  0.858603  0.691705  1
  Ho  Ho2  1  0.692018  0.391069  0.859267  1
  Ho  Ho3  1  0.308497  0.609375  0.141620  1
  Ho  Ho4  1  0.609157  0.140616  0.307824  1
  Ho  Ho5  1  0.858916  0.691733  0.390399  1
  Bi  Bi6  1  0.999955  0.999911  0.000126  1
  O  O7  1  0.071740  0.316871  0.949936  1
  O  O8  1  0.049972  0.928028  0.683195  1
  O  O9  1  0.415947  0.566484  0.822736  1
  O  O10  1  0.177962  0.585172  0.432053  1
  O  O11  1  0.683923  0.051868  0.928887  1
  O  O12  1  0.434388  0.178935  0.584574  1
  O  O13  1  0.567443  0.821395  0.413977  1
  O  O14  1  0.316614  0.949098  0.072159  1
  O  O15  1  0.820266  0.415488  0.566723  1
  O  O16  1  0.584862  0.432918  0.178727  1
  O  O17  1  0.948373  0.071010  0.316221  1
  O  O18  1  0.928175  0.683185  0.050745  1
