# generated using pymatgen
data_Ac4Sn25Pt12
_symmetry_space_group_name_H-M   'P 1'
_cell_length_a   10.91312308
_cell_length_b   10.91312283
_cell_length_c   10.91312400
_cell_angle_alpha   109.47122280
_cell_angle_beta   109.47122235
_cell_angle_gamma   109.47122200
_symmetry_Int_Tables_number   1
_chemical_formula_structural   Ac4Sn25Pt12
_chemical_formula_sum   'Ac4 Sn25 Pt12'
_cell_volume   1000.51883266
_cell_formula_units_Z   1
loop_
 _symmetry_equiv_pos_site_id
 _symmetry_equiv_pos_as_xyz
  1  'x, y, z'
loop_
 _atom_site_type_symbol
 _atom_site_label
 _atom_site_symmetry_multiplicity
 _atom_site_fract_x
 _atom_site_fract_y
 _atom_site_fract_z
 _atom_site_occupancy
  Ac  Ac0  1  0.000000  0.500000  0.000000  1
  Ac  Ac1  1  0.000000  0.000000  0.500000  1
  Ac  Ac2  1  0.500000  0.500000  0.500000  1
  Ac  Ac3  1  0.500000  0.000000  0.000000  1
  Sn  Sn4  1  0.749872  0.627963  0.878091  1
  Sn  Sn5  1  0.620421  0.373191  0.993611  1
  Sn  Sn6  1  0.121909  0.749872  0.871781  1
  Sn  Sn7  1  0.121909  0.250128  0.372037  1
  Sn  Sn8  1  0.379579  0.373191  0.752770  1
  Sn  Sn9  1  0.000000  0.000000  0.000000  1
  Sn  Sn10  1  0.128219  0.878091  0.250128  1
  Sn  Sn11  1  0.627963  0.878091  0.749872  1
  Sn  Sn12  1  0.372037  0.121909  0.250128  1
  Sn  Sn13  1  0.871781  0.121909  0.749872  1
  Sn  Sn14  1  0.373191  0.752770  0.379579  1
  Sn  Sn15  1  0.250128  0.128219  0.878091  1
  Sn  Sn16  1  0.006389  0.379579  0.626809  1
  Sn  Sn17  1  0.993611  0.620421  0.373191  1
  Sn  Sn18  1  0.250128  0.372037  0.121909  1
  Sn  Sn19  1  0.626809  0.247230  0.620421  1
  Sn  Sn20  1  0.878091  0.250128  0.128219  1
  Sn  Sn21  1  0.247230  0.620421  0.626809  1
  Sn  Sn22  1  0.749872  0.871781  0.121909  1
  Sn  Sn23  1  0.752770  0.379579  0.373191  1
  Sn  Sn24  1  0.626809  0.006389  0.379579  1
  Sn  Sn25  1  0.373191  0.993611  0.620421  1
  Sn  Sn26  1  0.878091  0.749872  0.627963  1
  Sn  Sn27  1  0.379579  0.626809  0.006389  1
  Sn  Sn28  1  0.620421  0.626809  0.247230  1
  Pt  Pt29  1  0.486416  0.319147  0.167269  1
  Pt  Pt30  1  0.151878  0.319147  0.832731  1
  Pt  Pt31  1  0.167269  0.848122  0.680853  1
  Pt  Pt32  1  0.319147  0.167269  0.486416  1
  Pt  Pt33  1  0.848122  0.680853  0.167269  1
  Pt  Pt34  1  0.832731  0.513584  0.680853  1
  Pt  Pt35  1  0.319147  0.832731  0.151878  1
  Pt  Pt36  1  0.680853  0.167269  0.848122  1
  Pt  Pt37  1  0.680853  0.832731  0.513584  1
  Pt  Pt38  1  0.832731  0.151878  0.319147  1
  Pt  Pt39  1  0.167269  0.486416  0.319147  1
  Pt  Pt40  1  0.513584  0.680853  0.832731  1
