# generated using pymatgen
data_PrTh7(Sc3Ga4)4
_symmetry_space_group_name_H-M   'P 1'
_cell_length_a   7.42208251
_cell_length_b   7.69463804
_cell_length_c   14.60809297
_cell_angle_alpha   90.00538776
_cell_angle_beta   89.95857081
_cell_angle_gamma   89.98943340
_symmetry_Int_Tables_number   1
_chemical_formula_structural   PrTh7(Sc3Ga4)4
_chemical_formula_sum   'Pr1 Th7 Sc12 Ga16'
_cell_volume   834.27143729
_cell_formula_units_Z   1
loop_
 _symmetry_equiv_pos_site_id
 _symmetry_equiv_pos_as_xyz
  1  'x, y, z'
loop_
 _atom_site_type_symbol
 _atom_site_label
 _atom_site_symmetry_multiplicity
 _atom_site_fract_x
 _atom_site_fract_y
 _atom_site_fract_z
 _atom_site_occupancy
  Pr  Pr0  1  0.011006  0.174796  0.095903  1
  Th  Th1  1  0.011619  0.176497  0.403751  1
  Th  Th2  1  0.511606  0.323654  0.403493  1
  Th  Th3  1  0.488276  0.676140  0.903729  1
  Th  Th4  1  0.488753  0.675811  0.596257  1
  Th  Th5  1  0.988894  0.824201  0.596293  1
  Th  Th6  1  0.988509  0.823613  0.903482  1
  Th  Th7  1  0.511498  0.324258  0.096535  1
  Sc  Sc8  1  0.328233  0.172938  0.624264  1
  Sc  Sc9  1  0.671334  0.826790  0.375462  1
  Sc  Sc10  1  0.664088  0.000437  0.750099  1
  Sc  Sc11  1  0.170874  0.673502  0.375576  1
  Sc  Sc12  1  0.827757  0.327395  0.875550  1
  Sc  Sc13  1  0.828709  0.326544  0.624190  1
  Sc  Sc14  1  0.836314  0.500494  0.249872  1
  Sc  Sc15  1  0.336440  0.999795  0.249708  1
  Sc  Sc16  1  0.329431  0.172602  0.875417  1
  Sc  Sc17  1  0.171705  0.672791  0.124382  1
  Sc  Sc18  1  0.671000  0.826925  0.124425  1
  Sc  Sc19  1  0.163746  0.499177  0.750218  1
  Ga  Ga20  1  0.287793  0.876906  0.749905  1
  Ga  Ga21  1  0.469058  0.621606  0.250246  1
  Ga  Ga22  1  0.031084  0.122813  0.750015  1
  Ga  Ga23  1  0.531161  0.377799  0.749778  1
  Ga  Ga24  1  0.158405  0.461943  0.540554  1
  Ga  Ga25  1  0.968595  0.877207  0.250685  1
  Ga  Ga26  1  0.711760  0.122547  0.250852  1
  Ga  Ga27  1  0.841633  0.539196  0.040408  1
  Ga  Ga28  1  0.342800  0.961483  0.040501  1
  Ga  Ga29  1  0.158055  0.462512  0.959178  1
  Ga  Ga30  1  0.658322  0.038321  0.540555  1
  Ga  Ga31  1  0.341616  0.961584  0.459579  1
  Ga  Ga32  1  0.841413  0.538550  0.459510  1
  Ga  Ga33  1  0.787802  0.622948  0.749815  1
  Ga  Ga34  1  0.213259  0.378568  0.250804  1
  Ga  Ga35  1  0.657451  0.037654  0.959010  1
