# generated using pymatgen
data_Li4As6Ir5Pd2
_symmetry_space_group_name_H-M   'P 1'
_cell_length_a   7.02244525
_cell_length_b   7.00939080
_cell_length_c   7.00939026
_cell_angle_alpha   110.24125957
_cell_angle_beta   109.05072620
_cell_angle_gamma   109.05072302
_symmetry_Int_Tables_number   1
_chemical_formula_structural   Li4As6Ir5Pd2
_chemical_formula_sum   'Li4 As6 Ir5 Pd2'
_cell_volume   265.80286025
_cell_formula_units_Z   1
loop_
 _symmetry_equiv_pos_site_id
 _symmetry_equiv_pos_as_xyz
  1  'x, y, z'
loop_
 _atom_site_type_symbol
 _atom_site_label
 _atom_site_symmetry_multiplicity
 _atom_site_fract_x
 _atom_site_fract_y
 _atom_site_fract_z
 _atom_site_occupancy
  Li  Li0  1  0.000000  0.997006  0.499026  1
  Li  Li1  1  0.500000  0.000937  0.999063  1
  Li  Li2  1  0.000000  0.500974  0.002994  1
  Li  Li3  1  0.500000  0.500937  0.499063  1
  As  As4  1  0.696771  0.689457  0.007314  1
  As  As5  1  0.317604  0.311373  0.006232  1
  As  As6  1  0.000000  0.694983  0.684959  1
  As  As7  1  0.000000  0.315041  0.305017  1
  As  As8  1  0.682396  0.993768  0.688627  1
  As  As9  1  0.303229  0.992686  0.310543  1
  Ir  Ir10  1  0.000000  0.999144  0.000856  1
  Ir  Ir11  1  0.500000  0.249967  0.750033  1
  Ir  Ir12  1  0.500000  0.749967  0.250033  1
  Ir  Ir13  1  0.754084  0.503229  0.250855  1
  Ir  Ir14  1  0.245916  0.749145  0.496771  1
  Pd  Pd15  1  0.250007  0.500696  0.749311  1
  Pd  Pd16  1  0.749993  0.250689  0.499304  1
