# generated using pymatgen
data_LuCd3P6N13
_symmetry_space_group_name_H-M   'P 1'
_cell_length_a   7.26409269
_cell_length_b   7.30249875
_cell_length_c   7.30249862
_cell_angle_alpha   109.57751362
_cell_angle_beta   109.36472470
_cell_angle_gamma   109.36472015
_symmetry_Int_Tables_number   1
_chemical_formula_structural   LuCd3P6N13
_chemical_formula_sum   'Lu1 Cd3 P6 N13'
_cell_volume   298.58745275
_cell_formula_units_Z   1
loop_
 _symmetry_equiv_pos_site_id
 _symmetry_equiv_pos_as_xyz
  1  'x, y, z'
loop_
 _atom_site_type_symbol
 _atom_site_label
 _atom_site_symmetry_multiplicity
 _atom_site_fract_x
 _atom_site_fract_y
 _atom_site_fract_z
 _atom_site_occupancy
  Lu  Lu0  1  0.681010  0.000000  0.000000  1
  Cd  Cd1  1  0.999615  0.000000  0.709268  1
  Cd  Cd2  1  0.999615  0.709268  0.000000  1
  Cd  Cd3  1  0.290347  0.290732  0.290732  1
  P  P4  1  0.250451  0.749145  0.497964  1
  P  P5  1  0.752487  0.251181  0.502036  1
  P  P6  1  0.752487  0.502036  0.251181  1
  P  P7  1  0.250451  0.497964  0.749145  1
  P  P8  1  0.501306  0.748819  0.250855  1
  P  P9  1  0.501306  0.250855  0.748819  1
  N  N10  1  0.977542  0.000000  0.000000  1
  N  N11  1  0.718742  0.281861  0.281861  1
  N  N12  1  0.280419  0.714998  0.278720  1
  N  N13  1  0.303069  0.576703  0.576703  1
  N  N14  1  0.565421  0.563722  0.285002  1
  N  N15  1  0.436881  0.718139  0.000000  1
  N  N16  1  0.001699  0.721280  0.436278  1
  N  N17  1  0.565421  0.285002  0.563722  1
  N  N18  1  0.726366  0.000000  0.423297  1
  N  N19  1  0.436881  0.000000  0.718139  1
  N  N20  1  0.726366  0.423297  0.000000  1
  N  N21  1  0.280419  0.278720  0.714998  1
  N  N22  1  0.001699  0.436278  0.721280  1
