# generated using pymatgen
data_U4Re(TcP)6
_symmetry_space_group_name_H-M   'P 1'
_cell_length_a   7.04715064
_cell_length_b   7.04715013
_cell_length_c   7.04714973
_cell_angle_alpha   109.44760117
_cell_angle_beta   109.51848215
_cell_angle_gamma   109.44758274
_symmetry_Int_Tables_number   1
_chemical_formula_structural   U4Re(TcP)6
_chemical_formula_sum   'U4 Re1 Tc6 P6'
_cell_volume   269.41296939
_cell_formula_units_Z   1
loop_
 _symmetry_equiv_pos_site_id
 _symmetry_equiv_pos_as_xyz
  1  'x, y, z'
loop_
 _atom_site_type_symbol
 _atom_site_label
 _atom_site_symmetry_multiplicity
 _atom_site_fract_x
 _atom_site_fract_y
 _atom_site_fract_z
 _atom_site_occupancy
  U  U0  1  0.998925  0.997851  0.498925  1
  U  U1  1  0.501075  0.002149  0.001075  1
  U  U2  1  0.998925  0.500000  0.001075  1
  U  U3  1  0.501075  0.500000  0.498925  1
  Re  Re4  1  0.250000  0.500000  0.750000  1
  Tc  Tc5  1  0.750000  0.500000  0.250000  1
  Tc  Tc6  1  0.499418  0.750134  0.249552  1
  Tc  Tc7  1  0.499418  0.249866  0.749285  1
  Tc  Tc8  1  0.750448  0.249866  0.500582  1
  Tc  Tc9  1  0.250715  0.750134  0.500582  1
  Tc  Tc10  1  0.000000  0.000000  0.000000  1
  P  P11  1  0.309594  0.000000  0.309594  1
  P  P12  1  0.001337  0.309455  0.310791  1
  P  P13  1  0.001337  0.690545  0.691882  1
  P  P14  1  0.308118  0.309455  0.998663  1
  P  P15  1  0.689209  0.690545  0.998663  1
  P  P16  1  0.690406  0.000000  0.690406  1
