# generated using pymatgen
data_Tb3Y(AuO3)4
_symmetry_space_group_name_H-M   'P 1'
_cell_length_a   3.85082121
_cell_length_b   5.60209600
_cell_length_c   12.96196825
_cell_angle_alpha   90.00001242
_cell_angle_beta   89.98299531
_cell_angle_gamma   90.00004607
_symmetry_Int_Tables_number   1
_chemical_formula_structural   Tb3Y(AuO3)4
_chemical_formula_sum   'Tb3 Y1 Au4 O12'
_cell_volume   279.62425257
_cell_formula_units_Z   1
loop_
 _symmetry_equiv_pos_site_id
 _symmetry_equiv_pos_as_xyz
  1  'x, y, z'
loop_
 _atom_site_type_symbol
 _atom_site_label
 _atom_site_symmetry_multiplicity
 _atom_site_fract_x
 _atom_site_fract_y
 _atom_site_fract_z
 _atom_site_occupancy
  Tb  Tb0  1  0.262304  0.750000  0.075364  1
  Tb  Tb1  1  0.258254  0.250000  0.424331  1
  Tb  Tb2  1  0.741208  0.249999  0.924937  1
  Y  Y3  1  0.736129  0.750000  0.574641  1
  Au  Au4  1  0.064089  0.749999  0.830830  1
  Au  Au5  1  0.062309  0.249999  0.669371  1
  Au  Au6  1  0.938827  0.250001  0.169478  1
  Au  Au7  1  0.936905  0.750001  0.330405  1
  O  O8  1  0.202073  0.499972  0.250141  1
  O  O9  1  0.799995  0.000053  0.750339  1
  O  O10  1  0.799993  0.499947  0.750339  1
  O  O11  1  0.202072  0.000031  0.250142  1
  O  O12  1  0.744477  0.501069  0.074716  1
  O  O13  1  0.740583  0.499229  0.425147  1
  O  O14  1  0.259123  0.000583  0.925835  1
  O  O15  1  0.253739  0.998560  0.574143  1
  O  O16  1  0.740581  0.000769  0.425147  1
  O  O17  1  0.744477  0.998932  0.074717  1
  O  O18  1  0.253739  0.501442  0.574143  1
  O  O19  1  0.259121  0.499415  0.925835  1
