# generated using pymatgen
data_Nd10Si16Pt
_symmetry_space_group_name_H-M   'P 1'
_cell_length_a   11.48639439
_cell_length_b   11.48822964
_cell_length_c   11.48639479
_cell_angle_alpha   144.88126201
_cell_angle_beta   136.34106751
_cell_angle_gamma   57.21637488
_symmetry_Int_Tables_number   1
_chemical_formula_structural   Nd10Si16Pt
_chemical_formula_sum   'Nd10 Si16 Pt1'
_cell_volume   597.11994328
_cell_formula_units_Z   1
loop_
 _symmetry_equiv_pos_site_id
 _symmetry_equiv_pos_as_xyz
  1  'x, y, z'
loop_
 _atom_site_type_symbol
 _atom_site_label
 _atom_site_symmetry_multiplicity
 _atom_site_fract_x
 _atom_site_fract_y
 _atom_site_fract_z
 _atom_site_occupancy
  Nd  Nd0  1  0.052126  0.564256  0.016195  1
  Nd  Nd1  1  0.351306  0.369173  0.521333  1
  Nd  Nd2  1  0.149897  0.163438  0.515285  1
  Nd  Nd3  1  0.451658  0.965875  0.016247  1
  Nd  Nd4  1  0.648153  0.163438  0.013542  1
  Nd  Nd5  1  0.949627  0.965875  0.514216  1
  Nd  Nd6  1  0.847840  0.369173  0.017868  1
  Nd  Nd7  1  0.548060  0.564256  0.512131  1
  Nd  Nd8  1  0.252107  0.764312  0.014428  1
  Nd  Nd9  1  0.749883  0.764312  0.512204  1
  Si  Si10  1  0.109744  0.054014  0.944269  1
  Si  Si11  1  0.799289  0.207141  0.407851  1
  Si  Si12  1  0.299461  0.901114  0.601654  1
  Si  Si13  1  0.399940  0.500286  0.100346  1
  Si  Si14  1  0.893416  0.843623  0.950206  1
  Si  Si15  1  0.101809  0.702984  0.601176  1
  Si  Si16  1  0.199464  0.607345  0.407880  1
  Si  Si17  1  0.699624  0.297394  0.597770  1
  Si  Si18  1  0.999210  0.433012  0.433801  1
  Si  Si19  1  0.706251  0.650100  0.943849  1
  Si  Si20  1  0.600248  0.702560  0.102309  1
  Si  Si21  1  0.000913  0.093639  0.092726  1
  Si  Si22  1  0.501061  0.411590  0.910528  1
  Si  Si23  1  0.293153  0.238064  0.944911  1
  Si  Si24  1  0.591238  0.037516  0.446277  1
  Si  Si25  1  0.406157  0.849209  0.443052  1
  Pt  Pt26  1  0.898365  0.505223  0.606859  1
