# generated using pymatgen
data_Dy3Ho5Tl3Co
_symmetry_space_group_name_H-M   'P 1'
_cell_length_a   10.34788200
_cell_length_b   10.34788177
_cell_length_c   7.01517900
_cell_angle_alpha   90.00000000
_cell_angle_beta   90.00000000
_cell_angle_gamma   119.99999434
_symmetry_Int_Tables_number   1
_chemical_formula_structural   Dy3Ho5Tl3Co
_chemical_formula_sum   'Dy6 Ho10 Tl6 Co2'
_cell_volume   650.53750427
_cell_formula_units_Z   2
loop_
 _symmetry_equiv_pos_site_id
 _symmetry_equiv_pos_as_xyz
  1  'x, y, z'
loop_
 _atom_site_type_symbol
 _atom_site_label
 _atom_site_symmetry_multiplicity
 _atom_site_fract_x
 _atom_site_fract_y
 _atom_site_fract_z
 _atom_site_occupancy
  Dy  Dy0  1  0.536144  0.072287  0.792071  1
  Dy  Dy1  1  0.927713  0.463856  0.792071  1
  Dy  Dy2  1  0.536144  0.463856  0.792071  1
  Dy  Dy3  1  0.463856  0.927713  0.292071  1
  Dy  Dy4  1  0.072287  0.536144  0.292071  1
  Dy  Dy5  1  0.463856  0.536144  0.292071  1
  Ho  Ho6  1  0.822160  0.644322  0.497013  1
  Ho  Ho7  1  0.355678  0.177840  0.497013  1
  Ho  Ho8  1  0.822160  0.177840  0.497013  1
  Ho  Ho9  1  0.177840  0.355678  0.997013  1
  Ho  Ho10  1  0.644322  0.822160  0.997013  1
  Ho  Ho11  1  0.177840  0.822160  0.997013  1
  Ho  Ho12  1  0.666667  0.333333  0.183474  1
  Ho  Ho13  1  0.333333  0.666667  0.683474  1
  Ho  Ho14  1  0.000000  0.000000  0.779108  1
  Ho  Ho15  1  0.000000  0.000000  0.279108  1
  Tl  Tl16  1  0.837024  0.674049  0.040790  1
  Tl  Tl17  1  0.325951  0.162976  0.040790  1
  Tl  Tl18  1  0.837024  0.162976  0.040790  1
  Tl  Tl19  1  0.162976  0.325951  0.540790  1
  Tl  Tl20  1  0.674049  0.837024  0.540790  1
  Tl  Tl21  1  0.162976  0.837024  0.540790  1
  Co  Co22  1  0.666667  0.333333  0.565751  1
  Co  Co23  1  0.333333  0.666667  0.065751  1
