# generated using pymatgen
data_ZrSc10TiAl8(PtC)4
_symmetry_space_group_name_H-M   'P 1'
_cell_length_a   8.66753603
_cell_length_b   8.66753637
_cell_length_c   8.61321100
_cell_angle_alpha   60.20711378
_cell_angle_beta   60.20711251
_cell_angle_gamma   59.99083435
_symmetry_Int_Tables_number   1
_chemical_formula_structural   ZrSc10TiAl8(PtC)4
_chemical_formula_sum   'Zr1 Sc10 Ti1 Al8 Pt4 C4'
_cell_volume   458.94815966
_cell_formula_units_Z   1
loop_
 _symmetry_equiv_pos_site_id
 _symmetry_equiv_pos_as_xyz
  1  'x, y, z'
loop_
 _atom_site_type_symbol
 _atom_site_label
 _atom_site_symmetry_multiplicity
 _atom_site_fract_x
 _atom_site_fract_y
 _atom_site_fract_z
 _atom_site_occupancy
  Zr  Zr0  1  0.310298  0.310298  0.689702  1
  Sc  Sc1  1  0.945550  0.945550  0.554450  1
  Sc  Sc2  1  0.689872  0.307154  0.307584  1
  Sc  Sc3  1  0.307154  0.689872  0.695391  1
  Sc  Sc4  1  0.689236  0.689236  0.310764  1
  Sc  Sc5  1  0.689872  0.307154  0.695391  1
  Sc  Sc6  1  0.307154  0.689872  0.307584  1
  Sc  Sc7  1  0.555093  0.943854  0.555718  1
  Sc  Sc8  1  0.555093  0.943854  0.945334  1
  Sc  Sc9  1  0.943854  0.555093  0.555718  1
  Sc  Sc10  1  0.943854  0.555093  0.945334  1
  Ti  Ti11  1  0.561137  0.561137  0.938863  1
  Al  Al12  1  0.916793  0.242954  0.920128  1
  Al  Al13  1  0.331827  0.331827  0.007979  1
  Al  Al14  1  0.008356  0.331240  0.330202  1
  Al  Al15  1  0.331827  0.331827  0.328367  1
  Al  Al16  1  0.242954  0.916793  0.920128  1
  Al  Al17  1  0.919879  0.919879  0.919899  1
  Al  Al18  1  0.919879  0.919879  0.240344  1
  Al  Al19  1  0.331240  0.008356  0.330202  1
  Pt  Pt20  1  0.127244  0.624849  0.123954  1
  Pt  Pt21  1  0.125223  0.125223  0.625529  1
  Pt  Pt22  1  0.624849  0.127244  0.123954  1
  Pt  Pt23  1  0.125223  0.125223  0.124025  1
  C  C24  1  0.627545  0.116819  0.627818  1
  C  C25  1  0.626088  0.626088  0.103192  1
  C  C26  1  0.116819  0.627545  0.627818  1
  C  C27  1  0.626088  0.626088  0.644632  1
