# generated using pymatgen
data_Gd2Ho4OsPd
_symmetry_space_group_name_H-M   'P 1'
_cell_length_a   6.39892700
_cell_length_b   7.30355032
_cell_length_c   9.22449200
_cell_angle_alpha   90.00000000
_cell_angle_beta   90.00000000
_cell_angle_gamma   90.49568755
_symmetry_Int_Tables_number   1
_chemical_formula_structural   Gd2Ho4OsPd
_chemical_formula_sum   'Gd4 Ho8 Os2 Pd2'
_cell_volume   431.08944271
_cell_formula_units_Z   2
loop_
 _symmetry_equiv_pos_site_id
 _symmetry_equiv_pos_as_xyz
  1  'x, y, z'
loop_
 _atom_site_type_symbol
 _atom_site_label
 _atom_site_symmetry_multiplicity
 _atom_site_fract_x
 _atom_site_fract_y
 _atom_site_fract_z
 _atom_site_occupancy
  Gd  Gd0  1  0.620900  0.041110  0.250000  1
  Gd  Gd1  1  0.379100  0.958890  0.750000  1
  Gd  Gd2  1  0.123472  0.477428  0.750000  1
  Gd  Gd3  1  0.876528  0.522572  0.250000  1
  Ho  Ho4  1  0.175805  0.184091  0.061214  1
  Ho  Ho5  1  0.824195  0.815909  0.938786  1
  Ho  Ho6  1  0.662541  0.326151  0.941677  1
  Ho  Ho7  1  0.824195  0.815909  0.561214  1
  Ho  Ho8  1  0.337459  0.673849  0.058323  1
  Ho  Ho9  1  0.175805  0.184091  0.438786  1
  Ho  Ho10  1  0.337459  0.673849  0.441677  1
  Ho  Ho11  1  0.662541  0.326151  0.558323  1
  Os  Os12  1  0.453148  0.384614  0.250000  1
  Os  Os13  1  0.546852  0.615386  0.750000  1
  Pd  Pd14  1  0.946858  0.112460  0.750000  1
  Pd  Pd15  1  0.053142  0.887540  0.250000  1
