# generated using pymatgen
data_TbNd3Sc2(AlPt2)2
_symmetry_space_group_name_H-M   'P 1'
_cell_length_a   4.49649300
_cell_length_b   7.38590712
_cell_length_c   8.06250011
_cell_angle_alpha   89.59131526
_cell_angle_beta   90.00000000
_cell_angle_gamma   90.00000000
_symmetry_Int_Tables_number   1
_chemical_formula_structural   TbNd3Sc2(AlPt2)2
_chemical_formula_sum   'Tb1 Nd3 Sc2 Al2 Pt4'
_cell_volume   267.75429704
_cell_formula_units_Z   1
loop_
 _symmetry_equiv_pos_site_id
 _symmetry_equiv_pos_as_xyz
  1  'x, y, z'
loop_
 _atom_site_type_symbol
 _atom_site_label
 _atom_site_symmetry_multiplicity
 _atom_site_fract_x
 _atom_site_fract_y
 _atom_site_fract_z
 _atom_site_occupancy
  Tb  Tb0  1  0.750000  0.443734  0.178073  1
  Nd  Nd1  1  0.250000  0.054357  0.677174  1
  Nd  Nd2  1  0.750000  0.976957  0.327022  1
  Nd  Nd3  1  0.250000  0.522079  0.829374  1
  Sc  Sc4  1  0.750000  0.874179  0.935371  1
  Sc  Sc5  1  0.250000  0.624135  0.432484  1
  Al  Al6  1  0.750000  0.359780  0.563894  1
  Al  Al7  1  0.250000  0.142326  0.066483  1
  Pt  Pt8  1  0.750000  0.717524  0.614875  1
  Pt  Pt9  1  0.750000  0.234939  0.883766  1
  Pt  Pt10  1  0.250000  0.270461  0.375763  1
  Pt  Pt11  1  0.250000  0.779530  0.115719  1
