# generated using pymatgen
data_YTm7(TcB6)4
_symmetry_space_group_name_H-M   'P 1'
_cell_length_a   9.10324500
_cell_length_b   11.47285500
_cell_length_c   3.64937000
_cell_angle_alpha   90.00000000
_cell_angle_beta   90.00000000
_cell_angle_gamma   90.00296232
_symmetry_Int_Tables_number   1
_chemical_formula_structural   YTm7(TcB6)4
_chemical_formula_sum   'Y1 Tm7 Tc4 B24'
_cell_volume   381.14096860
_cell_formula_units_Z   1
loop_
 _symmetry_equiv_pos_site_id
 _symmetry_equiv_pos_as_xyz
  1  'x, y, z'
loop_
 _atom_site_type_symbol
 _atom_site_label
 _atom_site_symmetry_multiplicity
 _atom_site_fract_x
 _atom_site_fract_y
 _atom_site_fract_z
 _atom_site_occupancy
  Y  Y0  1  0.176889  0.914123  0.000000  1
  Tm  Tm1  1  0.823442  0.085927  0.000000  1
  Tm  Tm2  1  0.442961  0.130799  0.000000  1
  Tm  Tm3  1  0.942578  0.369648  0.000000  1
  Tm  Tm4  1  0.323621  0.414213  0.000000  1
  Tm  Tm5  1  0.676369  0.585742  0.000000  1
  Tm  Tm6  1  0.057233  0.630235  0.000000  1
  Tm  Tm7  1  0.557495  0.869377  0.000000  1
  Tc  Tc8  1  0.138941  0.180542  0.000000  1
  Tc  Tc9  1  0.638901  0.320294  0.000000  1
  Tc  Tc10  1  0.361523  0.679138  0.000000  1
  Tc  Tc11  1  0.860274  0.819849  0.000000  1
  B  B12  1  0.599715  0.027809  0.500001  1
  B  B13  1  0.052656  0.067555  0.500001  1
  B  B14  1  0.249880  0.081936  0.500001  1
  B  B15  1  0.630571  0.184849  0.500001  1
  B  B16  1  0.980875  0.212015  0.500001  1
  B  B17  1  0.292467  0.235519  0.500001  1
  B  B18  1  0.792336  0.264868  0.500001  1
  B  B19  1  0.481165  0.288372  0.500001  1
  B  B20  1  0.130441  0.315411  0.500001  1
  B  B21  1  0.749607  0.419186  0.500001  1
  B  B22  1  0.553132  0.433231  0.500001  1
  B  B23  1  0.099732  0.472153  0.500001  1
  B  B24  1  0.900159  0.527748  0.500001  1
  B  B25  1  0.447017  0.566620  0.500001  1
  B  B26  1  0.250398  0.580567  0.500001  1
  B  B27  1  0.869280  0.684554  0.500001  1
  B  B28  1  0.519110  0.711564  0.500001  1
  B  B29  1  0.208001  0.734310  0.500001  1
  B  B30  1  0.707512  0.764701  0.500001  1
  B  B31  1  0.017942  0.787648  0.500001  1
  B  B32  1  0.370298  0.814524  0.500001  1
  B  B33  1  0.750085  0.919243  0.500001  1
  B  B34  1  0.945928  0.933205  0.500001  1
  B  B35  1  0.401468  0.972529  0.500001  1
