# generated using pymatgen
data_YbDy2Y(SiPt2)4
_symmetry_space_group_name_H-M   'P 1'
_cell_length_a   5.52768859
_cell_length_b   6.96588400
_cell_length_c   7.33261702
_cell_angle_alpha   90.00000000
_cell_angle_beta   90.02231027
_cell_angle_gamma   90.00000000
_symmetry_Int_Tables_number   1
_chemical_formula_structural   YbDy2Y(SiPt2)4
_chemical_formula_sum   'Yb1 Dy2 Y1 Si4 Pt8'
_cell_volume   282.34413866
_cell_formula_units_Z   1
loop_
 _symmetry_equiv_pos_site_id
 _symmetry_equiv_pos_as_xyz
  1  'x, y, z'
loop_
 _atom_site_type_symbol
 _atom_site_label
 _atom_site_symmetry_multiplicity
 _atom_site_fract_x
 _atom_site_fract_y
 _atom_site_fract_z
 _atom_site_occupancy
  Yb  Yb0  1  0.865489  0.250000  0.523079  1
  Dy  Dy1  1  0.365754  0.750000  0.975760  1
  Dy  Dy2  1  0.634960  0.250000  0.025361  1
  Y  Y3  1  0.132962  0.750000  0.475087  1
  Si  Si4  1  0.133618  0.250000  0.876437  1
  Si  Si5  1  0.366727  0.250000  0.380554  1
  Si  Si6  1  0.632578  0.750000  0.621397  1
  Si  Si7  1  0.866624  0.750000  0.121649  1
  Pt  Pt8  1  0.097887  0.051450  0.179118  1
  Pt  Pt9  1  0.097887  0.448550  0.179118  1
  Pt  Pt10  1  0.405830  0.050833  0.679258  1
  Pt  Pt11  1  0.405830  0.449167  0.679258  1
  Pt  Pt12  1  0.593039  0.550685  0.318906  1
  Pt  Pt13  1  0.593039  0.949315  0.318906  1
  Pt  Pt14  1  0.903887  0.551451  0.823056  1
  Pt  Pt15  1  0.903887  0.948549  0.823056  1
