# generated using pymatgen
data_Ce4Y(TcB3)2
_symmetry_space_group_name_H-M   'P 1'
_cell_length_a   5.50210358
_cell_length_b   5.50210417
_cell_length_c   8.47881663
_cell_angle_alpha   71.06702828
_cell_angle_beta   71.06702673
_cell_angle_gamma   59.99999497
_symmetry_Int_Tables_number   1
_chemical_formula_structural   Ce4Y(TcB3)2
_chemical_formula_sum   'Ce4 Y1 Tc2 B6'
_cell_volume   206.10090073
_cell_formula_units_Z   1
loop_
 _symmetry_equiv_pos_site_id
 _symmetry_equiv_pos_as_xyz
  1  'x, y, z'
loop_
 _atom_site_type_symbol
 _atom_site_label
 _atom_site_symmetry_multiplicity
 _atom_site_fract_x
 _atom_site_fract_y
 _atom_site_fract_z
 _atom_site_occupancy
  Ce  Ce0  1  0.001425  0.001425  0.995726  1
  Ce  Ce1  1  0.251454  0.251454  0.245639  1
  Ce  Ce2  1  0.585456  0.585456  0.243630  1
  Ce  Ce3  1  0.414144  0.414144  0.757570  1
  Y  Y4  1  0.750455  0.750455  0.748635  1
  Tc  Tc5  1  0.890898  0.890898  0.327308  1
  Tc  Tc6  1  0.108609  0.108609  0.674171  1
  B  B7  1  0.499661  0.171182  0.501220  1
  B  B8  1  0.827936  0.499661  0.501220  1
  B  B9  1  0.171182  0.827936  0.501220  1
  B  B10  1  0.171182  0.499661  0.501220  1
  B  B11  1  0.827936  0.171182  0.501220  1
  B  B12  1  0.499661  0.827936  0.501220  1
