# generated using pymatgen
data_Ho16MgIn(Co2Ag)2
_symmetry_space_group_name_H-M   'P 1'
_cell_length_a   9.47144494
_cell_length_b   9.44948163
_cell_length_c   9.44948091
_cell_angle_alpha   59.82423885
_cell_angle_beta   59.81475397
_cell_angle_gamma   59.81475391
_symmetry_Int_Tables_number   1
_chemical_formula_structural   Ho16MgIn(Co2Ag)2
_chemical_formula_sum   'Ho16 Mg1 In1 Co4 Ag2'
_cell_volume   595.55037997
_cell_formula_units_Z   1
loop_
 _symmetry_equiv_pos_site_id
 _symmetry_equiv_pos_as_xyz
  1  'x, y, z'
loop_
 _atom_site_type_symbol
 _atom_site_label
 _atom_site_symmetry_multiplicity
 _atom_site_fract_x
 _atom_site_fract_y
 _atom_site_fract_z
 _atom_site_occupancy
  Ho  Ho0  1  0.342932  0.344263  0.344263  1
  Ho  Ho1  1  0.346874  0.347089  0.963593  1
  Ho  Ho2  1  0.346874  0.963593  0.347089  1
  Ho  Ho3  1  0.957137  0.349276  0.349276  1
  Ho  Ho4  1  0.808782  0.188947  0.188947  1
  Ho  Ho5  1  0.188299  0.810534  0.810534  1
  Ho  Ho6  1  0.185002  0.812468  0.186382  1
  Ho  Ho7  1  0.809313  0.188900  0.810321  1
  Ho  Ho8  1  0.185002  0.186382  0.812468  1
  Ho  Ho9  1  0.809313  0.810321  0.188900  1
  Ho  Ho10  1  0.937023  0.564267  0.564267  1
  Ho  Ho11  1  0.561322  0.939273  0.939273  1
  Ho  Ho12  1  0.562648  0.942770  0.563717  1
  Ho  Ho13  1  0.937424  0.561645  0.941542  1
  Ho  Ho14  1  0.562648  0.563717  0.942770  1
  Ho  Ho15  1  0.937424  0.941542  0.561645  1
  Mg  Mg16  1  0.281514  0.568690  0.568690  1
  In  In17  1  0.583421  0.579267  0.579267  1
  Co  Co18  1  0.137599  0.142648  0.142648  1
  Co  Co19  1  0.138854  0.141166  0.578675  1
  Co  Co20  1  0.138854  0.578675  0.141166  1
  Co  Co21  1  0.577407  0.141238  0.141238  1
  Ag  Ag22  1  0.582166  0.582262  0.251072  1
  Ag  Ag23  1  0.582166  0.251072  0.582262  1
