# generated using pymatgen
data_Sr2Si7Ir12
_symmetry_space_group_name_H-M   'P 1'
_cell_length_a   9.84245000
_cell_length_b   9.84244986
_cell_length_c   3.92618600
_cell_angle_alpha   90.00000000
_cell_angle_beta   90.00000000
_cell_angle_gamma   120.00000136
_symmetry_Int_Tables_number   1
_chemical_formula_structural   Sr2Si7Ir12
_chemical_formula_sum   'Sr2 Si7 Ir12'
_cell_volume   329.38811455
_cell_formula_units_Z   1
loop_
 _symmetry_equiv_pos_site_id
 _symmetry_equiv_pos_as_xyz
  1  'x, y, z'
loop_
 _atom_site_type_symbol
 _atom_site_label
 _atom_site_symmetry_multiplicity
 _atom_site_fract_x
 _atom_site_fract_y
 _atom_site_fract_z
 _atom_site_occupancy
  Sr  Sr0  1  0.333333  0.666667  0.749336  1
  Sr  Sr1  1  0.666667  0.333333  0.250664  1
  Si  Si2  1  0.000000  0.000000  0.500000  1
  Si  Si3  1  0.289205  0.887929  0.249061  1
  Si  Si4  1  0.598724  0.710795  0.249061  1
  Si  Si5  1  0.112071  0.401276  0.249061  1
  Si  Si6  1  0.710795  0.112071  0.750939  1
  Si  Si7  1  0.401276  0.289205  0.750939  1
  Si  Si8  1  0.887929  0.598724  0.750939  1
  Ir  Ir9  1  0.257427  0.114724  0.253009  1
  Ir  Ir10  1  0.857298  0.742573  0.253009  1
  Ir  Ir11  1  0.885276  0.142702  0.253009  1
  Ir  Ir12  1  0.742573  0.885276  0.746991  1
  Ir  Ir13  1  0.142702  0.257427  0.746991  1
  Ir  Ir14  1  0.114724  0.857298  0.746991  1
  Ir  Ir15  1  0.056800  0.617911  0.248981  1
  Ir  Ir16  1  0.561112  0.943200  0.248981  1
  Ir  Ir17  1  0.382089  0.438888  0.248981  1
  Ir  Ir18  1  0.943200  0.382089  0.751019  1
  Ir  Ir19  1  0.438888  0.056800  0.751019  1
  Ir  Ir20  1  0.617911  0.561112  0.751019  1
