# generated using pymatgen
data_LuNb6VS12
_symmetry_space_group_name_H-M   'P 1'
_cell_length_a   5.82178400
_cell_length_b   5.82178501
_cell_length_c   12.85684200
_cell_angle_alpha   90.00000000
_cell_angle_beta   90.00000000
_cell_angle_gamma   119.99999429
_symmetry_Int_Tables_number   1
_chemical_formula_structural   LuNb6VS12
_chemical_formula_sum   'Lu1 Nb6 V1 S12'
_cell_volume   377.37855297
_cell_formula_units_Z   1
loop_
 _symmetry_equiv_pos_site_id
 _symmetry_equiv_pos_as_xyz
  1  'x, y, z'
loop_
 _atom_site_type_symbol
 _atom_site_label
 _atom_site_symmetry_multiplicity
 _atom_site_fract_x
 _atom_site_fract_y
 _atom_site_fract_z
 _atom_site_occupancy
  Lu  Lu0  1  0.333333  0.666667  0.250000  1
  Nb  Nb1  1  0.000000  0.000000  0.513061  1
  Nb  Nb2  1  0.000000  0.000000  0.986939  1
  Nb  Nb3  1  0.333333  0.666667  0.986971  1
  Nb  Nb4  1  0.666667  0.333333  0.989526  1
  Nb  Nb5  1  0.666667  0.333333  0.510474  1
  Nb  Nb6  1  0.333333  0.666667  0.513029  1
  V  V7  1  0.666667  0.333333  0.750000  1
  S  S8  1  0.331107  0.328625  0.388594  1
  S  S9  1  0.671375  0.002482  0.388594  1
  S  S10  1  0.997518  0.668893  0.388594  1
  S  S11  1  0.335396  0.333025  0.634178  1
  S  S12  1  0.997629  0.664604  0.634178  1
  S  S13  1  0.666975  0.002371  0.634178  1
  S  S14  1  0.666975  0.664604  0.865822  1
  S  S15  1  0.335396  0.002371  0.865822  1
  S  S16  1  0.997629  0.333025  0.865822  1
  S  S17  1  0.671375  0.668893  0.111406  1
  S  S18  1  0.997518  0.328625  0.111406  1
  S  S19  1  0.331107  0.002482  0.111406  1
