# generated using pymatgen
data_Tb18Y2CoBi8Ru3
_symmetry_space_group_name_H-M   'P 1'
_cell_length_a   8.03794438
_cell_length_b   9.01203500
_cell_length_c   12.50925836
_cell_angle_alpha   90.00000000
_cell_angle_beta   90.27783764
_cell_angle_gamma   90.00000000
_symmetry_Int_Tables_number   1
_chemical_formula_structural   Tb18Y2CoBi8Ru3
_chemical_formula_sum   'Tb18 Y2 Co1 Bi8 Ru3'
_cell_volume   906.13795698
_cell_formula_units_Z   1
loop_
 _symmetry_equiv_pos_site_id
 _symmetry_equiv_pos_as_xyz
  1  'x, y, z'
loop_
 _atom_site_type_symbol
 _atom_site_label
 _atom_site_symmetry_multiplicity
 _atom_site_fract_x
 _atom_site_fract_y
 _atom_site_fract_z
 _atom_site_occupancy
  Tb  Tb0  1  0.157286  0.250000  0.206880  1
  Tb  Tb1  1  0.343160  0.250000  0.706974  1
  Tb  Tb2  1  0.377845  0.750000  0.695624  1
  Tb  Tb3  1  0.620674  0.250000  0.305663  1
  Tb  Tb4  1  0.878806  0.250000  0.806591  1
  Tb  Tb5  1  0.119168  0.750000  0.190806  1
  Tb  Tb6  1  0.943861  0.750000  0.503810  1
  Tb  Tb7  1  0.054149  0.250000  0.496490  1
  Tb  Tb8  1  0.446970  0.250000  0.997415  1
  Tb  Tb9  1  0.554871  0.750000  0.003052  1
  Tb  Tb10  1  0.675763  0.041553  0.563908  1
  Tb  Tb11  1  0.323313  0.957156  0.436217  1
  Tb  Tb12  1  0.177082  0.955706  0.935669  1
  Tb  Tb13  1  0.323313  0.542844  0.436217  1
  Tb  Tb14  1  0.825956  0.036933  0.062514  1
  Tb  Tb15  1  0.675763  0.458447  0.563908  1
  Tb  Tb16  1  0.825956  0.463067  0.062514  1
  Tb  Tb17  1  0.177082  0.544294  0.935669  1
  Y  Y18  1  0.842744  0.750000  0.796292  1
  Y  Y19  1  0.656179  0.750000  0.292878  1
  Co  Co20  1  0.928608  0.750000  0.011076  1
  Bi  Bi21  1  0.572712  0.491240  0.828095  1
  Bi  Bi22  1  0.428688  0.509090  0.172044  1
  Bi  Bi23  1  0.070249  0.508838  0.673039  1
  Bi  Bi24  1  0.428688  0.990910  0.172044  1
  Bi  Bi25  1  0.928159  0.491995  0.326845  1
  Bi  Bi26  1  0.572712  0.008760  0.828095  1
  Bi  Bi27  1  0.928159  0.008005  0.326845  1
  Bi  Bi28  1  0.070249  0.991162  0.673039  1
  Ru  Ru29  1  0.573737  0.750000  0.512965  1
  Ru  Ru30  1  0.423981  0.250000  0.487975  1
  Ru  Ru31  1  0.074117  0.250000  0.988844  1
