# generated using pymatgen
data_Sr6LaTm(BO3)6
_symmetry_space_group_name_H-M   'P 1'
_cell_length_a   7.97825014
_cell_length_b   7.97824989
_cell_length_c   7.97824989
_cell_angle_alpha   105.08896550
_cell_angle_beta   105.08896974
_cell_angle_gamma   105.08897659
_symmetry_Int_Tables_number   1
_chemical_formula_structural   Sr6LaTm(BO3)6
_chemical_formula_sum   'Sr6 La1 Tm1 B6 O18'
_cell_volume   443.13433302
_cell_formula_units_Z   1
loop_
 _symmetry_equiv_pos_site_id
 _symmetry_equiv_pos_as_xyz
  1  'x, y, z'
loop_
 _atom_site_type_symbol
 _atom_site_label
 _atom_site_symmetry_multiplicity
 _atom_site_fract_x
 _atom_site_fract_y
 _atom_site_fract_z
 _atom_site_occupancy
  Sr  Sr0  1  0.364376  0.733529  0.861131  1
  Sr  Sr1  1  0.861131  0.364376  0.733529  1
  Sr  Sr2  1  0.733529  0.861131  0.364376  1
  Sr  Sr3  1  0.635624  0.266471  0.138869  1
  Sr  Sr4  1  0.138869  0.635624  0.266471  1
  Sr  Sr5  1  0.266471  0.138869  0.635624  1
  La  La6  1  0.000000  0.000000  0.000000  1
  Tm  Tm7  1  0.500000  0.500000  0.500000  1
  B  B8  1  0.702830  0.606668  0.958075  1
  B  B9  1  0.958075  0.702830  0.606668  1
  B  B10  1  0.606668  0.958075  0.702830  1
  B  B11  1  0.041925  0.297170  0.393332  1
  B  B12  1  0.393332  0.041925  0.297170  1
  B  B13  1  0.297170  0.393332  0.041925  1
  O  O14  1  0.042413  0.810188  0.521616  1
  O  O15  1  0.521616  0.042413  0.810188  1
  O  O16  1  0.442070  0.494947  0.211835  1
  O  O17  1  0.494947  0.211835  0.442070  1
  O  O18  1  0.211835  0.442070  0.494947  1
  O  O19  1  0.788165  0.557930  0.505053  1
  O  O20  1  0.557930  0.505053  0.788165  1
  O  O21  1  0.505053  0.788165  0.557930  1
  O  O22  1  0.266008  0.204599  0.965222  1
  O  O23  1  0.204599  0.965222  0.266008  1
  O  O24  1  0.965222  0.266008  0.204599  1
  O  O25  1  0.733992  0.795401  0.034778  1
  O  O26  1  0.795401  0.034778  0.733992  1
  O  O27  1  0.034778  0.733992  0.795401  1
  O  O28  1  0.189812  0.478384  0.957587  1
  O  O29  1  0.478384  0.957587  0.189812  1
  O  O30  1  0.957587  0.189812  0.478384  1
  O  O31  1  0.810188  0.521616  0.042413  1
