# generated using pymatgen
data_Th2B10Pd
_symmetry_space_group_name_H-M   'P 1'
_cell_length_a   4.19525600
_cell_length_b   5.78479300
_cell_length_c   11.44845800
_cell_angle_alpha   90.00000000
_cell_angle_beta   90.00000000
_cell_angle_gamma   90.00000000
_symmetry_Int_Tables_number   1
_chemical_formula_structural   Th2B10Pd
_chemical_formula_sum   'Th4 B20 Pd2'
_cell_volume   277.83905004
_cell_formula_units_Z   2
loop_
 _symmetry_equiv_pos_site_id
 _symmetry_equiv_pos_as_xyz
  1  'x, y, z'
loop_
 _atom_site_type_symbol
 _atom_site_label
 _atom_site_symmetry_multiplicity
 _atom_site_fract_x
 _atom_site_fract_y
 _atom_site_fract_z
 _atom_site_occupancy
  Th  Th0  1  0.500000  0.306077  0.860625  1
  Th  Th1  1  0.500000  0.693923  0.139375  1
  Th  Th2  1  0.500000  0.806077  0.639375  1
  Th  Th3  1  0.500000  0.193923  0.360625  1
  B  B4  1  0.000000  0.114702  0.544189  1
  B  B5  1  0.000000  0.885298  0.455811  1
  B  B6  1  0.000000  0.614702  0.955811  1
  B  B7  1  0.000000  0.385298  0.044189  1
  B  B8  1  0.000000  0.138527  0.698388  1
  B  B9  1  0.000000  0.861473  0.301612  1
  B  B10  1  0.302501  0.218870  0.119467  1
  B  B11  1  0.302501  0.781130  0.880533  1
  B  B12  1  0.697499  0.718870  0.380533  1
  B  B13  1  0.697499  0.281130  0.619467  1
  B  B14  1  0.697499  0.781130  0.880533  1
  B  B15  1  0.697499  0.218870  0.119467  1
  B  B16  1  0.302501  0.281130  0.619467  1
  B  B17  1  0.302501  0.718870  0.380533  1
  B  B18  1  0.000000  0.056720  0.194799  1
  B  B19  1  0.000000  0.943280  0.805201  1
  B  B20  1  0.000000  0.556720  0.305201  1
  B  B21  1  0.000000  0.443280  0.694799  1
  B  B22  1  0.000000  0.361473  0.198388  1
  B  B23  1  0.000000  0.638527  0.801612  1
  Pd  Pd24  1  0.000000  0.500000  0.500000  1
  Pd  Pd25  1  0.000000  0.000000  0.000000  1
