# generated using pymatgen
data_NaV2(PO4)3
_symmetry_space_group_name_H-M   'P 1'
_cell_length_a   8.66480592
_cell_length_b   8.66480671
_cell_length_c   8.78635504
_cell_angle_alpha   60.64350946
_cell_angle_beta   60.64351149
_cell_angle_gamma   60.16357183
_symmetry_Int_Tables_number   1
_chemical_formula_structural   NaV2(PO4)3
_chemical_formula_sum   'Na2 V4 P6 O24'
_cell_volume   471.53304322
_cell_formula_units_Z   2
loop_
 _symmetry_equiv_pos_site_id
 _symmetry_equiv_pos_as_xyz
  1  'x, y, z'
loop_
 _atom_site_type_symbol
 _atom_site_label
 _atom_site_symmetry_multiplicity
 _atom_site_fract_x
 _atom_site_fract_y
 _atom_site_fract_z
 _atom_site_occupancy
  Na  Na0  1  0.998105  0.497134  0.995109  1
  Na  Na1  1  0.497134  0.998105  0.495109  1
  V  V2  1  0.353128  0.853129  0.929017  1
  V  V3  1  0.853129  0.353128  0.429017  1
  V  V4  1  0.142500  0.642178  0.561267  1
  V  V5  1  0.642178  0.142500  0.061267  1
  P  P6  1  0.034801  0.961088  0.744990  1
  P  P7  1  0.747118  0.535228  0.745630  1
  P  P8  1  0.535228  0.747118  0.245630  1
  P  P9  1  0.961088  0.034801  0.244990  1
  P  P10  1  0.460517  0.247465  0.745112  1
  P  P11  1  0.247465  0.460517  0.245112  1
  O  O12  1  0.938720  0.217768  0.256911  1
  O  O13  1  0.708515  0.366736  0.921255  1
  O  O14  1  0.503615  0.786119  0.069347  1
  O  O15  1  0.366736  0.708515  0.421255  1
  O  O16  1  0.217768  0.938720  0.756911  1
  O  O17  1  0.919150  0.558190  0.733932  1
  O  O18  1  0.558190  0.919150  0.233932  1
  O  O19  1  0.717690  0.574897  0.257296  1
  O  O20  1  0.129521  0.003833  0.068875  1
  O  O21  1  0.991888  0.866526  0.420640  1
  O  O22  1  0.574897  0.717690  0.757296  1
  O  O23  1  0.208392  0.492088  0.421661  1
  O  O24  1  0.786119  0.503615  0.569347  1
  O  O25  1  0.058815  0.777757  0.732288  1
  O  O26  1  0.003833  0.129521  0.568875  1
  O  O27  1  0.277421  0.418815  0.734177  1
  O  O28  1  0.866526  0.991888  0.920640  1
  O  O29  1  0.777757  0.058815  0.232288  1
  O  O30  1  0.075002  0.438491  0.256699  1
  O  O31  1  0.629003  0.286077  0.569711  1
  O  O32  1  0.492088  0.208392  0.921661  1
  O  O33  1  0.286077  0.629003  0.069711  1
  O  O34  1  0.418815  0.277421  0.234177  1
  O  O35  1  0.438491  0.075002  0.756699  1
