# generated using pymatgen
data_Nd3ThAgRu
_symmetry_space_group_name_H-M   'P 1'
_cell_length_a   9.90149730
_cell_length_b   9.90149771
_cell_length_c   9.90149700
_cell_angle_alpha   59.99999902
_cell_angle_beta   59.99999768
_cell_angle_gamma   59.99999980
_symmetry_Int_Tables_number   1
_chemical_formula_structural   Nd3ThAgRu
_chemical_formula_sum   'Nd12 Th4 Ag4 Ru4'
_cell_volume   686.41634392
_cell_formula_units_Z   4
loop_
 _symmetry_equiv_pos_site_id
 _symmetry_equiv_pos_as_xyz
  1  'x, y, z'
loop_
 _atom_site_type_symbol
 _atom_site_label
 _atom_site_symmetry_multiplicity
 _atom_site_fract_x
 _atom_site_fract_y
 _atom_site_fract_z
 _atom_site_occupancy
  Nd  Nd0  1  0.807903  0.191396  0.191399  1
  Nd  Nd1  1  0.192200  0.808086  0.808064  1
  Nd  Nd2  1  0.191410  0.807937  0.191390  1
  Nd  Nd3  1  0.808051  0.192194  0.808093  1
  Nd  Nd4  1  0.191394  0.191387  0.807932  1
  Nd  Nd5  1  0.808039  0.808101  0.192196  1
  Nd  Nd6  1  0.937780  0.560976  0.560982  1
  Nd  Nd7  1  0.561377  0.939226  0.939229  1
  Nd  Nd8  1  0.560974  0.937782  0.560975  1
  Nd  Nd9  1  0.939228  0.561373  0.939219  1
  Nd  Nd10  1  0.560988  0.560967  0.937778  1
  Nd  Nd11  1  0.939232  0.939227  0.561373  1
  Th  Th12  1  0.345737  0.345678  0.345699  1
  Th  Th13  1  0.345751  0.345697  0.961311  1
  Th  Th14  1  0.345739  0.961327  0.345703  1
  Th  Th15  1  0.961280  0.345722  0.345733  1
  Ag  Ag16  1  0.582082  0.582059  0.582066  1
  Ag  Ag17  1  0.580723  0.580709  0.257920  1
  Ag  Ag18  1  0.580723  0.257922  0.580708  1
  Ag  Ag19  1  0.257924  0.580708  0.580716  1
  Ru  Ru20  1  0.144784  0.144804  0.144790  1
  Ru  Ru21  1  0.146369  0.146380  0.563954  1
  Ru  Ru22  1  0.146384  0.563962  0.146387  1
  Ru  Ru23  1  0.563927  0.146377  0.146381  1
