# generated using pymatgen
data_SrTaCrF12
_symmetry_space_group_name_H-M   'P 1'
_cell_length_a   11.93194040
_cell_length_b   5.98781123
_cell_length_c   6.00303355
_cell_angle_alpha   57.15772809
_cell_angle_beta   56.68177801
_cell_angle_gamma   56.84909738
_symmetry_Int_Tables_number   1
_chemical_formula_structural   SrTaCrF12
_chemical_formula_sum   'Sr1 Ta1 Cr1 F12'
_cell_volume   281.54746611
_cell_formula_units_Z   1
loop_
 _symmetry_equiv_pos_site_id
 _symmetry_equiv_pos_as_xyz
  1  'x, y, z'
loop_
 _atom_site_type_symbol
 _atom_site_label
 _atom_site_symmetry_multiplicity
 _atom_site_fract_x
 _atom_site_fract_y
 _atom_site_fract_z
 _atom_site_occupancy
  Sr  Sr0  1  0.742140  0.507659  0.504264  1
  Ta  Ta1  1  0.019709  0.983877  0.988995  1
  Cr  Cr2  1  0.485279  0.014910  0.005439  1
  F  F3  1  0.172927  0.115223  0.766842  1
  F  F4  1  0.647406  0.122739  0.793337  1
  F  F5  1  0.058493  0.783315  0.326509  1
  F  F6  1  0.554465  0.794008  0.300062  1
  F  F7  1  0.114905  0.663879  0.882300  1
  F  F8  1  0.601977  0.698193  0.892375  1
  F  F9  1  0.445104  0.195271  0.697404  1
  F  F10  1  0.940396  0.218990  0.681374  1
  F  F11  1  0.338736  0.900889  0.209226  1
  F  F12  1  0.843199  0.882518  0.210570  1
  F  F13  1  0.393286  0.300702  0.124270  1
  F  F14  1  0.891979  0.317828  0.117037  1
