# generated using pymatgen
data_Mg4Al2PdPt9
_symmetry_space_group_name_H-M   'P 1'
_cell_length_a   4.10635900
_cell_length_b   5.51163404
_cell_length_c   10.88450883
_cell_angle_alpha   89.51416685
_cell_angle_beta   90.00000000
_cell_angle_gamma   90.00000000
_symmetry_Int_Tables_number   1
_chemical_formula_structural   Mg4Al2PdPt9
_chemical_formula_sum   'Mg4 Al2 Pd1 Pt9'
_cell_volume   246.33748992
_cell_formula_units_Z   1
loop_
 _symmetry_equiv_pos_site_id
 _symmetry_equiv_pos_as_xyz
  1  'x, y, z'
loop_
 _atom_site_type_symbol
 _atom_site_label
 _atom_site_symmetry_multiplicity
 _atom_site_fract_x
 _atom_site_fract_y
 _atom_site_fract_z
 _atom_site_occupancy
  Mg  Mg0  1  0.500000  0.184413  0.639431  1
  Mg  Mg1  1  0.500000  0.815587  0.360569  1
  Mg  Mg2  1  0.500000  0.683463  0.860894  1
  Mg  Mg3  1  0.500000  0.316537  0.139106  1
  Al  Al4  1  0.000000  0.500000  0.500000  1
  Al  Al5  1  0.000000  0.000000  0.000000  1
  Pd  Pd6  1  0.000000  0.500000  0.000000  1
  Pt  Pt7  1  0.500000  0.307380  0.393798  1
  Pt  Pt8  1  0.500000  0.692620  0.606202  1
  Pt  Pt9  1  0.500000  0.808878  0.106260  1
  Pt  Pt10  1  0.500000  0.191122  0.893740  1
  Pt  Pt11  1  0.000000  0.438290  0.739807  1
  Pt  Pt12  1  0.000000  0.561710  0.260193  1
  Pt  Pt13  1  0.000000  0.937523  0.760656  1
  Pt  Pt14  1  0.000000  0.062477  0.239344  1
  Pt  Pt15  1  0.000000  0.000000  0.500000  1
