# generated using pymatgen
data_Tb16MgIn3TcRh3
_symmetry_space_group_name_H-M   'P 1'
_cell_length_a   9.71345977
_cell_length_b   9.75835389
_cell_length_c   9.71346004
_cell_angle_alpha   60.03340379
_cell_angle_beta   59.66704262
_cell_angle_gamma   60.03340048
_symmetry_Int_Tables_number   1
_chemical_formula_structural   Tb16MgIn3TcRh3
_chemical_formula_sum   'Tb16 Mg1 In3 Tc1 Rh3'
_cell_volume   649.71470981
_cell_formula_units_Z   1
loop_
 _symmetry_equiv_pos_site_id
 _symmetry_equiv_pos_as_xyz
  1  'x, y, z'
loop_
 _atom_site_type_symbol
 _atom_site_label
 _atom_site_symmetry_multiplicity
 _atom_site_fract_x
 _atom_site_fract_y
 _atom_site_fract_z
 _atom_site_occupancy
  Tb  Tb0  1  0.808901  0.806611  0.192260  1
  Tb  Tb1  1  0.808087  0.193716  0.808087  1
  Tb  Tb2  1  0.188408  0.191158  0.813213  1
  Tb  Tb3  1  0.650320  0.044243  0.650320  1
  Tb  Tb4  1  0.061886  0.061292  0.439066  1
  Tb  Tb5  1  0.446041  0.435292  0.059924  1
  Tb  Tb6  1  0.649419  0.651456  0.649419  1
  Tb  Tb7  1  0.813213  0.191158  0.188408  1
  Tb  Tb8  1  0.192260  0.806611  0.808901  1
  Tb  Tb9  1  0.042793  0.652507  0.652152  1
  Tb  Tb10  1  0.439066  0.061292  0.061886  1
  Tb  Tb11  1  0.436203  0.062372  0.436203  1
  Tb  Tb12  1  0.059216  0.437795  0.059216  1
  Tb  Tb13  1  0.652152  0.652507  0.042793  1
  Tb  Tb14  1  0.190653  0.810737  0.190653  1
  Tb  Tb15  1  0.059924  0.435292  0.446041  1
  Mg  Mg16  1  0.425092  0.421801  0.425092  1
  In  In17  1  0.418262  0.416317  0.748212  1
  In  In18  1  0.418444  0.747247  0.418444  1
  In  In19  1  0.748212  0.416317  0.418262  1
  Tc  Tc20  1  0.855583  0.422179  0.855583  1
  Rh  Rh21  1  0.856741  0.862925  0.856741  1
  Rh  Rh22  1  0.857630  0.859586  0.421495  1
  Rh  Rh23  1  0.421495  0.859586  0.857630  1
