# generated using pymatgen
data_Pr2Dy3HoTa2O14
_symmetry_space_group_name_H-M   'P 1'
_cell_length_a   6.52416152
_cell_length_b   6.52724489
_cell_length_c   7.60546403
_cell_angle_alpha   89.99428610
_cell_angle_beta   89.99413900
_cell_angle_gamma   109.07837942
_symmetry_Int_Tables_number   1
_chemical_formula_structural   Pr2Dy3HoTa2O14
_chemical_formula_sum   'Pr2 Dy3 Ho1 Ta2 O14'
_cell_volume   306.08733822
_cell_formula_units_Z   1
loop_
 _symmetry_equiv_pos_site_id
 _symmetry_equiv_pos_as_xyz
  1  'x, y, z'
loop_
 _atom_site_type_symbol
 _atom_site_label
 _atom_site_symmetry_multiplicity
 _atom_site_fract_x
 _atom_site_fract_y
 _atom_site_fract_z
 _atom_site_occupancy
  Pr  Pr0  1  0.514555  0.514481  0.499770  1
  Pr  Pr1  1  0.485177  0.484893  0.000236  1
  Dy  Dy2  1  0.000752  0.533903  0.245018  1
  Dy  Dy3  1  0.999293  0.466178  0.744984  1
  Dy  Dy4  1  0.533584  0.000770  0.754956  1
  Ho  Ho5  1  0.467004  0.998993  0.254910  1
  Ta  Ta6  1  0.001448  0.001453  0.499772  1
  Ta  Ta7  1  0.998554  0.998611  0.000234  1
  O  O8  1  0.935645  0.063969  0.749997  1
  O  O9  1  0.064671  0.935800  0.249995  1
  O  O10  1  0.356251  0.645459  0.249964  1
  O  O11  1  0.643715  0.356244  0.750042  1
  O  O12  1  0.362838  0.637134  0.749992  1
  O  O13  1  0.636347  0.360880  0.250127  1
  O  O14  1  0.323106  0.072566  0.973205  1
  O  O15  1  0.677015  0.927816  0.471504  1
  O  O16  1  0.314142  0.060625  0.537954  1
  O  O17  1  0.686077  0.939799  0.039663  1
  O  O18  1  0.061013  0.314200  0.461342  1
  O  O19  1  0.938948  0.686038  0.961394  1
  O  O20  1  0.926860  0.677040  0.527441  1
  O  O21  1  0.073006  0.323147  0.027500  1
