# generated using pymatgen
data_Pm4In(MoO4)3
_symmetry_space_group_name_H-M   'P 1'
_cell_length_a   5.63311097
_cell_length_b   5.94170311
_cell_length_c   8.15748300
_cell_angle_alpha   90.42319608
_cell_angle_beta   89.78148034
_cell_angle_gamma   90.00811333
_symmetry_Int_Tables_number   1
_chemical_formula_structural   Pm4In(MoO4)3
_chemical_formula_sum   'Pm4 In1 Mo3 O12'
_cell_volume   273.02374774
_cell_formula_units_Z   1
loop_
 _symmetry_equiv_pos_site_id
 _symmetry_equiv_pos_as_xyz
  1  'x, y, z'
loop_
 _atom_site_type_symbol
 _atom_site_label
 _atom_site_symmetry_multiplicity
 _atom_site_fract_x
 _atom_site_fract_y
 _atom_site_fract_z
 _atom_site_occupancy
  Pm  Pm0  1  0.981671  0.063122  0.251953  1
  Pm  Pm1  1  0.520783  0.562182  0.252567  1
  Pm  Pm2  1  0.479217  0.437818  0.747433  1
  Pm  Pm3  1  0.018328  0.936878  0.748047  1
  In  In4  1  0.500000  0.000000  0.000000  1
  Mo  Mo5  1  0.000000  0.500001  0.000000  1
  Mo  Mo6  1  0.500000  0.000000  0.500000  1
  Mo  Mo7  1  0.000000  0.500001  0.500000  1
  O  O8  1  0.691617  0.306971  0.067826  1
  O  O9  1  0.813002  0.805995  0.065992  1
  O  O10  1  0.127542  0.444579  0.249897  1
  O  O11  1  0.373645  0.944225  0.252461  1
  O  O12  1  0.689211  0.305723  0.436133  1
  O  O13  1  0.811668  0.805350  0.435943  1
  O  O14  1  0.188333  0.194650  0.564058  1
  O  O15  1  0.310790  0.694277  0.563868  1
  O  O16  1  0.626355  0.055775  0.747539  1
  O  O17  1  0.872459  0.555421  0.750103  1
  O  O18  1  0.186999  0.194005  0.934007  1
  O  O19  1  0.308384  0.693029  0.932173  1
