# generated using pymatgen
data_Yb3Dy(B4Ru)4
_symmetry_space_group_name_H-M   'P 1'
_cell_length_a   3.54194000
_cell_length_b   5.94668727
_cell_length_c   11.51419453
_cell_angle_alpha   89.96527660
_cell_angle_beta   90.00000000
_cell_angle_gamma   90.00000000
_symmetry_Int_Tables_number   1
_chemical_formula_structural   Yb3Dy(B4Ru)4
_chemical_formula_sum   'Yb3 Dy1 B16 Ru4'
_cell_volume   242.52124159
_cell_formula_units_Z   1
loop_
 _symmetry_equiv_pos_site_id
 _symmetry_equiv_pos_as_xyz
  1  'x, y, z'
loop_
 _atom_site_type_symbol
 _atom_site_label
 _atom_site_symmetry_multiplicity
 _atom_site_fract_x
 _atom_site_fract_y
 _atom_site_fract_z
 _atom_site_occupancy
  Yb  Yb0  1  0.000000  0.129644  0.650470  1
  Yb  Yb1  1  0.000000  0.870765  0.350570  1
  Yb  Yb2  1  0.000000  0.630663  0.849422  1
  Dy  Dy3  1  0.000000  0.370874  0.150213  1
  B  B4  1  0.500000  0.477156  0.691990  1
  B  B5  1  0.500000  0.522842  0.308277  1
  B  B6  1  0.500000  0.976317  0.807735  1
  B  B7  1  0.500000  0.023533  0.192427  1
  B  B8  1  0.500000  0.286848  0.814224  1
  B  B9  1  0.500000  0.712366  0.185269  1
  B  B10  1  0.500000  0.787231  0.684782  1
  B  B11  1  0.500000  0.211782  0.315424  1
  B  B12  1  0.500000  0.364375  0.968733  1
  B  B13  1  0.500000  0.635836  0.030711  1
  B  B14  1  0.500000  0.864838  0.531283  1
  B  B15  1  0.500000  0.134849  0.468647  1
  B  B16  1  0.500000  0.387133  0.546947  1
  B  B17  1  0.500000  0.613235  0.452844  1
  B  B18  1  0.500000  0.886790  0.952270  1
  B  B19  1  0.500000  0.111010  0.046890  1
  Ru  Ru20  1  0.000000  0.138500  0.910784  1
  Ru  Ru21  1  0.000000  0.862656  0.090333  1
  Ru  Ru22  1  0.000000  0.635821  0.588153  1
  Ru  Ru23  1  0.000000  0.364937  0.411601  1
