# generated using pymatgen
data_Sc9NbTc3
_symmetry_space_group_name_H-M   'P 1'
_cell_length_a   8.77923700
_cell_length_b   8.77923652
_cell_length_c   8.17936400
_cell_angle_alpha   90.00000000
_cell_angle_beta   90.00000000
_cell_angle_gamma   119.99999805
_symmetry_Int_Tables_number   1
_chemical_formula_structural   Sc9NbTc3
_chemical_formula_sum   'Sc18 Nb2 Tc6'
_cell_volume   545.96361218
_cell_formula_units_Z   2
loop_
 _symmetry_equiv_pos_site_id
 _symmetry_equiv_pos_as_xyz
  1  'x, y, z'
loop_
 _atom_site_type_symbol
 _atom_site_label
 _atom_site_symmetry_multiplicity
 _atom_site_fract_x
 _atom_site_fract_y
 _atom_site_fract_z
 _atom_site_occupancy
  Sc  Sc0  1  0.403112  0.201556  0.055341  1
  Sc  Sc1  1  0.798444  0.201556  0.055341  1
  Sc  Sc2  1  0.798443  0.596887  0.055341  1
  Sc  Sc3  1  0.095458  0.547729  0.250000  1
  Sc  Sc4  1  0.452271  0.547729  0.250000  1
  Sc  Sc5  1  0.452271  0.904543  0.250000  1
  Sc  Sc6  1  0.403112  0.201556  0.444659  1
  Sc  Sc7  1  0.798444  0.201556  0.444659  1
  Sc  Sc8  1  0.798443  0.596887  0.444659  1
  Sc  Sc9  1  0.201556  0.403113  0.555342  1
  Sc  Sc10  1  0.201555  0.798444  0.555342  1
  Sc  Sc11  1  0.596888  0.798444  0.555342  1
  Sc  Sc12  1  0.547728  0.095457  0.750001  1
  Sc  Sc13  1  0.547729  0.452271  0.750001  1
  Sc  Sc14  1  0.904543  0.452271  0.750001  1
  Sc  Sc15  1  0.201556  0.403113  0.944658  1
  Sc  Sc16  1  0.201555  0.798444  0.944658  1
  Sc  Sc17  1  0.596888  0.798444  0.944658  1
  Nb  Nb18  1  0.000000  0.000000  0.000000  1
  Nb  Nb19  1  0.000000  0.000000  0.500000  1
  Tc  Tc20  1  0.114389  0.228777  0.250000  1
  Tc  Tc21  1  0.114388  0.885611  0.250000  1
  Tc  Tc22  1  0.771224  0.885611  0.250000  1
  Tc  Tc23  1  0.228777  0.114389  0.750001  1
  Tc  Tc24  1  0.885611  0.114389  0.750001  1
  Tc  Tc25  1  0.885610  0.771223  0.750001  1
