# generated using pymatgen
data_Y8Sc12Ga15Pd
_symmetry_space_group_name_H-M   'P 1'
_cell_length_a   7.22674100
_cell_length_b   7.58677619
_cell_length_c   14.48122800
_cell_angle_alpha   90.00000000
_cell_angle_beta   90.00000000
_cell_angle_gamma   89.31690010
_symmetry_Int_Tables_number   1
_chemical_formula_structural   Y8Sc12Ga15Pd
_chemical_formula_sum   'Y8 Sc12 Ga15 Pd1'
_cell_volume   793.91551266
_cell_formula_units_Z   1
loop_
 _symmetry_equiv_pos_site_id
 _symmetry_equiv_pos_as_xyz
  1  'x, y, z'
loop_
 _atom_site_type_symbol
 _atom_site_label
 _atom_site_symmetry_multiplicity
 _atom_site_fract_x
 _atom_site_fract_y
 _atom_site_fract_z
 _atom_site_occupancy
  Y  Y0  1  0.994487  0.819967  0.405952  1
  Y  Y1  1  0.495237  0.680138  0.094292  1
  Y  Y2  1  0.503457  0.321789  0.594775  1
  Y  Y3  1  0.002934  0.178001  0.904098  1
  Y  Y4  1  0.002934  0.178001  0.595902  1
  Y  Y5  1  0.503457  0.321789  0.905225  1
  Y  Y6  1  0.495237  0.680138  0.405708  1
  Y  Y7  1  0.994487  0.819967  0.094048  1
  Sc  Sc8  1  0.669596  0.997386  0.250000  1
  Sc  Sc9  1  0.169022  0.502364  0.250000  1
  Sc  Sc10  1  0.825322  0.502328  0.750000  1
  Sc  Sc11  1  0.334745  0.000774  0.750000  1
  Sc  Sc12  1  0.665131  0.831341  0.625949  1
  Sc  Sc13  1  0.169984  0.669834  0.873397  1
  Sc  Sc14  1  0.835927  0.326000  0.375918  1
  Sc  Sc15  1  0.334132  0.171198  0.126201  1
  Sc  Sc16  1  0.334132  0.171198  0.373799  1
  Sc  Sc17  1  0.835927  0.326000  0.124082  1
  Sc  Sc18  1  0.169984  0.669834  0.626603  1
  Sc  Sc19  1  0.665131  0.831341  0.874051  1
  Ga  Ga20  1  0.788883  0.626291  0.250000  1
  Ga  Ga21  1  0.288649  0.869402  0.250000  1
  Ga  Ga22  1  0.712069  0.132405  0.750000  1
  Ga  Ga23  1  0.211170  0.364289  0.750000  1
  Ga  Ga24  1  0.536923  0.382171  0.250000  1
  Ga  Ga25  1  0.035551  0.116995  0.250000  1
  Ga  Ga26  1  0.967209  0.882772  0.750000  1
  Ga  Ga27  1  0.835689  0.538269  0.541558  1
  Ga  Ga28  1  0.333073  0.964335  0.960886  1
  Ga  Ga29  1  0.663883  0.036834  0.460605  1
  Ga  Ga30  1  0.166800  0.463307  0.038300  1
  Ga  Ga31  1  0.166800  0.463307  0.461700  1
  Ga  Ga32  1  0.663883  0.036834  0.039395  1
  Ga  Ga33  1  0.333073  0.964335  0.539114  1
  Ga  Ga34  1  0.835689  0.538269  0.958442  1
  Pd  Pd35  1  0.459392  0.620797  0.750000  1
