# generated using pymatgen
data_Dy2Ho8Ir3Os
_symmetry_space_group_name_H-M   'P 1'
_cell_length_a   6.46408984
_cell_length_b   7.23324218
_cell_length_c   8.43139413
_cell_angle_alpha   96.49080962
_cell_angle_beta   112.29022899
_cell_angle_gamma   89.96614894
_symmetry_Int_Tables_number   1
_chemical_formula_structural   Dy2Ho8Ir3Os
_chemical_formula_sum   'Dy2 Ho8 Ir3 Os1'
_cell_volume   362.04090984
_cell_formula_units_Z   1
loop_
 _symmetry_equiv_pos_site_id
 _symmetry_equiv_pos_as_xyz
  1  'x, y, z'
loop_
 _atom_site_type_symbol
 _atom_site_label
 _atom_site_symmetry_multiplicity
 _atom_site_fract_x
 _atom_site_fract_y
 _atom_site_fract_z
 _atom_site_occupancy
  Dy  Dy0  1  0.971770  0.916500  0.183418  1
  Dy  Dy1  1  0.790236  0.582646  0.821271  1
  Ho  Ho2  1  0.028334  0.083097  0.818011  1
  Ho  Ho3  1  0.210446  0.417728  0.183330  1
  Ho  Ho4  1  0.656024  0.817129  0.439788  1
  Ho  Ho5  1  0.210895  0.681533  0.557524  1
  Ho  Ho6  1  0.345867  0.181873  0.559575  1
  Ho  Ho7  1  0.786069  0.318911  0.439345  1
  Ho  Ho8  1  0.426794  0.749609  0.000339  1
  Ho  Ho9  1  0.574830  0.251385  0.000589  1
  Ir  Ir10  1  0.606066  0.927281  0.779187  1
  Ir  Ir11  1  0.173402  0.425122  0.780201  1
  Ir  Ir12  1  0.393209  0.073915  0.220049  1
  Os  Os13  1  0.826060  0.573270  0.217373  1
