# generated using pymatgen
data_Zr3U2P12Ru19
_symmetry_space_group_name_H-M   'P 1'
_cell_length_a   12.49401243
_cell_length_b   12.49401335
_cell_length_c   3.90784400
_cell_angle_alpha   90.00000000
_cell_angle_beta   90.00000000
_cell_angle_gamma   119.70062281
_symmetry_Int_Tables_number   1
_chemical_formula_structural   Zr3U2P12Ru19
_chemical_formula_sum   'Zr3 U2 P12 Ru19'
_cell_volume   529.87570419
_cell_formula_units_Z   1
loop_
 _symmetry_equiv_pos_site_id
 _symmetry_equiv_pos_as_xyz
  1  'x, y, z'
loop_
 _atom_site_type_symbol
 _atom_site_label
 _atom_site_symmetry_multiplicity
 _atom_site_fract_x
 _atom_site_fract_y
 _atom_site_fract_z
 _atom_site_occupancy
  Zr  Zr0  1  0.196414  0.196414  0.500000  1
  Zr  Zr1  1  0.333036  0.666118  0.000000  1
  Zr  Zr2  1  0.666118  0.333036  0.000000  1
  U  U3  1  0.816991  0.002007  0.500000  1
  U  U4  1  0.002007  0.816991  0.500000  1
  P  P5  1  0.814111  0.814111  0.000000  1
  P  P6  1  0.183480  0.005981  0.000000  1
  P  P7  1  0.005981  0.183480  0.000000  1
  P  P8  1  0.173562  0.481316  0.500000  1
  P  P9  1  0.516955  0.691733  0.500000  1
  P  P10  1  0.306411  0.826820  0.500000  1
  P  P11  1  0.691733  0.516955  0.500000  1
  P  P12  1  0.826820  0.306411  0.500000  1
  P  P13  1  0.481316  0.173562  0.500000  1
  P  P14  1  0.369875  0.369875  0.000000  1
  P  P15  1  0.627360  0.999752  0.000000  1
  P  P16  1  0.999752  0.627360  0.000000  1
  Ru  Ru17  1  0.553203  0.553203  0.000000  1
  Ru  Ru18  1  0.444202  0.000164  0.000000  1
  Ru  Ru19  1  0.000164  0.444202  0.000000  1
  Ru  Ru20  1  0.714763  0.714763  0.500000  1
  Ru  Ru21  1  0.281286  0.000763  0.500000  1
  Ru  Ru22  1  0.000763  0.281286  0.500000  1
  Ru  Ru23  1  0.184564  0.374950  0.000000  1
  Ru  Ru24  1  0.626004  0.810241  0.000000  1
  Ru  Ru25  1  0.188218  0.817526  0.000000  1
  Ru  Ru26  1  0.810241  0.626004  0.000000  1
  Ru  Ru27  1  0.817526  0.188218  0.000000  1
  Ru  Ru28  1  0.374950  0.184564  0.000000  1
  Ru  Ru29  1  0.364853  0.493926  0.500000  1
  Ru  Ru30  1  0.504566  0.870614  0.500000  1
  Ru  Ru31  1  0.128007  0.635230  0.500000  1
  Ru  Ru32  1  0.870614  0.504566  0.500000  1
  Ru  Ru33  1  0.635230  0.128007  0.500000  1
  Ru  Ru34  1  0.493926  0.364853  0.500000  1
  Ru  Ru35  1  0.994999  0.994999  0.000000  1
