# generated using pymatgen
data_Y20Cd3Fe2Au3
_symmetry_space_group_name_H-M   'P 1'
_cell_length_a   9.56994217
_cell_length_b   9.57184989
_cell_length_c   9.61797000
_cell_angle_alpha   90.00000000
_cell_angle_beta   90.00000000
_cell_angle_gamma   120.01723076
_symmetry_Int_Tables_number   1
_chemical_formula_structural   Y20Cd3Fe2Au3
_chemical_formula_sum   'Y20 Cd3 Fe2 Au3'
_cell_volume   762.85818451
_cell_formula_units_Z   1
loop_
 _symmetry_equiv_pos_site_id
 _symmetry_equiv_pos_as_xyz
  1  'x, y, z'
loop_
 _atom_site_type_symbol
 _atom_site_label
 _atom_site_symmetry_multiplicity
 _atom_site_fract_x
 _atom_site_fract_y
 _atom_site_fract_z
 _atom_site_occupancy
  Y  Y0  1  0.000012  0.000010  0.463053  1
  Y  Y1  1  0.000012  0.000010  0.036947  1
  Y  Y2  1  0.540508  0.459463  0.250000  1
  Y  Y3  1  0.540580  0.081047  0.250000  1
  Y  Y4  1  0.918941  0.459449  0.250000  1
  Y  Y5  1  0.458487  0.541500  0.750000  1
  Y  Y6  1  0.458458  0.916986  0.750000  1
  Y  Y7  1  0.083065  0.541582  0.750000  1
  Y  Y8  1  0.211645  0.788359  0.436467  1
  Y  Y9  1  0.211615  0.423265  0.436471  1
  Y  Y10  1  0.576753  0.788362  0.436468  1
  Y  Y11  1  0.789645  0.210368  0.562950  1
  Y  Y12  1  0.789623  0.579259  0.562962  1
  Y  Y13  1  0.420722  0.210366  0.562968  1
  Y  Y14  1  0.789645  0.210368  0.937050  1
  Y  Y15  1  0.789623  0.579259  0.937038  1
  Y  Y16  1  0.420722  0.210366  0.937032  1
  Y  Y17  1  0.211645  0.788359  0.063533  1
  Y  Y18  1  0.211615  0.423265  0.063529  1
  Y  Y19  1  0.576753  0.788362  0.063532  1
  Cd  Cd20  1  0.109482  0.890473  0.750000  1
  Cd  Cd21  1  0.109449  0.218990  0.750000  1
  Cd  Cd22  1  0.781019  0.890513  0.750000  1
  Fe  Fe23  1  0.333269  0.666683  0.250000  1
  Fe  Fe24  1  0.666678  0.333311  0.750000  1
  Au  Au25  1  0.870296  0.129774  0.250000  1
  Au  Au26  1  0.870198  0.740469  0.250000  1
  Au  Au27  1  0.259540  0.129785  0.250000  1
