# generated using pymatgen
data_Dy4Ho2TiAl23Ru8
_symmetry_space_group_name_H-M   'P 1'
_cell_length_a   8.81645330
_cell_length_b   8.81647434
_cell_length_c   9.54922000
_cell_angle_alpha   89.99876511
_cell_angle_beta   90.00136646
_cell_angle_gamma   120.02995903
_symmetry_Int_Tables_number   1
_chemical_formula_structural   Dy4Ho2TiAl23Ru8
_chemical_formula_sum   'Dy4 Ho2 Ti1 Al23 Ru8'
_cell_volume   642.62290799
_cell_formula_units_Z   1
loop_
 _symmetry_equiv_pos_site_id
 _symmetry_equiv_pos_as_xyz
  1  'x, y, z'
loop_
 _atom_site_type_symbol
 _atom_site_label
 _atom_site_symmetry_multiplicity
 _atom_site_fract_x
 _atom_site_fract_y
 _atom_site_fract_z
 _atom_site_occupancy
  Dy  Dy0  1  0.193932  0.387852  0.249656  1
  Dy  Dy1  1  0.806636  0.613272  0.748889  1
  Dy  Dy2  1  0.612145  0.806065  0.249654  1
  Dy  Dy3  1  0.386729  0.193364  0.748889  1
  Ho  Ho4  1  0.194098  0.805903  0.249585  1
  Ho  Ho5  1  0.806523  0.193478  0.748854  1
  Ti  Ti6  1  0.333263  0.666737  0.995039  1
  Al  Al7  1  0.666723  0.333277  0.982964  1
  Al  Al8  1  0.666718  0.333283  0.514553  1
  Al  Al9  1  0.333265  0.666733  0.483447  1
  Al  Al10  1  0.161431  0.323124  0.577298  1
  Al  Al11  1  0.838281  0.676331  0.422383  1
  Al  Al12  1  0.676877  0.838569  0.577298  1
  Al  Al13  1  0.837612  0.675052  0.078226  1
  Al  Al14  1  0.323668  0.161719  0.422383  1
  Al  Al15  1  0.158647  0.317488  0.923301  1
  Al  Al16  1  0.161574  0.838425  0.577153  1
  Al  Al17  1  0.324948  0.162389  0.078226  1
  Al  Al18  1  0.838152  0.161849  0.422545  1
  Al  Al19  1  0.682512  0.841353  0.923300  1
  Al  Al20  1  0.837495  0.162506  0.078078  1
  Al  Al21  1  0.158755  0.841245  0.923484  1
  Al  Al22  1  0.561639  0.123499  0.252558  1
  Al  Al23  1  0.440143  0.880051  0.750524  1
  Al  Al24  1  0.876502  0.438362  0.252559  1
  Al  Al25  1  0.119948  0.559856  0.750524  1
  Al  Al26  1  0.561848  0.438152  0.252525  1
  Al  Al27  1  0.439926  0.560073  0.750557  1
  Al  Al28  1  0.000140  0.999860  0.249201  1
  Al  Al29  1  0.999864  0.000135  0.748826  1
  Ru  Ru30  1  0.498245  0.996544  0.002972  1
  Ru  Ru31  1  0.003456  0.501755  0.002974  1
  Ru  Ru32  1  0.499748  0.999434  0.503433  1
  Ru  Ru33  1  0.498291  0.501712  0.002960  1
  Ru  Ru34  1  0.000566  0.500253  0.503432  1
  Ru  Ru35  1  0.499695  0.500303  0.503406  1
  Ru  Ru36  1  0.999992  0.000011  0.999768  1
  Ru  Ru37  1  0.000013  0.999987  0.498575  1
