# generated using pymatgen
data_La8Yb11PuSi16
_symmetry_space_group_name_H-M   'P 1'
_cell_length_a   7.55549710
_cell_length_b   8.00240572
_cell_length_c   15.29443500
_cell_angle_alpha   89.96800993
_cell_angle_beta   90.00947915
_cell_angle_gamma   89.98033727
_symmetry_Int_Tables_number   1
_chemical_formula_structural   La8Yb11PuSi16
_chemical_formula_sum   'La8 Yb11 Pu1 Si16'
_cell_volume   924.73426124
_cell_formula_units_Z   1
loop_
 _symmetry_equiv_pos_site_id
 _symmetry_equiv_pos_as_xyz
  1  'x, y, z'
loop_
 _atom_site_type_symbol
 _atom_site_label
 _atom_site_symmetry_multiplicity
 _atom_site_fract_x
 _atom_site_fract_y
 _atom_site_fract_z
 _atom_site_occupancy
  La  La0  1  0.023207  0.183497  0.401375  1
  La  La1  1  0.522792  0.316894  0.402226  1
  La  La2  1  0.476270  0.684524  0.902429  1
  La  La3  1  0.475886  0.684868  0.598814  1
  La  La4  1  0.976268  0.815037  0.598433  1
  La  La5  1  0.975614  0.815683  0.901352  1
  La  La6  1  0.523023  0.316545  0.098733  1
  La  La7  1  0.021635  0.183370  0.097187  1
  Yb  Yb8  1  0.322310  0.182177  0.622942  1
  Yb  Yb9  1  0.676938  0.818876  0.376978  1
  Yb  Yb10  1  0.646706  0.003098  0.750041  1
  Yb  Yb11  1  0.179723  0.681505  0.376641  1
  Yb  Yb12  1  0.821384  0.318207  0.878188  1
  Yb  Yb13  1  0.822457  0.317697  0.622658  1
  Yb  Yb14  1  0.854463  0.502162  0.249961  1
  Yb  Yb15  1  0.352777  0.998970  0.249725  1
  Yb  Yb16  1  0.322308  0.181353  0.877948  1
  Yb  Yb17  1  0.177781  0.683366  0.120795  1
  Yb  Yb18  1  0.146607  0.496743  0.750327  1
  Pu  Pu19  1  0.676642  0.813576  0.124822  1
  Si  Si20  1  0.258973  0.875469  0.750069  1
  Si  Si21  1  0.469202  0.594790  0.245756  1
  Si  Si22  1  0.032583  0.091227  0.750248  1
  Si  Si23  1  0.532934  0.407933  0.750869  1
  Si  Si24  1  0.143595  0.472144  0.536412  1
  Si  Si25  1  0.964968  0.906284  0.246960  1
  Si  Si26  1  0.739917  0.120983  0.247886  1
  Si  Si27  1  0.854698  0.532942  0.038111  1
  Si  Si28  1  0.361826  0.972931  0.038898  1
  Si  Si29  1  0.141198  0.472021  0.963055  1
  Si  Si30  1  0.642966  0.027692  0.536688  1
  Si  Si31  1  0.357004  0.973546  0.462786  1
  Si  Si32  1  0.857868  0.527743  0.462480  1
  Si  Si33  1  0.758439  0.624448  0.750492  1
  Si  Si34  1  0.242378  0.376460  0.250559  1
  Si  Si35  1  0.646657  0.025240  0.967162  1
