# generated using pymatgen
data_LaPr5RuCl10
_symmetry_space_group_name_H-M   'P 1'
_cell_length_a   7.43778877
_cell_length_b   9.10122076
_cell_length_c   9.41919500
_cell_angle_alpha   109.34183151
_cell_angle_beta   96.59650071
_cell_angle_gamma   106.74559692
_symmetry_Int_Tables_number   1
_chemical_formula_structural   LaPr5RuCl10
_chemical_formula_sum   'La1 Pr5 Ru1 Cl10'
_cell_volume   560.29052518
_cell_formula_units_Z   1
loop_
 _symmetry_equiv_pos_site_id
 _symmetry_equiv_pos_as_xyz
  1  'x, y, z'
loop_
 _atom_site_type_symbol
 _atom_site_label
 _atom_site_symmetry_multiplicity
 _atom_site_fract_x
 _atom_site_fract_y
 _atom_site_fract_z
 _atom_site_occupancy
  La  La0  1  0.969420  0.294763  0.094623  1
  Pr  Pr1  1  0.146212  0.062588  0.747743  1
  Pr  Pr2  1  0.617032  0.841861  0.796401  1
  Pr  Pr3  1  0.851889  0.937163  0.251118  1
  Pr  Pr4  1  0.032514  0.705086  0.905837  1
  Pr  Pr5  1  0.382203  0.156007  0.202461  1
  Ru  Ru6  1  0.997273  0.012691  0.003561  1
  Cl  Cl7  1  0.198123  0.749201  0.652864  1
  Cl  Cl8  1  0.650088  0.536054  0.724750  1
  Cl  Cl9  1  0.238031  0.075725  0.445007  1
  Cl  Cl10  1  0.797415  0.247167  0.351618  1
  Cl  Cl11  1  0.549519  0.166669  0.924015  1
  Cl  Cl12  1  0.760059  0.921197  0.553201  1
  Cl  Cl13  1  0.909580  0.627915  0.161245  1
  Cl  Cl14  1  0.360697  0.465524  0.279286  1
  Cl  Cl15  1  0.095415  0.371619  0.833058  1
  Cl  Cl16  1  0.444530  0.828770  0.073210  1
