# generated using pymatgen
data_Li3DyY2(WO6)2
_symmetry_space_group_name_H-M   'P 1'
_cell_length_a   10.68823829
_cell_length_b   10.68681317
_cell_length_c   10.68738604
_cell_angle_alpha   109.47250134
_cell_angle_beta   109.47790563
_cell_angle_gamma   109.46378342
_symmetry_Int_Tables_number   1
_chemical_formula_structural   Li3DyY2(WO6)2
_chemical_formula_sum   'Li12 Dy4 Y8 W8 O48'
_cell_volume   939.72571870
_cell_formula_units_Z   4
loop_
 _symmetry_equiv_pos_site_id
 _symmetry_equiv_pos_as_xyz
  1  'x, y, z'
loop_
 _atom_site_type_symbol
 _atom_site_label
 _atom_site_symmetry_multiplicity
 _atom_site_fract_x
 _atom_site_fract_y
 _atom_site_fract_z
 _atom_site_occupancy
  Li  Li0  1  0.749903  0.374896  0.124963  1
  Li  Li1  1  0.875060  0.750067  0.124963  1
  Li  Li2  1  0.125064  0.374979  0.249988  1
  Li  Li3  1  0.624924  0.875009  0.249988  1
  Li  Li4  1  0.249922  0.124940  0.374857  1
  Li  Li5  1  0.624935  0.249917  0.374857  1
  Li  Li6  1  0.375030  0.750022  0.624952  1
  Li  Li7  1  0.749922  0.874930  0.624952  1
  Li  Li8  1  0.375025  0.125004  0.750091  1
  Li  Li9  1  0.875066  0.625087  0.750091  1
  Li  Li10  1  0.250010  0.625073  0.875143  1
  Li  Li11  1  0.125133  0.250070  0.875143  1
  Dy  Dy12  1  0.374939  0.249952  0.124990  1
  Dy  Dy13  1  0.250051  0.875038  0.124990  1
  Dy  Dy14  1  0.874955  0.124955  0.249910  1
  Dy  Dy15  1  0.374966  0.624966  0.249933  1
  Y  Y16  1  0.749901  0.624953  0.374969  1
  Y  Y17  1  0.125068  0.750016  0.374969  1
  Y  Y18  1  0.874926  0.249961  0.624955  1
  Y  Y19  1  0.250029  0.374995  0.624955  1
  Y  Y20  1  0.625019  0.375019  0.750038  1
  Y  Y21  1  0.125075  0.875075  0.750150  1
  Y  Y22  1  0.625076  0.750074  0.875075  1
  Y  Y23  1  0.749999  0.125001  0.875075  1
  W  W24  1  0.000285  0.000164  0.000360  1
  W  W25  1  0.500075  0.000196  0.000360  1
  W  W26  1  0.000326  0.500243  0.000136  1
  W  W27  1  0.499810  0.499893  0.000136  1
  W  W28  1  0.999919  0.000041  0.499829  1
  W  W29  1  0.499855  0.999755  0.499675  1
  W  W30  1  0.999910  0.499788  0.499829  1
  W  W31  1  0.499819  0.499919  0.499675  1
  O  O32  1  0.201613  0.619299  0.027910  1
  O  O33  1  0.326297  0.408611  0.027910  1
  O  O34  1  0.701439  0.173774  0.082756  1
  O  O35  1  0.881316  0.908982  0.082756  1
  O  O36  1  0.619259  0.918163  0.091878  1
  O  O37  1  0.972619  0.173715  0.091878  1
  O  O38  1  0.027733  0.701527  0.118800  1
  O  O39  1  0.591066  0.417273  0.118800  1
  O  O40  1  0.201645  0.082323  0.173740  1
  O  O41  1  0.472094  0.091417  0.173740  1
  O  O42  1  0.119321  0.527475  0.201208  1
  O  O43  1  0.581887  0.673734  0.201208  1
  O  O44  1  0.326266  0.417681  0.298364  1
  O  O45  1  0.472098  0.880683  0.298364  1
  O  O46  1  0.917608  0.798804  0.326102  1
  O  O47  1  0.908494  0.527298  0.326102  1
  O  O48  1  0.581890  0.408159  0.380690  1
  O  O49  1  0.298800  0.972530  0.380690  1
  O  O50  1  0.826242  0.027447  0.408164  1
  O  O51  1  0.081922  0.380716  0.408164  1
  O  O52  1  0.091098  0.118790  0.417263  1
  O  O53  1  0.826164  0.298473  0.417263  1
  O  O54  1  0.591042  0.673764  0.472249  1
  O  O55  1  0.381208  0.798486  0.472249  1
  O  O56  1  0.618762  0.201031  0.527188  1
  O  O57  1  0.408426  0.326156  0.527188  1
  O  O58  1  0.173815  0.701041  0.582300  1
  O  O59  1  0.908485  0.881258  0.582300  1
  O  O60  1  0.917593  0.618677  0.591420  1
  O  O61  1  0.173827  0.972742  0.591420  1
  O  O62  1  0.701062  0.027236  0.618645  1
  O  O63  1  0.417583  0.591409  0.618645  1
  O  O64  1  0.082353  0.201112  0.673841  1
  O  O65  1  0.091489  0.472730  0.673842  1
  O  O66  1  0.527164  0.118606  0.700908  1
  O  O67  1  0.673743  0.582302  0.700908  1
  O  O68  1  0.881336  0.472749  0.798942  1
  O  O69  1  0.417605  0.326192  0.798942  1
  O  O70  1  0.527159  0.908565  0.826284  1
  O  O71  1  0.799125  0.917719  0.826284  1
  O  O72  1  0.972805  0.298959  0.881272  1
  O  O73  1  0.408468  0.582313  0.881272  1
  O  O74  1  0.381312  0.082742  0.909016  1
  O  O75  1  0.027704  0.826274  0.909016  1
  O  O76  1  0.298941  0.826350  0.918202  1
  O  O77  1  0.119261  0.091852  0.918202  1
  O  O78  1  0.799095  0.381378  0.972856  1
  O  O79  1  0.673762  0.591479  0.972857  1
