# generated using pymatgen
data_TbTh2AlGa2Pd3
_symmetry_space_group_name_H-M   'P 1'
_cell_length_a   7.28095609
_cell_length_b   7.25140888
_cell_length_c   4.12857500
_cell_angle_alpha   90.00000000
_cell_angle_beta   90.00000000
_cell_angle_gamma   119.58353394
_symmetry_Int_Tables_number   1
_chemical_formula_structural   TbTh2AlGa2Pd3
_chemical_formula_sum   'Tb1 Th2 Al1 Ga2 Pd3'
_cell_volume   189.56096776
_cell_formula_units_Z   1
loop_
 _symmetry_equiv_pos_site_id
 _symmetry_equiv_pos_as_xyz
  1  'x, y, z'
loop_
 _atom_site_type_symbol
 _atom_site_label
 _atom_site_symmetry_multiplicity
 _atom_site_fract_x
 _atom_site_fract_y
 _atom_site_fract_z
 _atom_site_occupancy
  Tb  Tb0  1  0.583628  0.998992  0.500000  1
  Th  Th1  1  0.000816  0.585962  0.500000  1
  Th  Th2  1  0.419802  0.417807  0.500000  1
  Al  Al3  1  0.993958  0.228511  0.000000  1
  Ga  Ga4  1  0.757349  0.765977  0.000000  1
  Ga  Ga5  1  0.245749  0.002509  0.000000  1
  Pd  Pd6  1  0.325706  0.658089  0.000000  1
  Pd  Pd7  1  0.671975  0.335173  0.000000  1
  Pd  Pd8  1  0.001016  0.006980  0.500000  1
