# generated using pymatgen
data_Cs8Na4TbPr3Sb8
_symmetry_space_group_name_H-M   'P 1'
_cell_length_a   11.65574203
_cell_length_b   11.65574174
_cell_length_c   7.67925200
_cell_angle_alpha   90.00388338
_cell_angle_beta   89.99612645
_cell_angle_gamma   98.24852531
_symmetry_Int_Tables_number   1
_chemical_formula_structural   Cs8Na4TbPr3Sb8
_chemical_formula_sum   'Cs8 Na4 Tb1 Pr3 Sb8'
_cell_volume   1032.48230826
_cell_formula_units_Z   1
loop_
 _symmetry_equiv_pos_site_id
 _symmetry_equiv_pos_as_xyz
  1  'x, y, z'
loop_
 _atom_site_type_symbol
 _atom_site_label
 _atom_site_symmetry_multiplicity
 _atom_site_fract_x
 _atom_site_fract_y
 _atom_site_fract_z
 _atom_site_occupancy
  Cs  Cs0  1  0.069411  0.429884  0.249659  1
  Cs  Cs1  1  0.429884  0.069411  0.750341  1
  Cs  Cs2  1  0.931155  0.569158  0.750314  1
  Cs  Cs3  1  0.569158  0.931155  0.249686  1
  Cs  Cs4  1  0.677977  0.321959  0.212341  1
  Cs  Cs5  1  0.823031  0.177822  0.712976  1
  Cs  Cs6  1  0.321959  0.677977  0.787659  1
  Cs  Cs7  1  0.177822  0.823031  0.287024  1
  Na  Na8  1  0.381519  0.381519  0.000000  1
  Na  Na9  1  0.117728  0.117728  0.500000  1
  Na  Na10  1  0.617749  0.617749  0.000000  1
  Na  Na11  1  0.882728  0.882728  0.500000  1
  Tb  Tb12  1  0.131517  0.131517  0.000000  1
  Pr  Pr13  1  0.366113  0.366113  0.500000  1
  Pr  Pr14  1  0.868703  0.868703  0.000000  1
  Pr  Pr15  1  0.632705  0.632705  0.500000  1
  Sb  Sb16  1  0.847415  0.653057  0.249867  1
  Sb  Sb17  1  0.653057  0.847415  0.750133  1
  Sb  Sb18  1  0.153015  0.341500  0.756076  1
  Sb  Sb19  1  0.341500  0.153015  0.243924  1
  Sb  Sb20  1  0.906580  0.099920  0.214774  1
  Sb  Sb21  1  0.597928  0.401425  0.717744  1
  Sb  Sb22  1  0.099920  0.906580  0.785226  1
  Sb  Sb23  1  0.401425  0.597928  0.282256  1
