# generated using pymatgen
data_Nd4Ni2Hg3
_symmetry_space_group_name_H-M   'P 1'
_cell_length_a   3.74832500
_cell_length_b   7.54525554
_cell_length_c   8.13997400
_cell_angle_alpha   72.44377149
_cell_angle_beta   90.00000000
_cell_angle_gamma   90.00000000
_symmetry_Int_Tables_number   1
_chemical_formula_structural   Nd4Ni2Hg3
_chemical_formula_sum   'Nd4 Ni2 Hg3'
_cell_volume   219.49220414
_cell_formula_units_Z   1
loop_
 _symmetry_equiv_pos_site_id
 _symmetry_equiv_pos_as_xyz
  1  'x, y, z'
loop_
 _atom_site_type_symbol
 _atom_site_label
 _atom_site_symmetry_multiplicity
 _atom_site_fract_x
 _atom_site_fract_y
 _atom_site_fract_z
 _atom_site_occupancy
  Nd  Nd0  1  0.500000  0.916243  0.220031  1
  Nd  Nd1  1  0.500000  0.083757  0.779969  1
  Nd  Nd2  1  0.500000  0.394803  0.306569  1
  Nd  Nd3  1  0.500000  0.605197  0.693431  1
  Ni  Ni4  1  0.000000  0.653963  0.395272  1
  Ni  Ni5  1  0.000000  0.346037  0.604728  1
  Hg  Hg6  1  0.000000  0.705208  0.007685  1
  Hg  Hg7  1  0.000000  0.294792  0.992315  1
  Hg  Hg8  1  0.000000  0.000000  0.500000  1
