# generated using pymatgen
data_Y3Tm(Tc3Ir)2
_symmetry_space_group_name_H-M   'P 1'
_cell_length_a   5.24206000
_cell_length_b   5.24205989
_cell_length_c   9.27007100
_cell_angle_alpha   90.00000000
_cell_angle_beta   90.00000000
_cell_angle_gamma   120.00000070
_symmetry_Int_Tables_number   1
_chemical_formula_structural   Y3Tm(Tc3Ir)2
_chemical_formula_sum   'Y3 Tm1 Tc6 Ir2'
_cell_volume   220.60617007
_cell_formula_units_Z   1
loop_
 _symmetry_equiv_pos_site_id
 _symmetry_equiv_pos_as_xyz
  1  'x, y, z'
loop_
 _atom_site_type_symbol
 _atom_site_label
 _atom_site_symmetry_multiplicity
 _atom_site_fract_x
 _atom_site_fract_y
 _atom_site_fract_z
 _atom_site_occupancy
  Y  Y0  1  0.333333  0.666667  0.434989  1
  Y  Y1  1  0.666667  0.333333  0.564437  1
  Y  Y2  1  0.666667  0.333333  0.936246  1
  Tm  Tm3  1  0.333333  0.666667  0.065336  1
  Tc  Tc4  1  0.829598  0.170402  0.248642  1
  Tc  Tc5  1  0.829598  0.659196  0.248642  1
  Tc  Tc6  1  0.340804  0.170402  0.248642  1
  Tc  Tc7  1  0.170625  0.829375  0.750833  1
  Tc  Tc8  1  0.170625  0.341251  0.750833  1
  Tc  Tc9  1  0.658749  0.829375  0.750833  1
  Ir  Ir10  1  0.000000  0.000000  0.500035  1
  Ir  Ir11  1  0.000000  0.000000  0.000530  1
