# generated using pymatgen
data_Tb3Yb3Pr2(US5)4
_symmetry_space_group_name_H-M   'P 1'
_cell_length_a   7.44434689
_cell_length_b   7.97514255
_cell_length_c   11.72991098
_cell_angle_alpha   90.00169537
_cell_angle_beta   90.04348521
_cell_angle_gamma   89.77418282
_symmetry_Int_Tables_number   1
_chemical_formula_structural   Tb3Yb3Pr2(US5)4
_chemical_formula_sum   'Tb3 Yb3 Pr2 U4 S20'
_cell_volume   696.39601088
_cell_formula_units_Z   1
loop_
 _symmetry_equiv_pos_site_id
 _symmetry_equiv_pos_as_xyz
  1  'x, y, z'
loop_
 _atom_site_type_symbol
 _atom_site_label
 _atom_site_symmetry_multiplicity
 _atom_site_fract_x
 _atom_site_fract_y
 _atom_site_fract_z
 _atom_site_occupancy
  Tb  Tb0  1  0.026536  0.500379  0.178392  1
  Tb  Tb1  1  0.470941  0.499794  0.677044  1
  Tb  Tb2  1  0.031834  0.999653  0.175621  1
  Yb  Yb3  1  0.525595  0.500030  0.324017  1
  Yb  Yb4  1  0.974119  0.000117  0.821697  1
  Yb  Yb5  1  0.472274  0.001635  0.677931  1
  Pr  Pr6  1  0.531433  0.996957  0.328081  1
  Pr  Pr7  1  0.965786  0.502557  0.825894  1
  U  U8  1  0.073273  0.750128  0.493316  1
  U  U9  1  0.431065  0.749521  0.989245  1
  U  U10  1  0.928284  0.251818  0.509597  1
  U  U11  1  0.570743  0.247770  0.008641  1
  S  S12  1  0.836697  0.957896  0.588461  1
  S  S13  1  0.665948  0.542896  0.090905  1
  S  S14  1  0.160070  0.458180  0.405699  1
  S  S15  1  0.336194  0.040681  0.909766  1
  S  S16  1  0.163015  0.042832  0.406029  1
  S  S17  1  0.337243  0.457535  0.905939  1
  S  S18  1  0.830585  0.547443  0.589591  1
  S  S19  1  0.668140  0.953456  0.092164  1
  S  S20  1  0.845887  0.750859  0.309834  1
  S  S21  1  0.658357  0.745802  0.811338  1
  S  S22  1  0.164558  0.256372  0.683726  1
  S  S23  1  0.330509  0.248675  0.184397  1
  S  S24  1  0.450486  0.744509  0.500310  1
  S  S25  1  0.048142  0.749032  0.003888  1
  S  S26  1  0.548890  0.256534  0.503422  1
  S  S27  1  0.953551  0.248535  0.006670  1
  S  S28  1  0.190733  0.747072  0.714188  1
  S  S29  1  0.307903  0.749730  0.212345  1
  S  S30  1  0.815236  0.248168  0.284971  1
  S  S31  1  0.685975  0.253434  0.786882  1
