# generated using pymatgen
data_Ho3Er2SnBi2
_symmetry_space_group_name_H-M   'P 1'
_cell_length_a   9.06447925
_cell_length_b   9.02744132
_cell_length_c   6.40906700
_cell_angle_alpha   90.00000000
_cell_angle_beta   90.00000000
_cell_angle_gamma   119.86491761
_symmetry_Int_Tables_number   1
_chemical_formula_structural   Ho3Er2SnBi2
_chemical_formula_sum   'Ho6 Er4 Sn2 Bi4'
_cell_volume   454.80216307
_cell_formula_units_Z   2
loop_
 _symmetry_equiv_pos_site_id
 _symmetry_equiv_pos_as_xyz
  1  'x, y, z'
loop_
 _atom_site_type_symbol
 _atom_site_label
 _atom_site_symmetry_multiplicity
 _atom_site_fract_x
 _atom_site_fract_y
 _atom_site_fract_z
 _atom_site_occupancy
  Ho  Ho0  1  0.994381  0.759005  0.750000  1
  Ho  Ho1  1  0.994381  0.235376  0.250000  1
  Ho  Ho2  1  0.757174  0.762038  0.250000  1
  Ho  Ho3  1  0.757174  0.995136  0.750000  1
  Ho  Ho4  1  0.244754  0.245065  0.750000  1
  Ho  Ho5  1  0.244754  0.999689  0.250000  1
  Er  Er6  1  0.341013  0.670507  0.500000  1
  Er  Er7  1  0.664897  0.332447  0.000000  1
  Er  Er8  1  0.664897  0.332447  0.500000  1
  Er  Er9  1  0.341013  0.670507  0.000000  1
  Sn  Sn10  1  0.607419  0.605240  0.750000  1
  Sn  Sn11  1  0.607419  0.002180  0.250000  1
  Bi  Bi12  1  0.389163  0.998875  0.750000  1
  Bi  Bi13  1  0.389163  0.390288  0.250000  1
  Bi  Bi14  1  0.001199  0.608881  0.250000  1
  Bi  Bi15  1  0.001199  0.392318  0.750000  1
