# generated using pymatgen
data_TaTlMoO6
_symmetry_space_group_name_H-M   'P 1'
_cell_length_a   7.39168950
_cell_length_b   7.39168867
_cell_length_c   7.39169000
_cell_angle_alpha   119.96191091
_cell_angle_beta   113.53961141
_cell_angle_gamma   95.80785753
_symmetry_Int_Tables_number   1
_chemical_formula_structural   TaTlMoO6
_chemical_formula_sum   'Ta2 Tl2 Mo2 O12'
_cell_volume   296.90202853
_cell_formula_units_Z   2
loop_
 _symmetry_equiv_pos_site_id
 _symmetry_equiv_pos_as_xyz
  1  'x, y, z'
loop_
 _atom_site_type_symbol
 _atom_site_label
 _atom_site_symmetry_multiplicity
 _atom_site_fract_x
 _atom_site_fract_y
 _atom_site_fract_z
 _atom_site_occupancy
  Ta  Ta0  1  0.509356  0.000000  0.509356  1
  Ta  Ta1  1  0.509356  0.500000  0.009356  1
  Tl  Tl2  1  0.035982  0.906574  0.629408  1
  Tl  Tl3  1  0.722835  0.093426  0.129408  1
  Mo  Mo4  1  0.447999  0.480164  0.467835  1
  Mo  Mo5  1  0.987671  0.519836  0.967835  1
  O  O6  1  0.875189  0.599488  0.775702  1
  O  O7  1  0.450959  0.178630  0.772329  1
  O  O8  1  0.470168  0.200922  0.409683  1
  O  O9  1  0.820824  0.563563  0.117178  1
  O  O10  1  0.820824  0.203645  0.757261  1
  O  O11  1  0.470169  0.560485  0.769247  1
  O  O12  1  0.176214  0.400512  0.275702  1
  O  O13  1  0.593699  0.821370  0.272329  1
  O  O14  1  0.553616  0.796355  0.617179  1
  O  O15  1  0.208761  0.439515  0.909683  1
  O  O16  1  0.208762  0.799078  0.269248  1
  O  O17  1  0.553616  0.436437  0.257261  1
