# generated using pymatgen
data_LaZn3Co2
_symmetry_space_group_name_H-M   'P 1'
_cell_length_a   9.11551600
_cell_length_b   9.11551513
_cell_length_c   4.07940000
_cell_angle_alpha   90.00000000
_cell_angle_beta   90.00000000
_cell_angle_gamma   119.99999589
_symmetry_Int_Tables_number   1
_chemical_formula_structural   LaZn3Co2
_chemical_formula_sum   'La3 Zn9 Co6'
_cell_volume   293.55495495
_cell_formula_units_Z   3
loop_
 _symmetry_equiv_pos_site_id
 _symmetry_equiv_pos_as_xyz
  1  'x, y, z'
loop_
 _atom_site_type_symbol
 _atom_site_label
 _atom_site_symmetry_multiplicity
 _atom_site_fract_x
 _atom_site_fract_y
 _atom_site_fract_z
 _atom_site_occupancy
  La  La0  1  0.000000  0.000000  0.500000  1
  La  La1  1  0.333333  0.666667  0.000000  1
  La  La2  1  0.666667  0.333333  0.000000  1
  Zn  Zn3  1  0.500000  0.000000  0.500000  1
  Zn  Zn4  1  0.500000  0.500000  0.500000  1
  Zn  Zn5  1  0.000000  0.500000  0.500000  1
  Zn  Zn6  1  0.292481  0.000000  0.000000  1
  Zn  Zn7  1  0.292481  0.292481  0.000000  1
  Zn  Zn8  1  0.000000  0.707519  0.000000  1
  Zn  Zn9  1  0.000000  0.292481  0.000000  1
  Zn  Zn10  1  0.707519  0.707519  0.000000  1
  Zn  Zn11  1  0.707519  0.000000  0.000000  1
  Co  Co12  1  0.178912  0.357823  0.500000  1
  Co  Co13  1  0.821088  0.178912  0.500000  1
  Co  Co14  1  0.357823  0.178912  0.500000  1
  Co  Co15  1  0.642177  0.821088  0.500000  1
  Co  Co16  1  0.178912  0.821088  0.500000  1
  Co  Co17  1  0.821088  0.642177  0.500000  1
