# generated using pymatgen
data_Tm4MnCoC8
_symmetry_space_group_name_H-M   'P 1'
_cell_length_a   6.50420871
_cell_length_b   6.50420911
_cell_length_c   6.50420868
_cell_angle_alpha   134.99995019
_cell_angle_beta   110.10790738
_cell_angle_gamma   87.08264651
_symmetry_Int_Tables_number   1
_chemical_formula_structural   Tm4MnCoC8
_chemical_formula_sum   'Tm4 Mn1 Co1 C8'
_cell_volume   174.88596134
_cell_formula_units_Z   1
loop_
 _symmetry_equiv_pos_site_id
 _symmetry_equiv_pos_as_xyz
  1  'x, y, z'
loop_
 _atom_site_type_symbol
 _atom_site_label
 _atom_site_symmetry_multiplicity
 _atom_site_fract_x
 _atom_site_fract_y
 _atom_site_fract_z
 _atom_site_occupancy
  Tm  Tm0  1  0.511540  0.357515  0.157417  1
  Tm  Tm1  1  0.488460  0.645877  0.845975  1
  Tm  Tm2  1  0.200098  0.854123  0.342583  1
  Tm  Tm3  1  0.799902  0.142485  0.654025  1
  Mn  Mn4  1  0.000000  0.750000  0.750000  1
  Co  Co5  1  0.000000  0.250000  0.250000  1
  C  C6  1  0.248114  0.064743  0.153569  1
  C  C7  1  0.751886  0.905454  0.816628  1
  C  C8  1  0.911174  0.594546  0.346431  1
  C  C9  1  0.088826  0.435257  0.683372  1
  C  C10  1  0.470676  0.135727  0.346569  1
  C  C11  1  0.529324  0.875894  0.665052  1
  C  C12  1  0.789158  0.624106  0.153431  1
  C  C13  1  0.210842  0.364273  0.834948  1
