# generated using pymatgen
data_Sr9Re4TeN14
_symmetry_space_group_name_H-M   'P 1'
_cell_length_a   6.87739892
_cell_length_b   9.25858377
_cell_length_c   9.68512704
_cell_angle_alpha   114.48004371
_cell_angle_beta   103.00832328
_cell_angle_gamma   89.81957936
_symmetry_Int_Tables_number   1
_chemical_formula_structural   Sr9Re4TeN14
_chemical_formula_sum   'Sr9 Re4 Te1 N14'
_cell_volume   544.02716366
_cell_formula_units_Z   1
loop_
 _symmetry_equiv_pos_site_id
 _symmetry_equiv_pos_as_xyz
  1  'x, y, z'
loop_
 _atom_site_type_symbol
 _atom_site_label
 _atom_site_symmetry_multiplicity
 _atom_site_fract_x
 _atom_site_fract_y
 _atom_site_fract_z
 _atom_site_occupancy
  Sr  Sr0  1  0.256071  0.961815  0.533479  1
  Sr  Sr1  1  0.666212  0.451718  0.876150  1
  Sr  Sr2  1  0.227495  0.572959  0.160439  1
  Sr  Sr3  1  0.386379  0.832317  0.958313  1
  Sr  Sr4  1  0.607894  0.248221  0.101827  1
  Sr  Sr5  1  0.048947  0.441482  0.665297  1
  Sr  Sr6  1  0.893050  0.833221  0.737854  1
  Sr  Sr7  1  0.090343  0.196916  0.229317  1
  Sr  Sr8  1  0.733886  0.952877  0.408989  1
  Re  Re9  1  0.575721  0.313798  0.463852  1
  Re  Re10  1  0.457508  0.615469  0.555629  1
  Re  Re11  1  0.127676  0.208707  0.887566  1
  Re  Re12  1  0.881454  0.826221  0.076169  1
  Te  Te13  1  0.906859  0.592653  0.364151  1
  N  N14  1  0.679241  0.522374  0.648183  1
  N  N15  1  0.379100  0.419920  0.357437  1
  N  N16  1  0.279281  0.660168  0.674384  1
  N  N17  1  0.773074  0.226099  0.372292  1
  N  N18  1  0.461186  0.175550  0.514651  1
  N  N19  1  0.536676  0.788813  0.532694  1
  N  N20  1  0.997006  0.086588  0.681531  1
  N  N21  1  0.049674  0.931786  0.270683  1
  N  N22  1  0.246782  0.083941  0.981774  1
  N  N23  1  0.778410  0.971411  0.001848  1
  N  N24  1  0.331289  0.355723  0.913544  1
  N  N25  1  0.949271  0.317454  0.997755  1
  N  N26  1  0.019835  0.682072  0.942422  1
  N  N27  1  0.659678  0.729729  0.091772  1
