# generated using pymatgen
data_SmGd3B4Br5
_symmetry_space_group_name_H-M   'P 1'
_cell_length_a   9.14889514
_cell_length_b   9.14889472
_cell_length_c   9.47444000
_cell_angle_alpha   74.35411028
_cell_angle_beta   74.35411103
_cell_angle_gamma   26.44635921
_symmetry_Int_Tables_number   1
_chemical_formula_structural   SmGd3B4Br5
_chemical_formula_sum   'Sm1 Gd3 B4 Br5'
_cell_volume   339.36079949
_cell_formula_units_Z   1
loop_
 _symmetry_equiv_pos_site_id
 _symmetry_equiv_pos_as_xyz
  1  'x, y, z'
loop_
 _atom_site_type_symbol
 _atom_site_label
 _atom_site_symmetry_multiplicity
 _atom_site_fract_x
 _atom_site_fract_y
 _atom_site_fract_z
 _atom_site_occupancy
  Sm  Sm0  1  0.861239  0.861239  0.070128  1
  Gd  Gd1  1  0.505683  0.505683  0.741720  1
  Gd  Gd2  1  0.495453  0.495453  0.257921  1
  Gd  Gd3  1  0.139170  0.139170  0.928413  1
  B  B4  1  0.314442  0.686825  0.999840  1
  B  B5  1  0.686825  0.314442  0.999840  1
  B  B6  1  0.000253  0.000253  0.103876  1
  B  B7  1  0.001576  0.001576  0.895336  1
  Br  Br8  1  0.677159  0.677159  0.691764  1
  Br  Br9  1  0.324607  0.324607  0.312368  1
  Br  Br10  1  0.327742  0.327742  0.855161  1
  Br  Br11  1  0.673898  0.673898  0.137545  1
  Br  Br12  1  0.006249  0.006249  0.496290  1
