# generated using pymatgen
data_Na3TlSe3
_symmetry_space_group_name_H-M   'P 1'
_cell_length_a   11.13281302
_cell_length_b   11.13281378
_cell_length_c   7.86839803
_cell_angle_alpha   68.75580744
_cell_angle_beta   68.75580934
_cell_angle_gamma   79.85762915
_symmetry_Int_Tables_number   1
_chemical_formula_structural   Na3TlSe3
_chemical_formula_sum   'Na12 Tl4 Se12'
_cell_volume   846.04067428
_cell_formula_units_Z   4
loop_
 _symmetry_equiv_pos_site_id
 _symmetry_equiv_pos_as_xyz
  1  'x, y, z'
loop_
 _atom_site_type_symbol
 _atom_site_label
 _atom_site_symmetry_multiplicity
 _atom_site_fract_x
 _atom_site_fract_y
 _atom_site_fract_z
 _atom_site_occupancy
  Na  Na0  1  0.009228  0.173436  0.456463  1
  Na  Na1  1  0.826564  0.990772  0.043537  1
  Na  Na2  1  0.990772  0.826564  0.543537  1
  Na  Na3  1  0.173436  0.009228  0.956463  1
  Na  Na4  1  0.229239  0.362577  0.588793  1
  Na  Na5  1  0.637423  0.770761  0.911207  1
  Na  Na6  1  0.770761  0.637423  0.411207  1
  Na  Na7  1  0.362577  0.229239  0.088793  1
  Na  Na8  1  0.722166  0.277834  0.750000  1
  Na  Na9  1  0.277834  0.722166  0.250000  1
  Na  Na10  1  0.435391  0.564609  0.750000  1
  Na  Na11  1  0.564609  0.435391  0.250000  1
  Tl  Tl12  1  0.427383  0.916536  0.401768  1
  Tl  Tl13  1  0.572617  0.083464  0.598232  1
  Tl  Tl14  1  0.916536  0.427383  0.901768  1
  Tl  Tl15  1  0.083464  0.572617  0.098232  1
  Se  Se16  1  0.881109  0.409609  0.274465  1
  Se  Se17  1  0.409609  0.881109  0.774465  1
  Se  Se18  1  0.590391  0.118891  0.225535  1
  Se  Se19  1  0.118891  0.590391  0.725535  1
  Se  Se20  1  0.998455  0.211702  0.811808  1
  Se  Se21  1  0.788298  0.001545  0.688192  1
  Se  Se22  1  0.001545  0.788298  0.188192  1
  Se  Se23  1  0.211702  0.998455  0.311808  1
  Se  Se24  1  0.698581  0.528333  0.828493  1
  Se  Se25  1  0.471667  0.301419  0.671507  1
  Se  Se26  1  0.301419  0.471667  0.171507  1
  Se  Se27  1  0.528333  0.698581  0.328493  1
