# generated using pymatgen
data_Ba2Nd2U4N11
_symmetry_space_group_name_H-M   'P 1'
_cell_length_a   6.06773363
_cell_length_b   6.05577327
_cell_length_c   8.51514700
_cell_angle_alpha   89.85254139
_cell_angle_beta   89.98167175
_cell_angle_gamma   89.81871850
_symmetry_Int_Tables_number   1
_chemical_formula_structural   Ba2Nd2U4N11
_chemical_formula_sum   'Ba2 Nd2 U4 N11'
_cell_volume   312.88491851
_cell_formula_units_Z   1
loop_
 _symmetry_equiv_pos_site_id
 _symmetry_equiv_pos_as_xyz
  1  'x, y, z'
loop_
 _atom_site_type_symbol
 _atom_site_label
 _atom_site_symmetry_multiplicity
 _atom_site_fract_x
 _atom_site_fract_y
 _atom_site_fract_z
 _atom_site_occupancy
  Ba  Ba0  1  0.499808  0.498471  0.741303  1
  Ba  Ba1  1  0.001978  0.998103  0.744248  1
  Nd  Nd2  1  0.985562  0.011469  0.248296  1
  Nd  Nd3  1  0.503700  0.496397  0.268232  1
  U  U4  1  0.499265  0.002180  0.487849  1
  U  U5  1  0.996745  0.499381  0.489243  1
  U  U6  1  0.495548  0.989029  0.004266  1
  U  U7  1  0.011393  0.504722  0.004850  1
  N  N8  1  0.802913  0.795657  0.021623  1
  N  N9  1  0.929970  0.433090  0.240167  1
  N  N10  1  0.565739  0.078893  0.233757  1
  N  N11  1  0.716691  0.732412  0.464440  1
  N  N12  1  0.773605  0.231001  0.511014  1
  N  N13  1  0.223738  0.767905  0.439175  1
  N  N14  1  0.279456  0.272535  0.470511  1
  N  N15  1  0.484203  0.974707  0.758648  1
  N  N16  1  0.020126  0.519146  0.752948  1
  N  N17  1  0.299794  0.701504  0.060958  1
  N  N18  1  0.196337  0.202215  0.016543  1
