# generated using pymatgen
data_Dy2Er2Co3SiI2
_symmetry_space_group_name_H-M   'P 1'
_cell_length_a   3.98746800
_cell_length_b   3.98746836
_cell_length_c   16.78390700
_cell_angle_alpha   90.00000000
_cell_angle_beta   90.00000000
_cell_angle_gamma   119.99999702
_symmetry_Int_Tables_number   1
_chemical_formula_structural   Dy2Er2Co3SiI2
_chemical_formula_sum   'Dy2 Er2 Co3 Si1 I2'
_cell_volume   231.10969794
_cell_formula_units_Z   1
loop_
 _symmetry_equiv_pos_site_id
 _symmetry_equiv_pos_as_xyz
  1  'x, y, z'
loop_
 _atom_site_type_symbol
 _atom_site_label
 _atom_site_symmetry_multiplicity
 _atom_site_fract_x
 _atom_site_fract_y
 _atom_site_fract_z
 _atom_site_occupancy
  Dy  Dy0  1  0.000000  0.000000  0.605812  1
  Dy  Dy1  1  0.000000  0.000000  0.396754  1
  Er  Er2  1  0.000000  0.000000  0.101806  1
  Er  Er3  1  0.000000  0.000000  0.898262  1
  Co  Co4  1  0.666667  0.333333  0.494581  1
  Co  Co5  1  0.666667  0.333333  0.001519  1
  Co  Co6  1  0.333333  0.666667  0.998316  1
  Si  Si7  1  0.333333  0.666667  0.504144  1
  I  I8  1  0.333333  0.666667  0.249863  1
  I  I9  1  0.666667  0.333333  0.748942  1
