# generated using pymatgen
data_TmLu2InSn2Pt3
_symmetry_space_group_name_H-M   'P 1'
_cell_length_a   7.61106132
_cell_length_b   7.62611093
_cell_length_c   3.79687400
_cell_angle_alpha   90.00000000
_cell_angle_beta   90.00000000
_cell_angle_gamma   119.84515070
_symmetry_Int_Tables_number   1
_chemical_formula_structural   TmLu2InSn2Pt3
_chemical_formula_sum   'Tm1 Lu2 In1 Sn2 Pt3'
_cell_volume   191.15281638
_cell_formula_units_Z   1
loop_
 _symmetry_equiv_pos_site_id
 _symmetry_equiv_pos_as_xyz
  1  'x, y, z'
loop_
 _atom_site_type_symbol
 _atom_site_label
 _atom_site_symmetry_multiplicity
 _atom_site_fract_x
 _atom_site_fract_y
 _atom_site_fract_z
 _atom_site_occupancy
  Tm  Tm0  1  0.003743  0.602497  0.500000  1
  Lu  Lu1  1  0.401160  0.397211  0.500000  1
  Lu  Lu2  1  0.595604  0.999905  0.500000  1
  In  In3  1  0.265553  0.000448  0.000000  1
  Sn  Sn4  1  0.001501  0.265435  0.000000  1
  Sn  Sn5  1  0.735692  0.734617  0.000000  1
  Pt  Pt6  1  0.666905  0.333698  0.000000  1
  Pt  Pt7  1  0.995001  0.000598  0.500000  1
  Pt  Pt8  1  0.334842  0.665591  0.000000  1
