# generated using pymatgen
data_Rb3Mn4Tl5S4(O4F3)4
_symmetry_space_group_name_H-M   'P 1'
_cell_length_a   11.36641800
_cell_length_b   7.48220557
_cell_length_c   8.94543000
_cell_angle_alpha   86.77934547
_cell_angle_beta   90.00000000
_cell_angle_gamma   90.00000000
_symmetry_Int_Tables_number   1
_chemical_formula_structural   Rb3Mn4Tl5S4(O4F3)4
_chemical_formula_sum   'Rb3 Mn4 Tl5 S4 O16 F12'
_cell_volume   759.57035024
_cell_formula_units_Z   1
loop_
 _symmetry_equiv_pos_site_id
 _symmetry_equiv_pos_as_xyz
  1  'x, y, z'
loop_
 _atom_site_type_symbol
 _atom_site_label
 _atom_site_symmetry_multiplicity
 _atom_site_fract_x
 _atom_site_fract_y
 _atom_site_fract_z
 _atom_site_occupancy
  Rb  Rb0  1  0.809397  0.191210  0.667592  1
  Rb  Rb1  1  0.690519  0.191027  0.167766  1
  Rb  Rb2  1  0.191030  0.808961  0.333116  1
  Mn  Mn3  1  0.500257  0.000089  0.500175  1
  Mn  Mn4  1  0.000015  0.000032  0.000001  1
  Mn  Mn5  1  0.499803  0.500042  0.499960  1
  Mn  Mn6  1  0.999805  0.500246  0.000207  1
  Tl  Tl7  1  0.193814  0.303088  0.666518  1
  Tl  Tl8  1  0.691163  0.696774  0.833952  1
  Tl  Tl9  1  0.807137  0.696426  0.334359  1
  Tl  Tl10  1  0.307626  0.303533  0.166036  1
  Tl  Tl11  1  0.306987  0.810114  0.836877  1
  S  S12  1  0.501241  0.252085  0.803646  1
  S  S13  1  0.001140  0.746997  0.696179  1
  S  S14  1  0.498833  0.747795  0.195883  1
  S  S15  1  0.998980  0.252570  0.303612  1
  O  O16  1  0.403806  0.177851  0.896877  1
  O  O17  1  0.903693  0.822417  0.604089  1
  O  O18  1  0.596328  0.821465  0.103023  1
  O  O19  1  0.096419  0.178653  0.396446  1
  O  O20  1  0.592901  0.337362  0.891411  1
  O  O21  1  0.092363  0.661796  0.607926  1
  O  O22  1  0.406439  0.663042  0.108112  1
  O  O23  1  0.906913  0.337427  0.390997  1
  O  O24  1  0.443990  0.394300  0.694934  1
  O  O25  1  0.944028  0.604658  0.804958  1
  O  O26  1  0.555394  0.604235  0.303994  1
  O  O27  1  0.056063  0.395436  0.194992  1
  O  O28  1  0.055604  0.887813  0.787172  1
  O  O29  1  0.555239  0.111200  0.713102  1
  O  O30  1  0.945397  0.111487  0.212766  1
  O  O31  1  0.445289  0.888799  0.286559  1
  F  F32  1  0.341104  0.520775  0.444718  1
  F  F33  1  0.841009  0.478518  0.054897  1
  F  F34  1  0.658717  0.478668  0.554355  1
  F  F35  1  0.159106  0.522623  0.945820  1
  F  F36  1  0.159874  0.022542  0.045661  1
  F  F37  1  0.659648  0.977213  0.453735  1
  F  F38  1  0.840767  0.976973  0.953792  1
  F  F39  1  0.340690  0.023902  0.544979  1
  F  F40  1  0.002407  0.763034  0.099444  1
  F  F41  1  0.502738  0.237199  0.400624  1
  F  F42  1  0.997729  0.237188  0.900919  1
  F  F43  1  0.498599  0.762435  0.597820  1
