# generated using pymatgen
data_YbAgRu2O7
_symmetry_space_group_name_H-M   'P 1'
_cell_length_a   7.20316199
_cell_length_b   7.20316166
_cell_length_c   7.33169700
_cell_angle_alpha   59.40793424
_cell_angle_beta   59.40793575
_cell_angle_gamma   59.03881920
_symmetry_Int_Tables_number   1
_chemical_formula_structural   YbAgRu2O7
_chemical_formula_sum   'Yb2 Ag2 Ru4 O14'
_cell_volume   264.60201370
_cell_formula_units_Z   2
loop_
 _symmetry_equiv_pos_site_id
 _symmetry_equiv_pos_as_xyz
  1  'x, y, z'
loop_
 _atom_site_type_symbol
 _atom_site_label
 _atom_site_symmetry_multiplicity
 _atom_site_fract_x
 _atom_site_fract_y
 _atom_site_fract_z
 _atom_site_occupancy
  Yb  Yb0  1  0.125000  0.125000  0.125000  1
  Yb  Yb1  1  0.125000  0.125000  0.625000  1
  Ag  Ag2  1  0.625000  0.125000  0.125000  1
  Ag  Ag3  1  0.125000  0.625000  0.125000  1
  Ru  Ru4  1  0.625000  0.625000  0.625000  1
  Ru  Ru5  1  0.125000  0.625000  0.625000  1
  Ru  Ru6  1  0.625000  0.625000  0.125000  1
  Ru  Ru7  1  0.625000  0.125000  0.625000  1
  O  O8  1  0.986835  0.986835  0.013165  1
  O  O9  1  0.263165  0.263165  0.236835  1
  O  O10  1  0.297283  0.297283  0.702717  1
  O  O11  1  0.558626  0.558626  0.941374  1
  O  O12  1  0.699096  0.303585  0.691607  1
  O  O13  1  0.699096  0.303585  0.305712  1
  O  O14  1  0.303585  0.699096  0.691607  1
  O  O15  1  0.303585  0.699096  0.305712  1
  O  O16  1  0.691374  0.691374  0.308626  1
  O  O17  1  0.946415  0.550904  0.558393  1
  O  O18  1  0.550904  0.946415  0.944288  1
  O  O19  1  0.952717  0.952717  0.547283  1
  O  O20  1  0.946415  0.550904  0.944288  1
  O  O21  1  0.550904  0.946415  0.558393  1
