# generated using pymatgen
data_Pr2Nd3HfRuO12
_symmetry_space_group_name_H-M   'P 1'
_cell_length_a   7.16181307
_cell_length_b   7.15955962
_cell_length_c   7.65647667
_cell_angle_alpha   74.48673120
_cell_angle_beta   74.48379982
_cell_angle_gamma   50.57077104
_symmetry_Int_Tables_number   1
_chemical_formula_structural   Pr2Nd3HfRuO12
_chemical_formula_sum   'Pr2 Nd3 Hf1 Ru1 O12'
_cell_volume   289.66688904
_cell_formula_units_Z   1
loop_
 _symmetry_equiv_pos_site_id
 _symmetry_equiv_pos_as_xyz
  1  'x, y, z'
loop_
 _atom_site_type_symbol
 _atom_site_label
 _atom_site_symmetry_multiplicity
 _atom_site_fract_x
 _atom_site_fract_y
 _atom_site_fract_z
 _atom_site_occupancy
  Pr  Pr0  1  0.298346  0.311820  0.833881  1
  Pr  Pr1  1  0.005281  0.994850  0.499731  1
  Nd  Nd2  1  0.299665  0.305409  0.359478  1
  Nd  Nd3  1  0.694600  0.700262  0.639810  1
  Nd  Nd4  1  0.687926  0.701553  0.166452  1
  Hf  Hf5  1  0.767029  0.232913  0.000321  1
  Ru  Ru6  1  0.253089  0.746843  0.000331  1
  O  O7  1  0.092094  0.597962  0.573686  1
  O  O8  1  0.017396  0.982405  0.180607  1
  O  O9  1  0.403267  0.906865  0.424771  1
  O  O10  1  0.495847  0.505469  0.179476  1
  O  O11  1  0.098607  0.584520  0.081781  1
  O  O12  1  0.902375  0.407305  0.421680  1
  O  O13  1  0.017791  0.982847  0.819377  1
  O  O14  1  0.594012  0.096667  0.576716  1
  O  O15  1  0.495146  0.504352  0.820879  1
  O  O16  1  0.566699  0.103468  0.082575  1
  O  O17  1  0.417143  0.899045  0.919580  1
  O  O18  1  0.893688  0.435442  0.918869  1
