# generated using pymatgen
data_TmRhI18
_symmetry_space_group_name_H-M   'P 1'
_cell_length_a   10.16569058
_cell_length_b   10.15953013
_cell_length_c   10.18956815
_cell_angle_alpha   94.80038896
_cell_angle_beta   94.94649719
_cell_angle_gamma   94.83925392
_symmetry_Int_Tables_number   1
_chemical_formula_structural   TmRhI18
_chemical_formula_sum   'Tm1 Rh1 I18'
_cell_volume   1040.31346280
_cell_formula_units_Z   1
loop_
 _symmetry_equiv_pos_site_id
 _symmetry_equiv_pos_as_xyz
  1  'x, y, z'
loop_
 _atom_site_type_symbol
 _atom_site_label
 _atom_site_symmetry_multiplicity
 _atom_site_fract_x
 _atom_site_fract_y
 _atom_site_fract_z
 _atom_site_occupancy
  Tm  Tm0  1  0.500000  0.500000  0.500000  1
  Rh  Rh1  1  0.000000  0.000000  0.000000  1
  I  I2  1  0.794418  0.482124  0.531483  1
  I  I3  1  0.531467  0.794389  0.479991  1
  I  I4  1  0.482450  0.531948  0.793730  1
  I  I5  1  0.205582  0.517876  0.468517  1
  I  I6  1  0.468533  0.205611  0.520009  1
  I  I7  1  0.517550  0.468052  0.206270  1
  I  I8  1  0.902535  0.363119  0.771706  1
  I  I9  1  0.772246  0.903436  0.362465  1
  I  I10  1  0.363295  0.771846  0.902195  1
  I  I11  1  0.097465  0.636881  0.228294  1
  I  I12  1  0.227754  0.096564  0.637535  1
  I  I13  1  0.636705  0.228154  0.097805  1
  I  I14  1  0.995248  0.964226  0.734653  1
  I  I15  1  0.733996  0.996225  0.963987  1
  I  I16  1  0.965205  0.733888  0.995589  1
  I  I17  1  0.004752  0.035774  0.265347  1
  I  I18  1  0.266004  0.003775  0.036013  1
  I  I19  1  0.034795  0.266112  0.004411  1
