# generated using pymatgen
data_Nb6GePt3N2
_symmetry_space_group_name_H-M   'P 1'
_cell_length_a   7.07663308
_cell_length_b   7.07887400
_cell_length_c   7.05432813
_cell_angle_alpha   90.00000000
_cell_angle_beta   89.68962908
_cell_angle_gamma   90.00000000
_symmetry_Int_Tables_number   1
_chemical_formula_structural   Nb6GePt3N2
_chemical_formula_sum   'Nb12 Ge2 Pt6 N4'
_cell_volume   353.37851846
_cell_formula_units_Z   2
loop_
 _symmetry_equiv_pos_site_id
 _symmetry_equiv_pos_as_xyz
  1  'x, y, z'
loop_
 _atom_site_type_symbol
 _atom_site_label
 _atom_site_symmetry_multiplicity
 _atom_site_fract_x
 _atom_site_fract_y
 _atom_site_fract_z
 _atom_site_occupancy
  Nb  Nb0  1  0.787225  0.953653  0.376377  1
  Nb  Nb1  1  0.701253  0.045961  0.875119  1
  Nb  Nb2  1  0.212775  0.453653  0.123623  1
  Nb  Nb3  1  0.298747  0.545961  0.624881  1
  Nb  Nb4  1  0.951868  0.382543  0.792430  1
  Nb  Nb5  1  0.048132  0.882543  0.707570  1
  Nb  Nb6  1  0.456407  0.127490  0.205132  1
  Nb  Nb7  1  0.543593  0.627490  0.294868  1
  Nb  Nb8  1  0.379881  0.789407  0.947439  1
  Nb  Nb9  1  0.869832  0.703122  0.039883  1
  Nb  Nb10  1  0.130168  0.203122  0.460117  1
  Nb  Nb11  1  0.620119  0.289407  0.552561  1
  Ge  Ge12  1  0.934812  0.566147  0.427010  1
  Ge  Ge13  1  0.065188  0.066147  0.072990  1
  Pt  Pt14  1  0.172209  0.813791  0.310292  1
  Pt  Pt15  1  0.303077  0.181414  0.826445  1
  Pt  Pt16  1  0.827791  0.313791  0.189708  1
  Pt  Pt17  1  0.696923  0.681414  0.673555  1
  Pt  Pt18  1  0.566232  0.435239  0.937006  1
  Pt  Pt19  1  0.433768  0.935239  0.562994  1
  N  N20  1  0.872495  0.126131  0.626327  1
  N  N21  1  0.620743  0.875104  0.123990  1
  N  N22  1  0.127505  0.626131  0.873673  1
  N  N23  1  0.379257  0.375104  0.376010  1
