# generated using pymatgen
data_Ho3Lu2Pb3Cl
_symmetry_space_group_name_H-M   'P 1'
_cell_length_a   9.13081700
_cell_length_b   9.13081633
_cell_length_c   6.52748000
_cell_angle_alpha   90.00000000
_cell_angle_beta   90.00000000
_cell_angle_gamma   119.99999879
_symmetry_Int_Tables_number   1
_chemical_formula_structural   Ho3Lu2Pb3Cl
_chemical_formula_sum   'Ho6 Lu4 Pb6 Cl2'
_cell_volume   471.29782189
_cell_formula_units_Z   2
loop_
 _symmetry_equiv_pos_site_id
 _symmetry_equiv_pos_as_xyz
  1  'x, y, z'
loop_
 _atom_site_type_symbol
 _atom_site_label
 _atom_site_symmetry_multiplicity
 _atom_site_fract_x
 _atom_site_fract_y
 _atom_site_fract_z
 _atom_site_occupancy
  Ho  Ho0  1  0.260979  0.000000  0.750000  1
  Ho  Ho1  1  0.739021  0.000000  0.250000  1
  Ho  Ho2  1  0.000000  0.260979  0.750000  1
  Ho  Ho3  1  0.000000  0.739021  0.250000  1
  Ho  Ho4  1  0.739021  0.739021  0.750000  1
  Ho  Ho5  1  0.260979  0.260979  0.250000  1
  Lu  Lu6  1  0.333333  0.666667  0.500000  1
  Lu  Lu7  1  0.666667  0.333333  0.500000  1
  Lu  Lu8  1  0.666667  0.333333  0.000000  1
  Lu  Lu9  1  0.333333  0.666667  0.000000  1
  Pb  Pb10  1  0.609570  0.000000  0.750000  1
  Pb  Pb11  1  0.390430  0.000000  0.250000  1
  Pb  Pb12  1  0.000000  0.609570  0.750000  1
  Pb  Pb13  1  0.000000  0.390430  0.250000  1
  Pb  Pb14  1  0.390430  0.390430  0.750000  1
  Pb  Pb15  1  0.609570  0.609570  0.250000  1
  Cl  Cl16  1  0.000000  0.000000  0.500000  1
  Cl  Cl17  1  0.000000  0.000000  0.000000  1
