# generated using pymatgen
data_AcHoPa2(Zn5Sn)2
_symmetry_space_group_name_H-M   'P 1'
_cell_length_a   8.49903986
_cell_length_b   8.49903960
_cell_length_c   8.96209293
_cell_angle_alpha   92.32207051
_cell_angle_beta   87.67792901
_cell_angle_gamma   149.32196847
_symmetry_Int_Tables_number   1
_chemical_formula_structural   AcHoPa2(Zn5Sn)2
_chemical_formula_sum   'Ac1 Ho1 Pa2 Zn10 Sn2'
_cell_volume   330.00249068
_cell_formula_units_Z   1
loop_
 _symmetry_equiv_pos_site_id
 _symmetry_equiv_pos_as_xyz
  1  'x, y, z'
loop_
 _atom_site_type_symbol
 _atom_site_label
 _atom_site_symmetry_multiplicity
 _atom_site_fract_x
 _atom_site_fract_y
 _atom_site_fract_z
 _atom_site_occupancy
  Ac  Ac0  1  0.000000  0.000000  0.000000  1
  Ho  Ho1  1  0.000000  0.000000  0.500000  1
  Pa  Pa2  1  0.207025  0.792975  0.251934  1
  Pa  Pa3  1  0.792975  0.207025  0.748066  1
  Zn  Zn4  1  0.816820  0.183180  0.387783  1
  Zn  Zn5  1  0.183180  0.816820  0.612217  1
  Zn  Zn6  1  0.808547  0.191453  0.102452  1
  Zn  Zn7  1  0.191453  0.808547  0.897548  1
  Zn  Zn8  1  0.662149  0.337851  0.483818  1
  Zn  Zn9  1  0.337851  0.662149  0.516182  1
  Zn  Zn10  1  0.658825  0.341175  0.022836  1
  Zn  Zn11  1  0.341175  0.658825  0.977164  1
  Zn  Zn12  1  0.393677  0.606323  0.247043  1
  Zn  Zn13  1  0.606323  0.393677  0.752957  1
  Sn  Sn14  1  0.557393  0.442607  0.265743  1
  Sn  Sn15  1  0.442607  0.557393  0.734257  1
