# generated using pymatgen
data_DyTmFe12P7
_symmetry_space_group_name_H-M   'P 1'
_cell_length_a   8.92666500
_cell_length_b   8.92666504
_cell_length_c   3.64142500
_cell_angle_alpha   90.00000000
_cell_angle_beta   90.00000000
_cell_angle_gamma   119.99999613
_symmetry_Int_Tables_number   1
_chemical_formula_structural   DyTmFe12P7
_chemical_formula_sum   'Dy1 Tm1 Fe12 P7'
_cell_volume   251.29305954
_cell_formula_units_Z   1
loop_
 _symmetry_equiv_pos_site_id
 _symmetry_equiv_pos_as_xyz
  1  'x, y, z'
loop_
 _atom_site_type_symbol
 _atom_site_label
 _atom_site_symmetry_multiplicity
 _atom_site_fract_x
 _atom_site_fract_y
 _atom_site_fract_z
 _atom_site_occupancy
  Dy  Dy0  1  0.333333  0.666667  0.000000  1
  Tm  Tm1  1  0.000000  0.000000  0.500000  1
  Fe  Fe2  1  0.724079  0.758728  0.000000  1
  Fe  Fe3  1  0.241272  0.965351  0.000000  1
  Fe  Fe4  1  0.034649  0.275921  0.000000  1
  Fe  Fe5  1  0.939912  0.487570  0.000000  1
  Fe  Fe6  1  0.512430  0.452341  0.000000  1
  Fe  Fe7  1  0.547659  0.060088  0.000000  1
  Fe  Fe8  1  0.099154  0.717976  0.500000  1
  Fe  Fe9  1  0.282024  0.381178  0.500000  1
  Fe  Fe10  1  0.618822  0.900846  0.500000  1
  Fe  Fe11  1  0.761311  0.543782  0.500000  1
  Fe  Fe12  1  0.456218  0.217531  0.500000  1
  Fe  Fe13  1  0.782469  0.238689  0.500000  1
  P  P14  1  0.966165  0.745345  0.000000  1
  P  P15  1  0.254655  0.220819  0.000000  1
  P  P16  1  0.779181  0.033835  0.000000  1
  P  P17  1  0.066132  0.443840  0.500000  1
  P  P18  1  0.556160  0.622291  0.500000  1
  P  P19  1  0.377709  0.933868  0.500000  1
  P  P20  1  0.666667  0.333333  0.000000  1
