# generated using pymatgen
data_U4MoW3C8
_symmetry_space_group_name_H-M   'P 1'
_cell_length_a   3.22778100
_cell_length_b   5.63371302
_cell_length_c   11.08680203
_cell_angle_alpha   89.99135213
_cell_angle_beta   90.00000000
_cell_angle_gamma   90.00000000
_symmetry_Int_Tables_number   1
_chemical_formula_structural   U4MoW3C8
_chemical_formula_sum   'U4 Mo1 W3 C8'
_cell_volume   201.60675002
_cell_formula_units_Z   1
loop_
 _symmetry_equiv_pos_site_id
 _symmetry_equiv_pos_as_xyz
  1  'x, y, z'
loop_
 _atom_site_type_symbol
 _atom_site_label
 _atom_site_symmetry_multiplicity
 _atom_site_fract_x
 _atom_site_fract_y
 _atom_site_fract_z
 _atom_site_occupancy
  U  U0  1  0.250000  0.080524  0.858348  1
  U  U1  1  0.250000  0.580113  0.641461  1
  U  U2  1  0.750000  0.920433  0.141576  1
  U  U3  1  0.750000  0.419760  0.357958  1
  Mo  Mo4  1  0.250000  0.420965  0.102071  1
  W  W5  1  0.250000  0.920667  0.397901  1
  W  W6  1  0.750000  0.579068  0.898035  1
  W  W7  1  0.750000  0.079181  0.602539  1
  C  C8  1  0.250000  0.162051  0.245382  1
  C  C9  1  0.250000  0.663519  0.255701  1
  C  C10  1  0.750000  0.836384  0.755429  1
  C  C11  1  0.750000  0.337159  0.744696  1
  C  C12  1  0.250000  0.750192  0.991940  1
  C  C13  1  0.250000  0.249638  0.507594  1
  C  C14  1  0.750000  0.250194  0.006932  1
  C  C15  1  0.750000  0.750152  0.492437  1
