# generated using pymatgen
data_Tb2Tm2Ga12Fe
_symmetry_space_group_name_H-M   'P 1'
_cell_length_a   7.44964191
_cell_length_b   7.43701908
_cell_length_c   7.45776847
_cell_angle_alpha   109.52427728
_cell_angle_beta   109.55742212
_cell_angle_gamma   109.42610747
_symmetry_Int_Tables_number   1
_chemical_formula_structural   Tb2Tm2Ga12Fe
_chemical_formula_sum   'Tb2 Tm2 Ga12 Fe1'
_cell_volume   317.69853526
_cell_formula_units_Z   1
loop_
 _symmetry_equiv_pos_site_id
 _symmetry_equiv_pos_as_xyz
  1  'x, y, z'
loop_
 _atom_site_type_symbol
 _atom_site_label
 _atom_site_symmetry_multiplicity
 _atom_site_fract_x
 _atom_site_fract_y
 _atom_site_fract_z
 _atom_site_occupancy
  Tb  Tb0  1  0.000000  0.500000  0.000000  1
  Tb  Tb1  1  0.500000  0.500000  0.500000  1
  Tm  Tm2  1  0.000000  0.000000  0.500000  1
  Tm  Tm3  1  0.500000  0.000000  0.000000  1
  Ga  Ga4  1  0.750058  0.248902  0.498804  1
  Ga  Ga5  1  0.749977  0.499998  0.250008  1
  Ga  Ga6  1  0.498834  0.248902  0.750098  1
  Ga  Ga7  1  0.250023  0.500002  0.749992  1
  Ga  Ga8  1  0.249942  0.751098  0.501196  1
  Ga  Ga9  1  0.501166  0.751098  0.249902  1
  Ga  Ga10  1  0.716309  0.717213  0.000841  1
  Ga  Ga11  1  0.283616  0.000021  0.283578  1
  Ga  Ga12  1  0.999145  0.282776  0.283654  1
  Ga  Ga13  1  0.283691  0.282787  0.999159  1
  Ga  Ga14  1  0.716384  0.999979  0.716422  1
  Ga  Ga15  1  0.000855  0.717224  0.716346  1
  Fe  Fe16  1  0.000000  0.000000  0.000000  1
