# generated using pymatgen
data_Pm3H7
_symmetry_space_group_name_H-M   'P 1'
_cell_length_a   3.83163464
_cell_length_b   6.62025099
_cell_length_c   6.61971023
_cell_angle_alpha   119.97161759
_cell_angle_beta   73.21136178
_cell_angle_gamma   125.39110893
_symmetry_Int_Tables_number   1
_chemical_formula_structural   Pm3H7
_chemical_formula_sum   'Pm3 H7'
_cell_volume   118.58391369
_cell_formula_units_Z   1
loop_
 _symmetry_equiv_pos_site_id
 _symmetry_equiv_pos_as_xyz
  1  'x, y, z'
loop_
 _atom_site_type_symbol
 _atom_site_label
 _atom_site_symmetry_multiplicity
 _atom_site_fract_x
 _atom_site_fract_y
 _atom_site_fract_z
 _atom_site_occupancy
  Pm  Pm0  1  0.856026  0.506948  0.534860  1
  Pm  Pm1  1  0.849280  0.164488  0.861146  1
  Pm  Pm2  1  0.848017  0.838740  0.208342  1
  H  H3  1  0.607032  0.428855  0.876707  1
  H  H4  1  0.343061  0.990007  0.537169  1
  H  H5  1  0.584937  0.735562  0.535364  1
  H  H6  1  0.118728  0.267862  0.533878  1
  H  H7  1  0.091968  0.918560  0.879770  1
  H  H8  1  0.608281  0.087827  0.193164  1
  H  H9  1  0.093664  0.574808  0.188995  1
