# generated using pymatgen
data_La9Pr(Sn2Ru3)2
_symmetry_space_group_name_H-M   'P 1'
_cell_length_a   8.77654277
_cell_length_b   8.82916262
_cell_length_c   8.82916253
_cell_angle_alpha   109.88494067
_cell_angle_beta   109.30277501
_cell_angle_gamma   109.46698354
_symmetry_Int_Tables_number   1
_chemical_formula_structural   La9Pr(Sn2Ru3)2
_chemical_formula_sum   'La9 Pr1 Sn4 Ru6'
_cell_volume   525.08910508
_cell_formula_units_Z   1
loop_
 _symmetry_equiv_pos_site_id
 _symmetry_equiv_pos_as_xyz
  1  'x, y, z'
loop_
 _atom_site_type_symbol
 _atom_site_label
 _atom_site_symmetry_multiplicity
 _atom_site_fract_x
 _atom_site_fract_y
 _atom_site_fract_z
 _atom_site_occupancy
  La  La0  1  0.750000  0.809033  0.059033  1
  La  La1  1  0.440620  0.249614  0.690403  1
  La  La2  1  0.691175  0.440303  0.249727  1
  La  La3  1  0.059381  0.749784  0.808995  1
  La  La4  1  0.808825  0.058551  0.749126  1
  La  La5  1  0.202609  0.203102  0.202445  1
  La  La6  1  0.498579  0.999491  0.297110  1
  La  La7  1  0.297391  0.499837  0.000494  1
  La  La8  1  0.001422  0.298532  0.500914  1
  Pr  Pr9  1  0.250000  0.688392  0.438393  1
  Sn  Sn10  1  0.499121  0.998611  0.905732  1
  Sn  Sn11  1  0.591713  0.592763  0.592454  1
  Sn  Sn12  1  0.908287  0.500741  0.001050  1
  Sn  Sn13  1  0.000880  0.906611  0.499492  1
  Ru  Ru14  1  0.250001  0.130053  0.880053  1
  Ru  Ru15  1  0.750000  0.370107  0.620107  1
  Ru  Ru16  1  0.880963  0.251346  0.130605  1
  Ru  Ru17  1  0.128274  0.883707  0.248059  1
  Ru  Ru18  1  0.619036  0.749641  0.370380  1
  Ru  Ru19  1  0.371725  0.619783  0.755433  1
