# generated using pymatgen
data_Tb7Y(LuBi)12
_symmetry_space_group_name_H-M   'P 1'
_cell_length_a   8.18927601
_cell_length_b   9.40467100
_cell_length_c   11.99467201
_cell_angle_alpha   90.00000000
_cell_angle_beta   89.99504412
_cell_angle_gamma   90.00000000
_symmetry_Int_Tables_number   1
_chemical_formula_structural   Tb7Y(LuBi)12
_chemical_formula_sum   'Tb7 Y1 Lu12 Bi12'
_cell_volume   923.79900742
_cell_formula_units_Z   1
loop_
 _symmetry_equiv_pos_site_id
 _symmetry_equiv_pos_as_xyz
  1  'x, y, z'
loop_
 _atom_site_type_symbol
 _atom_site_label
 _atom_site_symmetry_multiplicity
 _atom_site_fract_x
 _atom_site_fract_y
 _atom_site_fract_z
 _atom_site_occupancy
  Tb  Tb0  1  0.186215  0.750000  0.718750  1
  Tb  Tb1  1  0.686198  0.750000  0.781263  1
  Tb  Tb2  1  0.813783  0.250000  0.281236  1
  Tb  Tb3  1  0.313817  0.250000  0.218737  1
  Tb  Tb4  1  0.353170  0.750000  0.216623  1
  Tb  Tb5  1  0.853225  0.750000  0.283355  1
  Tb  Tb6  1  0.646785  0.250000  0.783394  1
  Y  Y7  1  0.146796  0.250000  0.716573  1
  Lu  Lu8  1  0.023775  0.750000  0.989528  1
  Lu  Lu9  1  0.523722  0.750000  0.510473  1
  Lu  Lu10  1  0.976263  0.250000  0.010459  1
  Lu  Lu11  1  0.476201  0.250000  0.489506  1
  Lu  Lu12  1  0.307387  0.433639  0.940934  1
  Lu  Lu13  1  0.807408  0.066353  0.559066  1
  Lu  Lu14  1  0.692612  0.933646  0.059069  1
  Lu  Lu15  1  0.192604  0.566397  0.440925  1
  Lu  Lu16  1  0.692612  0.566354  0.059069  1
  Lu  Lu17  1  0.192604  0.933603  0.440925  1
  Lu  Lu18  1  0.307387  0.066361  0.940934  1
  Lu  Lu19  1  0.807408  0.433647  0.559066  1
  Bi  Bi20  1  0.433829  0.003925  0.671598  1
  Bi  Bi21  1  0.933892  0.496047  0.828333  1
  Bi  Bi22  1  0.566138  0.503909  0.328402  1
  Bi  Bi23  1  0.066161  0.996088  0.171641  1
  Bi  Bi24  1  0.566138  0.996091  0.328402  1
  Bi  Bi25  1  0.066161  0.503912  0.171641  1
  Bi  Bi26  1  0.433829  0.496075  0.671598  1
  Bi  Bi27  1  0.933892  0.003953  0.828333  1
  Bi  Bi28  1  0.404524  0.750000  0.957373  1
  Bi  Bi29  1  0.904543  0.750000  0.542607  1
  Bi  Bi30  1  0.595454  0.250000  0.042623  1
  Bi  Bi31  1  0.095468  0.250000  0.457562  1
