# generated using pymatgen
data_Zn3FeMo12(PtN)4
_symmetry_space_group_name_H-M   'P 1'
_cell_length_a   6.83746680
_cell_length_b   6.83742760
_cell_length_c   6.83738290
_cell_angle_alpha   90.33822470
_cell_angle_beta   90.33836493
_cell_angle_gamma   90.33828233
_symmetry_Int_Tables_number   1
_chemical_formula_structural   Zn3FeMo12(PtN)4
_chemical_formula_sum   'Zn3 Fe1 Mo12 Pt4 N4'
_cell_volume   319.63554785
_cell_formula_units_Z   1
loop_
 _symmetry_equiv_pos_site_id
 _symmetry_equiv_pos_as_xyz
  1  'x, y, z'
loop_
 _atom_site_type_symbol
 _atom_site_label
 _atom_site_symmetry_multiplicity
 _atom_site_fract_x
 _atom_site_fract_y
 _atom_site_fract_z
 _atom_site_occupancy
  Zn  Zn0  1  0.181983  0.817853  0.315293  1
  Zn  Zn1  1  0.315289  0.181984  0.817855  1
  Zn  Zn2  1  0.817855  0.315285  0.181985  1
  Fe  Fe3  1  0.683143  0.683146  0.683148  1
  Mo  Mo4  1  0.794481  0.955030  0.379151  1
  Mo  Mo5  1  0.700118  0.029248  0.872478  1
  Mo  Mo6  1  0.200109  0.461000  0.126854  1
  Mo  Mo7  1  0.308863  0.541159  0.629404  1
  Mo  Mo8  1  0.955037  0.379134  0.794484  1
  Mo  Mo9  1  0.029246  0.872476  0.700119  1
  Mo  Mo10  1  0.460997  0.126852  0.200095  1
  Mo  Mo11  1  0.541157  0.629400  0.308868  1
  Mo  Mo12  1  0.379139  0.794482  0.955037  1
  Mo  Mo13  1  0.872481  0.700122  0.029241  1
  Mo  Mo14  1  0.126849  0.200110  0.460993  1
  Mo  Mo15  1  0.629404  0.308866  0.541155  1
  Pt  Pt16  1  0.565806  0.435156  0.935512  1
  Pt  Pt17  1  0.435144  0.935521  0.565807  1
  Pt  Pt18  1  0.935519  0.565805  0.435147  1
  Pt  Pt19  1  0.067496  0.067494  0.067497  1
  N  N20  1  0.871751  0.127768  0.626093  1
  N  N21  1  0.626091  0.871746  0.127771  1
  N  N22  1  0.127769  0.626098  0.871751  1
  N  N23  1  0.374273  0.374270  0.374262  1
