# generated using pymatgen
data_La2DyTm3(IrO7)2
_symmetry_space_group_name_H-M   'P 1'
_cell_length_a   6.45084790
_cell_length_b   6.46076218
_cell_length_c   7.48775300
_cell_angle_alpha   90.00000000
_cell_angle_beta   90.00000000
_cell_angle_gamma   109.42116810
_symmetry_Int_Tables_number   1
_chemical_formula_structural   La2DyTm3(IrO7)2
_chemical_formula_sum   'La2 Dy1 Tm3 Ir2 O14'
_cell_volume   294.31320928
_cell_formula_units_Z   1
loop_
 _symmetry_equiv_pos_site_id
 _symmetry_equiv_pos_as_xyz
  1  'x, y, z'
loop_
 _atom_site_type_symbol
 _atom_site_label
 _atom_site_symmetry_multiplicity
 _atom_site_fract_x
 _atom_site_fract_y
 _atom_site_fract_z
 _atom_site_occupancy
  La  La0  1  0.998453  0.999204  0.501045  1
  La  La1  1  0.998453  0.999204  0.998955  1
  Dy  Dy2  1  0.062352  0.515536  0.250000  1
  Tm  Tm3  1  0.513464  0.058505  0.250000  1
  Tm  Tm4  1  0.939213  0.487131  0.750000  1
  Tm  Tm5  1  0.486591  0.940781  0.750000  1
  Ir  Ir6  1  0.498873  0.498679  0.501115  1
  Ir  Ir7  1  0.498873  0.498679  0.998885  1
  O  O8  1  0.443061  0.178901  0.534226  1
  O  O9  1  0.820124  0.557934  0.468426  1
  O  O10  1  0.443061  0.178901  0.965774  1
  O  O11  1  0.820124  0.557934  0.031574  1
  O  O12  1  0.554412  0.819615  0.466596  1
  O  O13  1  0.179774  0.440556  0.537353  1
  O  O14  1  0.554412  0.819615  0.033404  1
  O  O15  1  0.179774  0.440556  0.962647  1
  O  O16  1  0.162400  0.880178  0.250000  1
  O  O17  1  0.125802  0.836576  0.750000  1
  O  O18  1  0.836295  0.126250  0.750000  1
  O  O19  1  0.873311  0.160385  0.250000  1
  O  O20  1  0.412838  0.407698  0.250000  1
  O  O21  1  0.598339  0.597183  0.750000  1
