# generated using pymatgen
data_Ho6Ni13B4Rh
_symmetry_space_group_name_H-M   'P 1'
_cell_length_a   5.05376280
_cell_length_b   5.03483798
_cell_length_c   14.53443388
_cell_angle_alpha   89.96626495
_cell_angle_beta   90.03533450
_cell_angle_gamma   119.92036177
_symmetry_Int_Tables_number   1
_chemical_formula_structural   Ho6Ni13B4Rh
_chemical_formula_sum   'Ho6 Ni13 B4 Rh1'
_cell_volume   320.53610662
_cell_formula_units_Z   1
loop_
 _symmetry_equiv_pos_site_id
 _symmetry_equiv_pos_as_xyz
  1  'x, y, z'
loop_
 _atom_site_type_symbol
 _atom_site_label
 _atom_site_symmetry_multiplicity
 _atom_site_fract_x
 _atom_site_fract_y
 _atom_site_fract_z
 _atom_site_occupancy
  Ho  Ho0  1  0.666783  0.333488  0.032402  1
  Ho  Ho1  1  0.333217  0.666512  0.967598  1
  Ho  Ho2  1  0.333345  0.666614  0.532438  1
  Ho  Ho3  1  0.666655  0.333386  0.467562  1
  Ho  Ho4  1  0.666646  0.333402  0.248761  1
  Ho  Ho5  1  0.333354  0.666598  0.751239  1
  Ni  Ni6  1  0.833727  0.668595  0.653275  1
  Ni  Ni7  1  0.834313  0.166582  0.653561  1
  Ni  Ni8  1  0.331499  0.165881  0.653263  1
  Ni  Ni9  1  0.166273  0.331405  0.346725  1
  Ni  Ni10  1  0.165687  0.833418  0.346439  1
  Ni  Ni11  1  0.668501  0.834119  0.346737  1
  Ni  Ni12  1  0.165968  0.331083  0.147233  1
  Ni  Ni13  1  0.165257  0.833451  0.147206  1
  Ni  Ni14  1  0.667909  0.834707  0.147335  1
  Ni  Ni15  1  0.834032  0.668917  0.852767  1
  Ni  Ni16  1  0.834743  0.166549  0.852794  1
  Ni  Ni17  1  0.332091  0.165293  0.852665  1
  Ni  Ni18  1  0.000000  0.000000  0.000000  1
  B  B19  1  0.666781  0.333646  0.752934  1
  B  B20  1  0.333219  0.666354  0.247066  1
  B  B21  1  0.000088  0.000098  0.752494  1
  B  B22  1  0.999912  0.999902  0.247506  1
  Rh  Rh23  1  0.000000  0.000000  0.500000  1
