# generated using pymatgen
data_SrAc2(CdPt)3
_symmetry_space_group_name_H-M   'P 1'
_cell_length_a   7.86645900
_cell_length_b   7.82521998
_cell_length_c   4.30290800
_cell_angle_alpha   90.00000000
_cell_angle_beta   90.00000000
_cell_angle_gamma   119.82673784
_symmetry_Int_Tables_number   1
_chemical_formula_structural   SrAc2(CdPt)3
_chemical_formula_sum   'Sr1 Ac2 Cd3 Pt3'
_cell_volume   229.78629501
_cell_formula_units_Z   1
loop_
 _symmetry_equiv_pos_site_id
 _symmetry_equiv_pos_as_xyz
  1  'x, y, z'
loop_
 _atom_site_type_symbol
 _atom_site_label
 _atom_site_symmetry_multiplicity
 _atom_site_fract_x
 _atom_site_fract_y
 _atom_site_fract_z
 _atom_site_occupancy
  Sr  Sr0  1  0.000000  0.593911  0.000000  1
  Ac  Ac1  1  0.409892  0.409098  0.000000  1
  Ac  Ac2  1  0.590108  0.999206  0.000000  1
  Cd  Cd3  1  0.000000  0.251945  0.500000  1
  Cd  Cd4  1  0.764786  0.757297  0.500000  1
  Cd  Cd5  1  0.235214  0.992510  0.500000  1
  Pt  Pt6  1  0.348227  0.668738  0.500000  1
  Pt  Pt7  1  0.000000  0.006786  0.000000  1
  Pt  Pt8  1  0.651773  0.320509  0.500000  1
