# generated using pymatgen
data_Lu10In8PdAu3
_symmetry_space_group_name_H-M   'P 1'
_cell_length_a   3.58125600
_cell_length_b   8.12074701
_cell_length_c   18.12974002
_cell_angle_alpha   89.99468395
_cell_angle_beta   90.00000000
_cell_angle_gamma   90.00000000
_symmetry_Int_Tables_number   1
_chemical_formula_structural   Lu10In8PdAu3
_chemical_formula_sum   'Lu10 In8 Pd1 Au3'
_cell_volume   527.25768956
_cell_formula_units_Z   1
loop_
 _symmetry_equiv_pos_site_id
 _symmetry_equiv_pos_as_xyz
  1  'x, y, z'
loop_
 _atom_site_type_symbol
 _atom_site_label
 _atom_site_symmetry_multiplicity
 _atom_site_fract_x
 _atom_site_fract_y
 _atom_site_fract_z
 _atom_site_occupancy
  Lu  Lu0  1  0.000000  0.499999  0.498954  1
  Lu  Lu1  1  0.000000  0.000543  0.000788  1
  Lu  Lu2  1  0.000000  0.748360  0.282178  1
  Lu  Lu3  1  0.000000  0.261840  0.718132  1
  Lu  Lu4  1  0.000000  0.763015  0.781614  1
  Lu  Lu5  1  0.000000  0.232693  0.220697  1
  Lu  Lu6  1  0.000000  0.620429  0.081018  1
  Lu  Lu7  1  0.000000  0.380335  0.920656  1
  Lu  Lu8  1  0.000000  0.878933  0.578920  1
  Lu  Lu9  1  0.000000  0.116007  0.416748  1
  In  In10  1  0.500000  0.711432  0.934847  1
  In  In11  1  0.500000  0.289242  0.067188  1
  In  In12  1  0.500000  0.790730  0.432095  1
  In  In13  1  0.500000  0.208986  0.564257  1
  In  In14  1  0.500000  0.579952  0.645605  1
  In  In15  1  0.500000  0.416762  0.352511  1
  In  In16  1  0.500000  0.922401  0.148155  1
  In  In17  1  0.500000  0.079317  0.854078  1
  Pd  Pd18  1  0.500000  0.026698  0.304249  1
  Au  Au19  1  0.500000  0.526968  0.197636  1
  Au  Au20  1  0.500000  0.473046  0.803731  1
  Au  Au21  1  0.500000  0.972312  0.695943  1
