# generated using pymatgen
data_Nd4Ho3Au10
_symmetry_space_group_name_H-M   'P 1'
_cell_length_a   8.84353402
_cell_length_b   8.84353603
_cell_length_c   10.56601900
_cell_angle_alpha   90.00000000
_cell_angle_beta   90.00000000
_cell_angle_gamma   106.79033363
_symmetry_Int_Tables_number   1
_chemical_formula_structural   Nd4Ho3Au10
_chemical_formula_sum   'Nd8 Ho6 Au20'
_cell_volume   791.11971393
_cell_formula_units_Z   2
loop_
 _symmetry_equiv_pos_site_id
 _symmetry_equiv_pos_as_xyz
  1  'x, y, z'
loop_
 _atom_site_type_symbol
 _atom_site_label
 _atom_site_symmetry_multiplicity
 _atom_site_fract_x
 _atom_site_fract_y
 _atom_site_fract_z
 _atom_site_occupancy
  Nd  Nd0  1  0.697436  0.302564  0.000000  1
  Nd  Nd1  1  0.197436  0.802564  0.500000  1
  Nd  Nd2  1  0.808365  0.808365  0.303439  1
  Nd  Nd3  1  0.308365  0.308365  0.196561  1
  Nd  Nd4  1  0.802564  0.197436  0.500000  1
  Nd  Nd5  1  0.302564  0.697436  0.000000  1
  Nd  Nd6  1  0.691635  0.691635  0.803439  1
  Nd  Nd7  1  0.191635  0.191635  0.696561  1
  Ho  Ho8  1  0.505886  0.005886  0.250000  1
  Ho  Ho9  1  0.994114  0.494114  0.750000  1
  Ho  Ho10  1  0.000000  0.000000  0.000000  1
  Ho  Ho11  1  0.005886  0.505886  0.250000  1
  Ho  Ho12  1  0.494114  0.994114  0.750000  1
  Ho  Ho13  1  0.500000  0.500000  0.500000  1
  Au  Au14  1  0.146744  0.435871  0.493658  1
  Au  Au15  1  0.898568  0.898568  0.598526  1
  Au  Au16  1  0.564129  0.853256  0.506342  1
  Au  Au17  1  0.868051  0.155538  0.208775  1
  Au  Au18  1  0.368051  0.655538  0.291225  1
  Au  Au19  1  0.655538  0.368051  0.291225  1
  Au  Au20  1  0.398568  0.398568  0.901474  1
  Au  Au21  1  0.935871  0.646744  0.006342  1
  Au  Au22  1  0.344462  0.631949  0.708775  1
  Au  Au23  1  0.353256  0.064129  0.993658  1
  Au  Au24  1  0.601432  0.601432  0.098526  1
  Au  Au25  1  0.646744  0.935871  0.006342  1
  Au  Au26  1  0.101432  0.101432  0.401474  1
  Au  Au27  1  0.631949  0.344462  0.708775  1
  Au  Au28  1  0.131949  0.844462  0.791225  1
  Au  Au29  1  0.064129  0.353256  0.993658  1
  Au  Au30  1  0.853256  0.564129  0.506342  1
  Au  Au31  1  0.155538  0.868051  0.208775  1
  Au  Au32  1  0.435871  0.146744  0.493658  1
  Au  Au33  1  0.844462  0.131949  0.791225  1
