# generated using pymatgen
data_Nd10CoOsBr15
_symmetry_space_group_name_H-M   'P 1'
_cell_length_a   9.52197519
_cell_length_b   10.51411207
_cell_length_c   11.28513809
_cell_angle_alpha   91.96037018
_cell_angle_beta   114.22828431
_cell_angle_gamma   110.76722357
_symmetry_Int_Tables_number   1
_chemical_formula_structural   Nd10CoOsBr15
_chemical_formula_sum   'Nd10 Co1 Os1 Br15'
_cell_volume   941.71589903
_cell_formula_units_Z   1
loop_
 _symmetry_equiv_pos_site_id
 _symmetry_equiv_pos_as_xyz
  1  'x, y, z'
loop_
 _atom_site_type_symbol
 _atom_site_label
 _atom_site_symmetry_multiplicity
 _atom_site_fract_x
 _atom_site_fract_y
 _atom_site_fract_z
 _atom_site_occupancy
  Nd  Nd0  1  0.231957  0.582895  0.052172  1
  Nd  Nd1  1  0.766133  0.422110  0.950833  1
  Nd  Nd2  1  0.306284  0.905375  0.272564  1
  Nd  Nd3  1  0.692872  0.090394  0.724415  1
  Nd  Nd4  1  0.094636  0.545933  0.336936  1
  Nd  Nd5  1  0.901355  0.455863  0.654678  1
  Nd  Nd6  1  0.831036  0.749891  0.176780  1
  Nd  Nd7  1  0.172558  0.249343  0.821060  1
  Nd  Nd8  1  0.972461  0.795089  0.896730  1
  Nd  Nd9  1  0.028232  0.200289  0.108888  1
  Co  Co10  1  0.034559  0.676018  0.120391  1
  Os  Os11  1  0.965875  0.328247  0.882038  1
  Br  Br12  1  0.333146  0.441590  0.299556  1
  Br  Br13  1  0.665743  0.558718  0.701139  1
  Br  Br14  1  0.201022  0.733168  0.812573  1
  Br  Br15  1  0.798142  0.267481  0.187125  1
  Br  Br16  1  0.138103  0.387649  0.587008  1
  Br  Br17  1  0.862293  0.615295  0.410851  1
  Br  Br18  1  0.386254  0.801386  0.522816  1
  Br  Br19  1  0.609537  0.196082  0.473996  1
  Br  Br20  1  0.254892  0.084445  0.052649  1
  Br  Br21  1  0.745141  0.913184  0.947995  1
  Br  Br22  1  0.567553  0.844398  0.227211  1
  Br  Br23  1  0.437287  0.156512  0.774764  1
  Br  Br24  1  0.095865  0.028891  0.334846  1
  Br  Br25  1  0.908242  0.968010  0.667971  1
  Br  Br26  1  0.498823  0.501744  0.002013  1
