# generated using pymatgen
data_Ti7Nb3(ZnSn3)2
_symmetry_space_group_name_H-M   'P 1'
_cell_length_a   8.27198800
_cell_length_b   8.27198908
_cell_length_c   5.59517800
_cell_angle_alpha   90.00000000
_cell_angle_beta   90.00000000
_cell_angle_gamma   119.99999566
_symmetry_Int_Tables_number   1
_chemical_formula_structural   Ti7Nb3(ZnSn3)2
_chemical_formula_sum   'Ti7 Nb3 Zn2 Sn6'
_cell_volume   331.56173718
_cell_formula_units_Z   1
loop_
 _symmetry_equiv_pos_site_id
 _symmetry_equiv_pos_as_xyz
  1  'x, y, z'
loop_
 _atom_site_type_symbol
 _atom_site_label
 _atom_site_symmetry_multiplicity
 _atom_site_fract_x
 _atom_site_fract_y
 _atom_site_fract_z
 _atom_site_occupancy
  Ti  Ti0  1  0.273877  0.001291  0.748088  1
  Ti  Ti1  1  0.727414  0.001291  0.251912  1
  Ti  Ti2  1  0.998709  0.272586  0.748088  1
  Ti  Ti3  1  0.998709  0.726123  0.251912  1
  Ti  Ti4  1  0.727414  0.726123  0.748088  1
  Ti  Ti5  1  0.273877  0.272586  0.251912  1
  Ti  Ti6  1  0.333333  0.666667  0.000000  1
  Nb  Nb7  1  0.333333  0.666667  0.500000  1
  Nb  Nb8  1  0.666667  0.333333  0.500000  1
  Nb  Nb9  1  0.666667  0.333333  0.000000  1
  Zn  Zn10  1  0.000000  0.000000  0.500000  1
  Zn  Zn11  1  0.000000  0.000000  0.000000  1
  Sn  Sn12  1  0.617698  0.997801  0.751965  1
  Sn  Sn13  1  0.380103  0.997801  0.248035  1
  Sn  Sn14  1  0.002199  0.619897  0.751965  1
  Sn  Sn15  1  0.002199  0.382302  0.248035  1
  Sn  Sn16  1  0.380103  0.382302  0.751965  1
  Sn  Sn17  1  0.617698  0.619897  0.248035  1
