# generated using pymatgen
data_Bi3Ir2Rh2PbO14
_symmetry_space_group_name_H-M   'P 1'
_cell_length_a   7.35787609
_cell_length_b   7.36245660
_cell_length_c   7.35787652
_cell_angle_alpha   59.96045878
_cell_angle_beta   59.94440487
_cell_angle_gamma   59.96046537
_symmetry_Int_Tables_number   1
_chemical_formula_structural   Bi3Ir2Rh2PbO14
_chemical_formula_sum   'Bi3 Ir2 Rh2 Pb1 O14'
_cell_volume   281.55959241
_cell_formula_units_Z   1
loop_
 _symmetry_equiv_pos_site_id
 _symmetry_equiv_pos_as_xyz
  1  'x, y, z'
loop_
 _atom_site_type_symbol
 _atom_site_label
 _atom_site_symmetry_multiplicity
 _atom_site_fract_x
 _atom_site_fract_y
 _atom_site_fract_z
 _atom_site_occupancy
  Bi  Bi0  1  0.625000  0.125000  0.125000  1
  Bi  Bi1  1  0.125000  0.125000  0.625000  1
  Bi  Bi2  1  0.125000  0.125000  0.125000  1
  Ir  Ir3  1  0.125000  0.625000  0.625000  1
  Ir  Ir4  1  0.625000  0.625000  0.125000  1
  Rh  Rh5  1  0.625000  0.125000  0.625000  1
  Rh  Rh6  1  0.625000  0.625000  0.625000  1
  Pb  Pb7  1  0.125000  0.625000  0.125000  1
  O  O8  1  0.705719  0.704861  0.291424  1
  O  O9  1  0.290789  0.296741  0.707793  1
  O  O10  1  0.708340  0.291478  0.708340  1
  O  O11  1  0.296224  0.704861  0.296224  1
  O  O12  1  0.291424  0.704861  0.705719  1
  O  O13  1  0.707793  0.296741  0.290789  1
  O  O14  1  0.544281  0.545139  0.958576  1
  O  O15  1  0.959211  0.953259  0.542207  1
  O  O16  1  0.541660  0.958522  0.541660  1
  O  O17  1  0.953776  0.545139  0.953776  1
  O  O18  1  0.958576  0.545139  0.544281  1
  O  O19  1  0.542207  0.953259  0.959211  1
  O  O20  1  0.250280  0.247984  0.250280  1
  O  O21  1  0.999720  0.002016  0.999720  1
