# generated using pymatgen
data_Pr2Nd4RhI10
_symmetry_space_group_name_H-M   'P 1'
_cell_length_a   8.00546799
_cell_length_b   10.06603109
_cell_length_c   10.01840383
_cell_angle_alpha   107.24123114
_cell_angle_beta   96.90467737
_cell_angle_gamma   105.26170651
_symmetry_Int_Tables_number   1
_chemical_formula_structural   Pr2Nd4RhI10
_chemical_formula_sum   'Pr2 Nd4 Rh1 I10'
_cell_volume   726.42714609
_cell_formula_units_Z   1
loop_
 _symmetry_equiv_pos_site_id
 _symmetry_equiv_pos_as_xyz
  1  'x, y, z'
loop_
 _atom_site_type_symbol
 _atom_site_label
 _atom_site_symmetry_multiplicity
 _atom_site_fract_x
 _atom_site_fract_y
 _atom_site_fract_z
 _atom_site_occupancy
  Pr  Pr0  1  0.615573  0.542280  0.261943  1
  Pr  Pr1  1  0.384427  0.457720  0.738057  1
  Nd  Nd2  1  0.530389  0.208450  0.412048  1
  Nd  Nd3  1  0.469611  0.791550  0.587952  1
  Nd  Nd4  1  0.145484  0.370285  0.328979  1
  Nd  Nd5  1  0.854516  0.629715  0.671021  1
  Rh  Rh6  1  0.500000  0.500000  0.500000  1
  I  I7  1  0.145875  0.046044  0.226827  1
  I  I8  1  0.854125  0.953956  0.773173  1
  I  I9  1  0.238341  0.411872  0.038817  1
  I  I10  1  0.761659  0.588128  0.961183  1
  I  I11  1  0.714209  0.240077  0.151189  1
  I  I12  1  0.285791  0.759923  0.848811  1
  I  I13  1  0.047471  0.681711  0.409448  1
  I  I14  1  0.952529  0.318289  0.590552  1
  I  I15  1  0.413470  0.127846  0.679516  1
  I  I16  1  0.586530  0.872154  0.320484  1
