# generated using pymatgen
data_NaNpFeH6
_symmetry_space_group_name_H-M   'P 1'
_cell_length_a   4.87010779
_cell_length_b   4.87010836
_cell_length_c   4.87010800
_cell_angle_alpha   60.00000244
_cell_angle_beta   59.99999855
_cell_angle_gamma   60.00000293
_symmetry_Int_Tables_number   1
_chemical_formula_structural   NaNpFeH6
_chemical_formula_sum   'Na1 Np1 Fe1 H6'
_cell_volume   81.67719316
_cell_formula_units_Z   1
loop_
 _symmetry_equiv_pos_site_id
 _symmetry_equiv_pos_as_xyz
  1  'x, y, z'
loop_
 _atom_site_type_symbol
 _atom_site_label
 _atom_site_symmetry_multiplicity
 _atom_site_fract_x
 _atom_site_fract_y
 _atom_site_fract_z
 _atom_site_occupancy
  Na  Na0  1  0.750000  0.750000  0.750000  1
  Np  Np1  1  0.250000  0.250000  0.250000  1
  Fe  Fe2  1  0.000000  0.000000  0.000000  1
  H  H3  1  0.766812  0.766812  0.233188  1
  H  H4  1  0.233188  0.766812  0.233188  1
  H  H5  1  0.766812  0.233188  0.233188  1
  H  H6  1  0.233188  0.233188  0.766812  1
  H  H7  1  0.766812  0.233188  0.766812  1
  H  H8  1  0.233188  0.766812  0.766812  1
