# generated using pymatgen
data_Ho5MoOsC7
_symmetry_space_group_name_H-M   'P 1'
_cell_length_a   8.22368900
_cell_length_b   8.22368954
_cell_length_c   3.44810500
_cell_angle_alpha   90.00000000
_cell_angle_beta   90.00000000
_cell_angle_gamma   121.97943465
_symmetry_Int_Tables_number   1
_chemical_formula_structural   Ho5MoOsC7
_chemical_formula_sum   'Ho5 Mo1 Os1 C7'
_cell_volume   197.80247332
_cell_formula_units_Z   1
loop_
 _symmetry_equiv_pos_site_id
 _symmetry_equiv_pos_as_xyz
  1  'x, y, z'
loop_
 _atom_site_type_symbol
 _atom_site_label
 _atom_site_symmetry_multiplicity
 _atom_site_fract_x
 _atom_site_fract_y
 _atom_site_fract_z
 _atom_site_occupancy
  Ho  Ho0  1  0.501640  0.498360  0.000000  1
  Ho  Ho1  1  0.074191  0.334726  0.500000  1
  Ho  Ho2  1  0.922105  0.663641  0.500000  1
  Ho  Ho3  1  0.665274  0.925809  0.500000  1
  Ho  Ho4  1  0.336359  0.077895  0.500000  1
  Mo  Mo5  1  0.286428  0.713572  0.000000  1
  Os  Os6  1  0.711292  0.288708  0.000000  1
  C  C7  1  0.631005  0.368995  0.500000  1
  C  C8  1  0.376926  0.623074  0.500000  1
  C  C9  1  0.999398  0.000602  0.000000  1
  C  C10  1  0.169467  0.170889  0.000000  1
  C  C11  1  0.829111  0.830533  0.000000  1
  C  C12  1  0.997612  0.500809  0.000000  1
  C  C13  1  0.499191  0.002388  0.000000  1
