# generated using pymatgen
data_Li4Er8Sc8Si15Sn
_symmetry_space_group_name_H-M   'P 1'
_cell_length_a   6.87777237
_cell_length_b   7.41320472
_cell_length_c   14.08413998
_cell_angle_alpha   90.10092559
_cell_angle_beta   89.72885849
_cell_angle_gamma   90.04274766
_symmetry_Int_Tables_number   1
_chemical_formula_structural   Li4Er8Sc8Si15Sn
_chemical_formula_sum   'Li4 Er8 Sc8 Si15 Sn1'
_cell_volume   718.08932426
_cell_formula_units_Z   1
loop_
 _symmetry_equiv_pos_site_id
 _symmetry_equiv_pos_as_xyz
  1  'x, y, z'
loop_
 _atom_site_type_symbol
 _atom_site_label
 _atom_site_symmetry_multiplicity
 _atom_site_fract_x
 _atom_site_fract_y
 _atom_site_fract_z
 _atom_site_occupancy
  Li  Li0  1  0.160388  0.507677  0.753367  1
  Li  Li1  1  0.838811  0.491734  0.248492  1
  Li  Li2  1  0.338541  0.008952  0.247315  1
  Li  Li3  1  0.663746  0.989175  0.756339  1
  Er  Er4  1  0.012170  0.183887  0.097614  1
  Er  Er5  1  0.987528  0.816424  0.903104  1
  Er  Er6  1  0.487018  0.682536  0.902549  1
  Er  Er7  1  0.986284  0.825246  0.599712  1
  Er  Er8  1  0.511333  0.317002  0.097730  1
  Er  Er9  1  0.009130  0.178650  0.397400  1
  Er  Er10  1  0.514387  0.315073  0.397139  1
  Er  Er11  1  0.500659  0.694177  0.602251  1
  Sc  Sc12  1  0.342654  0.164405  0.632672  1
  Sc  Sc13  1  0.666000  0.820755  0.370706  1
  Sc  Sc14  1  0.165421  0.684726  0.368903  1
  Sc  Sc15  1  0.668206  0.819925  0.125619  1
  Sc  Sc16  1  0.821495  0.317960  0.628115  1
  Sc  Sc17  1  0.330104  0.179348  0.874295  1
  Sc  Sc18  1  0.830044  0.320878  0.873776  1
  Sc  Sc19  1  0.169141  0.678838  0.125753  1
  Si  Si20  1  0.031871  0.102389  0.751449  1
  Si  Si21  1  0.967421  0.899958  0.247105  1
  Si  Si22  1  0.467718  0.601133  0.248081  1
  Si  Si23  1  0.528836  0.402101  0.752180  1
  Si  Si24  1  0.280325  0.875815  0.752806  1
  Si  Si25  1  0.716142  0.120340  0.247168  1
  Si  Si26  1  0.215990  0.379810  0.248805  1
  Si  Si27  1  0.785919  0.620050  0.751688  1
  Si  Si28  1  0.829154  0.539864  0.463511  1
  Si  Si29  1  0.339319  0.962967  0.464795  1
  Si  Si30  1  0.839990  0.535560  0.035313  1
  Si  Si31  1  0.661420  0.039142  0.530859  1
  Si  Si32  1  0.158870  0.463519  0.964797  1
  Si  Si33  1  0.659302  0.036016  0.964512  1
  Si  Si34  1  0.339760  0.963960  0.035236  1
  Sn  Sn35  1  0.174900  0.460008  0.538845  1
