# generated using pymatgen
data_Tb2ZrTa3(B2Ru5)2
_symmetry_space_group_name_H-M   'P 1'
_cell_length_a   9.58087485
_cell_length_b   9.58087486
_cell_length_c   3.11003600
_cell_angle_alpha   90.00000000
_cell_angle_beta   90.00000000
_cell_angle_gamma   90.57336036
_symmetry_Int_Tables_number   1
_chemical_formula_structural   Tb2ZrTa3(B2Ru5)2
_chemical_formula_sum   'Tb2 Zr1 Ta3 B4 Ru10'
_cell_volume   285.46574748
_cell_formula_units_Z   1
loop_
 _symmetry_equiv_pos_site_id
 _symmetry_equiv_pos_as_xyz
  1  'x, y, z'
loop_
 _atom_site_type_symbol
 _atom_site_label
 _atom_site_symmetry_multiplicity
 _atom_site_fract_x
 _atom_site_fract_y
 _atom_site_fract_z
 _atom_site_occupancy
  Tb  Tb0  1  0.823632  0.675610  0.000000  1
  Tb  Tb1  1  0.175610  0.323632  0.000000  1
  Zr  Zr2  1  0.325146  0.825146  0.000000  1
  Ta  Ta3  1  0.675596  0.175596  0.000000  1
  Ta  Ta4  1  0.498561  0.502123  0.000000  1
  Ta  Ta5  1  0.002123  0.998561  0.000000  1
  B  B6  1  0.622141  0.881488  0.000000  1
  B  B7  1  0.381488  0.122141  0.000000  1
  B  B8  1  0.119988  0.619988  0.000000  1
  B  B9  1  0.876270  0.376270  0.000000  1
  Ru  Ru10  1  0.563715  0.723496  0.500000  1
  Ru  Ru11  1  0.441140  0.279128  0.500000  1
  Ru  Ru12  1  0.076188  0.783115  0.500000  1
  Ru  Ru13  1  0.916162  0.213177  0.500000  1
  Ru  Ru14  1  0.283115  0.576188  0.500000  1
  Ru  Ru15  1  0.713177  0.416162  0.500000  1
  Ru  Ru16  1  0.223496  0.063715  0.500000  1
  Ru  Ru17  1  0.779128  0.941140  0.500000  1
  Ru  Ru18  1  0.505785  0.005785  0.500000  1
  Ru  Ru19  1  0.997542  0.497542  0.500000  1
