# generated using pymatgen
data_Eu4Si10Pt5Au
_symmetry_space_group_name_H-M   'P 1'
_cell_length_a   8.36392322
_cell_length_b   8.36392233
_cell_length_c   8.36392282
_cell_angle_alpha   137.36153656
_cell_angle_beta   105.10595319
_cell_angle_gamma   90.21500934
_symmetry_Int_Tables_number   1
_chemical_formula_structural   Eu4Si10Pt5Au
_chemical_formula_sum   'Eu4 Si10 Pt5 Au1'
_cell_volume   365.14280317
_cell_formula_units_Z   1
loop_
 _symmetry_equiv_pos_site_id
 _symmetry_equiv_pos_as_xyz
  1  'x, y, z'
loop_
 _atom_site_type_symbol
 _atom_site_label
 _atom_site_symmetry_multiplicity
 _atom_site_fract_x
 _atom_site_fract_y
 _atom_site_fract_z
 _atom_site_occupancy
  Eu  Eu0  1  0.106178  0.870473  0.232812  1
  Eu  Eu1  1  0.893822  0.126634  0.764294  1
  Eu  Eu2  1  0.637660  0.373366  0.267188  1
  Eu  Eu3  1  0.362340  0.629527  0.735706  1
  Si  Si4  1  0.000000  0.750000  0.750000  1
  Si  Si5  1  0.000000  0.250000  0.250000  1
  Si  Si6  1  0.270025  0.020025  0.750000  1
  Si  Si7  1  0.729975  0.479975  0.750000  1
  Si  Si8  1  0.734805  0.984805  0.250000  1
  Si  Si9  1  0.265195  0.515195  0.250000  1
  Si  Si10  1  0.767435  0.609184  0.144701  1
  Si  Si11  1  0.232565  0.377266  0.841750  1
  Si  Si12  1  0.464484  0.122734  0.355299  1
  Si  Si13  1  0.535516  0.890816  0.658250  1
  Pt  Pt14  1  0.500000  0.250000  0.750000  1
  Pt  Pt15  1  0.023504  0.635957  0.389754  1
  Pt  Pt16  1  0.976496  0.366250  0.612453  1
  Pt  Pt17  1  0.246203  0.133750  0.110246  1
  Pt  Pt18  1  0.753797  0.864043  0.887547  1
  Au  Au19  1  0.500000  0.750000  0.250000  1
