# generated using pymatgen
data_La12Nd2Ni5Ir
_symmetry_space_group_name_H-M   'P 1'
_cell_length_a   10.06540163
_cell_length_b   10.02387836
_cell_length_c   6.50274040
_cell_angle_alpha   90.00322264
_cell_angle_beta   90.51040768
_cell_angle_gamma   119.47615144
_symmetry_Int_Tables_number   1
_chemical_formula_structural   La12Nd2Ni5Ir
_chemical_formula_sum   'La12 Nd2 Ni5 Ir1'
_cell_volume   571.13586494
_cell_formula_units_Z   1
loop_
 _symmetry_equiv_pos_site_id
 _symmetry_equiv_pos_as_xyz
  1  'x, y, z'
loop_
 _atom_site_type_symbol
 _atom_site_label
 _atom_site_symmetry_multiplicity
 _atom_site_fract_x
 _atom_site_fract_y
 _atom_site_fract_z
 _atom_site_occupancy
  La  La0  1  0.873405  0.128107  0.495045  1
  La  La1  1  0.744962  0.871454  0.996699  1
  La  La2  1  0.870142  0.748297  0.496600  1
  La  La3  1  0.077663  0.540226  0.320009  1
  La  La4  1  0.126313  0.873162  0.998712  1
  La  La5  1  0.541740  0.073822  0.814833  1
  La  La6  1  0.926150  0.462856  0.817323  1
  La  La7  1  0.669078  0.333481  0.281580  1
  La  La8  1  0.460726  0.921223  0.313914  1
  La  La9  1  0.252504  0.127522  0.500559  1
  La  La10  1  0.539848  0.465087  0.815473  1
  La  La11  1  0.125577  0.252388  0.000235  1
  Nd  Nd12  1  0.460579  0.537711  0.311669  1
  Nd  Nd13  1  0.331270  0.665107  0.780635  1
  Ni  Ni14  1  0.187262  0.811975  0.549131  1
  Ni  Ni15  1  0.811013  0.624292  0.051948  1
  Ni  Ni16  1  0.189036  0.375668  0.547086  1
  Ni  Ni17  1  0.813642  0.188512  0.050251  1
  Ni  Ni18  1  0.623569  0.810002  0.548390  1
  Ir  Ir19  1  0.375520  0.189107  0.051910  1
