# generated using pymatgen
data_Ti13Al9(FePd)4
_symmetry_space_group_name_H-M   'P 1'
_cell_length_a   8.68151430
_cell_length_b   8.68151450
_cell_length_c   8.61831100
_cell_angle_alpha   59.84035618
_cell_angle_beta   59.84035541
_cell_angle_gamma   59.35972602
_symmetry_Int_Tables_number   1
_chemical_formula_structural   Ti13Al9(FePd)4
_chemical_formula_sum   'Ti13 Al9 Fe4 Pd4'
_cell_volume   455.94282375
_cell_formula_units_Z   1
loop_
 _symmetry_equiv_pos_site_id
 _symmetry_equiv_pos_as_xyz
  1  'x, y, z'
loop_
 _atom_site_type_symbol
 _atom_site_label
 _atom_site_symmetry_multiplicity
 _atom_site_fract_x
 _atom_site_fract_y
 _atom_site_fract_z
 _atom_site_occupancy
  Ti  Ti0  1  0.202958  0.202958  0.795245  1
  Ti  Ti1  1  0.791513  0.207526  0.204670  1
  Ti  Ti2  1  0.207526  0.791513  0.204670  1
  Ti  Ti3  1  0.803768  0.803768  0.183912  1
  Ti  Ti4  1  0.181962  0.806986  0.806369  1
  Ti  Ti5  1  0.806986  0.181962  0.806369  1
  Ti  Ti6  1  0.376600  0.376600  0.392346  1
  Ti  Ti7  1  0.388072  0.853065  0.390261  1
  Ti  Ti8  1  0.853065  0.388072  0.390261  1
  Ti  Ti9  1  0.385700  0.385700  0.849867  1
  Ti  Ti10  1  0.852024  0.477224  0.823806  1
  Ti  Ti11  1  0.477224  0.852024  0.823806  1
  Ti  Ti12  1  0.837664  0.837664  0.469417  1
  Al  Al13  1  0.156241  0.156241  0.157419  1
  Al  Al14  1  0.156014  0.516918  0.174965  1
  Al  Al15  1  0.516918  0.156014  0.174965  1
  Al  Al16  1  0.167033  0.167033  0.516443  1
  Al  Al17  1  0.620597  0.620597  0.614151  1
  Al  Al18  1  0.617708  0.149467  0.609813  1
  Al  Al19  1  0.149467  0.617708  0.609813  1
  Al  Al20  1  0.615724  0.615724  0.148783  1
  Al  Al21  1  0.827611  0.827611  0.824460  1
  Fe  Fe22  1  0.997794  0.500397  0.505202  1
  Fe  Fe23  1  0.500397  0.997794  0.505202  1
  Fe  Fe24  1  0.501160  0.501160  0.502258  1
  Fe  Fe25  1  0.002492  0.002492  0.007976  1
  Pd  Pd26  1  0.004308  0.004308  0.499635  1
  Pd  Pd27  1  0.500387  0.004505  0.002191  1
  Pd  Pd28  1  0.004505  0.500387  0.002191  1
  Pd  Pd29  1  0.496578  0.496578  0.003529  1
