# generated using pymatgen
data_Sm2Er4SbRuO14
_symmetry_space_group_name_H-M   'P 1'
_cell_length_a   6.44590084
_cell_length_b   6.44590017
_cell_length_c   7.51208487
_cell_angle_alpha   90.24434033
_cell_angle_beta   89.75565968
_cell_angle_gamma   109.26775083
_symmetry_Int_Tables_number   1
_chemical_formula_structural   Sm2Er4SbRuO14
_chemical_formula_sum   'Sm2 Er4 Sb1 Ru1 O14'
_cell_volume   294.63726848
_cell_formula_units_Z   1
loop_
 _symmetry_equiv_pos_site_id
 _symmetry_equiv_pos_as_xyz
  1  'x, y, z'
loop_
 _atom_site_type_symbol
 _atom_site_label
 _atom_site_symmetry_multiplicity
 _atom_site_fract_x
 _atom_site_fract_y
 _atom_site_fract_z
 _atom_site_occupancy
  Sm  Sm0  1  0.500000  0.500000  0.500000  1
  Sm  Sm1  1  0.500000  0.500000  0.000000  1
  Er  Er2  1  0.533497  0.000350  0.748739  1
  Er  Er3  1  0.000350  0.533497  0.251261  1
  Er  Er4  1  0.466503  0.999650  0.251261  1
  Er  Er5  1  0.999650  0.466503  0.748739  1
  Sb  Sb6  1  0.000000  0.000000  0.000000  1
  Ru  Ru7  1  0.000000  0.000000  0.500000  1
  O  O8  1  0.680117  0.929453  0.469019  1
  O  O9  1  0.929453  0.680117  0.530981  1
  O  O10  1  0.675959  0.929320  0.029439  1
  O  O11  1  0.929320  0.675959  0.970561  1
  O  O12  1  0.319883  0.070547  0.530981  1
  O  O13  1  0.070547  0.319883  0.469019  1
  O  O14  1  0.324041  0.070680  0.970561  1
  O  O15  1  0.070680  0.324041  0.029439  1
  O  O16  1  0.928849  0.071151  0.748474  1
  O  O17  1  0.071151  0.928849  0.251526  1
  O  O18  1  0.363834  0.636166  0.749986  1
  O  O19  1  0.636166  0.363834  0.250014  1
  O  O20  1  0.641409  0.358591  0.748260  1
  O  O21  1  0.358591  0.641409  0.251740  1
