# generated using pymatgen
data_Tb12Ga8Si11Ge
_symmetry_space_group_name_H-M   'P 1'
_cell_length_a   5.97416817
_cell_length_b   9.44661800
_cell_length_c   11.57340728
_cell_angle_alpha   90.00000000
_cell_angle_beta   89.92810694
_cell_angle_gamma   90.00000000
_symmetry_Int_Tables_number   1
_chemical_formula_structural   Tb12Ga8Si11Ge
_chemical_formula_sum   'Tb12 Ga8 Si11 Ge1'
_cell_volume   653.15264897
_cell_formula_units_Z   1
loop_
 _symmetry_equiv_pos_site_id
 _symmetry_equiv_pos_as_xyz
  1  'x, y, z'
loop_
 _atom_site_type_symbol
 _atom_site_label
 _atom_site_symmetry_multiplicity
 _atom_site_fract_x
 _atom_site_fract_y
 _atom_site_fract_z
 _atom_site_occupancy
  Tb  Tb0  1  0.862629  0.750000  0.078590  1
  Tb  Tb1  1  0.634043  0.750000  0.581000  1
  Tb  Tb2  1  0.134042  0.250000  0.919017  1
  Tb  Tb3  1  0.365881  0.250000  0.418989  1
  Tb  Tb4  1  0.875590  0.497583  0.350369  1
  Tb  Tb5  1  0.623512  0.000576  0.849541  1
  Tb  Tb6  1  0.123332  0.999904  0.650590  1
  Tb  Tb7  1  0.377963  0.498992  0.149876  1
  Tb  Tb8  1  0.123332  0.500096  0.650590  1
  Tb  Tb9  1  0.377963  0.001008  0.149876  1
  Tb  Tb10  1  0.875590  0.002417  0.350369  1
  Tb  Tb11  1  0.623512  0.499424  0.849541  1
  Ga  Ga12  1  0.866437  0.054834  0.088810  1
  Ga  Ga13  1  0.633871  0.445136  0.589111  1
  Ga  Ga14  1  0.133717  0.554693  0.911116  1
  Ga  Ga15  1  0.367498  0.945753  0.412148  1
  Ga  Ga16  1  0.133717  0.945307  0.911116  1
  Ga  Ga17  1  0.367498  0.554247  0.412148  1
  Ga  Ga18  1  0.866437  0.445166  0.088810  1
  Ga  Ga19  1  0.633871  0.054864  0.589111  1
  Si  Si20  1  0.337992  0.750000  0.777525  1
  Si  Si21  1  0.838039  0.250000  0.722526  1
  Si  Si22  1  0.661853  0.250000  0.222374  1
  Si  Si23  1  0.392830  0.750000  0.991967  1
  Si  Si24  1  0.108092  0.750000  0.495041  1
  Si  Si25  1  0.607288  0.250000  0.007695  1
  Si  Si26  1  0.892931  0.250000  0.507992  1
  Si  Si27  1  0.588359  0.750000  0.300438  1
  Si  Si28  1  0.916503  0.750000  0.799453  1
  Si  Si29  1  0.416623  0.250000  0.700593  1
  Si  Si30  1  0.083560  0.250000  0.200624  1
  Ge  Ge31  1  0.155495  0.750000  0.273053  1
