# generated using pymatgen
data_SmThP2
_symmetry_space_group_name_H-M   'P 1'
_cell_length_a   7.10734193
_cell_length_b   7.10734204
_cell_length_c   7.10734183
_cell_angle_alpha   33.85789848
_cell_angle_beta   33.85789792
_cell_angle_gamma   33.85789333
_symmetry_Int_Tables_number   1
_chemical_formula_structural   SmThP2
_chemical_formula_sum   'Sm1 Th1 P2'
_cell_volume   99.31184399
_cell_formula_units_Z   1
loop_
 _symmetry_equiv_pos_site_id
 _symmetry_equiv_pos_as_xyz
  1  'x, y, z'
loop_
 _atom_site_type_symbol
 _atom_site_label
 _atom_site_symmetry_multiplicity
 _atom_site_fract_x
 _atom_site_fract_y
 _atom_site_fract_z
 _atom_site_occupancy
  Sm  Sm0  1  0.500000  0.500000  0.500000  1
  Th  Th1  1  0.000000  0.000000  0.000000  1
  P  P2  1  0.250162  0.250162  0.250162  1
  P  P3  1  0.749838  0.749838  0.749838  1
