# generated using pymatgen
data_Tb2Y6Ti11NbSi16
_symmetry_space_group_name_H-M   'P 1'
_cell_length_a   7.07053734
_cell_length_b   7.07077640
_cell_length_c   13.00830904
_cell_angle_alpha   89.97986528
_cell_angle_beta   90.01995285
_cell_angle_gamma   90.00348918
_symmetry_Int_Tables_number   1
_chemical_formula_structural   Tb2Y6Ti11NbSi16
_chemical_formula_sum   'Tb2 Y6 Ti11 Nb1 Si16'
_cell_volume   650.33977462
_cell_formula_units_Z   1
loop_
 _symmetry_equiv_pos_site_id
 _symmetry_equiv_pos_as_xyz
  1  'x, y, z'
loop_
 _atom_site_type_symbol
 _atom_site_label
 _atom_site_symmetry_multiplicity
 _atom_site_fract_x
 _atom_site_fract_y
 _atom_site_fract_z
 _atom_site_occupancy
  Tb  Tb0  1  0.002791  0.339705  0.533294  1
  Tb  Tb1  1  0.997907  0.659540  0.033324  1
  Y  Y2  1  0.339746  0.002731  0.466714  1
  Y  Y3  1  0.497420  0.839683  0.716741  1
  Y  Y4  1  0.502151  0.159672  0.216398  1
  Y  Y5  1  0.839662  0.497393  0.283260  1
  Y  Y6  1  0.159680  0.502169  0.783596  1
  Y  Y7  1  0.659506  0.997966  0.966671  1
  Ti  Ti8  1  0.173340  0.826978  0.250086  1
  Ti  Ti9  1  0.826983  0.173337  0.749884  1
  Ti  Ti10  1  0.672714  0.672721  0.500002  1
  Ti  Ti11  1  0.153955  0.009549  0.876747  1
  Ti  Ti12  1  0.490889  0.651943  0.125626  1
  Ti  Ti13  1  0.508854  0.347688  0.626350  1
  Ti  Ti14  1  0.651937  0.490860  0.874397  1
  Ti  Ti15  1  0.347701  0.508870  0.373682  1
  Ti  Ti16  1  0.847098  0.991513  0.376393  1
  Ti  Ti17  1  0.009589  0.153997  0.123258  1
  Ti  Ti18  1  0.991468  0.847063  0.623619  1
  Nb  Nb19  1  0.326861  0.326862  0.999993  1
  Si  Si20  1  0.202051  0.129193  0.684967  1
  Si  Si21  1  0.370853  0.702986  0.934829  1
  Si  Si22  1  0.629124  0.297910  0.435101  1
  Si  Si23  1  0.702962  0.370779  0.065151  1
  Si  Si24  1  0.297927  0.629201  0.564882  1
  Si  Si25  1  0.797757  0.870801  0.185216  1
  Si  Si26  1  0.129198  0.202023  0.315043  1
  Si  Si27  1  0.870794  0.797807  0.814794  1
  Si  Si28  1  0.290713  0.952387  0.065089  1
  Si  Si29  1  0.546639  0.790886  0.315020  1
  Si  Si30  1  0.454035  0.208392  0.813587  1
  Si  Si31  1  0.790879  0.546673  0.684990  1
  Si  Si32  1  0.208396  0.453989  0.186420  1
  Si  Si33  1  0.709397  0.046636  0.564790  1
  Si  Si34  1  0.952343  0.290629  0.934889  1
  Si  Si35  1  0.046678  0.709469  0.435197  1
