# generated using pymatgen
data_SmGaSiRh2
_symmetry_space_group_name_H-M   'P 1'
_cell_length_a   5.89621160
_cell_length_b   5.89621192
_cell_length_c   5.89621184
_cell_angle_alpha   138.57861234
_cell_angle_beta   138.57862203
_cell_angle_gamma   60.01796743
_symmetry_Int_Tables_number   1
_chemical_formula_structural   SmGaSiRh2
_chemical_formula_sum   'Sm1 Ga1 Si1 Rh2'
_cell_volume   88.80069315
_cell_formula_units_Z   1
loop_
 _symmetry_equiv_pos_site_id
 _symmetry_equiv_pos_as_xyz
  1  'x, y, z'
loop_
 _atom_site_type_symbol
 _atom_site_label
 _atom_site_symmetry_multiplicity
 _atom_site_fract_x
 _atom_site_fract_y
 _atom_site_fract_z
 _atom_site_occupancy
  Sm  Sm0  1  0.998556  0.998556  0.000000  1
  Ga  Ga1  1  0.619841  0.619841  0.000000  1
  Si  Si2  1  0.367776  0.367776  0.000000  1
  Rh  Rh3  1  0.756914  0.256914  0.500000  1
  Rh  Rh4  1  0.256914  0.756914  0.500000  1
