# generated using pymatgen
data_TmTi3(AsRh5)2
_symmetry_space_group_name_H-M   'P 1'
_cell_length_a   3.98862200
_cell_length_b   5.55233860
_cell_length_c   10.79304930
_cell_angle_alpha   90.44820078
_cell_angle_beta   90.00000000
_cell_angle_gamma   90.00000000
_symmetry_Int_Tables_number   1
_chemical_formula_structural   TmTi3(AsRh5)2
_chemical_formula_sum   'Tm1 Ti3 As2 Rh10'
_cell_volume   239.01749823
_cell_formula_units_Z   1
loop_
 _symmetry_equiv_pos_site_id
 _symmetry_equiv_pos_as_xyz
  1  'x, y, z'
loop_
 _atom_site_type_symbol
 _atom_site_label
 _atom_site_symmetry_multiplicity
 _atom_site_fract_x
 _atom_site_fract_y
 _atom_site_fract_z
 _atom_site_occupancy
  Tm  Tm0  1  0.500000  0.323602  0.138951  1
  Ti  Ti1  1  0.500000  0.670379  0.853058  1
  Ti  Ti2  1  0.500000  0.828832  0.356566  1
  Ti  Ti3  1  0.500000  0.165224  0.641896  1
  As  As4  1  0.000000  0.992653  0.994912  1
  As  As5  1  0.000000  0.502886  0.502447  1
  Rh  Rh6  1  0.000000  0.997301  0.504296  1
  Rh  Rh7  1  0.000000  0.525397  0.987082  1
  Rh  Rh8  1  0.000000  0.059186  0.254784  1
  Rh  Rh9  1  0.000000  0.925064  0.756806  1
  Rh  Rh10  1  0.000000  0.576569  0.267069  1
  Rh  Rh11  1  0.000000  0.423921  0.737602  1
  Rh  Rh12  1  0.500000  0.306050  0.404880  1
  Rh  Rh13  1  0.500000  0.692059  0.608079  1
  Rh  Rh14  1  0.500000  0.818513  0.108556  1
  Rh  Rh15  1  0.500000  0.192363  0.883016  1
