# generated using pymatgen
data_Tb3Sc5Ir4
_symmetry_space_group_name_H-M   'P 1'
_cell_length_a   4.27147400
_cell_length_b   7.09404480
_cell_length_c   8.61504906
_cell_angle_alpha   90.87369242
_cell_angle_beta   90.00000000
_cell_angle_gamma   90.00000000
_symmetry_Int_Tables_number   1
_chemical_formula_structural   Tb3Sc5Ir4
_chemical_formula_sum   'Tb3 Sc5 Ir4'
_cell_volume   261.02310680
_cell_formula_units_Z   1
loop_
 _symmetry_equiv_pos_site_id
 _symmetry_equiv_pos_as_xyz
  1  'x, y, z'
loop_
 _atom_site_type_symbol
 _atom_site_label
 _atom_site_symmetry_multiplicity
 _atom_site_fract_x
 _atom_site_fract_y
 _atom_site_fract_z
 _atom_site_occupancy
  Tb  Tb0  1  0.250000  0.984960  0.325395  1
  Tb  Tb1  1  0.750000  0.021480  0.675914  1
  Tb  Tb2  1  0.250000  0.484609  0.170801  1
  Sc  Sc3  1  0.750000  0.508819  0.836698  1
  Sc  Sc4  1  0.750000  0.641076  0.438150  1
  Sc  Sc5  1  0.250000  0.366312  0.575914  1
  Sc  Sc6  1  0.750000  0.138887  0.063911  1
  Sc  Sc7  1  0.250000  0.848319  0.926859  1
  Ir  Ir8  1  0.250000  0.244689  0.891361  1
  Ir  Ir9  1  0.750000  0.754004  0.096261  1
  Ir  Ir10  1  0.250000  0.745415  0.601436  1
  Ir  Ir11  1  0.750000  0.261431  0.397299  1
