# generated using pymatgen
data_KRb2ScBi2
_symmetry_space_group_name_H-M   'P 1'
_cell_length_a   10.17451433
_cell_length_b   10.17451463
_cell_length_c   10.17451484
_cell_angle_alpha   129.88799189
_cell_angle_beta   68.45649704
_cell_angle_gamma   136.54532843
_symmetry_Int_Tables_number   1
_chemical_formula_structural   KRb2ScBi2
_chemical_formula_sum   'K2 Rb4 Sc2 Bi4'
_cell_volume   546.11669594
_cell_formula_units_Z   2
loop_
 _symmetry_equiv_pos_site_id
 _symmetry_equiv_pos_as_xyz
  1  'x, y, z'
loop_
 _atom_site_type_symbol
 _atom_site_label
 _atom_site_symmetry_multiplicity
 _atom_site_fract_x
 _atom_site_fract_y
 _atom_site_fract_z
 _atom_site_occupancy
  K  K0  1  0.749999  0.249999  0.500000  1
  K  K1  1  0.249999  0.749999  0.500000  1
  Rb  Rb2  1  0.318093  0.711584  0.029678  1
  Rb  Rb3  1  0.181908  0.211584  0.393492  1
  Rb  Rb4  1  0.818092  0.788416  0.606508  1
  Rb  Rb5  1  0.681908  0.288416  0.970323  1
  Sc  Sc6  1  0.249999  0.249999  0.000000  1
  Sc  Sc7  1  0.750000  0.750000  0.000000  1
  Bi  Bi8  1  0.904058  0.194288  0.098346  1
  Bi  Bi9  1  0.595942  0.694288  0.290229  1
  Bi  Bi10  1  0.404058  0.305712  0.709771  1
  Bi  Bi11  1  0.095942  0.805712  0.901653  1
