# generated using pymatgen
data_RuPtBr18
_symmetry_space_group_name_H-M   'P 1'
_cell_length_a   9.08349172
_cell_length_b   9.08349305
_cell_length_c   9.08349298
_cell_angle_alpha   91.55722703
_cell_angle_beta   91.55720993
_cell_angle_gamma   91.55722327
_symmetry_Int_Tables_number   1
_chemical_formula_structural   RuPtBr18
_chemical_formula_sum   'Ru1 Pt1 Br18'
_cell_volume   748.63174970
_cell_formula_units_Z   1
loop_
 _symmetry_equiv_pos_site_id
 _symmetry_equiv_pos_as_xyz
  1  'x, y, z'
loop_
 _atom_site_type_symbol
 _atom_site_label
 _atom_site_symmetry_multiplicity
 _atom_site_fract_x
 _atom_site_fract_y
 _atom_site_fract_z
 _atom_site_occupancy
  Ru  Ru0  1  0.000000  0.000000  0.000000  1
  Pt  Pt1  1  0.500000  0.500000  0.500000  1
  Br  Br2  1  0.725179  0.979947  0.018612  1
  Br  Br3  1  0.748234  0.126101  0.619745  1
  Br  Br4  1  0.018612  0.725179  0.979947  1
  Br  Br5  1  0.251766  0.873899  0.380255  1
  Br  Br6  1  0.126101  0.619745  0.748234  1
  Br  Br7  1  0.020053  0.981388  0.274821  1
  Br  Br8  1  0.619745  0.748234  0.126101  1
  Br  Br9  1  0.981388  0.274821  0.020053  1
  Br  Br10  1  0.873899  0.380255  0.251766  1
  Br  Br11  1  0.380255  0.251766  0.873899  1
  Br  Br12  1  0.979947  0.018612  0.725179  1
  Br  Br13  1  0.274821  0.020053  0.981388  1
  Br  Br14  1  0.775440  0.528411  0.487092  1
  Br  Br15  1  0.512908  0.224560  0.471589  1
  Br  Br16  1  0.471589  0.512908  0.224560  1
  Br  Br17  1  0.487092  0.775440  0.528411  1
  Br  Br18  1  0.528411  0.487092  0.775440  1
  Br  Br19  1  0.224560  0.471589  0.512908  1
