# generated using pymatgen
data_La6Mg3Cd20P
_symmetry_space_group_name_H-M   'P 1'
_cell_length_a   10.10355840
_cell_length_b   10.15438399
_cell_length_c   10.15438422
_cell_angle_alpha   60.02818690
_cell_angle_beta   60.27958653
_cell_angle_gamma   60.27958681
_symmetry_Int_Tables_number   1
_chemical_formula_structural   La6Mg3Cd20P
_chemical_formula_sum   'La6 Mg3 Cd20 P1'
_cell_volume   739.91558291
_cell_formula_units_Z   1
loop_
 _symmetry_equiv_pos_site_id
 _symmetry_equiv_pos_as_xyz
  1  'x, y, z'
loop_
 _atom_site_type_symbol
 _atom_site_label
 _atom_site_symmetry_multiplicity
 _atom_site_fract_x
 _atom_site_fract_y
 _atom_site_fract_z
 _atom_site_occupancy
  La  La0  1  0.793275  0.794948  0.206714  1
  La  La1  1  0.206725  0.793286  0.205052  1
  La  La2  1  0.792152  0.205615  0.205615  1
  La  La3  1  0.206725  0.205052  0.793286  1
  La  La4  1  0.793275  0.206714  0.794948  1
  La  La5  1  0.207848  0.794385  0.794385  1
  Mg  Mg6  1  0.000000  0.000000  0.500000  1
  Mg  Mg7  1  0.000000  0.500000  0.000000  1
  Mg  Mg8  1  0.500000  0.500000  0.500000  1
  Cd  Cd9  1  0.831680  0.830492  0.507870  1
  Cd  Cd10  1  0.831680  0.507870  0.830492  1
  Cd  Cd11  1  0.507584  0.830447  0.830447  1
  Cd  Cd12  1  0.833661  0.830372  0.830372  1
  Cd  Cd13  1  0.168320  0.169508  0.492130  1
  Cd  Cd14  1  0.168320  0.492130  0.169508  1
  Cd  Cd15  1  0.492416  0.169553  0.169553  1
  Cd  Cd16  1  0.166339  0.169628  0.169628  1
  Cd  Cd17  1  0.623823  0.619915  0.138150  1
  Cd  Cd18  1  0.623823  0.138150  0.619915  1
  Cd  Cd19  1  0.137906  0.622103  0.622103  1
  Cd  Cd20  1  0.621254  0.620443  0.620443  1
  Cd  Cd21  1  0.376177  0.380085  0.861850  1
  Cd  Cd22  1  0.376177  0.861850  0.380085  1
  Cd  Cd23  1  0.862094  0.377897  0.377897  1
  Cd  Cd24  1  0.378746  0.379557  0.379557  1
  Cd  Cd25  1  0.500000  0.000000  0.500000  1
  Cd  Cd26  1  0.000000  0.500000  0.500000  1
  Cd  Cd27  1  0.500000  0.500000  0.000000  1
  Cd  Cd28  1  0.500000  0.000000  0.000000  1
  P  P29  1  0.000000  0.000000  0.000000  1
