# generated using pymatgen
data_Sr8Y9Ho3Sn16
_symmetry_space_group_name_H-M   'P 1'
_cell_length_a   8.05461800
_cell_length_b   8.51563455
_cell_length_c   16.19545700
_cell_angle_alpha   90.00000000
_cell_angle_beta   90.00000000
_cell_angle_gamma   89.85164073
_symmetry_Int_Tables_number   1
_chemical_formula_structural   Sr8Y9Ho3Sn16
_chemical_formula_sum   'Sr8 Y9 Ho3 Sn16'
_cell_volume   1110.84564041
_cell_formula_units_Z   1
loop_
 _symmetry_equiv_pos_site_id
 _symmetry_equiv_pos_as_xyz
  1  'x, y, z'
loop_
 _atom_site_type_symbol
 _atom_site_label
 _atom_site_symmetry_multiplicity
 _atom_site_fract_x
 _atom_site_fract_y
 _atom_site_fract_z
 _atom_site_occupancy
  Sr  Sr0  1  0.504070  0.677516  0.593912  1
  Sr  Sr1  1  0.004816  0.823817  0.906542  1
  Sr  Sr2  1  0.495293  0.322541  0.093846  1
  Sr  Sr3  1  0.994874  0.177621  0.406368  1
  Sr  Sr4  1  0.495293  0.322541  0.406154  1
  Sr  Sr5  1  0.994874  0.177621  0.093632  1
  Sr  Sr6  1  0.504070  0.677516  0.906088  1
  Sr  Sr7  1  0.004816  0.823817  0.593458  1
  Y  Y8  1  0.674641  0.164914  0.623842  1
  Y  Y9  1  0.175373  0.334713  0.876228  1
  Y  Y10  1  0.325100  0.834241  0.123632  1
  Y  Y11  1  0.825362  0.664655  0.376493  1
  Y  Y12  1  0.325100  0.834241  0.376368  1
  Y  Y13  1  0.825362  0.664655  0.123507  1
  Y  Y14  1  0.674641  0.164914  0.876158  1
  Y  Y15  1  0.175373  0.334713  0.623772  1
  Y  Y16  1  0.838704  0.507087  0.750000  1
  Ho  Ho17  1  0.339222  0.993503  0.750000  1
  Ho  Ho18  1  0.161623  0.492852  0.250000  1
  Ho  Ho19  1  0.660988  0.006050  0.250000  1
  Sn  Sn20  1  0.662398  0.959750  0.456975  1
  Sn  Sn21  1  0.162316  0.540181  0.042650  1
  Sn  Sn22  1  0.338042  0.040312  0.957189  1
  Sn  Sn23  1  0.837594  0.460006  0.543367  1
  Sn  Sn24  1  0.338042  0.040312  0.542811  1
  Sn  Sn25  1  0.837594  0.460006  0.956633  1
  Sn  Sn26  1  0.662398  0.959750  0.043025  1
  Sn  Sn27  1  0.162316  0.540181  0.457350  1
  Sn  Sn28  1  0.475069  0.366752  0.750000  1
  Sn  Sn29  1  0.975615  0.134850  0.750000  1
  Sn  Sn30  1  0.524958  0.633799  0.250000  1
  Sn  Sn31  1  0.024594  0.864553  0.250000  1
  Sn  Sn32  1  0.710763  0.868544  0.750000  1
  Sn  Sn33  1  0.210436  0.631690  0.750000  1
  Sn  Sn34  1  0.289000  0.130848  0.250000  1
  Sn  Sn35  1  0.789266  0.368943  0.250000  1
