# generated using pymatgen
data_Zr7(AlOs)4
_symmetry_space_group_name_H-M   'P 1'
_cell_length_a   9.24905064
_cell_length_b   9.24905031
_cell_length_c   9.24905100
_cell_angle_alpha   60.00000113
_cell_angle_beta   60.00000229
_cell_angle_gamma   60.00000036
_symmetry_Int_Tables_number   1
_chemical_formula_structural   Zr7(AlOs)4
_chemical_formula_sum   'Zr14 Al8 Os8'
_cell_volume   559.46959339
_cell_formula_units_Z   2
loop_
 _symmetry_equiv_pos_site_id
 _symmetry_equiv_pos_as_xyz
  1  'x, y, z'
loop_
 _atom_site_type_symbol
 _atom_site_label
 _atom_site_symmetry_multiplicity
 _atom_site_fract_x
 _atom_site_fract_y
 _atom_site_fract_z
 _atom_site_occupancy
  Zr  Zr0  1  0.201097  0.798903  0.201097  1
  Zr  Zr1  1  0.201097  0.798903  0.798903  1
  Zr  Zr2  1  0.798903  0.201097  0.201097  1
  Zr  Zr3  1  0.798903  0.798903  0.201097  1
  Zr  Zr4  1  0.201097  0.201097  0.798903  1
  Zr  Zr5  1  0.798903  0.201097  0.798903  1
  Zr  Zr6  1  0.375009  0.375009  0.375009  1
  Zr  Zr7  1  0.125030  0.624991  0.624991  1
  Zr  Zr8  1  0.624991  0.125030  0.624991  1
  Zr  Zr9  1  0.624991  0.624991  0.125030  1
  Zr  Zr10  1  0.375009  0.874970  0.375009  1
  Zr  Zr11  1  0.375009  0.375009  0.874970  1
  Zr  Zr12  1  0.874970  0.375009  0.375009  1
  Zr  Zr13  1  0.624991  0.624991  0.624991  1
  Al  Al14  1  0.842629  0.842629  0.842629  1
  Al  Al15  1  0.527885  0.157371  0.157371  1
  Al  Al16  1  0.157371  0.157371  0.527885  1
  Al  Al17  1  0.157371  0.527885  0.157371  1
  Al  Al18  1  0.842629  0.842629  0.472115  1
  Al  Al19  1  0.842629  0.472115  0.842629  1
  Al  Al20  1  0.472115  0.842629  0.842629  1
  Al  Al21  1  0.157371  0.157371  0.157371  1
  Os  Os22  1  0.500000  0.500000  0.000000  1
  Os  Os23  1  0.000000  0.000000  0.500000  1
  Os  Os24  1  0.500000  0.000000  0.500000  1
  Os  Os25  1  0.000000  0.500000  0.500000  1
  Os  Os26  1  0.500000  0.000000  0.000000  1
  Os  Os27  1  0.000000  0.500000  0.000000  1
  Os  Os28  1  0.500000  0.500000  0.500000  1
  Os  Os29  1  0.000000  0.000000  0.000000  1
