# generated using pymatgen
data_BaGaSnAu5
_symmetry_space_group_name_H-M   'P 1'
_cell_length_a   7.41483200
_cell_length_b   9.27278100
_cell_length_c   10.56212200
_cell_angle_alpha   90.00000000
_cell_angle_beta   90.00000000
_cell_angle_gamma   90.00000000
_symmetry_Int_Tables_number   1
_chemical_formula_structural   BaGaSnAu5
_chemical_formula_sum   'Ba4 Ga4 Sn4 Au20'
_cell_volume   726.21045679
_cell_formula_units_Z   4
loop_
 _symmetry_equiv_pos_site_id
 _symmetry_equiv_pos_as_xyz
  1  'x, y, z'
loop_
 _atom_site_type_symbol
 _atom_site_label
 _atom_site_symmetry_multiplicity
 _atom_site_fract_x
 _atom_site_fract_y
 _atom_site_fract_z
 _atom_site_occupancy
  Ba  Ba0  1  0.250000  0.249846  0.119368  1
  Ba  Ba1  1  0.250000  0.749846  0.380632  1
  Ba  Ba2  1  0.750000  0.750154  0.880632  1
  Ba  Ba3  1  0.750000  0.250154  0.619368  1
  Ga  Ga4  1  0.250000  0.051357  0.614466  1
  Ga  Ga5  1  0.250000  0.551357  0.885534  1
  Ga  Ga6  1  0.750000  0.948643  0.385534  1
  Ga  Ga7  1  0.750000  0.448643  0.114466  1
  Sn  Sn8  1  0.250000  0.359716  0.473871  1
  Sn  Sn9  1  0.250000  0.859716  0.026129  1
  Sn  Sn10  1  0.750000  0.640284  0.526129  1
  Sn  Sn11  1  0.750000  0.140284  0.973871  1
  Au  Au12  1  0.053930  0.100955  0.395889  1
  Au  Au13  1  0.446070  0.600955  0.104111  1
  Au  Au14  1  0.553930  0.899045  0.604111  1
  Au  Au15  1  0.946070  0.399045  0.895889  1
  Au  Au16  1  0.946070  0.899045  0.604111  1
  Au  Au17  1  0.553930  0.399045  0.895889  1
  Au  Au18  1  0.446070  0.100955  0.395889  1
  Au  Au19  1  0.053930  0.600955  0.104111  1
  Au  Au20  1  0.046793  0.066001  0.841548  1
  Au  Au21  1  0.453207  0.566001  0.658452  1
  Au  Au22  1  0.546793  0.933999  0.158452  1
  Au  Au23  1  0.953207  0.433999  0.341548  1
  Au  Au24  1  0.953207  0.933999  0.158452  1
  Au  Au25  1  0.546793  0.433999  0.341548  1
  Au  Au26  1  0.453207  0.066001  0.841548  1
  Au  Au27  1  0.046793  0.566001  0.658452  1
  Au  Au28  1  0.250000  0.303620  0.732410  1
  Au  Au29  1  0.250000  0.803620  0.767590  1
  Au  Au30  1  0.750000  0.696380  0.267590  1
  Au  Au31  1  0.750000  0.196380  0.232410  1
