# generated using pymatgen
data_Nd18Sm2Si15Os
_symmetry_space_group_name_H-M   'P 1'
_cell_length_a   7.67084100
_cell_length_b   7.99276106
_cell_length_c   15.11450000
_cell_angle_alpha   90.00000000
_cell_angle_beta   90.00000000
_cell_angle_gamma   89.90047307
_symmetry_Int_Tables_number   1
_chemical_formula_structural   Nd18Sm2Si15Os
_chemical_formula_sum   'Nd18 Sm2 Si15 Os1'
_cell_volume   926.68672270
_cell_formula_units_Z   1
loop_
 _symmetry_equiv_pos_site_id
 _symmetry_equiv_pos_as_xyz
  1  'x, y, z'
loop_
 _atom_site_type_symbol
 _atom_site_label
 _atom_site_symmetry_multiplicity
 _atom_site_fract_x
 _atom_site_fract_y
 _atom_site_fract_z
 _atom_site_occupancy
  Nd  Nd0  1  0.139476  0.517416  0.750000  1
  Nd  Nd1  1  0.811291  0.320756  0.621012  1
  Nd  Nd2  1  0.461706  0.689640  0.900244  1
  Nd  Nd3  1  0.963045  0.812902  0.901996  1
  Nd  Nd4  1  0.198469  0.676360  0.127074  1
  Nd  Nd5  1  0.681725  0.813902  0.124127  1
  Nd  Nd6  1  0.311788  0.181854  0.877728  1
  Nd  Nd7  1  0.198469  0.676360  0.372926  1
  Nd  Nd8  1  0.035239  0.184572  0.098970  1
  Nd  Nd9  1  0.311788  0.181854  0.622272  1
  Nd  Nd10  1  0.530255  0.322870  0.400507  1
  Nd  Nd11  1  0.811291  0.320756  0.878988  1
  Nd  Nd12  1  0.963045  0.812902  0.598004  1
  Nd  Nd13  1  0.461706  0.689640  0.599756  1
  Nd  Nd14  1  0.035239  0.184572  0.401030  1
  Nd  Nd15  1  0.681725  0.813902  0.375873  1
  Nd  Nd16  1  0.637721  0.986316  0.750000  1
  Nd  Nd17  1  0.530255  0.322870  0.099493  1
  Sm  Sm18  1  0.846155  0.485629  0.250000  1
  Sm  Sm19  1  0.364476  0.016084  0.250000  1
  Si  Si20  1  0.246540  0.368381  0.250000  1
  Si  Si21  1  0.868883  0.524887  0.458087  1
  Si  Si22  1  0.519124  0.402521  0.750000  1
  Si  Si23  1  0.636161  0.027328  0.960479  1
  Si  Si24  1  0.015571  0.099206  0.750000  1
  Si  Si25  1  0.752018  0.621456  0.750000  1
  Si  Si26  1  0.753267  0.120190  0.250000  1
  Si  Si27  1  0.360107  0.976426  0.458732  1
  Si  Si28  1  0.985271  0.902896  0.250000  1
  Si  Si29  1  0.360107  0.976426  0.041268  1
  Si  Si30  1  0.636161  0.027328  0.539521  1
  Si  Si31  1  0.141104  0.473339  0.961724  1
  Si  Si32  1  0.141104  0.473339  0.538276  1
  Si  Si33  1  0.868883  0.524887  0.041913  1
  Si  Si34  1  0.250175  0.879569  0.750000  1
  Os  Os35  1  0.490662  0.590658  0.250000  1
