# generated using pymatgen
data_La2(Se2O7)3
_symmetry_space_group_name_H-M   'P 1'
_cell_length_a   7.21468308
_cell_length_b   11.13802848
_cell_length_c   12.68997800
_cell_angle_alpha   91.01990893
_cell_angle_beta   96.78929020
_cell_angle_gamma   94.87733195
_symmetry_Int_Tables_number   1
_chemical_formula_structural   La2(Se2O7)3
_chemical_formula_sum   'La4 Se12 O42'
_cell_volume   1008.51583324
_cell_formula_units_Z   2
loop_
 _symmetry_equiv_pos_site_id
 _symmetry_equiv_pos_as_xyz
  1  'x, y, z'
loop_
 _atom_site_type_symbol
 _atom_site_label
 _atom_site_symmetry_multiplicity
 _atom_site_fract_x
 _atom_site_fract_y
 _atom_site_fract_z
 _atom_site_occupancy
  La  La0  1  0.831031  0.411228  0.719814  1
  La  La1  1  0.168969  0.588772  0.280186  1
  La  La2  1  0.414683  0.905762  0.736599  1
  La  La3  1  0.585317  0.094238  0.263401  1
  Se  Se4  1  0.359577  0.555467  0.761337  1
  Se  Se5  1  0.640423  0.444533  0.238663  1
  Se  Se6  1  0.424429  0.185662  0.549964  1
  Se  Se7  1  0.575571  0.814338  0.450036  1
  Se  Se8  1  0.707904  0.671313  0.905036  1
  Se  Se9  1  0.292096  0.328687  0.094964  1
  Se  Se10  1  0.929145  0.070445  0.772546  1
  Se  Se11  1  0.070855  0.929555  0.227454  1
  Se  Se12  1  0.671672  0.166958  0.929434  1
  Se  Se13  1  0.328328  0.833042  0.070566  1
  Se  Se14  1  0.034012  0.300814  0.458779  1
  Se  Se15  1  0.965987  0.699186  0.541221  1
  O  O16  1  0.669814  0.783343  0.822488  1
  O  O17  1  0.330186  0.216657  0.177512  1
  O  O18  1  0.294132  0.688288  0.722044  1
  O  O19  1  0.705868  0.311712  0.277956  1
  O  O20  1  0.347715  0.051847  0.589758  1
  O  O21  1  0.652285  0.948153  0.410242  1
  O  O22  1  0.879961  0.086953  0.910374  1
  O  O23  1  0.120039  0.913047  0.089626  1
  O  O24  1  0.474314  0.577530  0.894054  1
  O  O25  1  0.525686  0.422470  0.105946  1
  O  O26  1  0.734743  0.003096  0.707667  1
  O  O27  1  0.265257  0.996904  0.292333  1
  O  O28  1  0.849591  0.576384  0.862506  1
  O  O29  1  0.150409  0.423616  0.137494  1
  O  O30  1  0.980097  0.208305  0.732774  1
  O  O31  1  0.019903  0.791695  0.267226  1
  O  O32  1  0.238221  0.282038  0.558990  1
  O  O33  1  0.761779  0.717962  0.441010  1
  O  O34  1  0.710067  0.300631  0.877240  1
  O  O35  1  0.289933  0.699369  0.122760  1
  O  O36  1  0.473113  0.188752  0.426621  1
  O  O37  1  0.526887  0.811248  0.573379  1
  O  O38  1  0.177470  0.458938  0.772057  1
  O  O39  1  0.822530  0.541062  0.227943  1
  O  O40  1  0.587389  0.254274  0.637198  1
  O  O41  1  0.412611  0.745726  0.362802  1
  O  O42  1  0.516514  0.502384  0.692369  1
  O  O43  1  0.483486  0.497616  0.307631  1
  O  O44  1  0.106667  0.987027  0.785440  1
  O  O45  1  0.893333  0.012973  0.214560  1
  O  O46  1  0.677407  0.170407  0.058348  1
  O  O47  1  0.322593  0.829593  0.941652  1
  O  O48  1  0.742452  0.707811  0.030234  1
  O  O49  1  0.257548  0.292189  0.969766  1
  O  O50  1  0.914425  0.375795  0.537737  1
  O  O51  1  0.085575  0.624205  0.462263  1
  O  O52  1  0.941052  0.166718  0.417898  1
  O  O53  1  0.058948  0.833282  0.582102  1
  O  O54  1  0.122074  0.386184  0.369008  1
  O  O55  1  0.877926  0.613816  0.630992  1
  O  O56  1  0.494067  0.080931  0.864755  1
  O  O57  1  0.505933  0.919069  0.135245  1
