# generated using pymatgen
data_Nd6Mn(MoC4)3
_symmetry_space_group_name_H-M   'P 1'
_cell_length_a   8.47825600
_cell_length_b   8.47825480
_cell_length_c   5.29239500
_cell_angle_alpha   90.00000000
_cell_angle_beta   90.00000000
_cell_angle_gamma   119.99998022
_symmetry_Int_Tables_number   1
_chemical_formula_structural   Nd6Mn(MoC4)3
_chemical_formula_sum   'Nd6 Mn1 Mo3 C12'
_cell_volume   329.45489078
_cell_formula_units_Z   1
loop_
 _symmetry_equiv_pos_site_id
 _symmetry_equiv_pos_as_xyz
  1  'x, y, z'
loop_
 _atom_site_type_symbol
 _atom_site_label
 _atom_site_symmetry_multiplicity
 _atom_site_fract_x
 _atom_site_fract_y
 _atom_site_fract_z
 _atom_site_occupancy
  Nd  Nd0  1  0.622451  0.692364  0.750000  1
  Nd  Nd1  1  0.933703  0.613535  0.250000  1
  Nd  Nd2  1  0.679831  0.066297  0.250000  1
  Nd  Nd3  1  0.307636  0.930087  0.750000  1
  Nd  Nd4  1  0.069913  0.377549  0.750000  1
  Nd  Nd5  1  0.386465  0.320169  0.250000  1
  Mn  Mn6  1  0.333333  0.666667  0.250000  1
  Mo  Mo7  1  0.000000  0.000000  0.491295  1
  Mo  Mo8  1  0.000000  0.000000  0.008705  1
  Mo  Mo9  1  0.666667  0.333333  0.750000  1
  C  C10  1  0.959810  0.775424  0.750000  1
  C  C11  1  0.201186  0.956592  0.250000  1
  C  C12  1  0.755407  0.798814  0.250000  1
  C  C13  1  0.224576  0.184386  0.750000  1
  C  C14  1  0.815614  0.040190  0.750000  1
  C  C15  1  0.043408  0.244593  0.250000  1
  C  C16  1  0.868881  0.588046  0.750000  1
  C  C17  1  0.283466  0.853086  0.250000  1
  C  C18  1  0.569619  0.716534  0.250000  1
  C  C19  1  0.411954  0.280834  0.750000  1
  C  C20  1  0.146914  0.430381  0.250000  1
  C  C21  1  0.719166  0.131119  0.750000  1
