# generated using pymatgen
data_Li2TcH9
_symmetry_space_group_name_H-M   'P 1'
_cell_length_a   8.09513500
_cell_length_b   8.09513513
_cell_length_c   4.78145000
_cell_angle_alpha   90.00000000
_cell_angle_beta   90.00000000
_cell_angle_gamma   119.99999537
_symmetry_Int_Tables_number   1
_chemical_formula_structural   Li2TcH9
_chemical_formula_sum   'Li6 Tc3 H27'
_cell_volume   271.35540050
_cell_formula_units_Z   3
loop_
 _symmetry_equiv_pos_site_id
 _symmetry_equiv_pos_as_xyz
  1  'x, y, z'
loop_
 _atom_site_type_symbol
 _atom_site_label
 _atom_site_symmetry_multiplicity
 _atom_site_fract_x
 _atom_site_fract_y
 _atom_site_fract_z
 _atom_site_occupancy
  Li  Li0  1  0.277884  0.000000  0.500000  1
  Li  Li1  1  0.000000  0.277884  0.500000  1
  Li  Li2  1  0.722116  0.722116  0.500000  1
  Li  Li3  1  0.617731  0.000000  0.000000  1
  Li  Li4  1  0.000000  0.617731  0.000000  1
  Li  Li5  1  0.382269  0.382269  0.000000  1
  Tc  Tc6  1  0.000000  0.000000  0.000000  1
  Tc  Tc7  1  0.333333  0.666667  0.500000  1
  Tc  Tc8  1  0.666667  0.333333  0.500000  1
  H  H9  1  0.851214  0.000000  0.247671  1
  H  H10  1  0.000000  0.851214  0.247671  1
  H  H11  1  0.851214  0.000000  0.752329  1
  H  H12  1  0.000000  0.851214  0.752329  1
  H  H13  1  0.148786  0.148786  0.247671  1
  H  H14  1  0.148786  0.148786  0.752329  1
  H  H15  1  0.205437  0.000000  0.000000  1
  H  H16  1  0.000000  0.205437  0.000000  1
  H  H17  1  0.794563  0.794563  0.000000  1
  H  H18  1  0.174989  0.535454  0.248504  1
  H  H19  1  0.464546  0.639535  0.248504  1
  H  H20  1  0.174989  0.535454  0.751496  1
  H  H21  1  0.535454  0.174989  0.751496  1
  H  H22  1  0.360465  0.825011  0.248504  1
  H  H23  1  0.464546  0.639535  0.751496  1
  H  H24  1  0.639535  0.464546  0.751496  1
  H  H25  1  0.535454  0.174989  0.248504  1
  H  H26  1  0.360465  0.825011  0.751496  1
  H  H27  1  0.639535  0.464546  0.248504  1
  H  H28  1  0.825011  0.360465  0.751496  1
  H  H29  1  0.825011  0.360465  0.248504  1
  H  H30  1  0.296233  0.445786  0.500000  1
  H  H31  1  0.554214  0.850447  0.500000  1
  H  H32  1  0.445786  0.296233  0.500000  1
  H  H33  1  0.149553  0.703767  0.500000  1
  H  H34  1  0.850447  0.554214  0.500000  1
  H  H35  1  0.703767  0.149553  0.500000  1
