# generated using pymatgen
data_Ac3GaPd(PtAu)2
_symmetry_space_group_name_H-M   'P 1'
_cell_length_a   7.92738662
_cell_length_b   7.69398269
_cell_length_c   4.11359900
_cell_angle_alpha   90.00000000
_cell_angle_beta   90.00000000
_cell_angle_gamma   119.03072946
_symmetry_Int_Tables_number   1
_chemical_formula_structural   Ac3GaPd(PtAu)2
_chemical_formula_sum   'Ac3 Ga1 Pd1 Pt2 Au2'
_cell_volume   219.37809582
_cell_formula_units_Z   1
loop_
 _symmetry_equiv_pos_site_id
 _symmetry_equiv_pos_as_xyz
  1  'x, y, z'
loop_
 _atom_site_type_symbol
 _atom_site_label
 _atom_site_symmetry_multiplicity
 _atom_site_fract_x
 _atom_site_fract_y
 _atom_site_fract_z
 _atom_site_occupancy
  Ac  Ac0  1  0.409924  0.396268  0.500000  1
  Ac  Ac1  1  0.590076  0.986344  0.500000  1
  Ac  Ac2  1  0.000000  0.614088  0.500000  1
  Ga  Ga3  1  0.000000  0.251899  0.000000  1
  Pd  Pd4  1  0.000000  0.042531  0.500000  1
  Pt  Pt5  1  0.692968  0.326626  0.000000  1
  Pt  Pt6  1  0.307032  0.633660  0.000000  1
  Au  Au7  1  0.746787  0.747685  0.000000  1
  Au  Au8  1  0.253213  0.000897  0.000000  1
