# generated using pymatgen
data_TbZn10Cu
_symmetry_space_group_name_H-M   'P 1'
_cell_length_a   8.16219227
_cell_length_b   8.16219049
_cell_length_c   8.16074396
_cell_angle_alpha   99.98657247
_cell_angle_beta   99.98657016
_cell_angle_gamma   130.90238727
_symmetry_Int_Tables_number   1
_chemical_formula_structural   TbZn10Cu
_chemical_formula_sum   'Tb2 Zn20 Cu2'
_cell_volume   373.41882028
_cell_formula_units_Z   2
loop_
 _symmetry_equiv_pos_site_id
 _symmetry_equiv_pos_as_xyz
  1  'x, y, z'
loop_
 _atom_site_type_symbol
 _atom_site_label
 _atom_site_symmetry_multiplicity
 _atom_site_fract_x
 _atom_site_fract_y
 _atom_site_fract_z
 _atom_site_occupancy
  Tb  Tb0  1  0.500209  0.499791  0.000000  1
  Tb  Tb1  1  0.749791  0.250209  0.500000  1
  Zn  Zn2  1  0.406768  0.079303  0.086242  1
  Zn  Zn3  1  0.991144  0.315767  0.918404  1
  Zn  Zn4  1  0.261842  0.672526  0.827754  1
  Zn  Zn5  1  0.852512  0.430562  0.176695  1
  Zn  Zn6  1  0.920697  0.593232  0.913758  1
  Zn  Zn7  1  0.684233  0.008856  0.081596  1
  Zn  Zn8  1  0.327474  0.738158  0.172246  1
  Zn  Zn9  1  0.569438  0.147488  0.823305  1
  Zn  Zn10  1  0.843232  0.670697  0.413758  1
  Zn  Zn11  1  0.258856  0.434233  0.581596  1
  Zn  Zn12  1  0.988158  0.077474  0.672246  1
  Zn  Zn13  1  0.397488  0.319438  0.323305  1
  Zn  Zn14  1  0.329303  0.156768  0.586242  1
  Zn  Zn15  1  0.565767  0.741144  0.418404  1
  Zn  Zn16  1  0.922526  0.011842  0.327754  1
  Zn  Zn17  1  0.680562  0.602512  0.676695  1
  Zn  Zn18  1  0.254452  0.745548  0.500000  1
  Zn  Zn19  1  0.995548  0.004452  0.000000  1
  Zn  Zn20  1  0.125000  0.875000  0.750000  1
  Zn  Zn21  1  0.125000  0.875000  0.250000  1
  Cu  Cu22  1  0.125000  0.375000  0.250000  1
  Cu  Cu23  1  0.625000  0.875000  0.750000  1
