# generated using pymatgen
data_TbDyTm2(WO6)2
_symmetry_space_group_name_H-M   'P 1'
_cell_length_a   5.38302000
_cell_length_b   7.67301072
_cell_length_c   11.39150876
_cell_angle_alpha   75.57432919
_cell_angle_beta   90.00000000
_cell_angle_gamma   90.00000000
_symmetry_Int_Tables_number   1
_chemical_formula_structural   TbDyTm2(WO6)2
_chemical_formula_sum   'Tb2 Dy2 Tm4 W4 O24'
_cell_volume   455.67998646
_cell_formula_units_Z   2
loop_
 _symmetry_equiv_pos_site_id
 _symmetry_equiv_pos_as_xyz
  1  'x, y, z'
loop_
 _atom_site_type_symbol
 _atom_site_label
 _atom_site_symmetry_multiplicity
 _atom_site_fract_x
 _atom_site_fract_y
 _atom_site_fract_z
 _atom_site_occupancy
  Tb  Tb0  1  0.683983  0.500000  0.750000  1
  Tb  Tb1  1  0.316017  0.500000  0.250000  1
  Dy  Dy2  1  0.740945  0.000000  0.750000  1
  Dy  Dy3  1  0.259055  0.000000  0.250000  1
  Tm  Tm4  1  0.184576  0.794842  0.578325  1
  Tm  Tm5  1  0.815424  0.794842  0.078325  1
  Tm  Tm6  1  0.184576  0.205158  0.921675  1
  Tm  Tm7  1  0.815424  0.205158  0.421675  1
  W  W8  1  0.254877  0.723969  0.885792  1
  W  W9  1  0.745123  0.723969  0.385792  1
  W  W10  1  0.254877  0.276031  0.614208  1
  W  W11  1  0.745123  0.276031  0.114208  1
  O  O12  1  0.044321  0.940919  0.896942  1
  O  O13  1  0.535194  0.845803  0.932211  1
  O  O14  1  0.955679  0.940919  0.396942  1
  O  O15  1  0.456871  0.790946  0.726400  1
  O  O16  1  0.464806  0.845803  0.432211  1
  O  O17  1  0.982264  0.712875  0.770167  1
  O  O18  1  0.543129  0.790946  0.226400  1
  O  O19  1  0.854055  0.635843  0.549080  1
  O  O20  1  0.357840  0.488593  0.887074  1
  O  O21  1  0.017736  0.712875  0.270167  1
  O  O22  1  0.357840  0.511407  0.612926  1
  O  O23  1  0.854055  0.364157  0.950920  1
  O  O24  1  0.145945  0.635843  0.049080  1
  O  O25  1  0.642160  0.488593  0.387074  1
  O  O26  1  0.982264  0.287125  0.729833  1
  O  O27  1  0.642160  0.511407  0.112926  1
  O  O28  1  0.145945  0.364157  0.450920  1
  O  O29  1  0.456871  0.209054  0.773600  1
  O  O30  1  0.017736  0.287125  0.229833  1
  O  O31  1  0.535194  0.154197  0.567789  1
  O  O32  1  0.543129  0.209054  0.273600  1
  O  O33  1  0.044321  0.059081  0.603058  1
  O  O34  1  0.464806  0.154197  0.067789  1
  O  O35  1  0.955679  0.059081  0.103058  1
