# generated using pymatgen
data_ScTe35
_symmetry_space_group_name_H-M   'P 1'
_cell_length_a   4.10294600
_cell_length_b   12.16460249
_cell_length_c   25.18667769
_cell_angle_alpha   93.19970997
_cell_angle_beta   90.00000000
_cell_angle_gamma   90.00000000
_symmetry_Int_Tables_number   1
_chemical_formula_structural   ScTe35
_chemical_formula_sum   'Sc1 Te35'
_cell_volume   1255.12515675
_cell_formula_units_Z   1
loop_
 _symmetry_equiv_pos_site_id
 _symmetry_equiv_pos_as_xyz
  1  'x, y, z'
loop_
 _atom_site_type_symbol
 _atom_site_label
 _atom_site_symmetry_multiplicity
 _atom_site_fract_x
 _atom_site_fract_y
 _atom_site_fract_z
 _atom_site_occupancy
  Sc  Sc0  1  0.250000  0.749186  0.706929  1
  Te  Te1  1  0.250000  0.879263  0.492471  1
  Te  Te2  1  0.750000  0.040999  0.475864  1
  Te  Te3  1  0.750000  0.374210  0.963824  1
  Te  Te4  1  0.250000  0.665111  0.021586  1
  Te  Te5  1  0.250000  0.104209  0.631443  1
  Te  Te6  1  0.750000  0.015483  0.347239  1
  Te  Te7  1  0.750000  0.605550  0.866122  1
  Te  Te8  1  0.250000  0.453648  0.156051  1
  Te  Te9  1  0.250000  0.376232  0.538402  1
  Te  Te10  1  0.750000  0.649423  0.467056  1
  Te  Te11  1  0.750000  0.865946  0.968233  1
  Te  Te12  1  0.250000  0.160958  0.038233  1
  Te  Te13  1  0.750000  0.579382  0.092743  1
  Te  Te14  1  0.250000  0.385997  0.883309  1
  Te  Te15  1  0.250000  0.186879  0.401874  1
  Te  Te16  1  0.750000  0.869851  0.641536  1
  Te  Te17  1  0.750000  0.908905  0.145310  1
  Te  Te18  1  0.250000  0.074019  0.861761  1
  Te  Te19  1  0.250000  0.465708  0.341617  1
  Te  Te20  1  0.750000  0.577208  0.684243  1
  Te  Te21  1  0.250000  0.733267  0.250056  1
  Te  Te22  1  0.750000  0.284321  0.790146  1
  Te  Te23  1  0.750000  0.260273  0.255269  1
  Te  Te24  1  0.750000  0.912854  0.752182  1
  Te  Te25  1  0.250000  0.965856  0.258279  1
  Te  Te26  1  0.250000  0.418564  0.739608  1
  Te  Te27  1  0.750000  0.513112  0.250854  1
  Te  Te28  1  0.750000  0.267931  0.632523  1
  Te  Te29  1  0.250000  0.696857  0.378195  1
  Te  Te30  1  0.250000  0.744080  0.824357  1
  Te  Te31  1  0.750000  0.225539  0.148599  1
  Te  Te32  1  0.250000  0.600356  0.554875  1
  Te  Te33  1  0.750000  0.377218  0.430426  1
  Te  Te34  1  0.750000  0.102039  0.947950  1
  Te  Te35  1  0.250000  0.909571  0.060837  1
