# generated using pymatgen
data_Ca12Ge8Pd5Rh3
_symmetry_space_group_name_H-M   'P 1'
_cell_length_a   5.72556699
_cell_length_b   8.01704080
_cell_length_c   13.61069205
_cell_angle_alpha   90.04188280
_cell_angle_beta   89.91100317
_cell_angle_gamma   89.51585513
_symmetry_Int_Tables_number   1
_chemical_formula_structural   Ca12Ge8Pd5Rh3
_chemical_formula_sum   'Ca12 Ge8 Pd5 Rh3'
_cell_volume   624.73617354
_cell_formula_units_Z   1
loop_
 _symmetry_equiv_pos_site_id
 _symmetry_equiv_pos_as_xyz
  1  'x, y, z'
loop_
 _atom_site_type_symbol
 _atom_site_label
 _atom_site_symmetry_multiplicity
 _atom_site_fract_x
 _atom_site_fract_y
 _atom_site_fract_z
 _atom_site_occupancy
  Ca  Ca0  1  0.640845  0.249213  0.247783  1
  Ca  Ca1  1  0.362059  0.751393  0.751574  1
  Ca  Ca2  1  0.358201  0.741612  0.248940  1
  Ca  Ca3  1  0.642776  0.259857  0.750231  1
  Ca  Ca4  1  0.141728  0.394339  0.100894  1
  Ca  Ca5  1  0.860409  0.604845  0.899038  1
  Ca  Ca6  1  0.859318  0.606578  0.603614  1
  Ca  Ca7  1  0.863044  0.887379  0.396245  1
  Ca  Ca8  1  0.136096  0.390436  0.398581  1
  Ca  Ca9  1  0.135244  0.114400  0.602755  1
  Ca  Ca10  1  0.137121  0.116208  0.897288  1
  Ca  Ca11  1  0.863681  0.886230  0.102175  1
  Ge  Ge12  1  0.148387  0.095332  0.250049  1
  Ge  Ge13  1  0.853092  0.905796  0.750662  1
  Ge  Ge14  1  0.852794  0.596357  0.248100  1
  Ge  Ge15  1  0.155442  0.407750  0.748563  1
  Ge  Ge16  1  0.626656  0.259799  0.000802  1
  Ge  Ge17  1  0.374180  0.739967  0.999361  1
  Ge  Ge18  1  0.363026  0.744502  0.503638  1
  Ge  Ge19  1  0.625667  0.253049  0.502507  1
  Pd  Pd20  1  0.371745  0.029133  0.088923  1
  Pd  Pd21  1  0.627861  0.970577  0.910955  1
  Pd  Pd22  1  0.626133  0.965719  0.590442  1
  Pd  Pd23  1  0.626618  0.534300  0.408567  1
  Pd  Pd24  1  0.373867  0.029916  0.410349  1
  Rh  Rh25  1  0.373055  0.465569  0.588466  1
  Rh  Rh26  1  0.372335  0.465104  0.908674  1
  Rh  Rh27  1  0.628622  0.534640  0.090823  1
