# generated using pymatgen
data_KRbLi14Ce3O14
_symmetry_space_group_name_H-M   'P 1'
_cell_length_a   8.65059402
_cell_length_b   8.65059294
_cell_length_c   8.65059406
_cell_angle_alpha   129.22335931
_cell_angle_beta   123.66145048
_cell_angle_gamma   79.24383675
_symmetry_Int_Tables_number   1
_chemical_formula_structural   KRbLi14Ce3O14
_chemical_formula_sum   'K1 Rb1 Li14 Ce3 O14'
_cell_volume   403.70052708
_cell_formula_units_Z   1
loop_
 _symmetry_equiv_pos_site_id
 _symmetry_equiv_pos_as_xyz
  1  'x, y, z'
loop_
 _atom_site_type_symbol
 _atom_site_label
 _atom_site_symmetry_multiplicity
 _atom_site_fract_x
 _atom_site_fract_y
 _atom_site_fract_z
 _atom_site_occupancy
  K  K0  1  0.500000  0.252435  0.752435  1
  Rb  Rb1  1  0.500000  0.769528  0.269528  1
  Li  Li2  1  0.846536  0.499136  0.345672  1
  Li  Li3  1  0.153464  0.499136  0.652601  1
  Li  Li4  1  0.410994  0.768961  0.641137  1
  Li  Li5  1  0.589006  0.230141  0.357965  1
  Li  Li6  1  0.872176  0.230141  0.641137  1
  Li  Li7  1  0.127824  0.768961  0.357965  1
  Li  Li8  1  0.709643  0.586989  0.567549  1
  Li  Li9  1  0.290357  0.857905  0.877347  1
  Li  Li10  1  0.980193  0.411315  0.120535  1
  Li  Li11  1  0.019807  0.140343  0.431122  1
  Li  Li12  1  0.290780  0.411315  0.431122  1
  Li  Li13  1  0.709220  0.140343  0.120535  1
  Li  Li14  1  0.019441  0.586989  0.877347  1
  Li  Li15  1  0.980559  0.857905  0.567549  1
  Ce  Ce16  1  0.726104  0.725679  0.999575  1
  Ce  Ce17  1  0.273896  0.273471  0.999575  1
  Ce  Ce18  1  0.000000  0.999909  0.999909  1
  O  O19  1  0.750822  0.044298  0.293476  1
  O  O20  1  0.249178  0.542654  0.293476  1
  O  O21  1  0.249275  0.954809  0.705535  1
  O  O22  1  0.750725  0.456260  0.705535  1
  O  O23  1  0.000000  0.705661  0.705661  1
  O  O24  1  0.000000  0.293537  0.293537  1
  O  O25  1  0.684699  0.867328  0.816399  1
  O  O26  1  0.315301  0.131700  0.182630  1
  O  O27  1  0.949071  0.131700  0.816399  1
  O  O28  1  0.050929  0.867328  0.182630  1
  O  O29  1  0.406205  0.623952  0.779315  1
  O  O30  1  0.593795  0.373109  0.217747  1
  O  O31  1  0.155362  0.373109  0.779315  1
  O  O32  1  0.844638  0.623952  0.217747  1
