# generated using pymatgen
data_Ta2Nb4(MoRu)3
_symmetry_space_group_name_H-M   'P 1'
_cell_length_a   4.54650800
_cell_length_b   6.38086000
_cell_length_c   13.63374400
_cell_angle_alpha   90.00000000
_cell_angle_beta   90.00012605
_cell_angle_gamma   90.00000000
_symmetry_Int_Tables_number   1
_chemical_formula_structural   Ta2Nb4(MoRu)3
_chemical_formula_sum   'Ta4 Nb8 Mo6 Ru6'
_cell_volume   395.52351683
_cell_formula_units_Z   2
loop_
 _symmetry_equiv_pos_site_id
 _symmetry_equiv_pos_as_xyz
  1  'x, y, z'
loop_
 _atom_site_type_symbol
 _atom_site_label
 _atom_site_symmetry_multiplicity
 _atom_site_fract_x
 _atom_site_fract_y
 _atom_site_fract_z
 _atom_site_occupancy
  Ta  Ta0  1  0.500005  0.249752  0.666726  1
  Ta  Ta1  1  0.500005  0.750249  0.666726  1
  Ta  Ta2  1  0.000013  0.250261  0.833272  1
  Ta  Ta3  1  0.000013  0.749739  0.833272  1
  Nb  Nb4  1  0.500000  0.249523  0.000044  1
  Nb  Nb5  1  0.500000  0.750477  0.000044  1
  Nb  Nb6  1  0.999984  0.250543  0.166695  1
  Nb  Nb7  1  0.999984  0.749457  0.166695  1
  Nb  Nb8  1  0.499989  0.249456  0.333306  1
  Nb  Nb9  1  0.499989  0.750545  0.333306  1
  Nb  Nb10  1  0.000001  0.250479  0.499956  1
  Nb  Nb11  1  0.000001  0.749521  0.499956  1
  Mo  Mo12  1  0.000000  0.500000  0.999819  1
  Mo  Mo13  1  0.499995  0.000000  0.166545  1
  Mo  Mo14  1  0.999984  0.500000  0.333446  1
  Mo  Mo15  1  0.500003  0.000000  0.500175  1
  Mo  Mo16  1  0.000019  0.500000  0.666678  1
  Mo  Mo17  1  0.500004  0.000000  0.833333  1
  Ru  Ru18  1  0.000002  0.000000  0.998984  1
  Ru  Ru19  1  0.500000  0.500000  0.166814  1
  Ru  Ru20  1  0.999982  0.000000  0.333184  1
  Ru  Ru21  1  0.500000  0.500000  0.501017  1
  Ru  Ru22  1  0.000013  0.000000  0.667740  1
  Ru  Ru23  1  0.500015  0.500000  0.832267  1
