# generated using pymatgen
data_Tb3Dy14Y3(Cd3Tc)2
_symmetry_space_group_name_H-M   'P 1'
_cell_length_a   9.57227700
_cell_length_b   9.57227720
_cell_length_c   9.95562600
_cell_angle_alpha   90.00000000
_cell_angle_beta   90.00000000
_cell_angle_gamma   120.00000275
_symmetry_Int_Tables_number   1
_chemical_formula_structural   Tb3Dy14Y3(Cd3Tc)2
_chemical_formula_sum   'Tb3 Dy14 Y3 Cd6 Tc2'
_cell_volume   790.00477691
_cell_formula_units_Z   1
loop_
 _symmetry_equiv_pos_site_id
 _symmetry_equiv_pos_as_xyz
  1  'x, y, z'
loop_
 _atom_site_type_symbol
 _atom_site_label
 _atom_site_symmetry_multiplicity
 _atom_site_fract_x
 _atom_site_fract_y
 _atom_site_fract_z
 _atom_site_occupancy
  Tb  Tb0  1  0.540204  0.459796  0.250000  1
  Tb  Tb1  1  0.540204  0.080408  0.250000  1
  Tb  Tb2  1  0.919592  0.459796  0.250000  1
  Dy  Dy3  1  0.000000  0.000000  0.500420  1
  Dy  Dy4  1  0.000000  0.000000  0.999580  1
  Dy  Dy5  1  0.209829  0.790171  0.440522  1
  Dy  Dy6  1  0.209829  0.419659  0.440522  1
  Dy  Dy7  1  0.580341  0.790171  0.440522  1
  Dy  Dy8  1  0.790205  0.209795  0.559632  1
  Dy  Dy9  1  0.790205  0.580410  0.559632  1
  Dy  Dy10  1  0.419590  0.209795  0.559632  1
  Dy  Dy11  1  0.790205  0.209795  0.940368  1
  Dy  Dy12  1  0.790205  0.580410  0.940368  1
  Dy  Dy13  1  0.419590  0.209795  0.940368  1
  Dy  Dy14  1  0.209829  0.790171  0.059478  1
  Dy  Dy15  1  0.209829  0.419659  0.059478  1
  Dy  Dy16  1  0.580341  0.790171  0.059478  1
  Y  Y17  1  0.460032  0.539968  0.750000  1
  Y  Y18  1  0.460032  0.920063  0.750000  1
  Y  Y19  1  0.079937  0.539968  0.750000  1
  Cd  Cd20  1  0.885702  0.114298  0.250000  1
  Cd  Cd21  1  0.885702  0.771405  0.250000  1
  Cd  Cd22  1  0.228595  0.114298  0.250000  1
  Cd  Cd23  1  0.114476  0.885524  0.750000  1
  Cd  Cd24  1  0.114476  0.228951  0.750000  1
  Cd  Cd25  1  0.771049  0.885524  0.750000  1
  Tc  Tc26  1  0.333333  0.666667  0.250000  1
  Tc  Tc27  1  0.666667  0.333333  0.750000  1
