# generated using pymatgen
data_Tm16MgCd3Ir3Pt
_symmetry_space_group_name_H-M   'P 1'
_cell_length_a   9.55198873
_cell_length_b   9.55198870
_cell_length_c   9.55198742
_cell_angle_alpha   59.76540427
_cell_angle_beta   59.76540422
_cell_angle_gamma   59.76539941
_symmetry_Int_Tables_number   1
_chemical_formula_structural   Tm16MgCd3Ir3Pt
_chemical_formula_sum   'Tm16 Mg1 Cd3 Ir3 Pt1'
_cell_volume   612.98070499
_cell_formula_units_Z   1
loop_
 _symmetry_equiv_pos_site_id
 _symmetry_equiv_pos_as_xyz
  1  'x, y, z'
loop_
 _atom_site_type_symbol
 _atom_site_label
 _atom_site_symmetry_multiplicity
 _atom_site_fract_x
 _atom_site_fract_y
 _atom_site_fract_z
 _atom_site_occupancy
  Tm  Tm0  1  0.599499  0.599499  0.599499  1
  Tm  Tm1  1  0.601144  0.601144  0.202055  1
  Tm  Tm2  1  0.601144  0.202055  0.601144  1
  Tm  Tm3  1  0.202055  0.601144  0.601144  1
  Tm  Tm4  1  0.054995  0.441517  0.441517  1
  Tm  Tm5  1  0.437159  0.061261  0.061261  1
  Tm  Tm6  1  0.441517  0.054995  0.441517  1
  Tm  Tm7  1  0.061261  0.437159  0.061261  1
  Tm  Tm8  1  0.441517  0.441517  0.054995  1
  Tm  Tm9  1  0.061261  0.061261  0.437159  1
  Tm  Tm10  1  0.188412  0.813482  0.813482  1
  Tm  Tm11  1  0.814352  0.187122  0.187122  1
  Tm  Tm12  1  0.813482  0.188412  0.813482  1
  Tm  Tm13  1  0.187122  0.814352  0.187122  1
  Tm  Tm14  1  0.813482  0.813482  0.188412  1
  Tm  Tm15  1  0.187122  0.187122  0.814352  1
  Mg  Mg16  1  0.825125  0.825125  0.825125  1
  Cd  Cd17  1  0.831619  0.831619  0.503781  1
  Cd  Cd18  1  0.831619  0.503781  0.831619  1
  Cd  Cd19  1  0.503781  0.831619  0.831619  1
  Ir  Ir20  1  0.392675  0.392675  0.824561  1
  Ir  Ir21  1  0.392675  0.824561  0.392675  1
  Ir  Ir22  1  0.824561  0.392675  0.392675  1
  Pt  Pt23  1  0.392423  0.392423  0.392423  1
