# generated using pymatgen
data_Er4OsCl4
_symmetry_space_group_name_H-M   'P 1'
_cell_length_a   8.52027866
_cell_length_b   8.52027857
_cell_length_c   6.43670652
_cell_angle_alpha   89.82016078
_cell_angle_beta   89.82016668
_cell_angle_gamma   89.34232224
_symmetry_Int_Tables_number   1
_chemical_formula_structural   Er4OsCl4
_chemical_formula_sum   'Er8 Os2 Cl8'
_cell_volume   467.23832629
_cell_formula_units_Z   2
loop_
 _symmetry_equiv_pos_site_id
 _symmetry_equiv_pos_as_xyz
  1  'x, y, z'
loop_
 _atom_site_type_symbol
 _atom_site_label
 _atom_site_symmetry_multiplicity
 _atom_site_fract_x
 _atom_site_fract_y
 _atom_site_fract_z
 _atom_site_occupancy
  Er  Er0  1  0.105042  0.742032  0.987328  1
  Er  Er1  1  0.257968  0.894958  0.512672  1
  Er  Er2  1  0.894958  0.257968  0.012672  1
  Er  Er3  1  0.742032  0.105042  0.487328  1
  Er  Er4  1  0.743449  0.896323  0.007328  1
  Er  Er5  1  0.103677  0.256551  0.492672  1
  Er  Er6  1  0.256551  0.103677  0.992672  1
  Er  Er7  1  0.896323  0.743449  0.507328  1
  Os  Os8  1  0.006441  0.993559  0.250000  1
  Os  Os9  1  0.993559  0.006441  0.750000  1
  Cl  Cl10  1  0.420878  0.820955  0.901950  1
  Cl  Cl11  1  0.179045  0.579122  0.598050  1
  Cl  Cl12  1  0.579122  0.179045  0.098050  1
  Cl  Cl13  1  0.820955  0.420878  0.401950  1
  Cl  Cl14  1  0.814060  0.582267  0.902228  1
  Cl  Cl15  1  0.417733  0.185940  0.597772  1
  Cl  Cl16  1  0.185940  0.417733  0.097772  1
  Cl  Cl17  1  0.582267  0.814060  0.402228  1
