# generated using pymatgen
data_TmLu2Sc5Au4
_symmetry_space_group_name_H-M   'P 1'
_cell_length_a   4.71015600
_cell_length_b   6.83336451
_cell_length_c   8.50324507
_cell_angle_alpha   90.15786808
_cell_angle_beta   90.00000000
_cell_angle_gamma   90.00000000
_symmetry_Int_Tables_number   1
_chemical_formula_structural   TmLu2Sc5Au4
_chemical_formula_sum   'Tm1 Lu2 Sc5 Au4'
_cell_volume   273.68621687
_cell_formula_units_Z   1
loop_
 _symmetry_equiv_pos_site_id
 _symmetry_equiv_pos_as_xyz
  1  'x, y, z'
loop_
 _atom_site_type_symbol
 _atom_site_label
 _atom_site_symmetry_multiplicity
 _atom_site_fract_x
 _atom_site_fract_y
 _atom_site_fract_z
 _atom_site_occupancy
  Tm  Tm0  1  0.250000  0.981053  0.317940  1
  Lu  Lu1  1  0.750000  0.518881  0.820137  1
  Lu  Lu2  1  0.750000  0.018941  0.680962  1
  Sc  Sc3  1  0.250000  0.851106  0.926379  1
  Sc  Sc4  1  0.250000  0.353022  0.573905  1
  Sc  Sc5  1  0.750000  0.150943  0.075656  1
  Sc  Sc6  1  0.750000  0.644735  0.421719  1
  Sc  Sc7  1  0.250000  0.481217  0.179730  1
  Au  Au8  1  0.250000  0.253170  0.897909  1
  Au  Au9  1  0.250000  0.750973  0.605059  1
  Au  Au10  1  0.750000  0.747515  0.105015  1
  Au  Au11  1  0.750000  0.248445  0.395590  1
