# generated using pymatgen
data_La2Y2HoSn4
_symmetry_space_group_name_H-M   'P 1'
_cell_length_a   8.15050300
_cell_length_b   8.32837200
_cell_length_c   15.71304600
_cell_angle_alpha   90.00000000
_cell_angle_beta   90.00000000
_cell_angle_gamma   90.00000000
_symmetry_Int_Tables_number   1
_chemical_formula_structural   La2Y2HoSn4
_chemical_formula_sum   'La8 Y8 Ho4 Sn16'
_cell_volume   1066.60817722
_cell_formula_units_Z   4
loop_
 _symmetry_equiv_pos_site_id
 _symmetry_equiv_pos_as_xyz
  1  'x, y, z'
loop_
 _atom_site_type_symbol
 _atom_site_label
 _atom_site_symmetry_multiplicity
 _atom_site_fract_x
 _atom_site_fract_y
 _atom_site_fract_z
 _atom_site_occupancy
  La  La0  1  0.506571  0.322364  0.903845  1
  La  La1  1  0.006571  0.177636  0.596155  1
  La  La2  1  0.493429  0.677636  0.403845  1
  La  La3  1  0.993429  0.822364  0.096155  1
  La  La4  1  0.493500  0.678161  0.096178  1
  La  La5  1  0.993500  0.821839  0.403822  1
  La  La6  1  0.506500  0.321839  0.596178  1
  La  La7  1  0.006500  0.178161  0.903822  1
  Y  Y8  1  0.651820  0.165800  0.124112  1
  Y  Y9  1  0.151820  0.334200  0.375888  1
  Y  Y10  1  0.348180  0.834200  0.624112  1
  Y  Y11  1  0.848180  0.665800  0.875888  1
  Y  Y12  1  0.181323  0.500997  0.749748  1
  Y  Y13  1  0.681323  0.999003  0.750252  1
  Y  Y14  1  0.818677  0.499003  0.249748  1
  Y  Y15  1  0.318677  0.000997  0.250252  1
  Ho  Ho16  1  0.348762  0.834022  0.875896  1
  Ho  Ho17  1  0.848762  0.665978  0.624104  1
  Ho  Ho18  1  0.651238  0.165978  0.375896  1
  Ho  Ho19  1  0.151238  0.334022  0.124104  1
  Sn  Sn20  1  0.314566  0.041194  0.041588  1
  Sn  Sn21  1  0.814566  0.458806  0.458412  1
  Sn  Sn22  1  0.685434  0.958806  0.541588  1
  Sn  Sn23  1  0.185434  0.541194  0.958412  1
  Sn  Sn24  1  0.685277  0.959141  0.958438  1
  Sn  Sn25  1  0.185277  0.540859  0.541562  1
  Sn  Sn26  1  0.314723  0.040859  0.458438  1
  Sn  Sn27  1  0.814723  0.459141  0.041562  1
  Sn  Sn28  1  0.546504  0.623280  0.750051  1
  Sn  Sn29  1  0.046504  0.876720  0.749949  1
  Sn  Sn30  1  0.453496  0.376720  0.250051  1
  Sn  Sn31  1  0.953496  0.123280  0.249949  1
  Sn  Sn32  1  0.312791  0.141537  0.750241  1
  Sn  Sn33  1  0.812791  0.358463  0.749759  1
  Sn  Sn34  1  0.687209  0.858463  0.250241  1
  Sn  Sn35  1  0.187209  0.641537  0.249759  1
