# generated using pymatgen
data_Tm7LuSi16(MoW3)3
_symmetry_space_group_name_H-M   'P 1'
_cell_length_a   6.72244979
_cell_length_b   6.90597392
_cell_length_c   12.84823117
_cell_angle_alpha   89.95776408
_cell_angle_beta   90.02862298
_cell_angle_gamma   90.04264412
_symmetry_Int_Tables_number   1
_chemical_formula_structural   Tm7LuSi16(MoW3)3
_chemical_formula_sum   'Tm7 Lu1 Si16 Mo3 W9'
_cell_volume   596.47953912
_cell_formula_units_Z   1
loop_
 _symmetry_equiv_pos_site_id
 _symmetry_equiv_pos_as_xyz
  1  'x, y, z'
loop_
 _atom_site_type_symbol
 _atom_site_label
 _atom_site_symmetry_multiplicity
 _atom_site_fract_x
 _atom_site_fract_y
 _atom_site_fract_z
 _atom_site_occupancy
  Tm  Tm0  1  0.496459  0.331944  0.093453  1
  Tm  Tm1  1  0.995939  0.168112  0.406597  1
  Tm  Tm2  1  0.503662  0.668201  0.593362  1
  Tm  Tm3  1  0.003656  0.832048  0.906473  1
  Tm  Tm4  1  0.503044  0.668092  0.906615  1
  Tm  Tm5  1  0.003161  0.831641  0.593126  1
  Tm  Tm6  1  0.496135  0.332100  0.406619  1
  Lu  Lu7  1  0.996657  0.168613  0.093539  1
  Si  Si8  1  0.661329  0.040450  0.546557  1
  Si  Si9  1  0.160457  0.459316  0.953261  1
  Si  Si10  1  0.338475  0.960186  0.047005  1
  Si  Si11  1  0.838219  0.540347  0.453700  1
  Si  Si12  1  0.337361  0.959644  0.453408  1
  Si  Si13  1  0.839024  0.540196  0.047163  1
  Si  Si14  1  0.662025  0.040776  0.953066  1
  Si  Si15  1  0.162583  0.458928  0.546709  1
  Si  Si16  1  0.534391  0.371074  0.749495  1
  Si  Si17  1  0.034299  0.129049  0.750864  1
  Si  Si18  1  0.466346  0.628544  0.249262  1
  Si  Si19  1  0.965310  0.871960  0.249804  1
  Si  Si20  1  0.801665  0.634110  0.750419  1
  Si  Si21  1  0.301447  0.865793  0.749601  1
  Si  Si22  1  0.198402  0.364748  0.249941  1
  Si  Si23  1  0.698723  0.134475  0.249655  1
  Mo  Mo24  1  0.671032  0.836147  0.124333  1
  Mo  Mo25  1  0.829125  0.336616  0.876271  1
  Mo  Mo26  1  0.329581  0.163336  0.624339  1
  W  W27  1  0.831545  0.335112  0.626278  1
  W  W28  1  0.331523  0.164845  0.874170  1
  W  W29  1  0.169474  0.664090  0.125180  1
  W  W30  1  0.668415  0.835675  0.374060  1
  W  W31  1  0.170250  0.663377  0.374949  1
  W  W32  1  0.665742  0.998188  0.749916  1
  W  W33  1  0.166078  0.501932  0.749668  1
  W  W34  1  0.333715  0.001952  0.250321  1
  W  W35  1  0.834753  0.498385  0.250822  1
