# generated using pymatgen
data_Y3Er(Ga8Pd3)3
_symmetry_space_group_name_H-M   'P 1'
_cell_length_a   7.51053387
_cell_length_b   7.57640020
_cell_length_c   13.44662133
_cell_angle_alpha   84.88525066
_cell_angle_beta   79.85382981
_cell_angle_gamma   60.26749283
_symmetry_Int_Tables_number   1
_chemical_formula_structural   Y3Er(Ga8Pd3)3
_chemical_formula_sum   'Y3 Er1 Ga24 Pd9'
_cell_volume   654.02677731
_cell_formula_units_Z   1
loop_
 _symmetry_equiv_pos_site_id
 _symmetry_equiv_pos_as_xyz
  1  'x, y, z'
loop_
 _atom_site_type_symbol
 _atom_site_label
 _atom_site_symmetry_multiplicity
 _atom_site_fract_x
 _atom_site_fract_y
 _atom_site_fract_z
 _atom_site_occupancy
  Y  Y0  1  0.394055  0.168758  0.811392  1
  Y  Y1  1  0.605893  0.831321  0.188786  1
  Y  Y2  1  0.731932  0.496927  0.811471  1
  Er  Er3  1  0.267526  0.503010  0.189132  1
  Ga  Ga4  1  0.686801  0.833506  0.939862  1
  Ga  Ga5  1  0.313397  0.167390  0.061043  1
  Ga  Ga6  1  0.144356  0.834981  0.558062  1
  Ga  Ga7  1  0.855801  0.164995  0.441481  1
  Ga  Ga8  1  0.478078  0.167178  0.556040  1
  Ga  Ga9  1  0.522024  0.832799  0.443630  1
  Ga  Ga10  1  0.220385  0.165433  0.325222  1
  Ga  Ga11  1  0.779927  0.834931  0.673899  1
  Ga  Ga12  1  0.436380  0.504381  0.673120  1
  Ga  Ga13  1  0.563343  0.495669  0.325981  1
  Ga  Ga14  1  0.107482  0.162096  0.672245  1
  Ga  Ga15  1  0.893262  0.837340  0.326904  1
  Ga  Ga16  1  0.355266  0.499496  0.941365  1
  Ga  Ga17  1  0.642813  0.500853  0.060227  1
  Ga  Ga18  1  0.018844  0.167554  0.946131  1
  Ga  Ga19  1  0.981611  0.831413  0.055018  1
  Ga  Ga20  1  0.187614  0.499895  0.442796  1
  Ga  Ga21  1  0.812699  0.500067  0.556712  1
  Ga  Ga22  1  0.733155  0.165118  0.182518  1
  Ga  Ga23  1  0.265888  0.836127  0.817544  1
  Ga  Ga24  1  0.061253  0.630109  0.816638  1
  Ga  Ga25  1  0.940167  0.369441  0.183389  1
  Ga  Ga26  1  0.856869  0.040022  0.816593  1
  Ga  Ga27  1  0.142907  0.958861  0.183369  1
  Pd  Pd28  1  0.116600  0.496428  0.638143  1
  Pd  Pd29  1  0.883506  0.503643  0.361450  1
  Pd  Pd30  1  0.660404  0.169121  0.999218  1
  Pd  Pd31  1  0.339854  0.831111  0.001145  1
  Pd  Pd32  1  0.542225  0.167016  0.360690  1
  Pd  Pd33  1  0.457846  0.832961  0.638927  1
  Pd  Pd34  1  0.778458  0.172199  0.637559  1
  Pd  Pd35  1  0.221761  0.827790  0.362017  1
  Pd  Pd36  1  0.999620  0.500056  0.000280  1
