# generated using pymatgen
data_Fe12W12CN
_symmetry_space_group_name_H-M   'P 1'
_cell_length_a   7.72433446
_cell_length_b   7.72433481
_cell_length_c   7.72433400
_cell_angle_alpha   60.00000349
_cell_angle_beta   60.00000196
_cell_angle_gamma   59.99999789
_symmetry_Int_Tables_number   1
_chemical_formula_structural   Fe12W12CN
_chemical_formula_sum   'Fe12 W12 C1 N1'
_cell_volume   325.88788658
_cell_formula_units_Z   1
loop_
 _symmetry_equiv_pos_site_id
 _symmetry_equiv_pos_as_xyz
  1  'x, y, z'
loop_
 _atom_site_type_symbol
 _atom_site_label
 _atom_site_symmetry_multiplicity
 _atom_site_fract_x
 _atom_site_fract_y
 _atom_site_fract_z
 _atom_site_occupancy
  Fe  Fe0  1  0.920783  0.237652  0.920783  1
  Fe  Fe1  1  0.329363  0.011909  0.329363  1
  Fe  Fe2  1  0.329363  0.329363  0.329363  1
  Fe  Fe3  1  0.011909  0.329363  0.329363  1
  Fe  Fe4  1  0.920783  0.920783  0.237652  1
  Fe  Fe5  1  0.237652  0.920783  0.920783  1
  Fe  Fe6  1  0.329363  0.329363  0.011909  1
  Fe  Fe7  1  0.124980  0.124980  0.625061  1
  Fe  Fe8  1  0.920783  0.920783  0.920783  1
  Fe  Fe9  1  0.124980  0.625061  0.124980  1
  Fe  Fe10  1  0.124980  0.124980  0.124980  1
  Fe  Fe11  1  0.625061  0.124980  0.124980  1
  W  W12  1  0.302135  0.697865  0.697865  1
  W  W13  1  0.302135  0.302135  0.697865  1
  W  W14  1  0.551274  0.948726  0.551274  1
  W  W15  1  0.948726  0.551274  0.551274  1
  W  W16  1  0.551274  0.948726  0.948726  1
  W  W17  1  0.697865  0.302135  0.302135  1
  W  W18  1  0.948726  0.551274  0.948726  1
  W  W19  1  0.302135  0.697865  0.302135  1
  W  W20  1  0.551274  0.551274  0.948726  1
  W  W21  1  0.697865  0.302135  0.697865  1
  W  W22  1  0.697865  0.697865  0.302135  1
  W  W23  1  0.948726  0.948726  0.551274  1
  C  C24  1  0.500000  0.500000  0.500000  1
  N  N25  1  0.750000  0.750000  0.750000  1
