# generated using pymatgen
data_Ho5Er5(InSb2)2
_symmetry_space_group_name_H-M   'P 1'
_cell_length_a   8.91811323
_cell_length_b   8.91665221
_cell_length_c   6.40191000
_cell_angle_alpha   90.00000000
_cell_angle_beta   90.00000000
_cell_angle_gamma   119.96740148
_symmetry_Int_Tables_number   1
_chemical_formula_structural   Ho5Er5(InSb2)2
_chemical_formula_sum   'Ho5 Er5 In2 Sb4'
_cell_volume   441.01927491
_cell_formula_units_Z   1
loop_
 _symmetry_equiv_pos_site_id
 _symmetry_equiv_pos_as_xyz
  1  'x, y, z'
loop_
 _atom_site_type_symbol
 _atom_site_label
 _atom_site_symmetry_multiplicity
 _atom_site_fract_x
 _atom_site_fract_y
 _atom_site_fract_z
 _atom_site_occupancy
  Ho  Ho0  1  0.002286  0.760594  0.750000  1
  Ho  Ho1  1  0.002340  0.241771  0.250000  1
  Ho  Ho2  1  0.758384  0.759721  0.250000  1
  Ho  Ho3  1  0.758483  0.998676  0.750000  1
  Ho  Ho4  1  0.240629  0.003510  0.250000  1
  Er  Er5  1  0.240769  0.237194  0.750000  1
  Er  Er6  1  0.334520  0.667236  0.500034  1
  Er  Er7  1  0.663286  0.331650  0.999965  1
  Er  Er8  1  0.663286  0.331650  0.500035  1
  Er  Er9  1  0.334520  0.667236  0.999966  1
  In  In10  1  0.395039  0.998572  0.750000  1
  In  In11  1  0.395179  0.396828  0.250000  1
  Sb  Sb12  1  0.999087  0.607085  0.250000  1
  Sb  Sb13  1  0.999269  0.391853  0.750000  1
  Sb  Sb14  1  0.606367  0.606040  0.750000  1
  Sb  Sb15  1  0.606554  0.000384  0.250000  1
