# generated using pymatgen
data_Lu2Mg(B3Ir4)2
_symmetry_space_group_name_H-M   'P 1'
_cell_length_a   9.94605026
_cell_length_b   9.11501881
_cell_length_c   5.57878900
_cell_angle_alpha   81.35750174
_cell_angle_beta   64.96374198
_cell_angle_gamma   33.67875983
_symmetry_Int_Tables_number   1
_chemical_formula_structural   Lu2Mg(B3Ir4)2
_chemical_formula_sum   'Lu2 Mg1 B6 Ir8'
_cell_volume   232.69358038
_cell_formula_units_Z   1
loop_
 _symmetry_equiv_pos_site_id
 _symmetry_equiv_pos_as_xyz
  1  'x, y, z'
loop_
 _atom_site_type_symbol
 _atom_site_label
 _atom_site_symmetry_multiplicity
 _atom_site_fract_x
 _atom_site_fract_y
 _atom_site_fract_z
 _atom_site_occupancy
  Lu  Lu0  1  0.321834  0.321834  0.678166  1
  Lu  Lu1  1  0.504511  0.504511  0.495489  1
  Mg  Mg2  1  0.682522  0.682522  0.317478  1
  B  B3  1  0.673844  0.974806  0.025194  1
  B  B4  1  0.974806  0.673844  0.326156  1
  B  B5  1  0.323443  0.023980  0.976020  1
  B  B6  1  0.023980  0.323443  0.676557  1
  B  B7  1  0.169689  0.829390  0.170610  1
  B  B8  1  0.829390  0.169689  0.830311  1
  Ir  Ir9  1  0.586052  0.586052  0.913948  1
  Ir  Ir10  1  0.913512  0.913512  0.086488  1
  Ir  Ir11  1  0.413998  0.413998  0.086002  1
  Ir  Ir12  1  0.086052  0.086052  0.413948  1
  Ir  Ir13  1  0.913998  0.913998  0.586002  1
  Ir  Ir14  1  0.248491  0.248491  0.251509  1
  Ir  Ir15  1  0.085388  0.085388  0.914612  1
  Ir  Ir16  1  0.748491  0.748491  0.751509  1
