# generated using pymatgen
data_Ho5(Hg2Ir)2
_symmetry_space_group_name_H-M   'P 1'
_cell_length_a   3.68394400
_cell_length_b   7.85555400
_cell_length_c   17.91800600
_cell_angle_alpha   90.00000000
_cell_angle_beta   90.00000000
_cell_angle_gamma   90.00000000
_symmetry_Int_Tables_number   1
_chemical_formula_structural   Ho5(Hg2Ir)2
_chemical_formula_sum   'Ho10 Hg8 Ir4'
_cell_volume   518.53671956
_cell_formula_units_Z   2
loop_
 _symmetry_equiv_pos_site_id
 _symmetry_equiv_pos_as_xyz
  1  'x, y, z'
loop_
 _atom_site_type_symbol
 _atom_site_label
 _atom_site_symmetry_multiplicity
 _atom_site_fract_x
 _atom_site_fract_y
 _atom_site_fract_z
 _atom_site_occupancy
  Ho  Ho0  1  0.000000  0.111978  0.411401  1
  Ho  Ho1  1  0.000000  0.888022  0.588599  1
  Ho  Ho2  1  0.000000  0.388022  0.911401  1
  Ho  Ho3  1  0.000000  0.611978  0.088599  1
  Ho  Ho4  1  0.000000  0.243223  0.218874  1
  Ho  Ho5  1  0.000000  0.756777  0.781126  1
  Ho  Ho6  1  0.000000  0.256777  0.718874  1
  Ho  Ho7  1  0.000000  0.743223  0.281126  1
  Ho  Ho8  1  0.000000  0.000000  0.000000  1
  Ho  Ho9  1  0.000000  0.500000  0.500000  1
  Hg  Hg10  1  0.500000  0.421513  0.354845  1
  Hg  Hg11  1  0.500000  0.578487  0.645155  1
  Hg  Hg12  1  0.500000  0.078487  0.854845  1
  Hg  Hg13  1  0.500000  0.921513  0.145155  1
  Hg  Hg14  1  0.500000  0.289498  0.062617  1
  Hg  Hg15  1  0.500000  0.710502  0.937383  1
  Hg  Hg16  1  0.500000  0.210502  0.562617  1
  Hg  Hg17  1  0.500000  0.789498  0.437383  1
  Ir  Ir18  1  0.500000  0.025609  0.302793  1
  Ir  Ir19  1  0.500000  0.974391  0.697207  1
  Ir  Ir20  1  0.500000  0.474391  0.802793  1
  Ir  Ir21  1  0.500000  0.525609  0.197207  1
