# generated using pymatgen
data_CsSrY2(SbAu)4
_symmetry_space_group_name_H-M   'P 1'
_cell_length_a   4.63141900
_cell_length_b   4.63141931
_cell_length_c   18.80288000
_cell_angle_alpha   90.00000000
_cell_angle_beta   90.00000000
_cell_angle_gamma   120.00001922
_symmetry_Int_Tables_number   1
_chemical_formula_structural   CsSrY2(SbAu)4
_chemical_formula_sum   'Cs1 Sr1 Y2 Sb4 Au4'
_cell_volume   349.28754270
_cell_formula_units_Z   1
loop_
 _symmetry_equiv_pos_site_id
 _symmetry_equiv_pos_as_xyz
  1  'x, y, z'
loop_
 _atom_site_type_symbol
 _atom_site_label
 _atom_site_symmetry_multiplicity
 _atom_site_fract_x
 _atom_site_fract_y
 _atom_site_fract_z
 _atom_site_occupancy
  Cs  Cs0  1  0.000000  0.000000  0.000000  1
  Sr  Sr1  1  0.000000  0.000000  0.500000  1
  Y  Y2  1  0.000000  0.000000  0.262838  1
  Y  Y3  1  0.000000  0.000000  0.737162  1
  Sb  Sb4  1  0.333333  0.666667  0.385615  1
  Sb  Sb5  1  0.666667  0.333333  0.614385  1
  Sb  Sb6  1  0.666667  0.333333  0.850850  1
  Sb  Sb7  1  0.333333  0.666667  0.149150  1
  Au  Au8  1  0.666667  0.333333  0.349742  1
  Au  Au9  1  0.333333  0.666667  0.650258  1
  Au  Au10  1  0.333333  0.666667  0.815326  1
  Au  Au11  1  0.666667  0.333333  0.184674  1
