# generated using pymatgen
data_LaPrCo17Si8Os
_symmetry_space_group_name_H-M   'P 1'
_cell_length_a   7.98129997
_cell_length_b   8.03186556
_cell_length_c   8.00265810
_cell_angle_alpha   121.86606557
_cell_angle_beta   121.66020220
_cell_angle_gamma   86.99408007
_symmetry_Int_Tables_number   1
_chemical_formula_structural   LaPrCo17Si8Os
_chemical_formula_sum   'La1 Pr1 Co17 Si8 Os1'
_cell_volume   352.48437186
_cell_formula_units_Z   1
loop_
 _symmetry_equiv_pos_site_id
 _symmetry_equiv_pos_as_xyz
  1  'x, y, z'
loop_
 _atom_site_type_symbol
 _atom_site_label
 _atom_site_symmetry_multiplicity
 _atom_site_fract_x
 _atom_site_fract_y
 _atom_site_fract_z
 _atom_site_occupancy
  La  La0  1  0.749767  0.750723  0.000757  1
  Pr  Pr1  1  0.248828  0.249857  0.998946  1
  Co  Co2  1  0.447713  0.949786  0.757985  1
  Co  Co3  1  0.189858  0.691642  0.242100  1
  Co  Co4  1  0.547871  0.043751  0.237170  1
  Co  Co5  1  0.947571  0.191962  0.500156  1
  Co  Co6  1  0.198691  0.929012  0.129285  1
  Co  Co7  1  0.800331  0.069674  0.870123  1
  Co  Co8  1  0.430028  0.699174  0.129917  1
  Co  Co9  1  0.569222  0.299286  0.870698  1
  Co  Co10  1  0.701055  0.572728  0.264503  1
  Co  Co11  1  0.299878  0.430162  0.731873  1
  Co  Co12  1  0.936818  0.808433  0.735427  1
  Co  Co13  1  0.311367  0.549795  0.499847  1
  Co  Co14  1  0.810915  0.306433  0.762867  1
  Co  Co15  1  0.002870  0.502484  0.500048  1
  Co  Co16  1  0.500094  0.000609  0.500128  1
  Co  Co17  1  0.068258  0.198571  0.268090  1
  Co  Co18  1  0.052091  0.810769  0.500173  1
  Si  Si19  1  0.290012  0.789339  0.834666  1
  Si  Si20  1  0.053429  0.546239  0.842115  1
  Si  Si21  1  0.541414  0.716432  0.499706  1
  Si  Si22  1  0.790658  0.953729  0.500637  1
  Si  Si23  1  0.444427  0.284392  0.499765  1
  Si  Si24  1  0.955563  0.453955  0.165029  1
  Si  Si25  1  0.710861  0.204709  0.157695  1
  Si  Si26  1  0.210228  0.047313  0.500673  1
  Os  Os27  1  0.690185  0.449044  0.499621  1
