# generated using pymatgen
data_Cs2VCoSe4
_symmetry_space_group_name_H-M   'P 1'
_cell_length_a   14.86695336
_cell_length_b   13.24630211
_cell_length_c   7.85817286
_cell_angle_alpha   85.53996521
_cell_angle_beta   62.65934762
_cell_angle_gamma   31.80067941
_symmetry_Int_Tables_number   1
_chemical_formula_structural   Cs2VCoSe4
_chemical_formula_sum   'Cs4 V2 Co2 Se8'
_cell_volume   539.23196923
_cell_formula_units_Z   2
loop_
 _symmetry_equiv_pos_site_id
 _symmetry_equiv_pos_as_xyz
  1  'x, y, z'
loop_
 _atom_site_type_symbol
 _atom_site_label
 _atom_site_symmetry_multiplicity
 _atom_site_fract_x
 _atom_site_fract_y
 _atom_site_fract_z
 _atom_site_occupancy
  Cs  Cs0  1  0.572442  0.572442  0.927558  1
  Cs  Cs1  1  0.927558  0.927558  0.572442  1
  Cs  Cs2  1  0.322442  0.322442  0.677558  1
  Cs  Cs3  1  0.677558  0.677558  0.322442  1
  V  V4  1  0.750000  0.750000  0.750000  1
  V  V5  1  0.500000  0.500000  0.500000  1
  Co  Co6  1  0.000000  0.000000  0.000000  1
  Co  Co7  1  0.250000  0.250000  0.250000  1
  Se  Se8  1  0.215841  0.886156  0.604287  1
  Se  Se9  1  0.293717  0.604287  0.886156  1
  Se  Se10  1  0.604287  0.293717  0.215841  1
  Se  Se11  1  0.886156  0.215841  0.293717  1
  Se  Se12  1  0.363844  0.034159  0.956283  1
  Se  Se13  1  0.956283  0.645713  0.363844  1
  Se  Se14  1  0.645713  0.956283  0.034159  1
  Se  Se15  1  0.034159  0.363844  0.645713  1
