# generated using pymatgen
data_Sc3NbZn2(Co5B2)2
_symmetry_space_group_name_H-M   'P 1'
_cell_length_a   8.71487798
_cell_length_b   8.71487798
_cell_length_c   2.97253300
_cell_angle_alpha   90.00000000
_cell_angle_beta   90.00000000
_cell_angle_gamma   89.66168998
_symmetry_Int_Tables_number   1
_chemical_formula_structural   Sc3NbZn2(Co5B2)2
_chemical_formula_sum   'Sc3 Nb1 Zn2 Co10 B4'
_cell_volume   225.75726522
_cell_formula_units_Z   1
loop_
 _symmetry_equiv_pos_site_id
 _symmetry_equiv_pos_as_xyz
  1  'x, y, z'
loop_
 _atom_site_type_symbol
 _atom_site_label
 _atom_site_symmetry_multiplicity
 _atom_site_fract_x
 _atom_site_fract_y
 _atom_site_fract_z
 _atom_site_occupancy
  Sc  Sc0  1  0.675787  0.176477  0.000000  1
  Sc  Sc1  1  0.323523  0.824213  0.000000  1
  Sc  Sc2  1  0.176845  0.323155  0.000000  1
  Nb  Nb3  1  0.824178  0.675822  0.000000  1
  Zn  Zn4  1  0.000498  0.001354  0.000000  1
  Zn  Zn5  1  0.498646  0.499502  0.000000  1
  Co  Co6  1  0.501636  0.998364  0.500000  1
  Co  Co7  1  0.996928  0.503072  0.500000  1
  Co  Co8  1  0.223860  0.068365  0.500000  1
  Co  Co9  1  0.780243  0.923417  0.500000  1
  Co  Co10  1  0.060373  0.775725  0.500000  1
  Co  Co11  1  0.724275  0.439627  0.500000  1
  Co  Co12  1  0.930212  0.224913  0.500000  1
  Co  Co13  1  0.275087  0.569788  0.500000  1
  Co  Co14  1  0.576583  0.719757  0.500000  1
  Co  Co15  1  0.431635  0.276140  0.500000  1
  B  B16  1  0.119928  0.621384  0.000000  1
  B  B17  1  0.878616  0.380072  0.000000  1
  B  B18  1  0.621459  0.878541  0.000000  1
  B  B19  1  0.379687  0.120313  0.000000  1
