# generated using pymatgen
data_Er6Lu2Si12IrRh3
_symmetry_space_group_name_H-M   'P 1'
_cell_length_a   8.13096900
_cell_length_b   8.13800267
_cell_length_c   7.78681904
_cell_angle_alpha   89.98935567
_cell_angle_beta   90.00000000
_cell_angle_gamma   119.97141737
_symmetry_Int_Tables_number   1
_chemical_formula_structural   Er6Lu2Si12IrRh3
_chemical_formula_sum   'Er6 Lu2 Si12 Ir1 Rh3'
_cell_volume   446.35031949
_cell_formula_units_Z   1
loop_
 _symmetry_equiv_pos_site_id
 _symmetry_equiv_pos_as_xyz
  1  'x, y, z'
loop_
 _atom_site_type_symbol
 _atom_site_label
 _atom_site_symmetry_multiplicity
 _atom_site_fract_x
 _atom_site_fract_y
 _atom_site_fract_z
 _atom_site_occupancy
  Er  Er0  1  0.490097  0.980194  0.750259  1
  Er  Er1  1  0.019872  0.510006  0.750288  1
  Er  Er2  1  0.490135  0.510006  0.750288  1
  Er  Er3  1  0.510155  0.020311  0.249912  1
  Er  Er4  1  0.000126  0.000252  0.749580  1
  Er  Er5  1  0.999906  0.999812  0.251394  1
  Lu  Lu6  1  0.981227  0.490687  0.249678  1
  Lu  Lu7  1  0.509459  0.490687  0.249678  1
  Si  Si8  1  0.167268  0.832699  0.499193  1
  Si  Si9  1  0.166975  0.333949  0.499030  1
  Si  Si10  1  0.665431  0.832699  0.499193  1
  Si  Si11  1  0.334237  0.167140  0.999815  1
  Si  Si12  1  0.833105  0.666210  0.498533  1
  Si  Si13  1  0.832902  0.167140  0.999815  1
  Si  Si14  1  0.833059  0.666118  0.001093  1
  Si  Si15  1  0.166197  0.332394  0.002499  1
  Si  Si16  1  0.666635  0.833331  0.002454  1
  Si  Si17  1  0.334010  0.167063  0.499714  1
  Si  Si18  1  0.833053  0.167063  0.499714  1
  Si  Si19  1  0.166697  0.833331  0.002454  1
  Ir  Ir20  1  0.332552  0.665104  0.035636  1
  Rh  Rh21  1  0.667107  0.334214  0.968341  1
  Rh  Rh22  1  0.667108  0.334215  0.533430  1
  Rh  Rh23  1  0.332687  0.665374  0.458014  1
