# generated using pymatgen
data_SrTb8Pr3Se16
_symmetry_space_group_name_H-M   'P 1'
_cell_length_a   4.09082900
_cell_length_b   13.71741101
_cell_length_c   13.81867900
_cell_angle_alpha   89.99808700
_cell_angle_beta   90.00000000
_cell_angle_gamma   90.00000000
_symmetry_Int_Tables_number   1
_chemical_formula_structural   SrTb8Pr3Se16
_chemical_formula_sum   'Sr1 Tb8 Pr3 Se16'
_cell_volume   775.44322456
_cell_formula_units_Z   1
loop_
 _symmetry_equiv_pos_site_id
 _symmetry_equiv_pos_as_xyz
  1  'x, y, z'
loop_
 _atom_site_type_symbol
 _atom_site_label
 _atom_site_symmetry_multiplicity
 _atom_site_fract_x
 _atom_site_fract_y
 _atom_site_fract_z
 _atom_site_occupancy
  Sr  Sr0  1  0.250000  0.369885  0.590676  1
  Tb  Tb1  1  0.250000  0.107010  0.424312  1
  Tb  Tb2  1  0.250000  0.610152  0.072004  1
  Tb  Tb3  1  0.750000  0.889610  0.572488  1
  Tb  Tb4  1  0.750000  0.390429  0.927044  1
  Tb  Tb5  1  0.250000  0.147895  0.798535  1
  Tb  Tb6  1  0.250000  0.653374  0.703045  1
  Tb  Tb7  1  0.750000  0.848571  0.202455  1
  Tb  Tb8  1  0.750000  0.352357  0.298036  1
  Pr  Pr9  1  0.250000  0.870098  0.911848  1
  Pr  Pr10  1  0.750000  0.628584  0.412889  1
  Pr  Pr11  1  0.750000  0.130888  0.090477  1
  Se  Se12  1  0.250000  0.211852  0.237746  1
  Se  Se13  1  0.250000  0.712941  0.261459  1
  Se  Se14  1  0.750000  0.789627  0.761985  1
  Se  Se15  1  0.750000  0.284475  0.743849  1
  Se  Se16  1  0.250000  0.251854  0.980966  1
  Se  Se17  1  0.250000  0.754772  0.519882  1
  Se  Se18  1  0.750000  0.747220  0.019962  1
  Se  Se19  1  0.750000  0.242958  0.475455  1
  Se  Se20  1  0.250000  0.469509  0.380499  1
  Se  Se21  1  0.250000  0.967346  0.114362  1
  Se  Se22  1  0.750000  0.538194  0.615685  1
  Se  Se23  1  0.750000  0.031833  0.888223  1
  Se  Se24  1  0.250000  0.030125  0.622384  1
  Se  Se25  1  0.250000  0.528442  0.876228  1
  Se  Se26  1  0.750000  0.969171  0.375375  1
  Se  Se27  1  0.750000  0.470829  0.122128  1
