# generated using pymatgen
data_ReNi4
_symmetry_space_group_name_H-M   'P 1'
_cell_length_a   4.39682819
_cell_length_b   4.39682801
_cell_length_c   4.39682736
_cell_angle_alpha   99.49854605
_cell_angle_beta   99.49853673
_cell_angle_gamma   132.06360237
_symmetry_Int_Tables_number   1
_chemical_formula_structural   ReNi4
_chemical_formula_sum   'Re1 Ni4'
_cell_volume   57.66265662
_cell_formula_units_Z   1
loop_
 _symmetry_equiv_pos_site_id
 _symmetry_equiv_pos_as_xyz
  1  'x, y, z'
loop_
 _atom_site_type_symbol
 _atom_site_label
 _atom_site_symmetry_multiplicity
 _atom_site_fract_x
 _atom_site_fract_y
 _atom_site_fract_z
 _atom_site_occupancy
  Re  Re0  1  0.000000  0.000000  0.000000  1
  Ni  Ni1  1  0.202145  0.601976  0.804122  1
  Ni  Ni2  1  0.601976  0.797855  0.399832  1
  Ni  Ni3  1  0.398024  0.202145  0.600168  1
  Ni  Ni4  1  0.797855  0.398024  0.195878  1
