# generated using pymatgen
data_Ho4Ti2Ga2Ir3Pt
_symmetry_space_group_name_H-M   'P 1'
_cell_length_a   4.37916700
_cell_length_b   6.91311339
_cell_length_c   7.85778339
_cell_angle_alpha   92.17714228
_cell_angle_beta   90.00000000
_cell_angle_gamma   90.00000000
_symmetry_Int_Tables_number   1
_chemical_formula_structural   Ho4Ti2Ga2Ir3Pt
_chemical_formula_sum   'Ho4 Ti2 Ga2 Ir3 Pt1'
_cell_volume   237.71228787
_cell_formula_units_Z   1
loop_
 _symmetry_equiv_pos_site_id
 _symmetry_equiv_pos_as_xyz
  1  'x, y, z'
loop_
 _atom_site_type_symbol
 _atom_site_label
 _atom_site_symmetry_multiplicity
 _atom_site_fract_x
 _atom_site_fract_y
 _atom_site_fract_z
 _atom_site_occupancy
  Ho  Ho0  1  0.250000  0.024193  0.824795  1
  Ho  Ho1  1  0.250000  0.521957  0.695260  1
  Ho  Ho2  1  0.750000  0.982349  0.175128  1
  Ho  Ho3  1  0.750000  0.476288  0.302976  1
  Ti  Ti4  1  0.250000  0.137074  0.425698  1
  Ti  Ti5  1  0.750000  0.865765  0.568072  1
  Ga  Ga6  1  0.250000  0.657659  0.077729  1
  Ga  Ga7  1  0.750000  0.337304  0.926856  1
  Ir  Ir8  1  0.250000  0.776381  0.405114  1
  Ir  Ir9  1  0.250000  0.272681  0.119309  1
  Ir  Ir10  1  0.750000  0.224359  0.597031  1
  Pt  Pt11  1  0.750000  0.723990  0.882032  1
