# generated using pymatgen
data_Ce2Cr4Fe3Co5P7
_symmetry_space_group_name_H-M   'P 1'
_cell_length_a   9.09456201
_cell_length_b   9.09261320
_cell_length_c   3.66620400
_cell_angle_alpha   90.00000000
_cell_angle_beta   90.00000000
_cell_angle_gamma   119.73927684
_symmetry_Int_Tables_number   1
_chemical_formula_structural   Ce2Cr4Fe3Co5P7
_chemical_formula_sum   'Ce2 Cr4 Fe3 Co5 P7'
_cell_volume   263.24053578
_cell_formula_units_Z   1
loop_
 _symmetry_equiv_pos_site_id
 _symmetry_equiv_pos_as_xyz
  1  'x, y, z'
loop_
 _atom_site_type_symbol
 _atom_site_label
 _atom_site_symmetry_multiplicity
 _atom_site_fract_x
 _atom_site_fract_y
 _atom_site_fract_z
 _atom_site_occupancy
  Ce  Ce0  1  0.997392  0.997535  0.000000  1
  Ce  Ce1  1  0.333255  0.668600  0.500000  1
  Cr  Cr2  1  0.232435  0.282277  0.500000  1
  Cr  Cr3  1  0.883259  0.435058  0.500000  1
  Cr  Cr4  1  0.550690  0.116198  0.500000  1
  Cr  Cr5  1  0.568269  0.452002  0.500000  1
  Fe  Fe6  1  0.821173  0.609237  0.000000  1
  Fe  Fe7  1  0.785830  0.179451  0.000000  1
  Fe  Fe8  1  0.392720  0.210556  0.000000  1
  Co  Co9  1  0.098541  0.395230  0.000000  1
  Co  Co10  1  0.297261  0.899426  0.000000  1
  Co  Co11  1  0.606586  0.704941  0.000000  1
  Co  Co12  1  0.050679  0.767183  0.500000  1
  Co  Co13  1  0.715645  0.947622  0.500000  1
  P  P14  1  0.069388  0.628989  0.000000  1
  P  P15  1  0.561669  0.928447  0.000000  1
  P  P16  1  0.376340  0.447508  0.000000  1
  P  P17  1  0.777731  0.732882  0.500000  1
  P  P18  1  0.950416  0.221753  0.500000  1
  P  P19  1  0.264105  0.039853  0.500000  1
  P  P20  1  0.666615  0.335255  0.000000  1
