# generated using pymatgen
data_Y5Ho11MgCo4Ag3
_symmetry_space_group_name_H-M   'P 1'
_cell_length_a   9.40142969
_cell_length_b   9.42172341
_cell_length_c   9.42172272
_cell_angle_alpha   60.13920416
_cell_angle_beta   60.07182164
_cell_angle_gamma   60.07182264
_symmetry_Int_Tables_number   1
_chemical_formula_structural   Y5Ho11MgCo4Ag3
_chemical_formula_sum   'Y5 Ho11 Mg1 Co4 Ag3'
_cell_volume   591.37912637
_cell_formula_units_Z   1
loop_
 _symmetry_equiv_pos_site_id
 _symmetry_equiv_pos_as_xyz
  1  'x, y, z'
loop_
 _atom_site_type_symbol
 _atom_site_label
 _atom_site_symmetry_multiplicity
 _atom_site_fract_x
 _atom_site_fract_y
 _atom_site_fract_z
 _atom_site_occupancy
  Y  Y0  1  0.562408  0.937774  0.937774  1
  Y  Y1  1  0.561951  0.937529  0.562539  1
  Y  Y2  1  0.936642  0.562165  0.938626  1
  Y  Y3  1  0.561951  0.562539  0.937529  1
  Y  Y4  1  0.936642  0.938626  0.562165  1
  Ho  Ho5  1  0.345374  0.345266  0.345266  1
  Ho  Ho6  1  0.346490  0.345952  0.963487  1
  Ho  Ho7  1  0.346490  0.963487  0.345952  1
  Ho  Ho8  1  0.951872  0.350193  0.350193  1
  Ho  Ho9  1  0.809736  0.188207  0.188207  1
  Ho  Ho10  1  0.184996  0.813860  0.813860  1
  Ho  Ho11  1  0.184753  0.813425  0.186406  1
  Ho  Ho12  1  0.809939  0.188438  0.811833  1
  Ho  Ho13  1  0.184753  0.186406  0.813425  1
  Ho  Ho14  1  0.809939  0.811833  0.188438  1
  Ho  Ho15  1  0.935745  0.561666  0.561666  1
  Mg  Mg16  1  0.288457  0.570337  0.570337  1
  Co  Co17  1  0.138721  0.142234  0.142234  1
  Co  Co18  1  0.139261  0.143475  0.576388  1
  Co  Co19  1  0.139261  0.576388  0.143475  1
  Co  Co20  1  0.576137  0.141832  0.141832  1
  Ag  Ag21  1  0.583507  0.582487  0.582487  1
  Ag  Ag22  1  0.582487  0.582420  0.253459  1
  Ag  Ag23  1  0.582487  0.253459  0.582420  1
