# generated using pymatgen
data_Ti(VBr4)3
_symmetry_space_group_name_H-M   'P 1'
_cell_length_a   6.22168422
_cell_length_b   7.09281747
_cell_length_c   12.28869100
_cell_angle_alpha   90.00000000
_cell_angle_beta   90.00000000
_cell_angle_gamma   89.99420618
_symmetry_Int_Tables_number   1
_chemical_formula_structural   Ti(VBr4)3
_chemical_formula_sum   'Ti1 V3 Br12'
_cell_volume   542.29096666
_cell_formula_units_Z   1
loop_
 _symmetry_equiv_pos_site_id
 _symmetry_equiv_pos_as_xyz
  1  'x, y, z'
loop_
 _atom_site_type_symbol
 _atom_site_label
 _atom_site_symmetry_multiplicity
 _atom_site_fract_x
 _atom_site_fract_y
 _atom_site_fract_z
 _atom_site_occupancy
  Ti  Ti0  1  0.758710  0.745850  0.000000  1
  V  V1  1  0.742469  0.254079  0.500000  1
  V  V2  1  0.243152  0.745942  0.000000  1
  V  V3  1  0.257534  0.254044  0.500000  1
  Br  Br4  1  0.000346  0.973407  0.500000  1
  Br  Br5  1  0.501732  0.028291  0.000000  1
  Br  Br6  1  0.499701  0.540021  0.500000  1
  Br  Br7  1  0.997753  0.456784  0.000000  1
  Br  Br8  1  0.999891  0.394707  0.360412  1
  Br  Br9  1  0.502183  0.604507  0.141098  1
  Br  Br10  1  0.999891  0.394707  0.639588  1
  Br  Br11  1  0.502183  0.604507  0.858902  1
  Br  Br12  1  0.997094  0.890596  0.144575  1
  Br  Br13  1  0.500133  0.110982  0.357566  1
  Br  Br14  1  0.997094  0.890596  0.855425  1
  Br  Br15  1  0.500133  0.110982  0.642434  1
