# generated using pymatgen
data_Ti8Cr3CoIr4
_symmetry_space_group_name_H-M   'P 1'
_cell_length_a   6.13821200
_cell_length_b   4.32291100
_cell_length_c   8.63054200
_cell_angle_alpha   90.00000000
_cell_angle_beta   90.00000000
_cell_angle_gamma   90.00000000
_symmetry_Int_Tables_number   1
_chemical_formula_structural   Ti8Cr3CoIr4
_chemical_formula_sum   'Ti8 Cr3 Co1 Ir4'
_cell_volume   229.01095017
_cell_formula_units_Z   1
loop_
 _symmetry_equiv_pos_site_id
 _symmetry_equiv_pos_as_xyz
  1  'x, y, z'
loop_
 _atom_site_type_symbol
 _atom_site_label
 _atom_site_symmetry_multiplicity
 _atom_site_fract_x
 _atom_site_fract_y
 _atom_site_fract_z
 _atom_site_occupancy
  Ti  Ti0  1  0.998363  0.749999  0.126779  1
  Ti  Ti1  1  0.501638  0.749999  0.126779  1
  Ti  Ti2  1  0.999815  0.250000  0.375000  1
  Ti  Ti3  1  0.500178  0.250000  0.375000  1
  Ti  Ti4  1  0.998372  0.749999  0.623194  1
  Ti  Ti5  1  0.501635  0.749999  0.623192  1
  Ti  Ti6  1  0.995340  0.250000  0.874993  1
  Ti  Ti7  1  0.504650  0.250000  0.874992  1
  Cr  Cr8  1  0.750020  0.250000  0.122290  1
  Cr  Cr9  1  0.249992  0.749999  0.375052  1
  Cr  Cr10  1  0.750003  0.250000  0.627782  1
  Co  Co11  1  0.249998  0.749999  0.874948  1
  Ir  Ir12  1  0.249998  0.250000  0.122591  1
  Ir  Ir13  1  0.749999  0.749999  0.374993  1
  Ir  Ir14  1  0.250000  0.250000  0.627411  1
  Ir  Ir15  1  0.749998  0.749999  0.875003  1
