# generated using pymatgen
data_Nd3Y13MgZn3Co4
_symmetry_space_group_name_H-M   'P 1'
_cell_length_a   9.51795660
_cell_length_b   9.49313293
_cell_length_c   9.49313300
_cell_angle_alpha   60.00000323
_cell_angle_beta   60.08624065
_cell_angle_gamma   60.08623897
_symmetry_Int_Tables_number   1
_chemical_formula_structural   Nd3Y13MgZn3Co4
_chemical_formula_sum   'Nd3 Y13 Mg1 Zn3 Co4'
_cell_volume   607.31322888
_cell_formula_units_Z   1
loop_
 _symmetry_equiv_pos_site_id
 _symmetry_equiv_pos_as_xyz
  1  'x, y, z'
loop_
 _atom_site_type_symbol
 _atom_site_label
 _atom_site_symmetry_multiplicity
 _atom_site_fract_x
 _atom_site_fract_y
 _atom_site_fract_z
 _atom_site_occupancy
  Nd  Nd0  1  0.349639  0.348585  0.348585  1
  Nd  Nd1  1  0.349639  0.348585  0.953191  1
  Nd  Nd2  1  0.349639  0.953191  0.348585  1
  Y  Y3  1  0.942519  0.352494  0.352494  1
  Y  Y4  1  0.810198  0.189656  0.189656  1
  Y  Y5  1  0.185583  0.813996  0.813996  1
  Y  Y6  1  0.185583  0.813996  0.186426  1
  Y  Y7  1  0.810198  0.189656  0.810490  1
  Y  Y8  1  0.185583  0.186426  0.813996  1
  Y  Y9  1  0.810198  0.810490  0.189656  1
  Y  Y10  1  0.932418  0.563567  0.563567  1
  Y  Y11  1  0.563530  0.936021  0.936021  1
  Y  Y12  1  0.563530  0.936021  0.564429  1
  Y  Y13  1  0.932418  0.563567  0.940448  1
  Y  Y14  1  0.563530  0.564429  0.936021  1
  Y  Y15  1  0.932418  0.940448  0.563567  1
  Mg  Mg16  1  0.288017  0.570661  0.570661  1
  Zn  Zn17  1  0.586316  0.577076  0.577076  1
  Zn  Zn18  1  0.586316  0.577076  0.259531  1
  Zn  Zn19  1  0.586316  0.259531  0.577076  1
  Co  Co20  1  0.136406  0.143330  0.143330  1
  Co  Co21  1  0.136406  0.143330  0.576933  1
  Co  Co22  1  0.136406  0.576933  0.143330  1
  Co  Co23  1  0.577196  0.140935  0.140935  1
