# generated using pymatgen
data_SmMnSbO6
_symmetry_space_group_name_H-M   'P 1'
_cell_length_a   5.16317897
_cell_length_b   5.16329038
_cell_length_c   5.06384087
_cell_angle_alpha   90.05974529
_cell_angle_beta   90.06119973
_cell_angle_gamma   119.87404238
_symmetry_Int_Tables_number   1
_chemical_formula_structural   SmMnSbO6
_chemical_formula_sum   'Sm1 Mn1 Sb1 O6'
_cell_volume   117.05858478
_cell_formula_units_Z   1
loop_
 _symmetry_equiv_pos_site_id
 _symmetry_equiv_pos_as_xyz
  1  'x, y, z'
loop_
 _atom_site_type_symbol
 _atom_site_label
 _atom_site_symmetry_multiplicity
 _atom_site_fract_x
 _atom_site_fract_y
 _atom_site_fract_z
 _atom_site_occupancy
  Sm  Sm0  1  0.482622  0.517367  0.499993  1
  Mn  Mn1  1  0.815694  0.184375  0.999984  1
  Sb  Sb2  1  0.149207  0.850789  0.000008  1
  O  O3  1  0.110947  0.155833  0.215843  1
  O  O4  1  0.492981  0.890683  0.216750  1
  O  O5  1  0.845763  0.508521  0.216640  1
  O  O6  1  0.491478  0.154243  0.783353  1
  O  O7  1  0.109307  0.507004  0.783240  1
  O  O8  1  0.844156  0.889045  0.784160  1
