# generated using pymatgen
data_Hf2TiCo5B2
_symmetry_space_group_name_H-M   'P 1'
_cell_length_a   8.62348100
_cell_length_b   8.62348100
_cell_length_c   3.08216000
_cell_angle_alpha   90.00000000
_cell_angle_beta   90.00000000
_cell_angle_gamma   90.00000000
_symmetry_Int_Tables_number   1
_chemical_formula_structural   Hf2TiCo5B2
_chemical_formula_sum   'Hf4 Ti2 Co10 B4'
_cell_volume   229.20305479
_cell_formula_units_Z   2
loop_
 _symmetry_equiv_pos_site_id
 _symmetry_equiv_pos_as_xyz
  1  'x, y, z'
loop_
 _atom_site_type_symbol
 _atom_site_label
 _atom_site_symmetry_multiplicity
 _atom_site_fract_x
 _atom_site_fract_y
 _atom_site_fract_z
 _atom_site_occupancy
  Hf  Hf0  1  0.824117  0.324117  0.000000  1
  Hf  Hf1  1  0.324117  0.175883  0.000000  1
  Hf  Hf2  1  0.675883  0.824117  0.000000  1
  Hf  Hf3  1  0.175883  0.675883  0.000000  1
  Ti  Ti4  1  0.000000  0.000000  0.000000  1
  Ti  Ti5  1  0.500000  0.500000  0.000000  1
  Co  Co6  1  0.500000  0.000000  0.500000  1
  Co  Co7  1  0.000000  0.500000  0.500000  1
  Co  Co8  1  0.069014  0.222504  0.500000  1
  Co  Co9  1  0.222504  0.930986  0.500000  1
  Co  Co10  1  0.777496  0.069014  0.500000  1
  Co  Co11  1  0.930986  0.777496  0.500000  1
  Co  Co12  1  0.430986  0.722504  0.500000  1
  Co  Co13  1  0.569014  0.277496  0.500000  1
  Co  Co14  1  0.722504  0.569014  0.500000  1
  Co  Co15  1  0.277496  0.430986  0.500000  1
  B  B16  1  0.618716  0.118716  0.000000  1
  B  B17  1  0.118716  0.381284  0.000000  1
  B  B18  1  0.881284  0.618716  0.000000  1
  B  B19  1  0.381284  0.881284  0.000000  1
