# generated using pymatgen
data_Pr4AlGa3Pd8
_symmetry_space_group_name_H-M   'P 1'
_cell_length_a   5.83247703
_cell_length_b   7.15686000
_cell_length_c   7.64007592
_cell_angle_alpha   90.00000000
_cell_angle_beta   89.79792453
_cell_angle_gamma   90.00000000
_symmetry_Int_Tables_number   1
_chemical_formula_structural   Pr4AlGa3Pd8
_chemical_formula_sum   'Pr4 Al1 Ga3 Pd8'
_cell_volume   318.91175872
_cell_formula_units_Z   1
loop_
 _symmetry_equiv_pos_site_id
 _symmetry_equiv_pos_as_xyz
  1  'x, y, z'
loop_
 _atom_site_type_symbol
 _atom_site_label
 _atom_site_symmetry_multiplicity
 _atom_site_fract_x
 _atom_site_fract_y
 _atom_site_fract_z
 _atom_site_occupancy
  Pr  Pr0  1  0.348459  0.750000  0.033135  1
  Pr  Pr1  1  0.150031  0.750000  0.535905  1
  Pr  Pr2  1  0.650096  0.250000  0.966610  1
  Pr  Pr3  1  0.850136  0.250000  0.465994  1
  Al  Al4  1  0.651874  0.750000  0.381450  1
  Ga  Ga5  1  0.848115  0.750000  0.881582  1
  Ga  Ga6  1  0.349278  0.250000  0.618495  1
  Ga  Ga7  1  0.151163  0.250000  0.119014  1
  Pd  Pd8  1  0.909588  0.554239  0.178733  1
  Pd  Pd9  1  0.588998  0.945283  0.674719  1
  Pd  Pd10  1  0.087648  0.053516  0.822723  1
  Pd  Pd11  1  0.414190  0.448485  0.322732  1
  Pd  Pd12  1  0.087648  0.446484  0.822723  1
  Pd  Pd13  1  0.414190  0.051515  0.322732  1
  Pd  Pd14  1  0.909588  0.945761  0.178733  1
  Pd  Pd15  1  0.588998  0.554717  0.674719  1
