# generated using pymatgen
data_Ho5Lu3InPb3Au8
_symmetry_space_group_name_H-M   'P 1'
_cell_length_a   8.05192640
_cell_length_b   8.04744833
_cell_length_c   7.28898610
_cell_angle_alpha   89.99248729
_cell_angle_beta   90.01689938
_cell_angle_gamma   89.75555497
_symmetry_Int_Tables_number   1
_chemical_formula_structural   Ho5Lu3InPb3Au8
_chemical_formula_sum   'Ho5 Lu3 In1 Pb3 Au8'
_cell_volume   472.30347421
_cell_formula_units_Z   1
loop_
 _symmetry_equiv_pos_site_id
 _symmetry_equiv_pos_as_xyz
  1  'x, y, z'
loop_
 _atom_site_type_symbol
 _atom_site_label
 _atom_site_symmetry_multiplicity
 _atom_site_fract_x
 _atom_site_fract_y
 _atom_site_fract_z
 _atom_site_occupancy
  Ho  Ho0  1  0.847618  0.156791  0.497640  1
  Ho  Ho1  1  0.152242  0.842867  0.497879  1
  Ho  Ho2  1  0.343080  0.346402  0.002021  1
  Ho  Ho3  1  0.656909  0.652094  0.002485  1
  Ho  Ho4  1  0.682675  0.681228  0.498602  1
  Lu  Lu5  1  0.317346  0.320513  0.498436  1
  Lu  Lu6  1  0.180335  0.818632  0.001461  1
  Lu  Lu7  1  0.821560  0.183323  0.001486  1
  In  In8  1  0.000073  0.499816  0.249214  1
  Pb  Pb9  1  0.500404  0.000069  0.248934  1
  Pb  Pb10  1  0.999443  0.500031  0.750288  1
  Pb  Pb11  1  0.500053  0.999967  0.750973  1
  Au  Au12  1  0.630758  0.374131  0.277720  1
  Au  Au13  1  0.366032  0.622987  0.277194  1
  Au  Au14  1  0.128452  0.126239  0.779320  1
  Au  Au15  1  0.873556  0.875855  0.783651  1
  Au  Au16  1  0.372625  0.626557  0.721738  1
  Au  Au17  1  0.624802  0.370525  0.720895  1
  Au  Au18  1  0.877437  0.869613  0.217897  1
  Au  Au19  1  0.124602  0.132359  0.222164  1
