# generated using pymatgen
data_Tb3HoAl18(PdRh2)2
_symmetry_space_group_name_H-M   'P 1'
_cell_length_a   7.58601868
_cell_length_b   7.58724712
_cell_length_c   9.47476411
_cell_angle_alpha   90.02915483
_cell_angle_beta   90.04142686
_cell_angle_gamma   119.57179406
_symmetry_Int_Tables_number   1
_chemical_formula_structural   Tb3HoAl18(PdRh2)2
_chemical_formula_sum   'Tb3 Ho1 Al18 Pd2 Rh4'
_cell_volume   474.30166888
_cell_formula_units_Z   1
loop_
 _symmetry_equiv_pos_site_id
 _symmetry_equiv_pos_as_xyz
  1  'x, y, z'
loop_
 _atom_site_type_symbol
 _atom_site_label
 _atom_site_symmetry_multiplicity
 _atom_site_fract_x
 _atom_site_fract_y
 _atom_site_fract_z
 _atom_site_occupancy
  Tb  Tb0  1  0.995350  0.669817  0.249438  1
  Tb  Tb1  1  0.004754  0.330195  0.750576  1
  Tb  Tb2  1  0.669771  0.995301  0.249431  1
  Ho  Ho3  1  0.330061  0.004694  0.750676  1
  Al  Al4  1  0.126377  0.126343  0.248894  1
  Al  Al5  1  0.873957  0.873758  0.751102  1
  Al  Al6  1  0.999524  0.334658  0.074470  1
  Al  Al7  1  0.000766  0.665633  0.925333  1
  Al  Al8  1  0.998842  0.669142  0.577898  1
  Al  Al9  1  0.331174  0.001448  0.422563  1
  Al  Al10  1  0.001479  0.331161  0.422284  1
  Al  Al11  1  0.668528  0.998540  0.577903  1
  Al  Al12  1  0.665033  0.000487  0.925317  1
  Al  Al13  1  0.334660  0.999518  0.074178  1
  Al  Al14  1  0.331007  0.330745  0.557104  1
  Al  Al15  1  0.669017  0.669002  0.443168  1
  Al  Al16  1  0.667928  0.667914  0.049317  1
  Al  Al17  1  0.332081  0.331847  0.950431  1
  Al  Al18  1  0.340228  0.547256  0.246024  1
  Al  Al19  1  0.659496  0.452367  0.753960  1
  Al  Al20  1  0.547224  0.340189  0.246029  1
  Al  Al21  1  0.452636  0.659964  0.753953  1
  Pd  Pd22  1  0.327803  0.672269  0.500084  1
  Pd  Pd23  1  0.672124  0.327728  0.500088  1
  Rh  Rh24  1  0.672002  0.327777  0.999892  1
  Rh  Rh25  1  0.327892  0.672207  0.999882  1
  Rh  Rh26  1  0.000139  0.000017  0.999846  1
  Rh  Rh27  1  0.000148  0.000023  0.500155  1
