# generated using pymatgen
data_Y5Er3(SiPt)8
_symmetry_space_group_name_H-M   'P 1'
_cell_length_a   4.29521100
_cell_length_b   7.39229435
_cell_length_c   14.15768900
_cell_angle_alpha   89.98233605
_cell_angle_beta   90.00000000
_cell_angle_gamma   90.00000000
_symmetry_Int_Tables_number   1
_chemical_formula_structural   Y5Er3(SiPt)8
_chemical_formula_sum   'Y5 Er3 Si8 Pt8'
_cell_volume   449.52733143
_cell_formula_units_Z   1
loop_
 _symmetry_equiv_pos_site_id
 _symmetry_equiv_pos_as_xyz
  1  'x, y, z'
loop_
 _atom_site_type_symbol
 _atom_site_label
 _atom_site_symmetry_multiplicity
 _atom_site_fract_x
 _atom_site_fract_y
 _atom_site_fract_z
 _atom_site_occupancy
  Y  Y0  1  0.000000  0.201932  0.249613  1
  Y  Y1  1  0.500000  0.704682  0.999653  1
  Y  Y2  1  0.000000  0.295572  0.500229  1
  Y  Y3  1  0.500000  0.700087  0.500248  1
  Y  Y4  1  0.000000  0.300160  0.999777  1
  Er  Er5  1  0.500000  0.797106  0.749179  1
  Er  Er6  1  0.000000  0.203150  0.750755  1
  Er  Er7  1  0.500000  0.795155  0.250772  1
  Si  Si8  1  0.500000  0.409061  0.651004  1
  Si  Si9  1  0.000000  0.591456  0.849276  1
  Si  Si10  1  0.500000  0.409172  0.349608  1
  Si  Si11  1  0.000000  0.591161  0.149960  1
  Si  Si12  1  0.500000  0.090353  0.091658  1
  Si  Si13  1  0.000000  0.908915  0.408463  1
  Si  Si14  1  0.500000  0.091000  0.907802  1
  Si  Si15  1  0.000000  0.909668  0.592167  1
  Pt  Pt16  1  0.500000  0.077436  0.609226  1
  Pt  Pt17  1  0.000000  0.923292  0.890850  1
  Pt  Pt18  1  0.500000  0.075814  0.391992  1
  Pt  Pt19  1  0.000000  0.921227  0.107996  1
  Pt  Pt20  1  0.500000  0.420332  0.153987  1
  Pt  Pt21  1  0.000000  0.582590  0.346033  1
  Pt  Pt22  1  0.500000  0.418468  0.844757  1
  Pt  Pt23  1  0.000000  0.582210  0.654994  1
