# generated using pymatgen
data_Y8AgHgPt2
_symmetry_space_group_name_H-M   'P 1'
_cell_length_a   9.65462798
_cell_length_b   9.65462803
_cell_length_c   9.62759600
_cell_angle_alpha   60.09257694
_cell_angle_beta   60.09257675
_cell_angle_gamma   60.09405651
_symmetry_Int_Tables_number   1
_chemical_formula_structural   Y8AgHgPt2
_chemical_formula_sum   'Y16 Ag2 Hg2 Pt4'
_cell_volume   635.90005778
_cell_formula_units_Z   2
loop_
 _symmetry_equiv_pos_site_id
 _symmetry_equiv_pos_as_xyz
  1  'x, y, z'
loop_
 _atom_site_type_symbol
 _atom_site_label
 _atom_site_symmetry_multiplicity
 _atom_site_fract_x
 _atom_site_fract_y
 _atom_site_fract_z
 _atom_site_occupancy
  Y  Y0  1  0.354555  0.354555  0.353848  1
  Y  Y1  1  0.354555  0.354555  0.937042  1
  Y  Y2  1  0.356365  0.933756  0.354940  1
  Y  Y3  1  0.933756  0.356365  0.354940  1
  Y  Y4  1  0.810725  0.189928  0.190357  1
  Y  Y5  1  0.189928  0.810725  0.808989  1
  Y  Y6  1  0.189928  0.810725  0.190357  1
  Y  Y7  1  0.810725  0.189928  0.808989  1
  Y  Y8  1  0.191134  0.191134  0.808866  1
  Y  Y9  1  0.811148  0.811148  0.188852  1
  Y  Y10  1  0.933777  0.564321  0.564998  1
  Y  Y11  1  0.564321  0.933777  0.936903  1
  Y  Y12  1  0.564321  0.933777  0.564998  1
  Y  Y13  1  0.933777  0.564321  0.936903  1
  Y  Y14  1  0.564432  0.564432  0.935568  1
  Y  Y15  1  0.935667  0.935667  0.564333  1
  Ag  Ag16  1  0.584756  0.584756  0.582575  1
  Ag  Ag17  1  0.584756  0.584756  0.247914  1
  Hg  Hg18  1  0.587068  0.244060  0.584437  1
  Hg  Hg19  1  0.244060  0.587068  0.584437  1
  Pt  Pt20  1  0.144097  0.144097  0.144864  1
  Pt  Pt21  1  0.144097  0.144097  0.566943  1
  Pt  Pt22  1  0.142912  0.569141  0.143973  1
  Pt  Pt23  1  0.569141  0.142912  0.143973  1
