# generated using pymatgen
data_BaLaB2Pd5PtAu2
_symmetry_space_group_name_H-M   'P 1'
_cell_length_a   5.67209400
_cell_length_b   5.67209357
_cell_length_c   7.75870900
_cell_angle_alpha   90.00000000
_cell_angle_beta   90.00000000
_cell_angle_gamma   120.00000251
_symmetry_Int_Tables_number   1
_chemical_formula_structural   BaLaB2Pd5PtAu2
_chemical_formula_sum   'Ba1 La1 B2 Pd5 Pt1 Au2'
_cell_volume   216.17570812
_cell_formula_units_Z   1
loop_
 _symmetry_equiv_pos_site_id
 _symmetry_equiv_pos_as_xyz
  1  'x, y, z'
loop_
 _atom_site_type_symbol
 _atom_site_label
 _atom_site_symmetry_multiplicity
 _atom_site_fract_x
 _atom_site_fract_y
 _atom_site_fract_z
 _atom_site_occupancy
  Ba  Ba0  1  0.000000  0.000000  0.500768  1
  La  La1  1  0.000000  0.000000  0.000473  1
  B  B2  1  0.335689  0.671378  0.998320  1
  B  B3  1  0.664311  0.328622  0.998320  1
  Pd  Pd4  1  0.500000  0.000000  0.192800  1
  Pd  Pd5  1  0.000000  0.500000  0.189108  1
  Pd  Pd6  1  0.000000  0.500000  0.808944  1
  Pd  Pd7  1  0.500000  0.500000  0.189108  1
  Pd  Pd8  1  0.500000  0.500000  0.808944  1
  Pt  Pt9  1  0.500000  0.000000  0.814521  1
  Au  Au10  1  0.333797  0.667594  0.499346  1
  Au  Au11  1  0.666203  0.332406  0.499346  1
