# generated using pymatgen
data_Tb4CuTc3Ru4
_symmetry_space_group_name_H-M   'P 1'
_cell_length_a   5.27084930
_cell_length_b   5.27084829
_cell_length_c   9.12329100
_cell_angle_alpha   90.00000000
_cell_angle_beta   90.00000000
_cell_angle_gamma   121.41759122
_symmetry_Int_Tables_number   1
_chemical_formula_structural   Tb4CuTc3Ru4
_chemical_formula_sum   'Tb4 Cu1 Tc3 Ru4'
_cell_volume   216.30203081
_cell_formula_units_Z   1
loop_
 _symmetry_equiv_pos_site_id
 _symmetry_equiv_pos_as_xyz
  1  'x, y, z'
loop_
 _atom_site_type_symbol
 _atom_site_label
 _atom_site_symmetry_multiplicity
 _atom_site_fract_x
 _atom_site_fract_y
 _atom_site_fract_z
 _atom_site_occupancy
  Tb  Tb0  1  0.333124  0.666876  0.439274  1
  Tb  Tb1  1  0.664839  0.335161  0.567670  1
  Tb  Tb2  1  0.664839  0.335161  0.932330  1
  Tb  Tb3  1  0.333124  0.666876  0.060726  1
  Cu  Cu4  1  0.168345  0.831655  0.750000  1
  Tc  Tc5  1  0.833745  0.166255  0.250000  1
  Tc  Tc6  1  0.829443  0.656952  0.250000  1
  Tc  Tc7  1  0.343048  0.170557  0.250000  1
  Ru  Ru8  1  0.995189  0.004811  0.504022  1
  Ru  Ru9  1  0.995189  0.004811  0.995978  1
  Ru  Ru10  1  0.177364  0.338248  0.750000  1
  Ru  Ru11  1  0.661752  0.822636  0.750000  1
