# generated using pymatgen
data_Dy3YVOs7
_symmetry_space_group_name_H-M   'P 1'
_cell_length_a   5.24553743
_cell_length_b   5.24553818
_cell_length_c   8.88251103
_cell_angle_alpha   90.00765048
_cell_angle_beta   89.99235101
_cell_angle_gamma   117.27798245
_symmetry_Int_Tables_number   1
_chemical_formula_structural   Dy3YVOs7
_chemical_formula_sum   'Dy3 Y1 V1 Os7'
_cell_volume   217.22840899
_cell_formula_units_Z   1
loop_
 _symmetry_equiv_pos_site_id
 _symmetry_equiv_pos_as_xyz
  1  'x, y, z'
loop_
 _atom_site_type_symbol
 _atom_site_label
 _atom_site_symmetry_multiplicity
 _atom_site_fract_x
 _atom_site_fract_y
 _atom_site_fract_z
 _atom_site_occupancy
  Dy  Dy0  1  0.668751  0.331249  0.566128  1
  Dy  Dy1  1  0.668695  0.331305  0.933976  1
  Dy  Dy2  1  0.330486  0.669514  0.062956  1
  Y  Y3  1  0.330498  0.669502  0.436839  1
  V  V4  1  0.835171  0.164829  0.249985  1
  Os  Os5  1  0.996003  0.003997  0.498833  1
  Os  Os6  1  0.996105  0.003895  0.001400  1
  Os  Os7  1  0.823955  0.650927  0.249826  1
  Os  Os8  1  0.349073  0.176045  0.249826  1
  Os  Os9  1  0.170604  0.829396  0.750043  1
  Os  Os10  1  0.174661  0.344001  0.750094  1
  Os  Os11  1  0.655999  0.825339  0.750094  1
