# generated using pymatgen
data_Y4IrPb2Au3
_symmetry_space_group_name_H-M   'P 1'
_cell_length_a   3.59758500
_cell_length_b   8.19279418
_cell_length_c   8.19279445
_cell_angle_alpha   89.93554150
_cell_angle_beta   90.00000000
_cell_angle_gamma   90.00000000
_symmetry_Int_Tables_number   1
_chemical_formula_structural   Y4IrPb2Au3
_chemical_formula_sum   'Y4 Ir1 Pb2 Au3'
_cell_volume   241.47651104
_cell_formula_units_Z   1
loop_
 _symmetry_equiv_pos_site_id
 _symmetry_equiv_pos_as_xyz
  1  'x, y, z'
loop_
 _atom_site_type_symbol
 _atom_site_label
 _atom_site_symmetry_multiplicity
 _atom_site_fract_x
 _atom_site_fract_y
 _atom_site_fract_z
 _atom_site_occupancy
  Y  Y0  1  0.500000  0.164129  0.664129  1
  Y  Y1  1  0.500000  0.815029  0.315029  1
  Y  Y2  1  0.500000  0.354821  0.175391  1
  Y  Y3  1  0.500000  0.675391  0.854821  1
  Ir  Ir4  1  0.000000  0.623432  0.123432  1
  Pb  Pb5  1  0.000000  0.001301  0.002834  1
  Pb  Pb6  1  0.000000  0.502834  0.501301  1
  Au  Au7  1  0.000000  0.371883  0.871883  1
  Au  Au8  1  0.000000  0.869351  0.621829  1
  Au  Au9  1  0.000000  0.121829  0.369351  1
