# generated using pymatgen
data_Ho5LuAl24Os7Pt
_symmetry_space_group_name_H-M   'P 1'
_cell_length_a   8.79492700
_cell_length_b   8.81758584
_cell_length_c   9.56816105
_cell_angle_alpha   90.18987161
_cell_angle_beta   90.00000000
_cell_angle_gamma   119.91503402
_symmetry_Int_Tables_number   1
_chemical_formula_structural   Ho5LuAl24Os7Pt
_chemical_formula_sum   'Ho5 Lu1 Al24 Os7 Pt1'
_cell_volume   643.14524720
_cell_formula_units_Z   1
loop_
 _symmetry_equiv_pos_site_id
 _symmetry_equiv_pos_as_xyz
  1  'x, y, z'
loop_
 _atom_site_type_symbol
 _atom_site_label
 _atom_site_symmetry_multiplicity
 _atom_site_fract_x
 _atom_site_fract_y
 _atom_site_fract_z
 _atom_site_occupancy
  Ho  Ho0  1  0.805389  0.610777  0.747954  1
  Ho  Ho1  1  0.615066  0.806330  0.251295  1
  Ho  Ho2  1  0.385196  0.193385  0.748698  1
  Ho  Ho3  1  0.191265  0.806330  0.251295  1
  Ho  Ho4  1  0.808189  0.193385  0.748698  1
  Lu  Lu5  1  0.196497  0.392996  0.252248  1
  Al  Al6  1  0.331282  0.662564  0.023828  1
  Al  Al7  1  0.668540  0.337080  0.977030  1
  Al  Al8  1  0.666184  0.332368  0.521494  1
  Al  Al9  1  0.333683  0.667367  0.477726  1
  Al  Al10  1  0.163881  0.327763  0.574960  1
  Al  Al11  1  0.835834  0.671667  0.423661  1
  Al  Al12  1  0.672141  0.836064  0.575115  1
  Al  Al13  1  0.836330  0.672659  0.077025  1
  Al  Al14  1  0.327288  0.163852  0.424215  1
  Al  Al15  1  0.163489  0.326978  0.924354  1
  Al  Al16  1  0.163923  0.836064  0.575115  1
  Al  Al17  1  0.325757  0.168486  0.077916  1
  Al  Al18  1  0.836564  0.163852  0.424215  1
  Al  Al19  1  0.673506  0.831522  0.922829  1
  Al  Al20  1  0.842729  0.168486  0.077916  1
  Al  Al21  1  0.158016  0.831522  0.922829  1
  Al  Al22  1  0.562304  0.124609  0.252274  1
  Al  Al23  1  0.437590  0.875181  0.747531  1
  Al  Al24  1  0.877100  0.438493  0.249594  1
  Al  Al25  1  0.123325  0.560853  0.750359  1
  Al  Al26  1  0.561392  0.438493  0.249594  1
  Al  Al27  1  0.437530  0.560853  0.750359  1
  Al  Al28  1  0.002022  0.004043  0.250138  1
  Al  Al29  1  0.999446  0.998893  0.749927  1
  Os  Os30  1  0.000373  0.499695  0.000519  1
  Os  Os31  1  0.499894  0.999789  0.499834  1
  Os  Os32  1  0.499322  0.499695  0.000519  1
  Os  Os33  1  0.000375  0.499606  0.499378  1
  Os  Os34  1  0.499232  0.499606  0.499378  1
  Os  Os35  1  0.999785  0.999570  0.000119  1
  Os  Os36  1  0.999693  0.999386  0.499946  1
  Pt  Pt37  1  0.499871  0.999741  0.000115  1
