# generated using pymatgen
data_Eu3Fe2O7
_symmetry_space_group_name_H-M   'P 1'
_cell_length_a   5.66232509
_cell_length_b   5.58494807
_cell_length_c   10.38490922
_cell_angle_alpha   105.58689537
_cell_angle_beta   89.97175054
_cell_angle_gamma   90.01652611
_symmetry_Int_Tables_number   1
_chemical_formula_structural   Eu3Fe2O7
_chemical_formula_sum   'Eu6 Fe4 O14'
_cell_volume   316.33256442
_cell_formula_units_Z   2
loop_
 _symmetry_equiv_pos_site_id
 _symmetry_equiv_pos_as_xyz
  1  'x, y, z'
loop_
 _atom_site_type_symbol
 _atom_site_label
 _atom_site_symmetry_multiplicity
 _atom_site_fract_x
 _atom_site_fract_y
 _atom_site_fract_z
 _atom_site_occupancy
  Eu  Eu0  1  0.704176  0.760105  0.999989  1
  Eu  Eu1  1  0.204164  0.239962  0.000068  1
  Eu  Eu2  1  0.797223  0.577332  0.629155  1
  Eu  Eu3  1  0.297273  0.422593  0.370734  1
  Eu  Eu4  1  0.797112  0.947950  0.370702  1
  Eu  Eu5  1  0.297410  0.051771  0.629149  1
  Fe  Fe6  1  0.752042  0.353601  0.195287  1
  Fe  Fe7  1  0.252033  0.646381  0.804703  1
  Fe  Fe8  1  0.252069  0.841580  0.195274  1
  Fe  Fe9  1  0.752148  0.158468  0.804700  1
  O  O10  1  0.722246  0.974009  0.596444  1
  O  O11  1  0.222231  0.026141  0.403608  1
  O  O12  1  0.222266  0.622561  0.596460  1
  O  O13  1  0.722114  0.377544  0.403601  1
  O  O14  1  0.041977  0.341425  0.767513  1
  O  O15  1  0.541637  0.658383  0.232638  1
  O  O16  1  0.541893  0.426154  0.767520  1
  O  O17  1  0.041822  0.573899  0.232468  1
  O  O18  1  0.955579  0.874173  0.834352  1
  O  O19  1  0.455766  0.125666  0.165647  1
  O  O20  1  0.777711  0.337944  0.000030  1
  O  O21  1  0.277760  0.662120  0.000011  1
  O  O22  1  0.955769  0.039899  0.165610  1
  O  O23  1  0.455581  0.960340  0.834341  1
