# generated using pymatgen
data_Ho3Lu7(InSb)4
_symmetry_space_group_name_H-M   'P 1'
_cell_length_a   8.60345517
_cell_length_b   8.76156471
_cell_length_c   7.97843723
_cell_angle_alpha   89.98699703
_cell_angle_beta   89.91124504
_cell_angle_gamma   125.16779911
_symmetry_Int_Tables_number   1
_chemical_formula_structural   Ho3Lu7(InSb)4
_chemical_formula_sum   'Ho3 Lu7 In4 Sb4'
_cell_volume   491.63481200
_cell_formula_units_Z   1
loop_
 _symmetry_equiv_pos_site_id
 _symmetry_equiv_pos_as_xyz
  1  'x, y, z'
loop_
 _atom_site_type_symbol
 _atom_site_label
 _atom_site_symmetry_multiplicity
 _atom_site_fract_x
 _atom_site_fract_y
 _atom_site_fract_z
 _atom_site_occupancy
  Ho  Ho0  1  0.184221  0.462543  0.831098  1
  Ho  Ho1  1  0.684577  0.964194  0.668618  1
  Ho  Ho2  1  0.317739  0.036835  0.331096  1
  Lu  Lu3  1  0.029181  0.299573  0.335390  1
  Lu  Lu4  1  0.972676  0.702384  0.664239  1
  Lu  Lu5  1  0.470929  0.201452  0.835763  1
  Lu  Lu6  1  0.811526  0.536134  0.167011  1
  Lu  Lu7  1  0.528563  0.797510  0.164510  1
  Lu  Lu8  1  0.999511  0.999461  0.000306  1
  Lu  Lu9  1  0.501105  0.500539  0.499718  1
  In  In10  1  0.369162  0.368400  0.129640  1
  In  In11  1  0.631010  0.630758  0.870084  1
  In  In12  1  0.130281  0.130487  0.628877  1
  In  In13  1  0.870438  0.869224  0.370186  1
  Sb  Sb14  1  0.787629  0.197257  0.010739  1
  Sb  Sb15  1  0.208200  0.800483  0.993068  1
  Sb  Sb16  1  0.712761  0.306011  0.507783  1
  Sb  Sb17  1  0.290493  0.696755  0.491874  1
