# generated using pymatgen
data_Be8Re2MoW
_symmetry_space_group_name_H-M   'P 1'
_cell_length_a   4.40712700
_cell_length_b   4.40712730
_cell_length_c   7.24593300
_cell_angle_alpha   90.00000000
_cell_angle_beta   90.00000000
_cell_angle_gamma   120.00000524
_symmetry_Int_Tables_number   1
_chemical_formula_structural   Be8Re2MoW
_chemical_formula_sum   'Be8 Re2 Mo1 W1'
_cell_volume   121.88102110
_cell_formula_units_Z   1
loop_
 _symmetry_equiv_pos_site_id
 _symmetry_equiv_pos_as_xyz
  1  'x, y, z'
loop_
 _atom_site_type_symbol
 _atom_site_label
 _atom_site_symmetry_multiplicity
 _atom_site_fract_x
 _atom_site_fract_y
 _atom_site_fract_z
 _atom_site_occupancy
  Be  Be0  1  0.000000  0.000000  0.000868  1
  Be  Be1  1  0.000000  0.000000  0.500178  1
  Be  Be2  1  0.830207  0.660414  0.250021  1
  Be  Be3  1  0.169562  0.830438  0.750138  1
  Be  Be4  1  0.660876  0.830438  0.750138  1
  Be  Be5  1  0.339586  0.169793  0.250021  1
  Be  Be6  1  0.830207  0.169793  0.250021  1
  Be  Be7  1  0.169562  0.339124  0.750138  1
  Re  Re8  1  0.666667  0.333333  0.938653  1
  Re  Re9  1  0.333333  0.666667  0.439825  1
  Mo  Mo10  1  0.333333  0.666667  0.059736  1
  W  W11  1  0.666667  0.333333  0.560260  1
