# generated using pymatgen
data_Sc3Tc2P3Ir
_symmetry_space_group_name_H-M   'P 1'
_cell_length_a   6.65380000
_cell_length_b   6.70912022
_cell_length_c   3.54329100
_cell_angle_alpha   90.00000000
_cell_angle_beta   90.00000000
_cell_angle_gamma   119.72762286
_symmetry_Int_Tables_number   1
_chemical_formula_structural   Sc3Tc2P3Ir
_chemical_formula_sum   'Sc3 Tc2 P3 Ir1'
_cell_volume   137.35934955
_cell_formula_units_Z   1
loop_
 _symmetry_equiv_pos_site_id
 _symmetry_equiv_pos_as_xyz
  1  'x, y, z'
loop_
 _atom_site_type_symbol
 _atom_site_label
 _atom_site_symmetry_multiplicity
 _atom_site_fract_x
 _atom_site_fract_y
 _atom_site_fract_z
 _atom_site_occupancy
  Sc  Sc0  1  0.001836  0.408689  0.500000  1
  Sc  Sc1  1  0.593147  0.591311  0.500000  1
  Sc  Sc2  1  0.408344  0.000000  0.500000  1
  Tc  Tc3  1  0.998202  0.752308  0.000000  1
  Tc  Tc4  1  0.245894  0.247692  0.000000  1
  P  P5  1  0.665812  0.333741  0.000000  1
  P  P6  1  0.332069  0.666259  0.000000  1
  P  P7  1  0.002743  0.000000  0.500000  1
  Ir  Ir8  1  0.751953  0.000000  0.000000  1
