# generated using pymatgen
data_LiPr7NdRh6
_symmetry_space_group_name_H-M   'P 1'
_cell_length_a   7.64750694
_cell_length_b   7.64750588
_cell_length_c   7.64750612
_cell_angle_alpha   70.42774381
_cell_angle_beta   70.42774842
_cell_angle_gamma   70.42773787
_symmetry_Int_Tables_number   1
_chemical_formula_structural   LiPr7NdRh6
_chemical_formula_sum   'Li1 Pr7 Nd1 Rh6'
_cell_volume   384.36269646
_cell_formula_units_Z   1
loop_
 _symmetry_equiv_pos_site_id
 _symmetry_equiv_pos_as_xyz
  1  'x, y, z'
loop_
 _atom_site_type_symbol
 _atom_site_label
 _atom_site_symmetry_multiplicity
 _atom_site_fract_x
 _atom_site_fract_y
 _atom_site_fract_z
 _atom_site_occupancy
  Li  Li0  1  0.999916  0.999916  0.999916  1
  Pr  Pr1  1  0.189344  0.189344  0.189344  1
  Pr  Pr2  1  0.149491  0.384679  0.674035  1
  Pr  Pr3  1  0.674035  0.149491  0.384679  1
  Pr  Pr4  1  0.384679  0.674035  0.149491  1
  Pr  Pr5  1  0.850319  0.615650  0.325858  1
  Pr  Pr6  1  0.325858  0.850319  0.615650  1
  Pr  Pr7  1  0.615650  0.325858  0.850319  1
  Nd  Nd8  1  0.810754  0.810754  0.810754  1
  Rh  Rh9  1  0.949491  0.177499  0.577019  1
  Rh  Rh10  1  0.577019  0.949491  0.177499  1
  Rh  Rh11  1  0.177499  0.577019  0.949491  1
  Rh  Rh12  1  0.050018  0.822112  0.423815  1
  Rh  Rh13  1  0.423815  0.050018  0.822112  1
  Rh  Rh14  1  0.822112  0.423815  0.050018  1
