# generated using pymatgen
data_DyErF6
_symmetry_space_group_name_H-M   'P 1'
_cell_length_a   4.76988000
_cell_length_b   6.17179200
_cell_length_c   6.87853100
_cell_angle_alpha   90.00000000
_cell_angle_beta   90.00000000
_cell_angle_gamma   90.00000000
_symmetry_Int_Tables_number   1
_chemical_formula_structural   DyErF6
_chemical_formula_sum   'Dy2 Er2 F12'
_cell_volume   202.49506025
_cell_formula_units_Z   2
loop_
 _symmetry_equiv_pos_site_id
 _symmetry_equiv_pos_as_xyz
  1  'x, y, z'
loop_
 _atom_site_type_symbol
 _atom_site_label
 _atom_site_symmetry_multiplicity
 _atom_site_fract_x
 _atom_site_fract_y
 _atom_site_fract_z
 _atom_site_occupancy
  Dy  Dy0  1  0.959906  0.634693  0.750000  1
  Dy  Dy1  1  0.459906  0.865307  0.250000  1
  Er  Er2  1  0.537143  0.136661  0.750000  1
  Er  Er3  1  0.037143  0.363339  0.250000  1
  F  F4  1  0.347024  0.164118  0.436968  1
  F  F5  1  0.847024  0.335882  0.563032  1
  F  F6  1  0.151242  0.658175  0.064054  1
  F  F7  1  0.651242  0.841825  0.935946  1
  F  F8  1  0.635781  0.535030  0.250000  1
  F  F9  1  0.135781  0.964970  0.750000  1
  F  F10  1  0.870639  0.035712  0.250000  1
  F  F11  1  0.370639  0.464288  0.750000  1
  F  F12  1  0.347024  0.164118  0.063032  1
  F  F13  1  0.847024  0.335882  0.936968  1
  F  F14  1  0.151242  0.658175  0.435946  1
  F  F15  1  0.651242  0.841825  0.564054  1
