# generated using pymatgen
data_Yb4Ga18CuIr5
_symmetry_space_group_name_H-M   'P 1'
_cell_length_a   7.54641652
_cell_length_b   7.54641755
_cell_length_c   9.63777868
_cell_angle_alpha   90.21710739
_cell_angle_beta   90.21710372
_cell_angle_gamma   119.67507320
_symmetry_Int_Tables_number   1
_chemical_formula_structural   Yb4Ga18CuIr5
_chemical_formula_sum   'Yb4 Ga18 Cu1 Ir5'
_cell_volume   476.85846951
_cell_formula_units_Z   1
loop_
 _symmetry_equiv_pos_site_id
 _symmetry_equiv_pos_as_xyz
  1  'x, y, z'
loop_
 _atom_site_type_symbol
 _atom_site_label
 _atom_site_symmetry_multiplicity
 _atom_site_fract_x
 _atom_site_fract_y
 _atom_site_fract_z
 _atom_site_occupancy
  Yb  Yb0  1  0.998335  0.669105  0.250142  1
  Yb  Yb1  1  0.001665  0.330895  0.749858  1
  Yb  Yb2  1  0.669105  0.998335  0.250142  1
  Yb  Yb3  1  0.330895  0.001665  0.749858  1
  Ga  Ga4  1  0.125765  0.125765  0.248634  1
  Ga  Ga5  1  0.874235  0.874235  0.751366  1
  Ga  Ga6  1  0.999756  0.334383  0.077771  1
  Ga  Ga7  1  0.000244  0.665617  0.922229  1
  Ga  Ga8  1  0.000425  0.665560  0.576343  1
  Ga  Ga9  1  0.334440  0.999575  0.423657  1
  Ga  Ga10  1  0.999575  0.334440  0.423657  1
  Ga  Ga11  1  0.665560  0.000425  0.576343  1
  Ga  Ga12  1  0.665617  0.000244  0.922229  1
  Ga  Ga13  1  0.334383  0.999756  0.077771  1
  Ga  Ga14  1  0.332872  0.332872  0.563732  1
  Ga  Ga15  1  0.667128  0.667128  0.436268  1
  Ga  Ga16  1  0.665556  0.665556  0.064425  1
  Ga  Ga17  1  0.334444  0.334444  0.935575  1
  Ga  Ga18  1  0.336611  0.545721  0.249333  1
  Ga  Ga19  1  0.663389  0.454279  0.750667  1
  Ga  Ga20  1  0.545721  0.336611  0.249333  1
  Ga  Ga21  1  0.454279  0.663389  0.750667  1
  Cu  Cu22  1  0.000000  0.000000  0.000000  1
  Ir  Ir23  1  0.671681  0.328319  0.000000  1
  Ir  Ir24  1  0.328319  0.671681  0.000000  1
  Ir  Ir25  1  0.328751  0.671249  0.500000  1
  Ir  Ir26  1  0.671249  0.328751  0.500000  1
  Ir  Ir27  1  0.000000  0.000000  0.500000  1
