# generated using pymatgen
data_Hf3Fe2Sn3Rh
_symmetry_space_group_name_H-M   'P 1'
_cell_length_a   7.39837309
_cell_length_b   7.40255066
_cell_length_c   6.80668000
_cell_angle_alpha   90.00000000
_cell_angle_beta   90.00000000
_cell_angle_gamma   119.99871739
_symmetry_Int_Tables_number   1
_chemical_formula_structural   Hf3Fe2Sn3Rh
_chemical_formula_sum   'Hf6 Fe4 Sn6 Rh2'
_cell_volume   322.84137971
_cell_formula_units_Z   2
loop_
 _symmetry_equiv_pos_site_id
 _symmetry_equiv_pos_as_xyz
  1  'x, y, z'
loop_
 _atom_site_type_symbol
 _atom_site_label
 _atom_site_symmetry_multiplicity
 _atom_site_fract_x
 _atom_site_fract_y
 _atom_site_fract_z
 _atom_site_occupancy
  Hf  Hf0  1  0.385139  0.985523  0.250001  1
  Hf  Hf1  1  0.014487  0.399696  0.250001  1
  Hf  Hf2  1  0.600445  0.614854  0.250001  1
  Hf  Hf3  1  0.015998  0.400351  0.750000  1
  Hf  Hf4  1  0.599741  0.615712  0.750000  1
  Hf  Hf5  1  0.384309  0.984026  0.750000  1
  Fe  Fe6  1  0.333445  0.666600  0.001305  1
  Fe  Fe7  1  0.000039  0.999997  0.250001  1
  Fe  Fe8  1  0.333445  0.666600  0.498694  1
  Fe  Fe9  1  0.000038  0.000047  0.750000  1
  Sn  Sn10  1  0.731118  0.001534  0.000081  1
  Sn  Sn11  1  0.270282  0.268774  0.000071  1
  Sn  Sn12  1  0.998426  0.729687  0.000047  1
  Sn  Sn13  1  0.270282  0.268774  0.499929  1
  Sn  Sn14  1  0.998426  0.729687  0.499953  1
  Sn  Sn15  1  0.731118  0.001534  0.499920  1
  Rh  Rh16  1  0.666729  0.333404  0.502660  1
  Rh  Rh17  1  0.666729  0.333404  0.997340  1
