# generated using pymatgen
data_TbGd3(B4Mo)4
_symmetry_space_group_name_H-M   'P 1'
_cell_length_a   3.64414100
_cell_length_b   6.05114804
_cell_length_c   11.70017308
_cell_angle_alpha   89.98665493
_cell_angle_beta   90.00000000
_cell_angle_gamma   90.00000000
_symmetry_Int_Tables_number   1
_chemical_formula_structural   TbGd3(B4Mo)4
_chemical_formula_sum   'Tb1 Gd3 B16 Mo4'
_cell_volume   258.00327869
_cell_formula_units_Z   1
loop_
 _symmetry_equiv_pos_site_id
 _symmetry_equiv_pos_as_xyz
  1  'x, y, z'
loop_
 _atom_site_type_symbol
 _atom_site_label
 _atom_site_symmetry_multiplicity
 _atom_site_fract_x
 _atom_site_fract_y
 _atom_site_fract_z
 _atom_site_occupancy
  Tb  Tb0  1  0.000000  0.873350  0.850057  1
  Gd  Gd1  1  0.000000  0.626588  0.349991  1
  Gd  Gd2  1  0.000000  0.373421  0.650080  1
  Gd  Gd3  1  0.000000  0.126547  0.149971  1
  B  B4  1  0.500000  0.785772  0.185903  1
  B  B5  1  0.500000  0.214055  0.814026  1
  B  B6  1  0.500000  0.285740  0.314081  1
  B  B7  1  0.500000  0.714193  0.686033  1
  B  B8  1  0.500000  0.866017  0.032003  1
  B  B9  1  0.500000  0.133900  0.967883  1
  B  B10  1  0.500000  0.365892  0.467888  1
  B  B11  1  0.500000  0.634133  0.532132  1
  B  B12  1  0.500000  0.886322  0.452826  1
  B  B13  1  0.500000  0.113676  0.547229  1
  B  B14  1  0.500000  0.386328  0.047171  1
  B  B15  1  0.500000  0.613777  0.952739  1
  B  B16  1  0.500000  0.976071  0.307083  1
  B  B17  1  0.500000  0.023954  0.693084  1
  B  B18  1  0.500000  0.476050  0.192893  1
  B  B19  1  0.500000  0.524057  0.807038  1
  Mo  Mo20  1  0.000000  0.629368  0.083408  1
  Mo  Mo21  1  0.000000  0.370812  0.916404  1
  Mo  Mo22  1  0.000000  0.129294  0.416476  1
  Mo  Mo23  1  0.000000  0.870684  0.583601  1
