# generated using pymatgen
data_Tb2Y3Er7Os4
_symmetry_space_group_name_H-M   'P 1'
_cell_length_a   6.29904368
_cell_length_b   7.40038823
_cell_length_c   9.01686859
_cell_angle_alpha   89.96069106
_cell_angle_beta   90.14652697
_cell_angle_gamma   90.11812304
_symmetry_Int_Tables_number   1
_chemical_formula_structural   Tb2Y3Er7Os4
_chemical_formula_sum   'Tb2 Y3 Er7 Os4'
_cell_volume   420.32228886
_cell_formula_units_Z   1
loop_
 _symmetry_equiv_pos_site_id
 _symmetry_equiv_pos_as_xyz
  1  'x, y, z'
loop_
 _atom_site_type_symbol
 _atom_site_label
 _atom_site_symmetry_multiplicity
 _atom_site_fract_x
 _atom_site_fract_y
 _atom_site_fract_z
 _atom_site_occupancy
  Tb  Tb0  1  0.332881  0.675639  0.062560  1
  Tb  Tb1  1  0.870125  0.538312  0.250547  1
  Y  Y2  1  0.629299  0.038209  0.250304  1
  Y  Y3  1  0.128962  0.461724  0.749412  1
  Y  Y4  1  0.371096  0.962142  0.749460  1
  Er  Er5  1  0.167046  0.175357  0.436863  1
  Er  Er6  1  0.667213  0.324672  0.563016  1
  Er  Er7  1  0.832768  0.825219  0.936593  1
  Er  Er8  1  0.667678  0.324325  0.936547  1
  Er  Er9  1  0.832980  0.824877  0.562972  1
  Er  Er10  1  0.332890  0.674885  0.437617  1
  Er  Er11  1  0.166885  0.175061  0.063191  1
  Os  Os12  1  0.042970  0.883173  0.250829  1
  Os  Os13  1  0.456546  0.382375  0.250906  1
  Os  Os14  1  0.955667  0.117137  0.750227  1
  Os  Os15  1  0.544995  0.616897  0.748954  1
