# generated using pymatgen
data_Ho7Lu(ThRh)6
_symmetry_space_group_name_H-M   'P 1'
_cell_length_a   9.86063400
_cell_length_b   9.76403963
_cell_length_c   6.35789444
_cell_angle_alpha   90.05135095
_cell_angle_beta   90.00000000
_cell_angle_gamma   120.32779664
_symmetry_Int_Tables_number   1
_chemical_formula_structural   Ho7Lu(ThRh)6
_chemical_formula_sum   'Ho7 Lu1 Th6 Rh6'
_cell_volume   528.36503428
_cell_formula_units_Z   1
loop_
 _symmetry_equiv_pos_site_id
 _symmetry_equiv_pos_as_xyz
  1  'x, y, z'
loop_
 _atom_site_type_symbol
 _atom_site_label
 _atom_site_symmetry_multiplicity
 _atom_site_fract_x
 _atom_site_fract_y
 _atom_site_fract_z
 _atom_site_occupancy
  Ho  Ho0  1  0.872655  0.745312  0.742203  1
  Ho  Ho1  1  0.539139  0.463277  0.445956  1
  Ho  Ho2  1  0.924137  0.463277  0.445956  1
  Ho  Ho3  1  0.538647  0.077294  0.445284  1
  Ho  Ho4  1  0.461836  0.540634  0.941280  1
  Ho  Ho5  1  0.078797  0.540634  0.941280  1
  Ho  Ho6  1  0.460100  0.920203  0.941848  1
  Lu  Lu7  1  0.333030  0.666063  0.463469  1
  Th  Th8  1  0.666663  0.333324  0.961364  1
  Th  Th9  1  0.127778  0.869133  0.245924  1
  Th  Th10  1  0.741355  0.869133  0.245924  1
  Th  Th11  1  0.129735  0.259470  0.244533  1
  Th  Th12  1  0.869864  0.124859  0.740237  1
  Th  Th13  1  0.254995  0.124859  0.740237  1
  Rh  Rh14  1  0.813038  0.185188  0.192853  1
  Rh  Rh15  1  0.372148  0.185188  0.192853  1
  Rh  Rh16  1  0.813623  0.627247  0.195625  1
  Rh  Rh17  1  0.192269  0.817954  0.690105  1
  Rh  Rh18  1  0.625687  0.817954  0.690105  1
  Rh  Rh19  1  0.184500  0.368999  0.696501  1
