# generated using pymatgen
data_Yb9HoSi5Sn
_symmetry_space_group_name_H-M   'P 1'
_cell_length_a   7.67213571
_cell_length_b   7.67589650
_cell_length_c   9.16079800
_cell_angle_alpha   114.65443857
_cell_angle_beta   114.80105056
_cell_angle_gamma   90.04980616
_symmetry_Int_Tables_number   1
_chemical_formula_structural   Yb9HoSi5Sn
_chemical_formula_sum   'Yb9 Ho1 Si5 Sn1'
_cell_volume   434.85618363
_cell_formula_units_Z   1
loop_
 _symmetry_equiv_pos_site_id
 _symmetry_equiv_pos_as_xyz
  1  'x, y, z'
loop_
 _atom_site_type_symbol
 _atom_site_label
 _atom_site_symmetry_multiplicity
 _atom_site_fract_x
 _atom_site_fract_y
 _atom_site_fract_z
 _atom_site_occupancy
  Yb  Yb0  1  0.507623  0.514125  0.020525  1
  Yb  Yb1  1  0.995860  0.990134  0.985518  1
  Yb  Yb2  1  0.974470  0.824001  0.282741  1
  Yb  Yb3  1  0.307810  0.458159  0.281758  1
  Yb  Yb4  1  0.825268  0.309421  0.280938  1
  Yb  Yb5  1  0.454320  0.969724  0.279114  1
  Yb  Yb6  1  0.044787  0.188412  0.718269  1
  Yb  Yb7  1  0.672995  0.531259  0.718664  1
  Yb  Yb8  1  0.190301  0.674427  0.717175  1
  Ho  Ho9  1  0.534399  0.054164  0.729281  1
  Si  Si10  1  0.257326  0.241972  0.504517  1
  Si  Si11  1  0.613467  0.888568  0.994297  1
  Si  Si12  1  0.388395  0.114492  0.994741  1
  Si  Si13  1  0.879937  0.380254  0.994360  1
  Si  Si14  1  0.107733  0.607722  0.996395  1
  Sn  Sn15  1  0.745311  0.753166  0.501708  1
