# generated using pymatgen
data_Tm6ZrCo17(SiP2)4
_symmetry_space_group_name_H-M   'P 1'
_cell_length_a   3.70351900
_cell_length_b   10.61189400
_cell_length_c   12.30082600
_cell_angle_alpha   90.00000000
_cell_angle_beta   90.00000000
_cell_angle_gamma   90.00000000
_symmetry_Int_Tables_number   1
_chemical_formula_structural   Tm6ZrCo17(SiP2)4
_chemical_formula_sum   'Tm6 Zr1 Co17 Si4 P8'
_cell_volume   483.43908089
_cell_formula_units_Z   1
loop_
 _symmetry_equiv_pos_site_id
 _symmetry_equiv_pos_as_xyz
  1  'x, y, z'
loop_
 _atom_site_type_symbol
 _atom_site_label
 _atom_site_symmetry_multiplicity
 _atom_site_fract_x
 _atom_site_fract_y
 _atom_site_fract_z
 _atom_site_occupancy
  Tm  Tm0  1  0.000000  0.500000  0.529872  1
  Tm  Tm1  1  0.500000  0.000000  0.473935  1
  Tm  Tm2  1  0.500000  0.821377  0.206898  1
  Tm  Tm3  1  0.500000  0.178623  0.206898  1
  Tm  Tm4  1  0.000000  0.680587  0.798844  1
  Tm  Tm5  1  0.000000  0.319413  0.798844  1
  Zr  Zr6  1  0.500000  0.500000  0.153736  1
  Co  Co7  1  0.000000  0.000000  0.833452  1
  Co  Co8  1  0.500000  0.500000  0.704219  1
  Co  Co9  1  0.000000  0.000000  0.299502  1
  Co  Co10  1  0.000000  0.500000  0.983827  1
  Co  Co11  1  0.500000  0.000000  0.024978  1
  Co  Co12  1  0.500000  0.326528  0.989461  1
  Co  Co13  1  0.500000  0.673472  0.989461  1
  Co  Co14  1  0.000000  0.160292  0.005510  1
  Co  Co15  1  0.000000  0.839708  0.005510  1
  Co  Co16  1  0.500000  0.293295  0.430592  1
  Co  Co17  1  0.500000  0.706705  0.430592  1
  Co  Co18  1  0.000000  0.195734  0.567090  1
  Co  Co19  1  0.000000  0.804266  0.567090  1
  Co  Co20  1  0.500000  0.884027  0.702554  1
  Co  Co21  1  0.500000  0.115973  0.702554  1
  Co  Co22  1  0.000000  0.622625  0.298394  1
  Co  Co23  1  0.000000  0.377375  0.298394  1
  Si  Si24  1  0.500000  0.307780  0.617334  1
  Si  Si25  1  0.500000  0.692220  0.617334  1
  Si  Si26  1  0.500000  0.859738  0.887883  1
  Si  Si27  1  0.500000  0.140262  0.887883  1
  P  P28  1  0.500000  0.500000  0.883234  1
  P  P29  1  0.000000  0.000000  0.120092  1
  P  P30  1  0.500000  0.500000  0.361734  1
  P  P31  1  0.000000  0.000000  0.651986  1
  P  P32  1  0.000000  0.188962  0.385223  1
  P  P33  1  0.000000  0.811038  0.385223  1
  P  P34  1  0.000000  0.665719  0.099932  1
  P  P35  1  0.000000  0.334281  0.099932  1
