# generated using pymatgen
data_HoTm15(In3Ir)2
_symmetry_space_group_name_H-M   'P 1'
_cell_length_a   10.28398400
_cell_length_b   10.28685992
_cell_length_c   6.97178805
_cell_angle_alpha   90.01225371
_cell_angle_beta   90.00000000
_cell_angle_gamma   119.99075226
_symmetry_Int_Tables_number   1
_chemical_formula_structural   HoTm15(In3Ir)2
_chemical_formula_sum   'Ho1 Tm15 In6 Ir2'
_cell_volume   638.79200989
_cell_formula_units_Z   1
loop_
 _symmetry_equiv_pos_site_id
 _symmetry_equiv_pos_as_xyz
  1  'x, y, z'
loop_
 _atom_site_type_symbol
 _atom_site_label
 _atom_site_symmetry_multiplicity
 _atom_site_fract_x
 _atom_site_fract_y
 _atom_site_fract_z
 _atom_site_occupancy
  Ho  Ho0  1  0.532463  0.064928  0.514694  1
  Tm  Tm1  1  0.934415  0.467253  0.514723  1
  Tm  Tm2  1  0.532838  0.467253  0.514723  1
  Tm  Tm3  1  0.467007  0.934013  0.014678  1
  Tm  Tm4  1  0.065741  0.532882  0.014683  1
  Tm  Tm5  1  0.467142  0.532882  0.014683  1
  Tm  Tm6  1  0.176706  0.353412  0.721600  1
  Tm  Tm7  1  0.646802  0.823107  0.721881  1
  Tm  Tm8  1  0.176303  0.823107  0.721881  1
  Tm  Tm9  1  0.823309  0.646617  0.221582  1
  Tm  Tm10  1  0.353199  0.176819  0.221290  1
  Tm  Tm11  1  0.823622  0.176819  0.221290  1
  Tm  Tm12  1  0.666858  0.333714  0.895294  1
  Tm  Tm13  1  0.333179  0.666359  0.395125  1
  Tm  Tm14  1  0.000006  0.000013  0.500256  1
  Tm  Tm15  1  0.000032  0.000065  0.000356  1
  In  In16  1  0.837132  0.674264  0.761141  1
  In  In17  1  0.325440  0.162883  0.761457  1
  In  In18  1  0.837442  0.162883  0.761457  1
  In  In19  1  0.162853  0.325705  0.261257  1
  In  In20  1  0.674305  0.837160  0.261083  1
  In  In21  1  0.162856  0.837160  0.261083  1
  Ir  Ir22  1  0.667002  0.334004  0.290660  1
  Ir  Ir23  1  0.333350  0.666700  0.791122  1
