# generated using pymatgen
data_Al8NiIr4Ru3
_symmetry_space_group_name_H-M   'P 1'
_cell_length_a   6.04087500
_cell_length_b   4.22149200
_cell_length_c   8.47488400
_cell_angle_alpha   90.00000000
_cell_angle_beta   89.99993774
_cell_angle_gamma   90.00000000
_symmetry_Int_Tables_number   1
_chemical_formula_structural   Al8NiIr4Ru3
_chemical_formula_sum   'Al8 Ni1 Ir4 Ru3'
_cell_volume   216.12230081
_cell_formula_units_Z   1
loop_
 _symmetry_equiv_pos_site_id
 _symmetry_equiv_pos_as_xyz
  1  'x, y, z'
loop_
 _atom_site_type_symbol
 _atom_site_label
 _atom_site_symmetry_multiplicity
 _atom_site_fract_x
 _atom_site_fract_y
 _atom_site_fract_z
 _atom_site_occupancy
  Al  Al0  1  0.996616  0.749999  0.125000  1
  Al  Al1  1  0.503381  0.749999  0.125002  1
  Al  Al2  1  0.997804  0.250001  0.375585  1
  Al  Al3  1  0.502193  0.250001  0.375588  1
  Al  Al4  1  0.501869  0.749999  0.625001  1
  Al  Al5  1  0.998135  0.749999  0.625003  1
  Al  Al6  1  0.502197  0.250001  0.874408  1
  Al  Al7  1  0.997805  0.250001  0.874411  1
  Ni  Ni8  1  0.250000  0.250001  0.124998  1
  Ir  Ir9  1  0.749997  0.250001  0.124998  1
  Ir  Ir10  1  0.249998  0.749999  0.368238  1
  Ir  Ir11  1  0.750003  0.250001  0.624998  1
  Ir  Ir12  1  0.250002  0.749999  0.881765  1
  Ru  Ru13  1  0.749998  0.749999  0.372703  1
  Ru  Ru14  1  0.250001  0.250001  0.624998  1
  Ru  Ru15  1  0.750001  0.749999  0.877302  1
