# generated using pymatgen
data_LaTh3(Si3Pd)2
_symmetry_space_group_name_H-M   'P 1'
_cell_length_a   8.26743089
_cell_length_b   8.26743034
_cell_length_c   4.27588500
_cell_angle_alpha   90.00000000
_cell_angle_beta   90.00000000
_cell_angle_gamma   119.97715008
_symmetry_Int_Tables_number   1
_chemical_formula_structural   LaTh3(Si3Pd)2
_chemical_formula_sum   'La1 Th3 Si6 Pd2'
_cell_volume   253.16153257
_cell_formula_units_Z   1
loop_
 _symmetry_equiv_pos_site_id
 _symmetry_equiv_pos_as_xyz
  1  'x, y, z'
loop_
 _atom_site_type_symbol
 _atom_site_label
 _atom_site_symmetry_multiplicity
 _atom_site_fract_x
 _atom_site_fract_y
 _atom_site_fract_z
 _atom_site_occupancy
  La  La0  1  0.500000  0.500000  0.500000  1
  Th  Th1  1  0.000000  0.000000  0.500000  1
  Th  Th2  1  0.000000  0.500000  0.500000  1
  Th  Th3  1  0.500000  0.000000  0.500000  1
  Si  Si4  1  0.165062  0.331998  0.000000  1
  Si  Si5  1  0.668002  0.834938  0.000000  1
  Si  Si6  1  0.331998  0.165062  0.000000  1
  Si  Si7  1  0.164162  0.835838  0.000000  1
  Si  Si8  1  0.834938  0.668002  0.000000  1
  Si  Si9  1  0.835838  0.164162  0.000000  1
  Pd  Pd10  1  0.331165  0.668835  0.000000  1
  Pd  Pd11  1  0.668835  0.331165  0.000000  1
