# generated using pymatgen
data_DyHo2AlIn2Au3
_symmetry_space_group_name_H-M   'P 1'
_cell_length_a   7.68540697
_cell_length_b   7.68540727
_cell_length_c   3.97279000
_cell_angle_alpha   90.00000000
_cell_angle_beta   90.00000000
_cell_angle_gamma   120.76095075
_symmetry_Int_Tables_number   1
_chemical_formula_structural   DyHo2AlIn2Au3
_chemical_formula_sum   'Dy1 Ho2 Al1 In2 Au3'
_cell_volume   201.64086956
_cell_formula_units_Z   1
loop_
 _symmetry_equiv_pos_site_id
 _symmetry_equiv_pos_as_xyz
  1  'x, y, z'
loop_
 _atom_site_type_symbol
 _atom_site_label
 _atom_site_symmetry_multiplicity
 _atom_site_fract_x
 _atom_site_fract_y
 _atom_site_fract_z
 _atom_site_occupancy
  Dy  Dy0  1  0.409687  0.409687  0.500000  1
  Ho  Ho1  1  0.594831  0.999502  0.500000  1
  Ho  Ho2  1  0.999502  0.594831  0.500000  1
  Al  Al3  1  0.744673  0.744673  0.000000  1
  In  In4  1  0.257571  0.999141  0.000000  1
  In  In5  1  0.999141  0.257571  0.000000  1
  Au  Au6  1  0.670434  0.348533  0.000000  1
  Au  Au7  1  0.348533  0.670434  0.000000  1
  Au  Au8  1  0.975629  0.975629  0.500000  1
