# generated using pymatgen
data_Zr10Tl5Cu2Sb
_symmetry_space_group_name_H-M   'P 1'
_cell_length_a   8.69095200
_cell_length_b   8.70572344
_cell_length_c   5.85864500
_cell_angle_alpha   90.00000000
_cell_angle_beta   90.00000000
_cell_angle_gamma   120.05623183
_symmetry_Int_Tables_number   1
_chemical_formula_structural   Zr10Tl5Cu2Sb
_chemical_formula_sum   'Zr10 Tl5 Cu2 Sb1'
_cell_volume   383.66631424
_cell_formula_units_Z   1
loop_
 _symmetry_equiv_pos_site_id
 _symmetry_equiv_pos_as_xyz
  1  'x, y, z'
loop_
 _atom_site_type_symbol
 _atom_site_label
 _atom_site_symmetry_multiplicity
 _atom_site_fract_x
 _atom_site_fract_y
 _atom_site_fract_z
 _atom_site_occupancy
  Zr  Zr0  1  0.670561  0.334663  0.000837  1
  Zr  Zr1  1  0.329439  0.664102  0.000837  1
  Zr  Zr2  1  0.329439  0.664102  0.499163  1
  Zr  Zr3  1  0.670561  0.334663  0.499163  1
  Zr  Zr4  1  0.732200  0.736514  0.750000  1
  Zr  Zr5  1  0.267800  0.004314  0.750000  1
  Zr  Zr6  1  0.000000  0.263812  0.750000  1
  Zr  Zr7  1  0.257791  0.264086  0.250000  1
  Zr  Zr8  1  0.742209  0.006296  0.250000  1
  Zr  Zr9  1  0.000000  0.731168  0.250000  1
  Tl  Tl10  1  0.385431  0.384341  0.750000  1
  Tl  Tl11  1  0.614569  0.998910  0.750000  1
  Tl  Tl12  1  0.000000  0.620863  0.750000  1
  Tl  Tl13  1  0.616119  0.618275  0.250000  1
  Tl  Tl14  1  0.383881  0.002156  0.250000  1
  Cu  Cu15  1  0.000000  0.993586  0.503721  1
  Cu  Cu16  1  0.000000  0.993586  0.996279  1
  Sb  Sb17  1  0.000000  0.384563  0.250000  1
