# generated using pymatgen
data_Cs2CdPbF6
_symmetry_space_group_name_H-M   'P 1'
_cell_length_a   6.67869206
_cell_length_b   6.67869176
_cell_length_c   6.67869200
_cell_angle_alpha   120.00000119
_cell_angle_beta   119.99999973
_cell_angle_gamma   89.99999784
_symmetry_Int_Tables_number   1
_chemical_formula_structural   Cs2CdPbF6
_chemical_formula_sum   'Cs2 Cd1 Pb1 F6'
_cell_volume   210.64892121
_cell_formula_units_Z   1
loop_
 _symmetry_equiv_pos_site_id
 _symmetry_equiv_pos_as_xyz
  1  'x, y, z'
loop_
 _atom_site_type_symbol
 _atom_site_label
 _atom_site_symmetry_multiplicity
 _atom_site_fract_x
 _atom_site_fract_y
 _atom_site_fract_z
 _atom_site_occupancy
  Cs  Cs0  1  0.749998  0.249998  0.499998  1
  Cs  Cs1  1  0.249998  0.749998  0.499998  1
  Cd  Cd2  1  0.500000  0.500000  0.000000  1
  Pb  Pb3  1  0.000000  0.000000  0.000000  1
  F  F4  1  0.258948  0.258948  0.000000  1
  F  F5  1  0.741052  0.258948  0.000000  1
  F  F6  1  0.741050  0.741050  0.000000  1
  F  F7  1  0.258948  0.741052  0.000000  1
  F  F8  1  0.258950  0.258950  0.517898  1
  F  F9  1  0.741050  0.741050  0.482100  1
