# generated using pymatgen
data_Ta8Mn7Si14Ru
_symmetry_space_group_name_H-M   'P 1'
_cell_length_a   9.36859482
_cell_length_b   9.38473650
_cell_length_c   9.36253470
_cell_angle_alpha   94.15661959
_cell_angle_beta   94.03517270
_cell_angle_gamma   149.01098738
_symmetry_Int_Tables_number   1
_chemical_formula_structural   Ta8Mn7Si14Ru
_chemical_formula_sum   'Ta8 Mn7 Si14 Ru1'
_cell_volume   408.39917970
_cell_formula_units_Z   1
loop_
 _symmetry_equiv_pos_site_id
 _symmetry_equiv_pos_as_xyz
  1  'x, y, z'
loop_
 _atom_site_type_symbol
 _atom_site_label
 _atom_site_symmetry_multiplicity
 _atom_site_fract_x
 _atom_site_fract_y
 _atom_site_fract_z
 _atom_site_occupancy
  Ta  Ta0  1  0.135181  0.135093  0.270083  1
  Ta  Ta1  1  0.864694  0.864781  0.729502  1
  Ta  Ta2  1  0.866192  0.134198  0.001085  1
  Ta  Ta3  1  0.135131  0.867154  0.001157  1
  Ta  Ta4  1  0.499501  0.310609  0.809469  1
  Ta  Ta5  1  0.500706  0.689777  0.191498  1
  Ta  Ta6  1  0.691031  0.501772  0.191461  1
  Ta  Ta7  1  0.310032  0.498951  0.809450  1
  Mn  Mn8  1  0.101347  0.601167  0.203521  1
  Mn  Mn9  1  0.101827  0.901369  0.500937  1
  Mn  Mn10  1  0.398931  0.599492  0.500125  1
  Mn  Mn11  1  0.598791  0.401141  0.497468  1
  Mn  Mn12  1  0.899031  0.096611  0.497868  1
  Mn  Mn13  1  0.899631  0.400258  0.799902  1
  Mn  Mn14  1  0.599523  0.099198  0.199677  1
  Si  Si15  1  0.510230  0.106993  0.588272  1
  Si  Si16  1  0.502313  0.907257  0.408057  1
  Si  Si17  1  0.905907  0.500790  0.407875  1
  Si  Si18  1  0.078072  0.481465  0.588395  1
  Si  Si19  1  0.751222  0.751294  0.000140  1
  Si  Si20  1  0.249060  0.249006  0.000145  1
  Si  Si21  1  0.293523  0.293560  0.586389  1
  Si  Si22  1  0.706927  0.707181  0.413251  1
  Si  Si23  1  0.715523  0.304929  0.003985  1
  Si  Si24  1  0.287714  0.698219  0.003620  1
  Si  Si25  1  0.998950  0.291395  0.293127  1
  Si  Si26  1  0.990589  0.701788  0.706045  1
  Si  Si27  1  0.715260  0.004254  0.705810  1
  Si  Si28  1  0.293930  0.001240  0.293270  1
  Ru  Ru29  1  0.399229  0.899059  0.798416  1
