# generated using pymatgen
data_Cs4Ta3AlH20
_symmetry_space_group_name_H-M   'P 1'
_cell_length_a   5.97412437
_cell_length_b   8.06779005
_cell_length_c   9.57239550
_cell_angle_alpha   78.91925402
_cell_angle_beta   85.12070393
_cell_angle_gamma   95.42844732
_symmetry_Int_Tables_number   1
_chemical_formula_structural   Cs4Ta3AlH20
_chemical_formula_sum   'Cs4 Ta3 Al1 H20'
_cell_volume   448.21458181
_cell_formula_units_Z   1
loop_
 _symmetry_equiv_pos_site_id
 _symmetry_equiv_pos_as_xyz
  1  'x, y, z'
loop_
 _atom_site_type_symbol
 _atom_site_label
 _atom_site_symmetry_multiplicity
 _atom_site_fract_x
 _atom_site_fract_y
 _atom_site_fract_z
 _atom_site_occupancy
  Cs  Cs0  1  0.278841  0.424764  0.222343  1
  Cs  Cs1  1  0.790276  0.726356  0.885127  1
  Cs  Cs2  1  0.755327  0.894549  0.310619  1
  Cs  Cs3  1  0.236570  0.979474  0.569545  1
  Ta  Ta4  1  0.360971  0.506441  0.631445  1
  Ta  Ta5  1  0.754430  0.348749  0.550244  1
  Ta  Ta6  1  0.516191  0.243770  0.833135  1
  Al  Al7  1  0.316594  0.983927  0.058695  1
  H  H8  1  0.070406  0.454454  0.550798  1
  H  H9  1  0.464993  0.381136  0.491337  1
  H  H10  1  0.338841  0.038098  0.852877  1
  H  H11  1  0.617651  0.077827  0.974882  1
  H  H12  1  0.044711  0.923670  0.058696  1
  H  H13  1  0.454014  0.471366  0.819662  1
  H  H14  1  0.641697  0.199493  0.449308  1
  H  H15  1  0.144831  0.606417  0.725007  1
  H  H16  1  0.416316  0.793648  0.082463  1
  H  H17  1  0.655238  0.341667  0.963069  1
  H  H18  1  0.957346  0.211928  0.493268  1
  H  H19  1  0.673311  0.570880  0.568793  1
  H  H20  1  0.479437  0.700128  0.674749  1
  H  H21  1  0.307320  0.215476  0.995017  1
  H  H22  1  0.820187  0.320007  0.749049  1
  H  H23  1  0.353517  0.672155  0.467966  1
  H  H24  1  0.323206  0.021286  0.225929  1
  H  H25  1  0.627783  0.136804  0.679948  1
  H  H26  1  0.824041  0.469296  0.361251  1
  H  H27  1  0.243954  0.286236  0.754777  1
