# generated using pymatgen
data_Hf18TiRe7Pd2
_symmetry_space_group_name_H-M   'P 1'
_cell_length_a   8.68413400
_cell_length_b   8.68413343
_cell_length_c   8.51182100
_cell_angle_alpha   90.00000000
_cell_angle_beta   90.00000000
_cell_angle_gamma   120.00000216
_symmetry_Int_Tables_number   1
_chemical_formula_structural   Hf18TiRe7Pd2
_chemical_formula_sum   'Hf18 Ti1 Re7 Pd2'
_cell_volume   555.91207609
_cell_formula_units_Z   1
loop_
 _symmetry_equiv_pos_site_id
 _symmetry_equiv_pos_as_xyz
  1  'x, y, z'
loop_
 _atom_site_type_symbol
 _atom_site_label
 _atom_site_symmetry_multiplicity
 _atom_site_fract_x
 _atom_site_fract_y
 _atom_site_fract_z
 _atom_site_occupancy
  Hf  Hf0  1  0.194970  0.805030  0.448804  1
  Hf  Hf1  1  0.194970  0.389941  0.448804  1
  Hf  Hf2  1  0.610059  0.805030  0.448804  1
  Hf  Hf3  1  0.805030  0.194970  0.551196  1
  Hf  Hf4  1  0.805030  0.610059  0.551196  1
  Hf  Hf5  1  0.389941  0.194970  0.551196  1
  Hf  Hf6  1  0.805837  0.194163  0.947300  1
  Hf  Hf7  1  0.805837  0.611674  0.947300  1
  Hf  Hf8  1  0.388326  0.194163  0.947300  1
  Hf  Hf9  1  0.194163  0.805837  0.052700  1
  Hf  Hf10  1  0.194163  0.388326  0.052700  1
  Hf  Hf11  1  0.611674  0.805837  0.052700  1
  Hf  Hf12  1  0.542423  0.457577  0.248715  1
  Hf  Hf13  1  0.542423  0.084843  0.248715  1
  Hf  Hf14  1  0.915157  0.457577  0.248715  1
  Hf  Hf15  1  0.457577  0.542423  0.751285  1
  Hf  Hf16  1  0.457577  0.915157  0.751285  1
  Hf  Hf17  1  0.084843  0.542423  0.751285  1
  Ti  Ti18  1  0.000000  0.000000  0.500000  1
  Re  Re19  1  0.888429  0.111571  0.251529  1
  Re  Re20  1  0.888429  0.776859  0.251529  1
  Re  Re21  1  0.223141  0.111571  0.251529  1
  Re  Re22  1  0.111571  0.888429  0.748471  1
  Re  Re23  1  0.111571  0.223141  0.748471  1
  Re  Re24  1  0.776859  0.888429  0.748471  1
  Re  Re25  1  0.000000  0.000000  0.000000  1
  Pd  Pd26  1  0.333333  0.666667  0.248797  1
  Pd  Pd27  1  0.666667  0.333333  0.751203  1
