# generated using pymatgen
data_Er16In2Ag2RuRh3
_symmetry_space_group_name_H-M   'P 1'
_cell_length_a   9.51278350
_cell_length_b   9.51072753
_cell_length_c   9.50349313
_cell_angle_alpha   60.02164983
_cell_angle_beta   59.96765190
_cell_angle_gamma   59.99284254
_symmetry_Int_Tables_number   1
_chemical_formula_structural   Er16In2Ag2RuRh3
_chemical_formula_sum   'Er16 In2 Ag2 Ru1 Rh3'
_cell_volume   607.89814018
_cell_formula_units_Z   1
loop_
 _symmetry_equiv_pos_site_id
 _symmetry_equiv_pos_as_xyz
  1  'x, y, z'
loop_
 _atom_site_type_symbol
 _atom_site_label
 _atom_site_symmetry_multiplicity
 _atom_site_fract_x
 _atom_site_fract_y
 _atom_site_fract_z
 _atom_site_occupancy
  Er  Er0  1  0.186622  0.191498  0.811185  1
  Er  Er1  1  0.438091  0.061582  0.062236  1
  Er  Er2  1  0.437095  0.059371  0.435923  1
  Er  Er3  1  0.066181  0.435537  0.058569  1
  Er  Er4  1  0.650578  0.051096  0.647749  1
  Er  Er5  1  0.188077  0.812082  0.811764  1
  Er  Er6  1  0.067612  0.059371  0.435923  1
  Er  Er7  1  0.809139  0.192511  0.189212  1
  Er  Er8  1  0.810412  0.810782  0.190197  1
  Er  Er9  1  0.651099  0.647302  0.050500  1
  Er  Er10  1  0.651861  0.648589  0.649914  1
  Er  Er11  1  0.064048  0.434466  0.437439  1
  Er  Er12  1  0.049636  0.648589  0.649914  1
  Er  Er13  1  0.810696  0.191498  0.811185  1
  Er  Er14  1  0.439714  0.435537  0.058569  1
  Er  Er15  1  0.188610  0.810782  0.190197  1
  In  In16  1  0.741613  0.421035  0.421294  1
  In  In17  1  0.416057  0.421035  0.421294  1
  Ag  Ag18  1  0.416441  0.749214  0.417903  1
  Ag  Ag19  1  0.416375  0.417731  0.749520  1
  Ru  Ru20  1  0.857459  0.427086  0.857996  1
  Rh  Rh21  1  0.857491  0.858041  0.426977  1
  Rh  Rh22  1  0.427395  0.857633  0.857270  1
  Rh  Rh23  1  0.857701  0.857633  0.857270  1
