# generated using pymatgen
data_Tb2U2Ga12Rh
_symmetry_space_group_name_H-M   'P 1'
_cell_length_a   7.46257544
_cell_length_b   7.40780792
_cell_length_c   7.40780725
_cell_angle_alpha   109.56050618
_cell_angle_beta   109.27836835
_cell_angle_gamma   109.27835941
_symmetry_Int_Tables_number   1
_chemical_formula_structural   Tb2U2Ga12Rh
_chemical_formula_sum   'Tb2 U2 Ga12 Rh1'
_cell_volume   316.38964947
_cell_formula_units_Z   1
loop_
 _symmetry_equiv_pos_site_id
 _symmetry_equiv_pos_as_xyz
  1  'x, y, z'
loop_
 _atom_site_type_symbol
 _atom_site_label
 _atom_site_symmetry_multiplicity
 _atom_site_fract_x
 _atom_site_fract_y
 _atom_site_fract_z
 _atom_site_occupancy
  Tb  Tb0  1  0.500000  0.500000  0.500000  1
  Tb  Tb1  1  0.500000  0.000000  0.000000  1
  U  U2  1  0.000000  0.500000  0.000000  1
  U  U3  1  0.000000  0.000000  0.500000  1
  Ga  Ga4  1  0.753521  0.250968  0.502553  1
  Ga  Ga5  1  0.000000  0.706874  0.706874  1
  Ga  Ga6  1  0.290078  0.997466  0.292612  1
  Ga  Ga7  1  0.500000  0.250000  0.750000  1
  Ga  Ga8  1  0.753521  0.502553  0.250968  1
  Ga  Ga9  1  0.246479  0.749032  0.497447  1
  Ga  Ga10  1  0.246479  0.497447  0.749032  1
  Ga  Ga11  1  0.709922  0.002534  0.707388  1
  Ga  Ga12  1  0.500000  0.750000  0.250000  1
  Ga  Ga13  1  0.709922  0.707388  0.002534  1
  Ga  Ga14  1  0.290078  0.292612  0.997466  1
  Ga  Ga15  1  0.000000  0.293126  0.293126  1
  Rh  Rh16  1  0.000000  0.000000  0.000000  1
