# generated using pymatgen
data_TmLuNb2(SnPt)4
_symmetry_space_group_name_H-M   'P 1'
_cell_length_a   6.42088505
_cell_length_b   4.52740100
_cell_length_c   9.07345208
_cell_angle_alpha   90.00000000
_cell_angle_beta   90.01499111
_cell_angle_gamma   90.00000000
_symmetry_Int_Tables_number   1
_chemical_formula_structural   TmLuNb2(SnPt)4
_chemical_formula_sum   'Tm1 Lu1 Nb2 Sn4 Pt4'
_cell_volume   263.76452986
_cell_formula_units_Z   1
loop_
 _symmetry_equiv_pos_site_id
 _symmetry_equiv_pos_as_xyz
  1  'x, y, z'
loop_
 _atom_site_type_symbol
 _atom_site_label
 _atom_site_symmetry_multiplicity
 _atom_site_fract_x
 _atom_site_fract_y
 _atom_site_fract_z
 _atom_site_occupancy
  Tm  Tm0  1  0.002482  0.000000  0.376224  1
  Lu  Lu1  1  0.502569  0.500001  0.623760  1
  Nb  Nb2  1  0.497554  0.500001  0.124659  1
  Nb  Nb3  1  0.997395  0.000000  0.875309  1
  Sn  Sn4  1  0.989392  0.500001  0.124748  1
  Sn  Sn5  1  0.509229  0.000000  0.373855  1
  Sn  Sn6  1  0.008970  0.500001  0.626594  1
  Sn  Sn7  1  0.489056  0.000000  0.874817  1
  Pt  Pt8  1  0.738721  0.000000  0.113638  1
  Pt  Pt9  1  0.263728  0.500001  0.361128  1
  Pt  Pt10  1  0.761761  0.000000  0.639426  1
  Pt  Pt11  1  0.239137  0.500001  0.885844  1
