# generated using pymatgen
data_PmThCO
_symmetry_space_group_name_H-M   'P 1'
_cell_length_a   5.20555400
_cell_length_b   5.20555000
_cell_length_c   5.16543500
_cell_angle_alpha   90.00004420
_cell_angle_beta   90.00002210
_cell_angle_gamma   90.00003302
_symmetry_Int_Tables_number   1
_chemical_formula_structural   PmThCO
_chemical_formula_sum   'Pm2 Th2 C2 O2'
_cell_volume   139.97177797
_cell_formula_units_Z   2
loop_
 _symmetry_equiv_pos_site_id
 _symmetry_equiv_pos_as_xyz
  1  'x, y, z'
loop_
 _atom_site_type_symbol
 _atom_site_label
 _atom_site_symmetry_multiplicity
 _atom_site_fract_x
 _atom_site_fract_y
 _atom_site_fract_z
 _atom_site_occupancy
  Pm  Pm0  1  0.250000  0.249999  0.499850  1
  Pm  Pm1  1  0.750000  0.750000  0.500151  1
  Th  Th2  1  0.750000  0.249999  0.000000  1
  Th  Th3  1  0.250000  0.750000  0.000000  1
  C  C4  1  0.750000  0.750000  0.000309  1
  C  C5  1  0.250000  0.250000  0.999692  1
  O  O6  1  0.750000  0.249999  0.500000  1
  O  O7  1  0.249999  0.750000  0.500000  1
