# generated using pymatgen
data_ErFe2SiC
_symmetry_space_group_name_H-M   'P 1'
_cell_length_a   5.52247222
_cell_length_b   5.52247248
_cell_length_c   6.71367500
_cell_angle_alpha   90.00000000
_cell_angle_beta   90.00000000
_cell_angle_gamma   140.57953414
_symmetry_Int_Tables_number   1
_chemical_formula_structural   ErFe2SiC
_chemical_formula_sum   'Er2 Fe4 Si2 C2'
_cell_volume   130.01862786
_cell_formula_units_Z   2
loop_
 _symmetry_equiv_pos_site_id
 _symmetry_equiv_pos_as_xyz
  1  'x, y, z'
loop_
 _atom_site_type_symbol
 _atom_site_label
 _atom_site_symmetry_multiplicity
 _atom_site_fract_x
 _atom_site_fract_y
 _atom_site_fract_z
 _atom_site_occupancy
  Er  Er0  1  0.549705  0.450295  0.250000  1
  Er  Er1  1  0.450295  0.549705  0.750000  1
  Fe  Fe2  1  0.834402  0.165598  0.062441  1
  Fe  Fe3  1  0.165598  0.834402  0.937559  1
  Fe  Fe4  1  0.165598  0.834402  0.562441  1
  Fe  Fe5  1  0.834402  0.165598  0.437559  1
  Si  Si6  1  0.269087  0.730913  0.250000  1
  Si  Si7  1  0.730913  0.269087  0.750000  1
  C  C8  1  0.000000  0.000000  0.000000  1
  C  C9  1  0.000000  0.000000  0.500000  1
