# generated using pymatgen
data_Ac5Ge2Ru
_symmetry_space_group_name_H-M   'P 1'
_cell_length_a   8.52341000
_cell_length_b   9.36413600
_cell_length_c   13.12631900
_cell_angle_alpha   90.00000000
_cell_angle_beta   90.00000000
_cell_angle_gamma   90.00000000
_symmetry_Int_Tables_number   1
_chemical_formula_structural   Ac5Ge2Ru
_chemical_formula_sum   'Ac20 Ge8 Ru4'
_cell_volume   1047.66888697
_cell_formula_units_Z   4
loop_
 _symmetry_equiv_pos_site_id
 _symmetry_equiv_pos_as_xyz
  1  'x, y, z'
loop_
 _atom_site_type_symbol
 _atom_site_label
 _atom_site_symmetry_multiplicity
 _atom_site_fract_x
 _atom_site_fract_y
 _atom_site_fract_z
 _atom_site_occupancy
  Ac  Ac0  1  0.673665  0.465695  0.917342  1
  Ac  Ac1  1  0.173665  0.965696  0.582658  1
  Ac  Ac2  1  0.673665  0.034305  0.917342  1
  Ac  Ac3  1  0.826335  0.465695  0.417342  1
  Ac  Ac4  1  0.954028  0.750000  0.998013  1
  Ac  Ac5  1  0.454028  0.250000  0.501987  1
  Ac  Ac6  1  0.045972  0.250000  0.001987  1
  Ac  Ac7  1  0.545972  0.750000  0.498013  1
  Ac  Ac8  1  0.326335  0.534304  0.082658  1
  Ac  Ac9  1  0.826335  0.034305  0.417342  1
  Ac  Ac10  1  0.326335  0.965696  0.082658  1
  Ac  Ac11  1  0.173665  0.534304  0.582658  1
  Ac  Ac12  1  0.353332  0.750000  0.805099  1
  Ac  Ac13  1  0.853332  0.250000  0.694901  1
  Ac  Ac14  1  0.646668  0.250000  0.194901  1
  Ac  Ac15  1  0.146668  0.750000  0.305099  1
  Ac  Ac16  1  0.826764  0.750000  0.711307  1
  Ac  Ac17  1  0.326764  0.250000  0.788693  1
  Ac  Ac18  1  0.173236  0.250000  0.288693  1
  Ac  Ac19  1  0.673236  0.750000  0.211307  1
  Ge  Ge20  1  0.549639  0.496980  0.674524  1
  Ge  Ge21  1  0.950361  0.003020  0.174524  1
  Ge  Ge22  1  0.450361  0.996980  0.325476  1
  Ge  Ge23  1  0.049639  0.503020  0.825476  1
  Ge  Ge24  1  0.450361  0.503020  0.325476  1
  Ge  Ge25  1  0.049639  0.996980  0.825476  1
  Ge  Ge26  1  0.549639  0.003020  0.674524  1
  Ge  Ge27  1  0.950361  0.496980  0.174524  1
  Ru  Ru28  1  0.583365  0.750000  0.986838  1
  Ru  Ru29  1  0.083365  0.250000  0.513162  1
  Ru  Ru30  1  0.416635  0.250000  0.013162  1
  Ru  Ru31  1  0.916635  0.750000  0.486838  1
