# generated using pymatgen
data_Rb4Ge2BiAu6
_symmetry_space_group_name_H-M   'P 1'
_cell_length_a   10.61985428
_cell_length_b   10.61985435
_cell_length_c   10.61985496
_cell_angle_alpha   37.25682017
_cell_angle_beta   37.25682054
_cell_angle_gamma   37.25681922
_symmetry_Int_Tables_number   1
_chemical_formula_structural   Rb4Ge2BiAu6
_chemical_formula_sum   'Rb4 Ge2 Bi1 Au6'
_cell_volume   393.49637812
_cell_formula_units_Z   1
loop_
 _symmetry_equiv_pos_site_id
 _symmetry_equiv_pos_as_xyz
  1  'x, y, z'
loop_
 _atom_site_type_symbol
 _atom_site_label
 _atom_site_symmetry_multiplicity
 _atom_site_fract_x
 _atom_site_fract_y
 _atom_site_fract_z
 _atom_site_occupancy
  Rb  Rb0  1  0.682795  0.682795  0.682795  1
  Rb  Rb1  1  0.317205  0.317205  0.317205  1
  Rb  Rb2  1  0.810410  0.810410  0.810410  1
  Rb  Rb3  1  0.189590  0.189590  0.189590  1
  Ge  Ge4  1  0.544359  0.544359  0.544359  1
  Ge  Ge5  1  0.455641  0.455641  0.455641  1
  Bi  Bi6  1  0.000000  0.000000  0.000000  1
  Au  Au7  1  0.228299  0.228299  0.794060  1
  Au  Au8  1  0.794060  0.228299  0.228299  1
  Au  Au9  1  0.228299  0.794060  0.228299  1
  Au  Au10  1  0.771701  0.205940  0.771701  1
  Au  Au11  1  0.771701  0.771701  0.205940  1
  Au  Au12  1  0.205940  0.771701  0.771701  1
