# generated using pymatgen
data_SrLa3(PPt3)8
_symmetry_space_group_name_H-M   'P 1'
_cell_length_a   8.57499551
_cell_length_b   8.57499482
_cell_length_c   8.57499500
_cell_angle_alpha   89.83745339
_cell_angle_beta   90.16254659
_cell_angle_gamma   90.16254605
_symmetry_Int_Tables_number   1
_chemical_formula_structural   SrLa3(PPt3)8
_chemical_formula_sum   'Sr1 La3 P8 Pt24'
_cell_volume   630.51643279
_cell_formula_units_Z   1
loop_
 _symmetry_equiv_pos_site_id
 _symmetry_equiv_pos_as_xyz
  1  'x, y, z'
loop_
 _atom_site_type_symbol
 _atom_site_label
 _atom_site_symmetry_multiplicity
 _atom_site_fract_x
 _atom_site_fract_y
 _atom_site_fract_z
 _atom_site_occupancy
  Sr  Sr0  1  0.500000  0.500000  0.000000  1
  La  La1  1  0.500000  0.000000  0.500000  1
  La  La2  1  0.000000  0.500000  0.500000  1
  La  La3  1  0.000000  0.000000  0.000000  1
  P  P4  1  0.803839  0.306985  0.195277  1
  P  P5  1  0.194734  0.805266  0.305266  1
  P  P6  1  0.693015  0.695277  0.696161  1
  P  P7  1  0.304723  0.196161  0.806985  1
  P  P8  1  0.196161  0.693015  0.804723  1
  P  P9  1  0.805266  0.194734  0.694734  1
  P  P10  1  0.306985  0.304723  0.303839  1
  P  P11  1  0.695277  0.803839  0.193015  1
  Pt  Pt12  1  0.423264  0.844967  0.160773  1
  Pt  Pt13  1  0.576736  0.338909  0.346399  1
  Pt  Pt14  1  0.077788  0.156570  0.657815  1
  Pt  Pt15  1  0.921542  0.657658  0.842366  1
  Pt  Pt16  1  0.153601  0.423264  0.838909  1
  Pt  Pt17  1  0.339227  0.576736  0.344967  1
  Pt  Pt18  1  0.657634  0.078458  0.157658  1
  Pt  Pt19  1  0.842185  0.922212  0.656570  1
  Pt  Pt20  1  0.843430  0.157815  0.422212  1
  Pt  Pt21  1  0.342342  0.342366  0.578458  1
  Pt  Pt22  1  0.155033  0.660773  0.076736  1
  Pt  Pt23  1  0.661091  0.846399  0.923264  1
  Pt  Pt24  1  0.576736  0.155033  0.839227  1
  Pt  Pt25  1  0.423264  0.661091  0.653601  1
  Pt  Pt26  1  0.922212  0.843430  0.342185  1
  Pt  Pt27  1  0.078458  0.342342  0.157634  1
  Pt  Pt28  1  0.846399  0.576736  0.161091  1
  Pt  Pt29  1  0.660773  0.423264  0.655033  1
  Pt  Pt30  1  0.342366  0.921542  0.842342  1
  Pt  Pt31  1  0.157815  0.077788  0.343430  1
  Pt  Pt32  1  0.156570  0.842185  0.577788  1
  Pt  Pt33  1  0.657658  0.657634  0.421542  1
  Pt  Pt34  1  0.844967  0.339227  0.923264  1
  Pt  Pt35  1  0.338909  0.153601  0.076736  1
