# generated using pymatgen
data_LiGdTlF5
_symmetry_space_group_name_H-M   'P 1'
_cell_length_a   12.17066300
_cell_length_b   6.53762592
_cell_length_c   6.74242900
_cell_angle_alpha   65.85461633
_cell_angle_beta   90.00000000
_cell_angle_gamma   90.00000000
_symmetry_Int_Tables_number   1
_chemical_formula_structural   LiGdTlF5
_chemical_formula_sum   'Li4 Gd4 Tl4 F20'
_cell_volume   489.54039588
_cell_formula_units_Z   4
loop_
 _symmetry_equiv_pos_site_id
 _symmetry_equiv_pos_as_xyz
  1  'x, y, z'
loop_
 _atom_site_type_symbol
 _atom_site_label
 _atom_site_symmetry_multiplicity
 _atom_site_fract_x
 _atom_site_fract_y
 _atom_site_fract_z
 _atom_site_occupancy
  Li  Li0  1  0.749516  0.462737  0.444562  1
  Li  Li1  1  0.750484  0.962737  0.444562  1
  Li  Li2  1  0.250484  0.537263  0.555438  1
  Li  Li3  1  0.249516  0.037263  0.555438  1
  Gd  Gd4  1  0.996443  0.319565  0.321955  1
  Gd  Gd5  1  0.003557  0.680435  0.678045  1
  Gd  Gd6  1  0.503557  0.819565  0.321955  1
  Gd  Gd7  1  0.496443  0.180435  0.678045  1
  Tl  Tl8  1  0.845989  0.033373  0.946818  1
  Tl  Tl9  1  0.654011  0.533373  0.946818  1
  Tl  Tl10  1  0.345989  0.466627  0.053182  1
  Tl  Tl11  1  0.154011  0.966627  0.053182  1
  F  F12  1  0.671441  0.288530  0.694823  1
  F  F13  1  0.604154  0.971831  0.532967  1
  F  F14  1  0.328559  0.711470  0.305177  1
  F  F15  1  0.008330  0.328919  0.958602  1
  F  F16  1  0.171441  0.211470  0.305177  1
  F  F17  1  0.395846  0.028169  0.467033  1
  F  F18  1  0.895846  0.471831  0.532967  1
  F  F19  1  0.526480  0.453759  0.334515  1
  F  F20  1  0.806361  0.267060  0.305171  1
  F  F21  1  0.306361  0.232940  0.694829  1
  F  F22  1  0.473520  0.546241  0.665485  1
  F  F23  1  0.991670  0.671081  0.041398  1
  F  F24  1  0.193639  0.732940  0.694829  1
  F  F25  1  0.508330  0.171081  0.041398  1
  F  F26  1  0.973520  0.953759  0.334515  1
  F  F27  1  0.693639  0.767060  0.305171  1
  F  F28  1  0.026480  0.046241  0.665485  1
  F  F29  1  0.828559  0.788530  0.694823  1
  F  F30  1  0.104154  0.528169  0.467033  1
  F  F31  1  0.491670  0.828919  0.958602  1
