# generated using pymatgen
data_Tb2YMg3Si2Ag
_symmetry_space_group_name_H-M   'P 1'
_cell_length_a   7.28477500
_cell_length_b   7.27883667
_cell_length_c   4.33474000
_cell_angle_alpha   90.00000000
_cell_angle_beta   90.00000000
_cell_angle_gamma   120.02699581
_symmetry_Int_Tables_number   1
_chemical_formula_structural   Tb2YMg3Si2Ag
_chemical_formula_sum   'Tb2 Y1 Mg3 Si2 Ag1'
_cell_volume   199.00023889
_cell_formula_units_Z   1
loop_
 _symmetry_equiv_pos_site_id
 _symmetry_equiv_pos_as_xyz
  1  'x, y, z'
loop_
 _atom_site_type_symbol
 _atom_site_label
 _atom_site_symmetry_multiplicity
 _atom_site_fract_x
 _atom_site_fract_y
 _atom_site_fract_z
 _atom_site_occupancy
  Tb  Tb0  1  0.422863  0.422728  0.500000  1
  Tb  Tb1  1  0.000135  0.577272  0.500000  1
  Y  Y2  1  0.577129  0.000000  0.500000  1
  Mg  Mg3  1  0.751719  0.751773  0.000000  1
  Mg  Mg4  1  0.248368  0.000000  0.000000  1
  Mg  Mg5  1  0.999946  0.248227  0.000000  1
  Si  Si6  1  0.666614  0.333276  0.000000  1
  Si  Si7  1  0.333337  0.666724  0.000000  1
  Ag  Ag8  1  0.999890  0.000000  0.500000  1
