# generated using pymatgen
data_La11Y(CoGe2)4
_symmetry_space_group_name_H-M   'P 1'
_cell_length_a   4.31663100
_cell_length_b   11.65297486
_cell_length_c   12.19012125
_cell_angle_alpha   90.50039383
_cell_angle_beta   90.00000000
_cell_angle_gamma   90.00000000
_symmetry_Int_Tables_number   1
_chemical_formula_structural   La11Y(CoGe2)4
_chemical_formula_sum   'La11 Y1 Co4 Ge8'
_cell_volume   613.15912723
_cell_formula_units_Z   1
loop_
 _symmetry_equiv_pos_site_id
 _symmetry_equiv_pos_as_xyz
  1  'x, y, z'
loop_
 _atom_site_type_symbol
 _atom_site_label
 _atom_site_symmetry_multiplicity
 _atom_site_fract_x
 _atom_site_fract_y
 _atom_site_fract_z
 _atom_site_occupancy
  La  La0  1  0.250000  0.367463  0.052743  1
  La  La1  1  0.750000  0.627319  0.944960  1
  La  La2  1  0.750000  0.874687  0.444702  1
  La  La3  1  0.250000  0.129030  0.559014  1
  La  La4  1  0.250000  0.700937  0.223341  1
  La  La5  1  0.750000  0.295936  0.774070  1
  La  La6  1  0.750000  0.200355  0.272713  1
  La  La7  1  0.250000  0.801966  0.724633  1
  La  La8  1  0.250000  0.445344  0.381383  1
  La  La9  1  0.750000  0.554272  0.618001  1
  La  La10  1  0.750000  0.943017  0.117581  1
  Y  Y11  1  0.250000  0.052221  0.888223  1
  Co  Co12  1  0.250000  0.132410  0.126573  1
  Co  Co13  1  0.750000  0.866923  0.871488  1
  Co  Co14  1  0.750000  0.638327  0.368880  1
  Co  Co15  1  0.250000  0.364964  0.629304  1
  Ge  Ge16  1  0.250000  0.686847  0.476462  1
  Ge  Ge17  1  0.750000  0.313400  0.522001  1
  Ge  Ge18  1  0.750000  0.180232  0.018157  1
  Ge  Ge19  1  0.250000  0.817952  0.974452  1
  Ge  Ge20  1  0.250000  0.006213  0.301082  1
  Ge  Ge21  1  0.750000  0.001848  0.710754  1
  Ge  Ge22  1  0.750000  0.504456  0.198140  1
  Ge  Ge23  1  0.250000  0.493879  0.801343  1
