# generated using pymatgen
data_Dy12ZnInGa4
_symmetry_space_group_name_H-M   'P 1'
_cell_length_a   8.62256487
_cell_length_b   8.62256385
_cell_length_c   8.62256464
_cell_angle_alpha   111.94994059
_cell_angle_beta   112.26455610
_cell_angle_gamma   104.31897568
_symmetry_Int_Tables_number   1
_chemical_formula_structural   Dy12ZnInGa4
_chemical_formula_sum   'Dy12 Zn1 In1 Ga4'
_cell_volume   490.53928713
_cell_formula_units_Z   1
loop_
 _symmetry_equiv_pos_site_id
 _symmetry_equiv_pos_as_xyz
  1  'x, y, z'
loop_
 _atom_site_type_symbol
 _atom_site_label
 _atom_site_symmetry_multiplicity
 _atom_site_fract_x
 _atom_site_fract_y
 _atom_site_fract_z
 _atom_site_occupancy
  Dy  Dy0  1  0.431402  0.234422  0.196981  1
  Dy  Dy1  1  0.568598  0.765578  0.803019  1
  Dy  Dy2  1  0.037441  0.234422  0.803019  1
  Dy  Dy3  1  0.962559  0.765578  0.196981  1
  Dy  Dy4  1  0.180179  0.274597  0.454775  1
  Dy  Dy5  1  0.819821  0.725403  0.545225  1
  Dy  Dy6  1  0.180179  0.725403  0.905582  1
  Dy  Dy7  1  0.819821  0.274597  0.094418  1
  Dy  Dy8  1  0.319634  0.615632  0.295997  1
  Dy  Dy9  1  0.680366  0.384368  0.704003  1
  Dy  Dy10  1  0.319634  0.023636  0.704003  1
  Dy  Dy11  1  0.680366  0.976364  0.295997  1
  Zn  Zn12  1  0.000000  0.000000  0.000000  1
  In  In13  1  0.500000  0.500000  0.000000  1
  Ga  Ga14  1  0.355024  0.000000  0.355024  1
  Ga  Ga15  1  0.644976  0.000000  0.644976  1
  Ga  Ga16  1  0.121236  0.621236  0.500000  1
  Ga  Ga17  1  0.878764  0.378764  0.500000  1
