# generated using pymatgen
data_YbZr(TaS2)6
_symmetry_space_group_name_H-M   'P 1'
_cell_length_a   5.82601000
_cell_length_b   5.82600943
_cell_length_c   13.56495700
_cell_angle_alpha   90.00000000
_cell_angle_beta   90.00000000
_cell_angle_gamma   120.00000326
_symmetry_Int_Tables_number   1
_chemical_formula_structural   YbZr(TaS2)6
_chemical_formula_sum   'Yb1 Zr1 Ta6 S12'
_cell_volume   398.74150850
_cell_formula_units_Z   1
loop_
 _symmetry_equiv_pos_site_id
 _symmetry_equiv_pos_as_xyz
  1  'x, y, z'
loop_
 _atom_site_type_symbol
 _atom_site_label
 _atom_site_symmetry_multiplicity
 _atom_site_fract_x
 _atom_site_fract_y
 _atom_site_fract_z
 _atom_site_occupancy
  Yb  Yb0  1  0.333333  0.666667  0.250000  1
  Zr  Zr1  1  0.666667  0.333333  0.750000  1
  Ta  Ta2  1  0.333333  0.666667  0.512953  1
  Ta  Ta3  1  0.666667  0.333333  0.987882  1
  Ta  Ta4  1  0.666667  0.333333  0.512118  1
  Ta  Ta5  1  0.333333  0.666667  0.987047  1
  Ta  Ta6  1  0.000000  0.000000  0.512732  1
  Ta  Ta7  1  0.000000  0.000000  0.987268  1
  S  S8  1  0.331997  0.331001  0.102781  1
  S  S9  1  0.668999  0.000996  0.102781  1
  S  S10  1  0.999004  0.668003  0.102781  1
  S  S11  1  0.003799  0.333184  0.628530  1
  S  S12  1  0.666816  0.996201  0.871470  1
  S  S13  1  0.666816  0.670615  0.628530  1
  S  S14  1  0.329385  0.996201  0.628530  1
  S  S15  1  0.668999  0.668003  0.397219  1
  S  S16  1  0.331997  0.000996  0.397219  1
  S  S17  1  0.329385  0.333184  0.871470  1
  S  S18  1  0.003799  0.670615  0.871470  1
  S  S19  1  0.999004  0.331001  0.397219  1
