# generated using pymatgen
data_Os3RuPb4O13
_symmetry_space_group_name_H-M   'P 1'
_cell_length_a   7.38273850
_cell_length_b   7.39815940
_cell_length_c   7.39815900
_cell_angle_alpha   59.99999732
_cell_angle_beta   59.93087700
_cell_angle_gamma   59.93087554
_symmetry_Int_Tables_number   1
_chemical_formula_structural   Os3RuPb4O13
_chemical_formula_sum   'Os3 Ru1 Pb4 O13'
_cell_volume   285.42714947
_cell_formula_units_Z   1
loop_
 _symmetry_equiv_pos_site_id
 _symmetry_equiv_pos_as_xyz
  1  'x, y, z'
loop_
 _atom_site_type_symbol
 _atom_site_label
 _atom_site_symmetry_multiplicity
 _atom_site_fract_x
 _atom_site_fract_y
 _atom_site_fract_z
 _atom_site_occupancy
  Os  Os0  1  0.873442  0.375676  0.875441  1
  Os  Os1  1  0.873442  0.875441  0.375676  1
  Os  Os2  1  0.873442  0.875441  0.875441  1
  Ru  Ru3  1  0.375208  0.874930  0.874930  1
  Pb  Pb4  1  0.879205  0.373598  0.373598  1
  Pb  Pb5  1  0.367041  0.375822  0.375822  1
  Pb  Pb6  1  0.367041  0.375822  0.881315  1
  Pb  Pb7  1  0.367041  0.881315  0.375822  1
  O  O8  1  0.196764  0.798925  0.798925  1
  O  O9  1  0.196764  0.798925  0.205386  1
  O  O10  1  0.560750  0.942109  0.942109  1
  O  O11  1  0.560750  0.942109  0.555030  1
  O  O12  1  0.943803  0.945072  0.555562  1
  O  O13  1  0.806668  0.802296  0.195518  1
  O  O14  1  0.560750  0.555030  0.942109  1
  O  O15  1  0.806668  0.195518  0.802296  1
  O  O16  1  0.806668  0.195518  0.195518  1
  O  O17  1  0.943803  0.555562  0.945072  1
  O  O18  1  0.943803  0.555562  0.555562  1
  O  O19  1  0.196764  0.205386  0.798925  1
  O  O20  1  0.500179  0.499940  0.499940  1
