# generated using pymatgen
data_Ti6Ir9Rh
_symmetry_space_group_name_H-M   'P 1'
_cell_length_a   4.05940600
_cell_length_b   5.45243721
_cell_length_c   10.75965707
_cell_angle_alpha   89.80155106
_cell_angle_beta   90.00000000
_cell_angle_gamma   90.00000000
_symmetry_Int_Tables_number   1
_chemical_formula_structural   Ti6Ir9Rh
_chemical_formula_sum   'Ti6 Ir9 Rh1'
_cell_volume   238.14912324
_cell_formula_units_Z   1
loop_
 _symmetry_equiv_pos_site_id
 _symmetry_equiv_pos_as_xyz
  1  'x, y, z'
loop_
 _atom_site_type_symbol
 _atom_site_label
 _atom_site_symmetry_multiplicity
 _atom_site_fract_x
 _atom_site_fract_y
 _atom_site_fract_z
 _atom_site_occupancy
  Ti  Ti0  1  0.000000  0.000000  0.000000  1
  Ti  Ti1  1  0.000000  0.500000  0.500000  1
  Ti  Ti2  1  0.500000  0.322792  0.142230  1
  Ti  Ti3  1  0.500000  0.677208  0.857770  1
  Ti  Ti4  1  0.500000  0.822149  0.357813  1
  Ti  Ti5  1  0.500000  0.177851  0.642187  1
  Ir  Ir6  1  0.000000  0.000000  0.500000  1
  Ir  Ir7  1  0.000000  0.066540  0.244023  1
  Ir  Ir8  1  0.000000  0.933460  0.755977  1
  Ir  Ir9  1  0.000000  0.566244  0.255543  1
  Ir  Ir10  1  0.000000  0.433756  0.744457  1
  Ir  Ir11  1  0.500000  0.303395  0.389336  1
  Ir  Ir12  1  0.500000  0.696605  0.610664  1
  Ir  Ir13  1  0.500000  0.804697  0.110693  1
  Ir  Ir14  1  0.500000  0.195303  0.889307  1
  Rh  Rh15  1  0.000000  0.500000  0.000000  1
