# generated using pymatgen
data_TmLu(Ga3Rh)3
_symmetry_space_group_name_H-M   'P 1'
_cell_length_a   7.53507326
_cell_length_b   7.53567181
_cell_length_c   9.49614700
_cell_angle_alpha   90.00000000
_cell_angle_beta   90.00000000
_cell_angle_gamma   119.78216312
_symmetry_Int_Tables_number   1
_chemical_formula_structural   TmLu(Ga3Rh)3
_chemical_formula_sum   'Tm2 Lu2 Ga18 Rh6'
_cell_volume   467.99007570
_cell_formula_units_Z   2
loop_
 _symmetry_equiv_pos_site_id
 _symmetry_equiv_pos_as_xyz
  1  'x, y, z'
loop_
 _atom_site_type_symbol
 _atom_site_label
 _atom_site_symmetry_multiplicity
 _atom_site_fract_x
 _atom_site_fract_y
 _atom_site_fract_z
 _atom_site_occupancy
  Tm  Tm0  1  0.997941  0.669725  0.250000  1
  Tm  Tm1  1  0.002059  0.330275  0.750000  1
  Lu  Lu2  1  0.669720  0.997945  0.250000  1
  Lu  Lu3  1  0.330280  0.002055  0.750000  1
  Ga  Ga4  1  0.338925  0.549468  0.250000  1
  Ga  Ga5  1  0.661075  0.450532  0.750000  1
  Ga  Ga6  1  0.549369  0.338778  0.250000  1
  Ga  Ga7  1  0.450631  0.661222  0.750000  1
  Ga  Ga8  1  0.999923  0.334863  0.080952  1
  Ga  Ga9  1  0.000077  0.665137  0.919048  1
  Ga  Ga10  1  0.000077  0.665137  0.580952  1
  Ga  Ga11  1  0.335113  0.000050  0.419113  1
  Ga  Ga12  1  0.999923  0.334863  0.419048  1
  Ga  Ga13  1  0.664887  0.999950  0.580887  1
  Ga  Ga14  1  0.664887  0.999950  0.919113  1
  Ga  Ga15  1  0.335113  0.000050  0.080887  1
  Ga  Ga16  1  0.332269  0.332152  0.566547  1
  Ga  Ga17  1  0.667731  0.667848  0.433453  1
  Ga  Ga18  1  0.667731  0.667848  0.066547  1
  Ga  Ga19  1  0.332269  0.332152  0.933453  1
  Ga  Ga20  1  0.125872  0.125922  0.250000  1
  Ga  Ga21  1  0.874128  0.874078  0.750000  1
  Rh  Rh22  1  0.671876  0.328053  0.999995  1
  Rh  Rh23  1  0.328124  0.671947  0.000005  1
  Rh  Rh24  1  0.328124  0.671947  0.499995  1
  Rh  Rh25  1  0.671876  0.328053  0.500005  1
  Rh  Rh26  1  0.000000  0.000000  0.000000  1
  Rh  Rh27  1  0.000000  0.000000  0.500000  1
