# generated using pymatgen
data_DyBi(AuO3)2
_symmetry_space_group_name_H-M   'P 1'
_cell_length_a   3.94190900
_cell_length_b   13.23659400
_cell_length_c   5.62335600
_cell_angle_alpha   90.00000000
_cell_angle_beta   90.00000000
_cell_angle_gamma   90.00000000
_symmetry_Int_Tables_number   1
_chemical_formula_structural   DyBi(AuO3)2
_chemical_formula_sum   'Dy2 Bi2 Au4 O12'
_cell_volume   293.41237100
_cell_formula_units_Z   2
loop_
 _symmetry_equiv_pos_site_id
 _symmetry_equiv_pos_as_xyz
  1  'x, y, z'
loop_
 _atom_site_type_symbol
 _atom_site_label
 _atom_site_symmetry_multiplicity
 _atom_site_fract_x
 _atom_site_fract_y
 _atom_site_fract_z
 _atom_site_occupancy
  Dy  Dy0  1  0.727354  0.420462  0.750000  1
  Dy  Dy1  1  0.272645  0.920462  0.750000  1
  Bi  Bi2  1  0.804074  0.069810  0.249999  1
  Bi  Bi3  1  0.195925  0.569810  0.249999  1
  Au  Au4  1  0.404853  0.331364  0.249999  1
  Au  Au5  1  0.595149  0.831364  0.249999  1
  Au  Au6  1  0.435629  0.170663  0.750000  1
  Au  Au7  1  0.564373  0.670662  0.750000  1
  O  O8  1  0.669158  0.261536  0.989464  1
  O  O9  1  0.330841  0.761536  0.989464  1
  O  O10  1  0.273624  0.068030  0.990570  1
  O  O11  1  0.726375  0.568030  0.990570  1
  O  O12  1  0.273624  0.068030  0.509431  1
  O  O13  1  0.726375  0.568030  0.509431  1
  O  O14  1  0.669158  0.261536  0.510536  1
  O  O15  1  0.330841  0.761536  0.510536  1
  O  O16  1  0.208326  0.424285  0.499838  1
  O  O17  1  0.791673  0.924285  0.499838  1
  O  O18  1  0.208326  0.424285  0.000161  1
  O  O19  1  0.791673  0.924285  0.000161  1
