# generated using pymatgen
data_Li4LaNd3Pt4
_symmetry_space_group_name_H-M   'P 1'
_cell_length_a   4.12345300
_cell_length_b   7.27537418
_cell_length_c   8.62963314
_cell_angle_alpha   90.03058807
_cell_angle_beta   90.00000000
_cell_angle_gamma   90.00000000
_symmetry_Int_Tables_number   1
_chemical_formula_structural   Li4LaNd3Pt4
_chemical_formula_sum   'Li4 La1 Nd3 Pt4'
_cell_volume   258.88605355
_cell_formula_units_Z   1
loop_
 _symmetry_equiv_pos_site_id
 _symmetry_equiv_pos_as_xyz
  1  'x, y, z'
loop_
 _atom_site_type_symbol
 _atom_site_label
 _atom_site_symmetry_multiplicity
 _atom_site_fract_x
 _atom_site_fract_y
 _atom_site_fract_z
 _atom_site_occupancy
  Li  Li0  1  0.250000  0.128038  0.057526  1
  Li  Li1  1  0.250000  0.626673  0.442765  1
  Li  Li2  1  0.750000  0.869483  0.945909  1
  Li  Li3  1  0.750000  0.375808  0.555151  1
  La  La4  1  0.250000  0.046546  0.686413  1
  Nd  Nd5  1  0.250000  0.546375  0.816959  1
  Nd  Nd6  1  0.750000  0.952985  0.312289  1
  Nd  Nd7  1  0.750000  0.452959  0.185124  1
  Pt  Pt8  1  0.250000  0.247523  0.379516  1
  Pt  Pt9  1  0.250000  0.746468  0.119073  1
  Pt  Pt10  1  0.750000  0.753025  0.618484  1
  Pt  Pt11  1  0.750000  0.254118  0.880791  1
