# generated using pymatgen
data_Li30Si5Sb3
_symmetry_space_group_name_H-M   'P 1'
_cell_length_a   9.33313617
_cell_length_b   9.35091673
_cell_length_c   9.34059105
_cell_angle_alpha   109.46427531
_cell_angle_beta   109.45880635
_cell_angle_gamma   109.46740543
_symmetry_Int_Tables_number   1
_chemical_formula_structural   Li30Si5Sb3
_chemical_formula_sum   'Li30 Si5 Sb3'
_cell_volume   627.70907420
_cell_formula_units_Z   1
loop_
 _symmetry_equiv_pos_site_id
 _symmetry_equiv_pos_as_xyz
  1  'x, y, z'
loop_
 _atom_site_type_symbol
 _atom_site_label
 _atom_site_symmetry_multiplicity
 _atom_site_fract_x
 _atom_site_fract_y
 _atom_site_fract_z
 _atom_site_occupancy
  Li  Li0  1  0.471448  0.167154  0.877510  1
  Li  Li1  1  0.911424  0.677561  0.029992  1
  Li  Li2  1  0.805496  0.711285  0.335013  1
  Li  Li3  1  0.767694  0.573961  0.603361  1
  Li  Li4  1  0.576777  0.600330  0.767886  1
  Li  Li5  1  0.600548  0.767507  0.576374  1
  Li  Li6  1  0.649437  0.962749  0.388233  1
  Li  Li7  1  0.416584  0.531148  0.193140  1
  Li  Li8  1  0.626756  0.383879  0.253214  1
  Li  Li9  1  0.248563  0.622806  0.372022  1
  Li  Li10  1  0.743178  0.861993  0.121606  1
  Li  Li11  1  0.120524  0.736891  0.869699  1
  Li  Li12  1  0.383774  0.254923  0.628902  1
  Li  Li13  1  0.871868  0.135388  0.752817  1
  Li  Li14  1  0.092746  0.291279  0.125313  1
  Li  Li15  1  0.686926  0.039308  0.905172  1
  Li  Li16  1  0.888402  0.472895  0.162867  1
  Li  Li17  1  0.163682  0.875119  0.465482  1
  Li  Li18  1  0.336051  0.805369  0.711829  1
  Li  Li19  1  0.725855  0.339130  0.810775  1
  Li  Li20  1  0.034407  0.901702  0.684010  1
  Li  Li21  1  0.230691  0.317907  0.851892  1
  Li  Li22  1  0.197691  0.427390  0.532339  1
  Li  Li23  1  0.971512  0.395280  0.665735  1
  Li  Li24  1  0.304630  0.831355  0.229320  1
  Li  Li25  1  0.529064  0.194318  0.424638  1
  Li  Li26  1  0.378260  0.647262  0.966006  1
  Li  Li27  1  0.135154  0.097030  0.284209  1
  Li  Li28  1  0.284708  0.137009  0.093744  1
  Li  Li29  1  0.848250  0.239404  0.316151  1
  Si  Si30  1  0.081615  0.499241  0.999054  1
  Si  Si31  1  0.999997  0.583302  0.500546  1
  Si  Si32  1  0.581942  0.500481  0.000451  1
  Si  Si33  1  0.500123  0.001350  0.583602  1
  Si  Si34  1  0.417105  0.417115  0.416801  1
  Sb  Sb35  1  0.918476  0.918571  0.919229  1
  Sb  Sb36  1  0.499214  0.999085  0.081187  1
  Sb  Sb37  1  0.999429  0.081526  0.499881  1
