# generated using pymatgen
data_Ti8Al14GeIr5PtRh
_symmetry_space_group_name_H-M   'P 1'
_cell_length_a   8.64746271
_cell_length_b   8.64746460
_cell_length_c   8.64746400
_cell_angle_alpha   119.97425632
_cell_angle_beta   119.74981140
_cell_angle_gamma   90.23923236
_symmetry_Int_Tables_number   1
_chemical_formula_structural   Ti8Al14GeIr5PtRh
_chemical_formula_sum   'Ti8 Al14 Ge1 Ir5 Pt1 Rh1'
_cell_volume   458.19445589
_cell_formula_units_Z   1
loop_
 _symmetry_equiv_pos_site_id
 _symmetry_equiv_pos_as_xyz
  1  'x, y, z'
loop_
 _atom_site_type_symbol
 _atom_site_label
 _atom_site_symmetry_multiplicity
 _atom_site_fract_x
 _atom_site_fract_y
 _atom_site_fract_z
 _atom_site_occupancy
  Ti  Ti0  1  0.794277  0.295741  0.083024  1
  Ti  Ti1  1  0.212716  0.295741  0.501464  1
  Ti  Ti2  1  0.204902  0.704906  0.500004  1
  Ti  Ti3  1  0.212727  0.711252  0.916981  1
  Ti  Ti4  1  0.794271  0.711252  0.498525  1
  Ti  Ti5  1  0.789119  0.289114  0.499995  1
  Ti  Ti6  1  0.379628  0.123485  0.743857  1
  Ti  Ti7  1  0.379628  0.635768  0.256141  1
  Al  Al8  1  0.157804  0.342628  0.184824  1
  Al  Al9  1  0.157777  0.972948  0.815171  1
  Al  Al10  1  0.153349  0.342987  0.810412  1
  Al  Al11  1  0.532574  0.342987  0.189639  1
  Al  Al12  1  0.840838  0.654095  0.813259  1
  Al  Al13  1  0.840825  0.027552  0.186729  1
  Al  Al14  1  0.839300  0.658530  0.180809  1
  Al  Al15  1  0.477720  0.658530  0.819231  1
  Al  Al16  1  0.385181  0.122101  0.263046  1
  Al  Al17  1  0.859055  0.122101  0.736920  1
  Al  Al18  1  0.620153  0.878305  0.258151  1
  Al  Al19  1  0.620168  0.362004  0.741837  1
  Al  Al20  1  0.616085  0.877392  0.738645  1
  Al  Al21  1  0.138747  0.877392  0.261306  1
  Ge  Ge22  1  0.997368  0.497434  0.500066  1
  Ir  Ir23  1  0.001805  0.000025  0.501908  1
  Ir  Ir24  1  0.498117  0.000025  0.998221  1
  Ir  Ir25  1  0.497356  0.497360  0.000004  1
  Ir  Ir26  1  0.498138  0.499906  0.498109  1
  Ir  Ir27  1  0.001797  0.499906  0.001767  1
  Pt  Pt28  1  0.999608  0.999573  0.999966  1
  Rh  Rh29  1  0.498967  0.998957  0.499990  1
