# generated using pymatgen
data_Tb6Mn(CrC4)3
_symmetry_space_group_name_H-M   'P 1'
_cell_length_a   8.13218700
_cell_length_b   8.13218716
_cell_length_c   5.02343300
_cell_angle_alpha   90.00000000
_cell_angle_beta   90.00000000
_cell_angle_gamma   119.99999529
_symmetry_Int_Tables_number   1
_chemical_formula_structural   Tb6Mn(CrC4)3
_chemical_formula_sum   'Tb6 Mn1 Cr3 C12'
_cell_volume   287.70405849
_cell_formula_units_Z   1
loop_
 _symmetry_equiv_pos_site_id
 _symmetry_equiv_pos_as_xyz
  1  'x, y, z'
loop_
 _atom_site_type_symbol
 _atom_site_label
 _atom_site_symmetry_multiplicity
 _atom_site_fract_x
 _atom_site_fract_y
 _atom_site_fract_z
 _atom_site_occupancy
  Tb  Tb0  1  0.621766  0.685746  0.750000  1
  Tb  Tb1  1  0.934855  0.619581  0.250000  1
  Tb  Tb2  1  0.684725  0.065145  0.250000  1
  Tb  Tb3  1  0.314254  0.936020  0.750000  1
  Tb  Tb4  1  0.063980  0.378234  0.750000  1
  Tb  Tb5  1  0.380419  0.315275  0.250000  1
  Mn  Mn6  1  0.333333  0.666667  0.250000  1
  Cr  Cr7  1  0.000000  0.000000  0.501971  1
  Cr  Cr8  1  0.000000  0.000000  0.998029  1
  Cr  Cr9  1  0.666667  0.333333  0.750000  1
  C  C10  1  0.963301  0.775457  0.750000  1
  C  C11  1  0.191651  0.962205  0.250000  1
  C  C12  1  0.770555  0.808349  0.250000  1
  C  C13  1  0.224543  0.187845  0.750000  1
  C  C14  1  0.812155  0.036699  0.750000  1
  C  C15  1  0.037795  0.229445  0.250000  1
  C  C16  1  0.864894  0.579613  0.750000  1
  C  C17  1  0.286763  0.862974  0.250000  1
  C  C18  1  0.576210  0.713237  0.250000  1
  C  C19  1  0.420387  0.285281  0.750000  1
  C  C20  1  0.137026  0.423790  0.250000  1
  C  C21  1  0.714719  0.135106  0.750000  1
