# generated using pymatgen
data_Tl3Sb2Br9
_symmetry_space_group_name_H-M   'P 1'
_cell_length_a   7.79445000
_cell_length_b   13.90322121
_cell_length_c   23.77806800
_cell_angle_alpha   55.30274755
_cell_angle_beta   90.00000000
_cell_angle_gamma   90.00000000
_symmetry_Int_Tables_number   1
_chemical_formula_structural   Tl3Sb2Br9
_chemical_formula_sum   'Tl12 Sb8 Br36'
_cell_volume   2118.55530674
_cell_formula_units_Z   4
loop_
 _symmetry_equiv_pos_site_id
 _symmetry_equiv_pos_as_xyz
  1  'x, y, z'
loop_
 _atom_site_type_symbol
 _atom_site_label
 _atom_site_symmetry_multiplicity
 _atom_site_fract_x
 _atom_site_fract_y
 _atom_site_fract_z
 _atom_site_occupancy
  Tl  Tl0  1  0.261908  0.007328  0.632666  1
  Tl  Tl1  1  0.738092  0.007328  0.132666  1
  Tl  Tl2  1  0.784111  0.416056  0.681585  1
  Tl  Tl3  1  0.215889  0.416056  0.181585  1
  Tl  Tl4  1  0.726269  0.686430  0.796111  1
  Tl  Tl5  1  0.273731  0.686430  0.296111  1
  Tl  Tl6  1  0.770558  0.069607  0.349398  1
  Tl  Tl7  1  0.229442  0.069607  0.849398  1
  Tl  Tl8  1  0.759708  0.757501  0.009162  1
  Tl  Tl9  1  0.240292  0.757501  0.509162  1
  Tl  Tl10  1  0.726089  0.342953  0.463974  1
  Tl  Tl11  1  0.273911  0.342953  0.963974  1
  Sb  Sb12  1  0.756360  0.206888  0.911600  1
  Sb  Sb13  1  0.243640  0.206888  0.411600  1
  Sb  Sb14  1  0.744186  0.699129  0.414002  1
  Sb  Sb15  1  0.255814  0.699129  0.914002  1
  Sb  Sb16  1  0.260241  0.553844  0.728841  1
  Sb  Sb17  1  0.739759  0.553844  0.228841  1
  Sb  Sb18  1  0.754756  0.053819  0.729697  1
  Sb  Sb19  1  0.245244  0.053819  0.229697  1
  Br  Br20  1  0.574549  0.437207  0.815777  1
  Br  Br21  1  0.425451  0.437207  0.315777  1
  Br  Br22  1  0.941981  0.854401  0.855780  1
  Br  Br23  1  0.058019  0.854401  0.355780  1
  Br  Br24  1  0.560057  0.224090  0.629630  1
  Br  Br25  1  0.439943  0.224090  0.129630  1
  Br  Br26  1  0.960036  0.186063  0.185747  1
  Br  Br27  1  0.039964  0.186063  0.685747  1
  Br  Br28  1  0.829817  0.280207  0.991931  1
  Br  Br29  1  0.170183  0.280207  0.491931  1
  Br  Br30  1  0.542485  0.567733  0.956096  1
  Br  Br31  1  0.457515  0.567733  0.456096  1
  Br  Br32  1  0.339531  0.483227  0.647889  1
  Br  Br33  1  0.660469  0.483227  0.147889  1
  Br  Br34  1  0.940470  0.009114  0.990429  1
  Br  Br35  1  0.059530  0.009114  0.490429  1
  Br  Br36  1  0.657884  0.142508  0.814641  1
  Br  Br37  1  0.342116  0.142508  0.314641  1
  Br  Br38  1  0.843311  0.613198  0.327971  1
  Br  Br39  1  0.156689  0.613198  0.827971  1
  Br  Br40  1  0.444868  0.751373  0.653359  1
  Br  Br41  1  0.555132  0.751373  0.153359  1
  Br  Br42  1  0.677225  0.789477  0.486842  1
  Br  Br43  1  0.322775  0.789477  0.986842  1
  Br  Br44  1  0.440066  0.899711  0.789081  1
  Br  Br45  1  0.559934  0.899711  0.289081  1
  Br  Br46  1  0.467225  0.100691  0.982116  1
  Br  Br47  1  0.532775  0.100691  0.482116  1
  Br  Br48  1  0.974813  0.662779  0.655813  1
  Br  Br49  1  0.025187  0.662779  0.155813  1
  Br  Br50  1  0.928658  0.323092  0.323316  1
  Br  Br51  1  0.071342  0.323092  0.823316  1
  Br  Br52  1  0.821829  0.962733  0.657518  1
  Br  Br53  1  0.178171  0.962733  0.157518  1
  Br  Br54  1  0.931998  0.523943  0.514627  1
  Br  Br55  1  0.068002  0.523943  0.014627  1
