# generated using pymatgen
data_Rb4MnZnSe4
_symmetry_space_group_name_H-M   'P 1'
_cell_length_a   8.49847014
_cell_length_b   8.49846928
_cell_length_c   8.49846988
_cell_angle_alpha   134.12795994
_cell_angle_beta   128.96720426
_cell_angle_gamma   71.02602567
_symmetry_Int_Tables_number   1
_chemical_formula_structural   Rb4MnZnSe4
_chemical_formula_sum   'Rb4 Mn1 Zn1 Se4'
_cell_volume   335.48757157
_cell_formula_units_Z   1
loop_
 _symmetry_equiv_pos_site_id
 _symmetry_equiv_pos_as_xyz
  1  'x, y, z'
loop_
 _atom_site_type_symbol
 _atom_site_label
 _atom_site_symmetry_multiplicity
 _atom_site_fract_x
 _atom_site_fract_y
 _atom_site_fract_z
 _atom_site_occupancy
  Rb  Rb0  1  0.813818  0.646580  0.168751  1
  Rb  Rb1  1  0.186182  0.354932  0.832762  1
  Rb  Rb2  1  0.522171  0.853420  0.667238  1
  Rb  Rb3  1  0.477829  0.145068  0.331249  1
  Mn  Mn4  1  0.000000  0.250000  0.250000  1
  Zn  Zn5  1  0.000000  0.750000  0.750000  1
  Se  Se6  1  0.285932  0.603410  0.687782  1
  Se  Se7  1  0.084372  0.896590  0.182523  1
  Se  Se8  1  0.915628  0.098150  0.812218  1
  Se  Se9  1  0.714068  0.401850  0.317477  1
