# generated using pymatgen
data_Th3Al3PdPtRh
_symmetry_space_group_name_H-M   'P 1'
_cell_length_a   7.31134600
_cell_length_b   7.31134431
_cell_length_c   4.15421200
_cell_angle_alpha   90.00000000
_cell_angle_beta   90.00000000
_cell_angle_gamma   119.99999859
_symmetry_Int_Tables_number   1
_chemical_formula_structural   Th3Al3PdPtRh
_chemical_formula_sum   'Th3 Al3 Pd1 Pt1 Rh1'
_cell_volume   192.31531348
_cell_formula_units_Z   1
loop_
 _symmetry_equiv_pos_site_id
 _symmetry_equiv_pos_as_xyz
  1  'x, y, z'
loop_
 _atom_site_type_symbol
 _atom_site_label
 _atom_site_symmetry_multiplicity
 _atom_site_fract_x
 _atom_site_fract_y
 _atom_site_fract_z
 _atom_site_occupancy
  Th  Th0  1  0.419255  0.424481  0.500000  1
  Th  Th1  1  0.575519  0.994774  0.500000  1
  Th  Th2  1  0.005226  0.580745  0.500000  1
  Al  Al3  1  0.765258  0.766904  0.000000  1
  Al  Al4  1  0.233096  0.998354  0.000000  1
  Al  Al5  1  0.001646  0.234742  0.000000  1
  Pd  Pd6  1  0.000000  0.000000  0.500000  1
  Pt  Pt7  1  0.666667  0.333333  0.000000  1
  Rh  Rh8  1  0.333333  0.666667  0.000000  1
