# generated using pymatgen
data_V12Ga5Cu(NiN2)2
_symmetry_space_group_name_H-M   'P 1'
_cell_length_a   6.54336725
_cell_length_b   6.54317435
_cell_length_c   6.54109210
_cell_angle_alpha   90.12763789
_cell_angle_beta   90.12019093
_cell_angle_gamma   90.11072368
_symmetry_Int_Tables_number   1
_chemical_formula_structural   V12Ga5Cu(NiN2)2
_chemical_formula_sum   'V12 Ga5 Cu1 Ni2 N4'
_cell_volume   280.05104928
_cell_formula_units_Z   1
loop_
 _symmetry_equiv_pos_site_id
 _symmetry_equiv_pos_as_xyz
  1  'x, y, z'
loop_
 _atom_site_type_symbol
 _atom_site_label
 _atom_site_symmetry_multiplicity
 _atom_site_fract_x
 _atom_site_fract_y
 _atom_site_fract_z
 _atom_site_occupancy
  V  V0  1  0.788254  0.963711  0.375525  1
  V  V1  1  0.710234  0.040932  0.875235  1
  V  V2  1  0.210915  0.458381  0.123658  1
  V  V3  1  0.288742  0.537488  0.625780  1
  V  V4  1  0.962934  0.375050  0.790179  1
  V  V5  1  0.040654  0.875387  0.711856  1
  V  V6  1  0.461555  0.125544  0.210349  1
  V  V7  1  0.540911  0.624006  0.288329  1
  V  V8  1  0.375804  0.790711  0.961154  1
  V  V9  1  0.873658  0.709010  0.039203  1
  V  V10  1  0.124498  0.212756  0.460605  1
  V  V11  1  0.624890  0.288032  0.539255  1
  Ga  Ga12  1  0.678249  0.678376  0.678403  1
  Ga  Ga13  1  0.569934  0.416794  0.934979  1
  Ga  Ga14  1  0.418192  0.936417  0.571990  1
  Ga  Ga15  1  0.933399  0.568235  0.417377  1
  Ga  Ga16  1  0.072817  0.075420  0.072460  1
  Cu  Cu17  1  0.178125  0.822324  0.319120  1
  Ni  Ni18  1  0.319158  0.178266  0.823073  1
  Ni  Ni19  1  0.822232  0.319252  0.177518  1
  N  N20  1  0.878119  0.125958  0.625348  1
  N  N21  1  0.624934  0.877730  0.124964  1
  N  N22  1  0.125813  0.624831  0.878525  1
  N  N23  1  0.375978  0.375390  0.375118  1
