# generated using pymatgen
data_La7Ce(Si3Pt)4
_symmetry_space_group_name_H-M   'P 1'
_cell_length_a   8.29169900
_cell_length_b   8.29169877
_cell_length_c   8.78183400
_cell_angle_alpha   90.00000000
_cell_angle_beta   90.00000000
_cell_angle_gamma   119.99999692
_symmetry_Int_Tables_number   1
_chemical_formula_structural   La7Ce(Si3Pt)4
_chemical_formula_sum   'La7 Ce1 Si12 Pt4'
_cell_volume   522.88106275
_cell_formula_units_Z   1
loop_
 _symmetry_equiv_pos_site_id
 _symmetry_equiv_pos_as_xyz
  1  'x, y, z'
loop_
 _atom_site_type_symbol
 _atom_site_label
 _atom_site_symmetry_multiplicity
 _atom_site_fract_x
 _atom_site_fract_y
 _atom_site_fract_z
 _atom_site_occupancy
  La  La0  1  0.000000  0.000000  0.750000  1
  La  La1  1  0.500087  0.499913  0.250000  1
  La  La2  1  0.500087  0.000175  0.250000  1
  La  La3  1  0.999825  0.499913  0.250000  1
  La  La4  1  0.499949  0.500051  0.750000  1
  La  La5  1  0.499949  0.999895  0.750000  1
  La  La6  1  0.000105  0.500051  0.750000  1
  Ce  Ce7  1  0.000000  0.000000  0.250000  1
  Si  Si8  1  0.164834  0.835166  0.496733  1
  Si  Si9  1  0.164834  0.329669  0.496733  1
  Si  Si10  1  0.670331  0.835166  0.496733  1
  Si  Si11  1  0.835168  0.164832  0.496189  1
  Si  Si12  1  0.835168  0.670335  0.496189  1
  Si  Si13  1  0.329665  0.164832  0.496189  1
  Si  Si14  1  0.835168  0.164832  0.003811  1
  Si  Si15  1  0.835168  0.670335  0.003811  1
  Si  Si16  1  0.329665  0.164832  0.003811  1
  Si  Si17  1  0.164834  0.835166  0.003267  1
  Si  Si18  1  0.164834  0.329669  0.003267  1
  Si  Si19  1  0.670331  0.835166  0.003267  1
  Pt  Pt20  1  0.333333  0.666667  0.501945  1
  Pt  Pt21  1  0.666667  0.333333  0.502950  1
  Pt  Pt22  1  0.666667  0.333333  0.997050  1
  Pt  Pt23  1  0.333333  0.666667  0.998055  1
