# generated using pymatgen
data_TbYb(CoC2)2
_symmetry_space_group_name_H-M   'P 1'
_cell_length_a   3.67615470
_cell_length_b   3.68856831
_cell_length_c   7.29664370
_cell_angle_alpha   82.14307162
_cell_angle_beta   82.47419764
_cell_angle_gamma   90.03073742
_symmetry_Int_Tables_number   1
_chemical_formula_structural   TbYb(CoC2)2
_chemical_formula_sum   'Tb1 Yb1 Co2 C4'
_cell_volume   97.15043652
_cell_formula_units_Z   1
loop_
 _symmetry_equiv_pos_site_id
 _symmetry_equiv_pos_as_xyz
  1  'x, y, z'
loop_
 _atom_site_type_symbol
 _atom_site_label
 _atom_site_symmetry_multiplicity
 _atom_site_fract_x
 _atom_site_fract_y
 _atom_site_fract_z
 _atom_site_occupancy
  Tb  Tb0  1  0.930744  0.070540  0.500161  1
  Yb  Yb1  1  0.069351  0.929730  0.999386  1
  Co  Co2  1  0.374730  0.510648  0.693303  1
  Co  Co3  1  0.509842  0.373141  0.192774  1
  C  C4  1  0.443754  0.592041  0.428082  1
  C  C5  1  0.593131  0.444794  0.929590  1
  C  C6  1  0.489115  0.857632  0.273575  1
  C  C7  1  0.856331  0.488473  0.776931  1
