# generated using pymatgen
data_Y8Tm4Co4SnOs
_symmetry_space_group_name_H-M   'P 1'
_cell_length_a   8.30200048
_cell_length_b   8.30200004
_cell_length_c   8.30200006
_cell_angle_alpha   111.68528717
_cell_angle_beta   110.21752561
_cell_angle_gamma   106.55326674
_symmetry_Int_Tables_number   1
_chemical_formula_structural   Y8Tm4Co4SnOs
_chemical_formula_sum   'Y8 Tm4 Co4 Sn1 Os1'
_cell_volume   439.55261898
_cell_formula_units_Z   1
loop_
 _symmetry_equiv_pos_site_id
 _symmetry_equiv_pos_as_xyz
  1  'x, y, z'
loop_
 _atom_site_type_symbol
 _atom_site_label
 _atom_site_symmetry_multiplicity
 _atom_site_fract_x
 _atom_site_fract_y
 _atom_site_fract_z
 _atom_site_occupancy
  Y  Y0  1  0.412210  0.217874  0.194336  1
  Y  Y1  1  0.587790  0.782126  0.805664  1
  Y  Y2  1  0.023539  0.217874  0.805664  1
  Y  Y3  1  0.976461  0.782126  0.194336  1
  Y  Y4  1  0.183522  0.283558  0.467081  1
  Y  Y5  1  0.816478  0.716442  0.532919  1
  Y  Y6  1  0.183522  0.716442  0.899964  1
  Y  Y7  1  0.816478  0.283558  0.100036  1
  Tm  Tm8  1  0.313939  0.623241  0.309299  1
  Tm  Tm9  1  0.686061  0.376759  0.690701  1
  Tm  Tm10  1  0.313939  0.004639  0.690701  1
  Tm  Tm11  1  0.686061  0.995361  0.309299  1
  Co  Co12  1  0.380607  0.000000  0.380607  1
  Co  Co13  1  0.619393  0.000000  0.619393  1
  Co  Co14  1  0.111634  0.611634  0.500000  1
  Co  Co15  1  0.888366  0.388366  0.500000  1
  Sn  Sn16  1  0.500000  0.500000  0.000000  1
  Os  Os17  1  0.000000  0.000000  0.000000  1
