# generated using pymatgen
data_Dy16Er4Si15Rh
_symmetry_space_group_name_H-M   'P 1'
_cell_length_a   7.42821643
_cell_length_b   7.66317094
_cell_length_c   14.58080512
_cell_angle_alpha   89.69293787
_cell_angle_beta   89.66528863
_cell_angle_gamma   90.19121429
_symmetry_Int_Tables_number   1
_chemical_formula_structural   Dy16Er4Si15Rh
_chemical_formula_sum   'Dy16 Er4 Si15 Rh1'
_cell_volume   829.96247351
_cell_formula_units_Z   1
loop_
 _symmetry_equiv_pos_site_id
 _symmetry_equiv_pos_as_xyz
  1  'x, y, z'
loop_
 _atom_site_type_symbol
 _atom_site_label
 _atom_site_symmetry_multiplicity
 _atom_site_fract_x
 _atom_site_fract_y
 _atom_site_fract_z
 _atom_site_occupancy
  Dy  Dy0  1  0.973868  0.816515  0.097851  1
  Dy  Dy1  1  0.470921  0.682744  0.401163  1
  Dy  Dy2  1  0.528858  0.321950  0.900546  1
  Dy  Dy3  1  0.029711  0.184134  0.599670  1
  Dy  Dy4  1  0.028331  0.184969  0.901841  1
  Dy  Dy5  1  0.529997  0.317849  0.598947  1
  Dy  Dy6  1  0.473616  0.682251  0.099475  1
  Dy  Dy7  1  0.969699  0.817226  0.400399  1
  Dy  Dy8  1  0.683609  0.811676  0.882298  1
  Dy  Dy9  1  0.179051  0.681535  0.621912  1
  Dy  Dy10  1  0.817549  0.333611  0.118096  1
  Dy  Dy11  1  0.315978  0.178128  0.376207  1
  Dy  Dy12  1  0.321087  0.179343  0.123466  1
  Dy  Dy13  1  0.819281  0.319131  0.377322  1
  Dy  Dy14  1  0.176160  0.675652  0.878404  1
  Dy  Dy15  1  0.683126  0.818852  0.622494  1
  Er  Er16  1  0.648591  0.992783  0.248700  1
  Er  Er17  1  0.148117  0.510432  0.247584  1
  Er  Er18  1  0.847807  0.488049  0.757836  1
  Er  Er19  1  0.352471  0.010184  0.752163  1
  Si  Si20  1  0.764970  0.629467  0.251748  1
  Si  Si21  1  0.265900  0.871865  0.250750  1
  Si  Si22  1  0.732792  0.124143  0.748707  1
  Si  Si23  1  0.234924  0.372616  0.746794  1
  Si  Si24  1  0.019293  0.106077  0.248853  1
  Si  Si25  1  0.522360  0.396713  0.251447  1
  Si  Si26  1  0.473122  0.605684  0.746857  1
  Si  Si27  1  0.977583  0.897585  0.748615  1
  Si  Si28  1  0.354492  0.972065  0.540178  1
  Si  Si29  1  0.646606  0.027533  0.042051  1
  Si  Si30  1  0.147116  0.470661  0.459770  1
  Si  Si31  1  0.155366  0.472385  0.041559  1
  Si  Si32  1  0.643708  0.028169  0.459241  1
  Si  Si33  1  0.353197  0.969514  0.960915  1
  Si  Si34  1  0.854798  0.528516  0.539063  1
  Rh  Rh35  1  0.855943  0.519992  0.957080  1
