# generated using pymatgen
data_Tb10DyYRh4
_symmetry_space_group_name_H-M   'P 1'
_cell_length_a   6.28952443
_cell_length_b   7.17920184
_cell_length_c   9.56396015
_cell_angle_alpha   89.99282314
_cell_angle_beta   89.98130061
_cell_angle_gamma   89.87703625
_symmetry_Int_Tables_number   1
_chemical_formula_structural   Tb10DyYRh4
_chemical_formula_sum   'Tb10 Dy1 Y1 Rh4'
_cell_volume   431.84779148
_cell_formula_units_Z   1
loop_
 _symmetry_equiv_pos_site_id
 _symmetry_equiv_pos_as_xyz
  1  'x, y, z'
loop_
 _atom_site_type_symbol
 _atom_site_label
 _atom_site_symmetry_multiplicity
 _atom_site_fract_x
 _atom_site_fract_y
 _atom_site_fract_z
 _atom_site_occupancy
  Tb  Tb0  1  0.169856  0.176822  0.436849  1
  Tb  Tb1  1  0.669429  0.322985  0.563279  1
  Tb  Tb2  1  0.830280  0.822951  0.936674  1
  Tb  Tb3  1  0.669409  0.323052  0.936776  1
  Tb  Tb4  1  0.830314  0.822977  0.563415  1
  Tb  Tb5  1  0.330581  0.677090  0.436455  1
  Tb  Tb6  1  0.169914  0.176797  0.063117  1
  Tb  Tb7  1  0.634500  0.032251  0.249946  1
  Tb  Tb8  1  0.134282  0.468057  0.750043  1
  Tb  Tb9  1  0.365731  0.967802  0.750071  1
  Dy  Dy10  1  0.330568  0.677053  0.063558  1
  Y  Y11  1  0.865808  0.531759  0.249936  1
  Rh  Rh12  1  0.061847  0.882730  0.249929  1
  Rh  Rh13  1  0.437347  0.381835  0.249907  1
  Rh  Rh14  1  0.938495  0.117824  0.749953  1
  Rh  Rh15  1  0.561643  0.618015  0.750091  1
