# generated using pymatgen
data_La6Sc2Bi3Sb7
_symmetry_space_group_name_H-M   'P 1'
_cell_length_a   9.69343500
_cell_length_b   9.69343528
_cell_length_c   6.52001600
_cell_angle_alpha   90.00000000
_cell_angle_beta   90.00000000
_cell_angle_gamma   120.00000244
_symmetry_Int_Tables_number   1
_chemical_formula_structural   La6Sc2Bi3Sb7
_chemical_formula_sum   'La6 Sc2 Bi3 Sb7'
_cell_volume   530.56023900
_cell_formula_units_Z   1
loop_
 _symmetry_equiv_pos_site_id
 _symmetry_equiv_pos_as_xyz
  1  'x, y, z'
loop_
 _atom_site_type_symbol
 _atom_site_label
 _atom_site_symmetry_multiplicity
 _atom_site_fract_x
 _atom_site_fract_y
 _atom_site_fract_z
 _atom_site_occupancy
  La  La0  1  0.002620  0.622209  0.251532  1
  La  La1  1  0.377791  0.380411  0.251532  1
  La  La2  1  0.377791  0.997380  0.748468  1
  La  La3  1  0.619589  0.622209  0.748468  1
  La  La4  1  0.619589  0.997380  0.251532  1
  La  La5  1  0.002620  0.380411  0.748468  1
  Sc  Sc6  1  0.000000  0.000000  0.000000  1
  Sc  Sc7  1  0.000000  0.000000  0.500000  1
  Bi  Bi8  1  0.666667  0.333333  0.000000  1
  Bi  Bi9  1  0.333333  0.666667  0.000000  1
  Bi  Bi10  1  0.666667  0.333333  0.500000  1
  Sb  Sb11  1  0.999233  0.257187  0.249220  1
  Sb  Sb12  1  0.333333  0.666667  0.500000  1
  Sb  Sb13  1  0.257954  0.257187  0.750780  1
  Sb  Sb14  1  0.742813  0.000767  0.750780  1
  Sb  Sb15  1  0.999233  0.742046  0.750780  1
  Sb  Sb16  1  0.742813  0.742046  0.249220  1
  Sb  Sb17  1  0.257954  0.000767  0.249220  1
