# generated using pymatgen
data_TbPrAl20(RuRh)2
_symmetry_space_group_name_H-M   'P 1'
_cell_length_a   6.88295891
_cell_length_b   6.87618092
_cell_length_c   9.20508000
_cell_angle_alpha   90.00000000
_cell_angle_beta   90.00000000
_cell_angle_gamma   97.22821608
_symmetry_Int_Tables_number   1
_chemical_formula_structural   TbPrAl20(RuRh)2
_chemical_formula_sum   'Tb1 Pr1 Al20 Ru2 Rh2'
_cell_volume   432.20008923
_cell_formula_units_Z   1
loop_
 _symmetry_equiv_pos_site_id
 _symmetry_equiv_pos_as_xyz
  1  'x, y, z'
loop_
 _atom_site_type_symbol
 _atom_site_label
 _atom_site_symmetry_multiplicity
 _atom_site_fract_x
 _atom_site_fract_y
 _atom_site_fract_z
 _atom_site_occupancy
  Tb  Tb0  1  0.131121  0.874564  0.250000  1
  Pr  Pr1  1  0.872044  0.123955  0.750000  1
  Al  Al2  1  0.620065  0.376126  0.548033  1
  Al  Al3  1  0.378764  0.624527  0.449771  1
  Al  Al4  1  0.378764  0.624527  0.050229  1
  Al  Al5  1  0.620065  0.376126  0.951967  1
  Al  Al6  1  0.226086  0.223658  0.496815  1
  Al  Al7  1  0.774290  0.775609  0.499146  1
  Al  Al8  1  0.774290  0.775609  0.000854  1
  Al  Al9  1  0.226086  0.223658  0.003185  1
  Al  Al10  1  0.843046  0.155789  0.103486  1
  Al  Al11  1  0.158606  0.842281  0.898789  1
  Al  Al12  1  0.158606  0.842281  0.601211  1
  Al  Al13  1  0.843046  0.155789  0.396514  1
  Al  Al14  1  0.857375  0.592142  0.750000  1
  Al  Al15  1  0.143771  0.412278  0.250000  1
  Al  Al16  1  0.408239  0.140641  0.750000  1
  Al  Al17  1  0.587619  0.858392  0.250000  1
  Al  Al18  1  0.224962  0.482718  0.750000  1
  Al  Al19  1  0.776953  0.519066  0.250000  1
  Al  Al20  1  0.516356  0.777438  0.750000  1
  Al  Al21  1  0.481909  0.221184  0.250000  1
  Ru  Ru22  1  0.499118  0.999840  0.001486  1
  Ru  Ru23  1  0.499118  0.999840  0.498514  1
  Rh  Rh24  1  0.999850  0.500983  0.498347  1
  Rh  Rh25  1  0.999850  0.500983  0.001653  1
