# generated using pymatgen
data_Nd2P7(IrRu)6
_symmetry_space_group_name_H-M   'P 1'
_cell_length_a   9.61581200
_cell_length_b   9.61581059
_cell_length_c   3.92225000
_cell_angle_alpha   90.00000000
_cell_angle_beta   90.00000000
_cell_angle_gamma   119.99999108
_symmetry_Int_Tables_number   1
_chemical_formula_structural   Nd2P7(IrRu)6
_chemical_formula_sum   'Nd2 P7 Ir6 Ru6'
_cell_volume   314.07820951
_cell_formula_units_Z   1
loop_
 _symmetry_equiv_pos_site_id
 _symmetry_equiv_pos_as_xyz
  1  'x, y, z'
loop_
 _atom_site_type_symbol
 _atom_site_label
 _atom_site_symmetry_multiplicity
 _atom_site_fract_x
 _atom_site_fract_y
 _atom_site_fract_z
 _atom_site_occupancy
  Nd  Nd0  1  0.000000  0.000000  0.000000  1
  Nd  Nd1  1  0.333333  0.666667  0.500000  1
  P  P2  1  0.782536  0.733837  0.500000  1
  P  P3  1  0.266163  0.048699  0.500000  1
  P  P4  1  0.951301  0.217464  0.500000  1
  P  P5  1  0.666667  0.333333  0.000000  1
  P  P6  1  0.069722  0.620015  0.000000  1
  P  P7  1  0.379985  0.449707  0.000000  1
  P  P8  1  0.550293  0.930278  0.000000  1
  Ir  Ir9  1  0.112200  0.399567  0.000000  1
  Ir  Ir10  1  0.600433  0.712631  0.000000  1
  Ir  Ir11  1  0.287369  0.887800  0.000000  1
  Ir  Ir12  1  0.051787  0.779744  0.500000  1
  Ir  Ir13  1  0.220256  0.272041  0.500000  1
  Ir  Ir14  1  0.727959  0.948213  0.500000  1
  Ru  Ru15  1  0.819566  0.601804  0.000000  1
  Ru  Ru16  1  0.398196  0.217764  0.000000  1
  Ru  Ru17  1  0.782236  0.180434  0.000000  1
  Ru  Ru18  1  0.921119  0.442582  0.500000  1
  Ru  Ru19  1  0.557418  0.478536  0.500000  1
  Ru  Ru20  1  0.521464  0.078881  0.500000  1
