# generated using pymatgen
data_U2AgF12
_symmetry_space_group_name_H-M   'P 1'
_cell_length_a   5.74324699
_cell_length_b   6.23627055
_cell_length_c   9.70016688
_cell_angle_alpha   104.73858982
_cell_angle_beta   91.70856836
_cell_angle_gamma   115.81464084
_symmetry_Int_Tables_number   1
_chemical_formula_structural   U2AgF12
_chemical_formula_sum   'U2 Ag1 F12'
_cell_volume   298.49371723
_cell_formula_units_Z   1
loop_
 _symmetry_equiv_pos_site_id
 _symmetry_equiv_pos_as_xyz
  1  'x, y, z'
loop_
 _atom_site_type_symbol
 _atom_site_label
 _atom_site_symmetry_multiplicity
 _atom_site_fract_x
 _atom_site_fract_y
 _atom_site_fract_z
 _atom_site_occupancy
  U  U0  1  0.259175  0.009263  0.759435  1
  U  U1  1  0.740825  0.990737  0.240565  1
  Ag  Ag2  1  0.500000  0.500000  0.500000  1
  F  F3  1  0.779115  0.775134  0.364330  1
  F  F4  1  0.220885  0.224866  0.635670  1
  F  F5  1  0.347242  0.770965  0.208832  1
  F  F6  1  0.302996  0.788956  0.869682  1
  F  F7  1  0.697004  0.211044  0.130318  1
  F  F8  1  0.856196  0.778151  0.705856  1
  F  F9  1  0.143804  0.221849  0.294144  1
  F  F10  1  0.301047  0.780109  0.573189  1
  F  F11  1  0.698953  0.219891  0.426811  1
  F  F12  1  0.213288  0.227670  0.939611  1
  F  F13  1  0.786712  0.772330  0.060389  1
  F  F14  1  0.652758  0.229035  0.791168  1
