# generated using pymatgen
data_FeSiNiO4
_symmetry_space_group_name_H-M   'P 1'
_cell_length_a   4.77683750
_cell_length_b   6.12322706
_cell_length_c   10.53372611
_cell_angle_alpha   89.90122695
_cell_angle_beta   89.98528115
_cell_angle_gamma   90.00826067
_symmetry_Int_Tables_number   1
_chemical_formula_structural   FeSiNiO4
_chemical_formula_sum   'Fe4 Si4 Ni4 O16'
_cell_volume   308.10744263
_cell_formula_units_Z   4
loop_
 _symmetry_equiv_pos_site_id
 _symmetry_equiv_pos_as_xyz
  1  'x, y, z'
loop_
 _atom_site_type_symbol
 _atom_site_label
 _atom_site_symmetry_multiplicity
 _atom_site_fract_x
 _atom_site_fract_y
 _atom_site_fract_z
 _atom_site_occupancy
  Fe  Fe0  1  0.483179  0.750361  0.222673  1
  Fe  Fe1  1  0.983055  0.251078  0.277254  1
  Fe  Fe2  1  0.516845  0.249696  0.777345  1
  Fe  Fe3  1  0.017243  0.748839  0.722786  1
  Si  Si4  1  0.923293  0.750618  0.408275  1
  Si  Si5  1  0.422965  0.249945  0.091718  1
  Si  Si6  1  0.076903  0.249284  0.591727  1
  Si  Si7  1  0.576788  0.750122  0.908285  1
  Ni  Ni8  1  0.500393  0.500040  0.500033  1
  Ni  Ni9  1  0.999569  0.500179  0.999985  1
  Ni  Ni10  1  0.500226  0.999962  0.500052  1
  Ni  Ni11  1  0.999511  0.999887  0.999868  1
  O  O12  1  0.773447  0.749037  0.551759  1
  O  O13  1  0.272935  0.249663  0.948153  1
  O  O14  1  0.226755  0.250898  0.448278  1
  O  O15  1  0.726860  0.750458  0.051791  1
  O  O16  1  0.234887  0.750056  0.911533  1
  O  O17  1  0.734954  0.249791  0.588511  1
  O  O18  1  0.764863  0.250012  0.088454  1
  O  O19  1  0.265190  0.750120  0.411469  1
  O  O20  1  0.222773  0.464089  0.660935  1
  O  O21  1  0.722372  0.534503  0.839921  1
  O  O22  1  0.778213  0.967235  0.340321  1
  O  O23  1  0.277837  0.034222  0.160508  1
  O  O24  1  0.777449  0.535772  0.339102  1
  O  O25  1  0.277519  0.465639  0.160085  1
  O  O26  1  0.221969  0.032659  0.659686  1
  O  O27  1  0.722009  0.965833  0.839497  1
