# generated using pymatgen
data_HoTh3(PdPt)6
_symmetry_space_group_name_H-M   'P 1'
_cell_length_a   5.92356100
_cell_length_b   5.92355962
_cell_length_c   9.75799800
_cell_angle_alpha   90.00000000
_cell_angle_beta   90.00000000
_cell_angle_gamma   120.00000213
_symmetry_Int_Tables_number   1
_chemical_formula_structural   HoTh3(PdPt)6
_chemical_formula_sum   'Ho1 Th3 Pd6 Pt6'
_cell_volume   296.52203779
_cell_formula_units_Z   1
loop_
 _symmetry_equiv_pos_site_id
 _symmetry_equiv_pos_as_xyz
  1  'x, y, z'
loop_
 _atom_site_type_symbol
 _atom_site_label
 _atom_site_symmetry_multiplicity
 _atom_site_fract_x
 _atom_site_fract_y
 _atom_site_fract_z
 _atom_site_occupancy
  Ho  Ho0  1  0.333333  0.666667  0.250000  1
  Th  Th1  1  0.000000  0.000000  0.495265  1
  Th  Th2  1  0.000000  0.000000  0.004735  1
  Th  Th3  1  0.666667  0.333333  0.750000  1
  Pd  Pd4  1  0.825022  0.650043  0.250000  1
  Pd  Pd5  1  0.349957  0.174978  0.250000  1
  Pd  Pd6  1  0.825022  0.174978  0.250000  1
  Pd  Pd7  1  0.174085  0.348171  0.750000  1
  Pd  Pd8  1  0.651829  0.825915  0.750000  1
  Pd  Pd9  1  0.174085  0.825915  0.750000  1
  Pt  Pt10  1  0.499251  0.500749  0.498164  1
  Pt  Pt11  1  0.499251  0.998501  0.498164  1
  Pt  Pt12  1  0.001499  0.500749  0.498164  1
  Pt  Pt13  1  0.499251  0.500749  0.001836  1
  Pt  Pt14  1  0.499251  0.998501  0.001836  1
  Pt  Pt15  1  0.001499  0.500749  0.001836  1
