# generated using pymatgen
data_AcLa(GaNi4)2
_symmetry_space_group_name_H-M   'P 1'
_cell_length_a   4.06387700
_cell_length_b   5.23200900
_cell_length_c   8.56649300
_cell_angle_alpha   90.00000000
_cell_angle_beta   90.00000000
_cell_angle_gamma   90.00000000
_symmetry_Int_Tables_number   1
_chemical_formula_structural   AcLa(GaNi4)2
_chemical_formula_sum   'Ac1 La1 Ga2 Ni8'
_cell_volume   182.14283902
_cell_formula_units_Z   1
loop_
 _symmetry_equiv_pos_site_id
 _symmetry_equiv_pos_as_xyz
  1  'x, y, z'
loop_
 _atom_site_type_symbol
 _atom_site_label
 _atom_site_symmetry_multiplicity
 _atom_site_fract_x
 _atom_site_fract_y
 _atom_site_fract_z
 _atom_site_occupancy
  Ac  Ac0  1  0.000000  0.500000  0.500000  1
  La  La1  1  0.000000  0.000000  0.000000  1
  Ga  Ga2  1  0.500000  0.500000  0.000000  1
  Ga  Ga3  1  0.500000  0.000000  0.500000  1
  Ni  Ni4  1  0.000000  0.000000  0.326530  1
  Ni  Ni5  1  0.000000  0.500000  0.834960  1
  Ni  Ni6  1  0.000000  0.500000  0.165040  1
  Ni  Ni7  1  0.000000  0.000000  0.673470  1
  Ni  Ni8  1  0.500000  0.248652  0.247244  1
  Ni  Ni9  1  0.500000  0.751348  0.752756  1
  Ni  Ni10  1  0.500000  0.751348  0.247244  1
  Ni  Ni11  1  0.500000  0.248652  0.752756  1
