# generated using pymatgen
data_Pb(AuBr4)2
_symmetry_space_group_name_H-M   'P 1'
_cell_length_a   8.93564600
_cell_length_b   7.88832080
_cell_length_c   15.83287428
_cell_angle_alpha   96.90971604
_cell_angle_beta   90.00000000
_cell_angle_gamma   90.00000000
_symmetry_Int_Tables_number   1
_chemical_formula_structural   Pb(AuBr4)2
_chemical_formula_sum   'Pb2 Au4 Br16'
_cell_volume   1107.90997214
_cell_formula_units_Z   2
loop_
 _symmetry_equiv_pos_site_id
 _symmetry_equiv_pos_as_xyz
  1  'x, y, z'
loop_
 _atom_site_type_symbol
 _atom_site_label
 _atom_site_symmetry_multiplicity
 _atom_site_fract_x
 _atom_site_fract_y
 _atom_site_fract_z
 _atom_site_occupancy
  Pb  Pb0  1  0.821867  0.114504  0.808316  1
  Pb  Pb1  1  0.178133  0.114504  0.308316  1
  Au  Au2  1  0.028319  0.178174  0.567179  1
  Au  Au3  1  0.971681  0.178174  0.067179  1
  Au  Au4  1  0.567259  0.671474  0.799981  1
  Au  Au5  1  0.432741  0.671474  0.299981  1
  Br  Br6  1  0.298034  0.613244  0.787081  1
  Br  Br7  1  0.701966  0.613244  0.287081  1
  Br  Br8  1  0.843518  0.723041  0.807047  1
  Br  Br9  1  0.156482  0.723041  0.307047  1
  Br  Br10  1  0.933217  0.277730  0.434552  1
  Br  Br11  1  0.066783  0.277730  0.934552  1
  Br  Br12  1  0.731384  0.083990  0.998970  1
  Br  Br13  1  0.268616  0.083990  0.498970  1
  Br  Br14  1  0.791434  0.277279  0.637235  1
  Br  Br15  1  0.208566  0.277279  0.137235  1
  Br  Br16  1  0.595636  0.407128  0.868476  1
  Br  Br17  1  0.404364  0.407128  0.368476  1
  Br  Br18  1  0.526094  0.947834  0.743948  1
  Br  Br19  1  0.473906  0.947834  0.243948  1
  Br  Br20  1  0.882038  0.073002  0.199417  1
  Br  Br21  1  0.117962  0.073002  0.699417  1
