# generated using pymatgen
data_DyYLu2(NiAs)4
_symmetry_space_group_name_H-M   'P 1'
_cell_length_a   4.03349800
_cell_length_b   4.03349686
_cell_length_c   15.38091200
_cell_angle_alpha   90.00000000
_cell_angle_beta   90.00000000
_cell_angle_gamma   119.99999291
_symmetry_Int_Tables_number   1
_chemical_formula_structural   DyYLu2(NiAs)4
_chemical_formula_sum   'Dy1 Y1 Lu2 Ni4 As4'
_cell_volume   216.70868644
_cell_formula_units_Z   1
loop_
 _symmetry_equiv_pos_site_id
 _symmetry_equiv_pos_as_xyz
  1  'x, y, z'
loop_
 _atom_site_type_symbol
 _atom_site_label
 _atom_site_symmetry_multiplicity
 _atom_site_fract_x
 _atom_site_fract_y
 _atom_site_fract_z
 _atom_site_occupancy
  Dy  Dy0  1  0.000000  0.000000  0.500000  1
  Y  Y1  1  0.000000  0.000000  0.000000  1
  Lu  Lu2  1  0.000000  0.000000  0.250017  1
  Lu  Lu3  1  0.000000  0.000000  0.749983  1
  Ni  Ni4  1  0.333333  0.666667  0.137126  1
  Ni  Ni5  1  0.666667  0.333333  0.862874  1
  Ni  Ni6  1  0.666667  0.333333  0.637024  1
  Ni  Ni7  1  0.333333  0.666667  0.362976  1
  As  As8  1  0.333333  0.666667  0.621590  1
  As  As9  1  0.666667  0.333333  0.378410  1
  As  As10  1  0.666667  0.333333  0.121724  1
  As  As11  1  0.333333  0.666667  0.878276  1
