# generated using pymatgen
data_Rb8Li4Ho3LuAs8
_symmetry_space_group_name_H-M   'P 1'
_cell_length_a   10.59222611
_cell_length_b   10.59222543
_cell_length_c   6.82137312
_cell_angle_alpha   89.98312756
_cell_angle_beta   90.01687702
_cell_angle_gamma   99.77417530
_symmetry_Int_Tables_number   1
_chemical_formula_structural   Rb8Li4Ho3LuAs8
_chemical_formula_sum   'Rb8 Li4 Ho3 Lu1 As8'
_cell_volume   754.21651338
_cell_formula_units_Z   1
loop_
 _symmetry_equiv_pos_site_id
 _symmetry_equiv_pos_as_xyz
  1  'x, y, z'
loop_
 _atom_site_type_symbol
 _atom_site_label
 _atom_site_symmetry_multiplicity
 _atom_site_fract_x
 _atom_site_fract_y
 _atom_site_fract_z
 _atom_site_occupancy
  Rb  Rb0  1  0.568524  0.931337  0.749749  1
  Rb  Rb1  1  0.931337  0.568524  0.250251  1
  Rb  Rb2  1  0.431304  0.069223  0.250299  1
  Rb  Rb3  1  0.069223  0.431304  0.749701  1
  Rb  Rb4  1  0.676752  0.322731  0.785697  1
  Rb  Rb5  1  0.822771  0.177313  0.285914  1
  Rb  Rb6  1  0.322731  0.676752  0.214303  1
  Rb  Rb7  1  0.177313  0.822771  0.714086  1
  Li  Li8  1  0.618020  0.618020  0.000000  1
  Li  Li9  1  0.881717  0.881717  0.500000  1
  Li  Li10  1  0.381654  0.381654  0.000000  1
  Li  Li11  1  0.119075  0.119075  0.500000  1
  Ho  Ho12  1  0.868225  0.868225  0.000000  1
  Ho  Ho13  1  0.630958  0.630958  0.500000  1
  Ho  Ho14  1  0.132486  0.132486  0.000000  1
  Lu  Lu15  1  0.368717  0.368717  0.500000  1
  As  As16  1  0.342590  0.159797  0.747183  1
  As  As17  1  0.159797  0.342590  0.252817  1
  As  As18  1  0.657013  0.842623  0.249962  1
  As  As19  1  0.842623  0.657013  0.750038  1
  As  As20  1  0.909698  0.090740  0.764937  1
  As  As21  1  0.588282  0.408448  0.266469  1
  As  As22  1  0.090740  0.909698  0.235063  1
  As  As23  1  0.408448  0.588282  0.733531  1
