# generated using pymatgen
data_Cs2ZrZn3As4
_symmetry_space_group_name_H-M   'P 1'
_cell_length_a   8.30638427
_cell_length_b   8.30638437
_cell_length_c   6.08965800
_cell_angle_alpha   90.00000000
_cell_angle_beta   90.00000000
_cell_angle_gamma   136.94130031
_symmetry_Int_Tables_number   1
_chemical_formula_structural   Cs2ZrZn3As4
_chemical_formula_sum   'Cs2 Zr1 Zn3 As4'
_cell_volume   286.86457582
_cell_formula_units_Z   1
loop_
 _symmetry_equiv_pos_site_id
 _symmetry_equiv_pos_as_xyz
  1  'x, y, z'
loop_
 _atom_site_type_symbol
 _atom_site_label
 _atom_site_symmetry_multiplicity
 _atom_site_fract_x
 _atom_site_fract_y
 _atom_site_fract_z
 _atom_site_occupancy
  Cs  Cs0  1  0.500000  0.000000  0.254129  1
  Cs  Cs1  1  0.000000  0.500000  0.745871  1
  Zr  Zr2  1  0.000000  0.000000  0.000000  1
  Zn  Zn3  1  0.500000  0.500000  0.500000  1
  Zn  Zn4  1  0.500000  0.500000  0.000000  1
  Zn  Zn5  1  0.000000  0.000000  0.500000  1
  As  As6  1  0.652839  0.844855  0.749344  1
  As  As7  1  0.155145  0.347161  0.250656  1
  As  As8  1  0.844855  0.652839  0.250656  1
  As  As9  1  0.347161  0.155145  0.749344  1
