# generated using pymatgen
data_Ca2BeAu6
_symmetry_space_group_name_H-M   'P 1'
_cell_length_a   6.32021633
_cell_length_b   6.32021643
_cell_length_c   6.32021700
_cell_angle_alpha   60.00000225
_cell_angle_beta   60.00000175
_cell_angle_gamma   59.99999562
_symmetry_Int_Tables_number   1
_chemical_formula_structural   Ca2BeAu6
_chemical_formula_sum   'Ca2 Be1 Au6'
_cell_volume   178.51753657
_cell_formula_units_Z   1
loop_
 _symmetry_equiv_pos_site_id
 _symmetry_equiv_pos_as_xyz
  1  'x, y, z'
loop_
 _atom_site_type_symbol
 _atom_site_label
 _atom_site_symmetry_multiplicity
 _atom_site_fract_x
 _atom_site_fract_y
 _atom_site_fract_z
 _atom_site_occupancy
  Ca  Ca0  1  0.250000  0.250000  0.250000  1
  Ca  Ca1  1  0.750000  0.750000  0.750000  1
  Be  Be2  1  0.500000  0.500000  0.500000  1
  Au  Au3  1  0.762448  0.237552  0.237552  1
  Au  Au4  1  0.237552  0.762448  0.237552  1
  Au  Au5  1  0.762448  0.762448  0.237552  1
  Au  Au6  1  0.237552  0.237552  0.762448  1
  Au  Au7  1  0.762448  0.237552  0.762448  1
  Au  Au8  1  0.237552  0.762448  0.762448  1
