# generated using pymatgen
data_Na3Pd2Pb
_symmetry_space_group_name_H-M   'P 1'
_cell_length_a   5.54911634
_cell_length_b   5.54911734
_cell_length_c   5.87648746
_cell_angle_alpha   104.76335962
_cell_angle_beta   104.76336498
_cell_angle_gamma   117.40502382
_symmetry_Int_Tables_number   1
_chemical_formula_structural   Na3Pd2Pb
_chemical_formula_sum   'Na3 Pd2 Pb1'
_cell_volume   139.98929693
_cell_formula_units_Z   1
loop_
 _symmetry_equiv_pos_site_id
 _symmetry_equiv_pos_as_xyz
  1  'x, y, z'
loop_
 _atom_site_type_symbol
 _atom_site_label
 _atom_site_symmetry_multiplicity
 _atom_site_fract_x
 _atom_site_fract_y
 _atom_site_fract_z
 _atom_site_occupancy
  Na  Na0  1  0.323929  0.167027  0.490957  1
  Na  Na1  1  0.841829  0.341829  0.183658  1
  Na  Na2  1  0.667027  0.823929  0.490957  1
  Pd  Pd3  1  0.737912  0.737912  0.975824  1
  Pd  Pd4  1  0.237912  0.237912  0.975824  1
  Pb  Pb5  1  0.191390  0.691390  0.882781  1
