# generated using pymatgen
data_Nd2Er4FeCl10
_symmetry_space_group_name_H-M   'P 1'
_cell_length_a   7.15205300
_cell_length_b   8.95769456
_cell_length_c   8.80770600
_cell_angle_alpha   108.37458428
_cell_angle_beta   95.11066725
_cell_angle_gamma   107.46930849
_symmetry_Int_Tables_number   1
_chemical_formula_structural   Nd2Er4FeCl10
_chemical_formula_sum   'Nd2 Er4 Fe1 Cl10'
_cell_volume   500.17692587
_cell_formula_units_Z   1
loop_
 _symmetry_equiv_pos_site_id
 _symmetry_equiv_pos_as_xyz
  1  'x, y, z'
loop_
 _atom_site_type_symbol
 _atom_site_label
 _atom_site_symmetry_multiplicity
 _atom_site_fract_x
 _atom_site_fract_y
 _atom_site_fract_z
 _atom_site_occupancy
  Nd  Nd0  1  0.628292  0.050829  0.767695  1
  Nd  Nd1  1  0.371708  0.949171  0.232305  1
  Er  Er2  1  0.868648  0.144493  0.187762  1
  Er  Er3  1  0.131352  0.855507  0.812238  1
  Er  Er4  1  0.522269  0.691499  0.896111  1
  Er  Er5  1  0.477731  0.308501  0.103889  1
  Fe  Fe6  1  0.500000  0.000000  0.000000  1
  Cl  Cl7  1  0.755628  0.085470  0.447863  1
  Cl  Cl8  1  0.244372  0.914530  0.552137  1
  Cl  Cl9  1  0.946150  0.827197  0.072383  1
  Cl  Cl10  1  0.053850  0.172803  0.927617  1
  Cl  Cl11  1  0.287348  0.260734  0.343504  1
  Cl  Cl12  1  0.712652  0.739266  0.656496  1
  Cl  Cl13  1  0.588052  0.377954  0.842238  1
  Cl  Cl14  1  0.411948  0.622046  0.157762  1
  Cl  Cl15  1  0.851547  0.451274  0.274751  1
  Cl  Cl16  1  0.148453  0.548726  0.725249  1
