# generated using pymatgen
data_Sm2Y5Ho(Si3Rh)4
_symmetry_space_group_name_H-M   'P 1'
_cell_length_a   8.19108934
_cell_length_b   8.19108920
_cell_length_c   7.99878800
_cell_angle_alpha   90.00000000
_cell_angle_beta   90.00000000
_cell_angle_gamma   119.96685164
_symmetry_Int_Tables_number   1
_chemical_formula_structural   Sm2Y5Ho(Si3Rh)4
_chemical_formula_sum   'Sm2 Y5 Ho1 Si12 Rh4'
_cell_volume   464.92521910
_cell_formula_units_Z   1
loop_
 _symmetry_equiv_pos_site_id
 _symmetry_equiv_pos_as_xyz
  1  'x, y, z'
loop_
 _atom_site_type_symbol
 _atom_site_label
 _atom_site_symmetry_multiplicity
 _atom_site_fract_x
 _atom_site_fract_y
 _atom_site_fract_z
 _atom_site_occupancy
  Sm  Sm0  1  0.000011  0.999989  0.250000  1
  Sm  Sm1  1  0.000003  0.999997  0.750000  1
  Y  Y2  1  0.508532  0.017147  0.250000  1
  Y  Y3  1  0.982853  0.491468  0.250000  1
  Y  Y4  1  0.491432  0.508568  0.750000  1
  Y  Y5  1  0.491426  0.982857  0.750000  1
  Y  Y6  1  0.017143  0.508574  0.750000  1
  Ho  Ho7  1  0.508378  0.491622  0.250000  1
  Si  Si8  1  0.167676  0.832324  0.500255  1
  Si  Si9  1  0.167806  0.335387  0.500098  1
  Si  Si10  1  0.664613  0.832194  0.500098  1
  Si  Si11  1  0.832339  0.167661  0.499720  1
  Si  Si12  1  0.832168  0.664600  0.499498  1
  Si  Si13  1  0.335400  0.167832  0.499498  1
  Si  Si14  1  0.832339  0.167661  0.000280  1
  Si  Si15  1  0.832168  0.664600  0.000502  1
  Si  Si16  1  0.335400  0.167832  0.000502  1
  Si  Si17  1  0.167676  0.832324  0.999745  1
  Si  Si18  1  0.167806  0.335387  0.999902  1
  Si  Si19  1  0.664613  0.832194  0.999902  1
  Rh  Rh20  1  0.333592  0.666408  0.467052  1
  Rh  Rh21  1  0.666517  0.333483  0.532209  1
  Rh  Rh22  1  0.666517  0.333483  0.967791  1
  Rh  Rh23  1  0.333592  0.666408  0.032948  1
