# generated using pymatgen
data_Ho2VO5
_symmetry_space_group_name_H-M   'P 1'
_cell_length_a   3.71280700
_cell_length_b   10.37824400
_cell_length_c   11.22064100
_cell_angle_alpha   90.00000000
_cell_angle_beta   90.00000000
_cell_angle_gamma   90.00000000
_symmetry_Int_Tables_number   1
_chemical_formula_structural   Ho2VO5
_chemical_formula_sum   'Ho8 V4 O20'
_cell_volume   432.35841769
_cell_formula_units_Z   4
loop_
 _symmetry_equiv_pos_site_id
 _symmetry_equiv_pos_as_xyz
  1  'x, y, z'
loop_
 _atom_site_type_symbol
 _atom_site_label
 _atom_site_symmetry_multiplicity
 _atom_site_fract_x
 _atom_site_fract_y
 _atom_site_fract_z
 _atom_site_occupancy
  Ho  Ho0  1  0.250000  0.117714  0.274370  1
  Ho  Ho1  1  0.250000  0.136707  0.944470  1
  Ho  Ho2  1  0.750000  0.363293  0.444470  1
  Ho  Ho3  1  0.750000  0.382286  0.774370  1
  Ho  Ho4  1  0.250000  0.617714  0.225630  1
  Ho  Ho5  1  0.250000  0.636707  0.555530  1
  Ho  Ho6  1  0.750000  0.863293  0.055530  1
  Ho  Ho7  1  0.750000  0.882286  0.725630  1
  V  V8  1  0.250000  0.172801  0.618906  1
  V  V9  1  0.750000  0.327199  0.118906  1
  V  V10  1  0.250000  0.672801  0.881094  1
  V  V11  1  0.750000  0.827199  0.381094  1
  O  O12  1  0.750000  0.006670  0.894623  1
  O  O13  1  0.250000  0.009835  0.655565  1
  O  O14  1  0.250000  0.226108  0.456766  1
  O  O15  1  0.750000  0.237726  0.616200  1
  O  O16  1  0.750000  0.239738  0.270263  1
  O  O17  1  0.250000  0.260262  0.770263  1
  O  O18  1  0.250000  0.262274  0.116200  1
  O  O19  1  0.750000  0.273892  0.956766  1
  O  O20  1  0.750000  0.490165  0.155565  1
  O  O21  1  0.250000  0.493330  0.394623  1
  O  O22  1  0.750000  0.506670  0.605377  1
  O  O23  1  0.250000  0.509835  0.844435  1
  O  O24  1  0.250000  0.726108  0.043234  1
  O  O25  1  0.750000  0.737726  0.883800  1
  O  O26  1  0.750000  0.739738  0.229737  1
  O  O27  1  0.250000  0.760262  0.729737  1
  O  O28  1  0.250000  0.762274  0.383800  1
  O  O29  1  0.750000  0.773892  0.543234  1
  O  O30  1  0.750000  0.990165  0.344435  1
  O  O31  1  0.250000  0.993330  0.105377  1
