# generated using pymatgen
data_Dy12ZnGaCo4
_symmetry_space_group_name_H-M   'P 1'
_cell_length_a   8.28338481
_cell_length_b   8.28338468
_cell_length_c   8.28338530
_cell_angle_alpha   106.74907681
_cell_angle_beta   109.53925275
_cell_angle_gamma   112.17065090
_symmetry_Int_Tables_number   1
_chemical_formula_structural   Dy12ZnGaCo4
_chemical_formula_sum   'Dy12 Zn1 Ga1 Co4'
_cell_volume   436.54510317
_cell_formula_units_Z   1
loop_
 _symmetry_equiv_pos_site_id
 _symmetry_equiv_pos_as_xyz
  1  'x, y, z'
loop_
 _atom_site_type_symbol
 _atom_site_label
 _atom_site_symmetry_multiplicity
 _atom_site_fract_x
 _atom_site_fract_y
 _atom_site_fract_z
 _atom_site_occupancy
  Dy  Dy0  1  0.305420  0.263536  0.568954  1
  Dy  Dy1  1  0.694580  0.736464  0.431046  1
  Dy  Dy2  1  0.305420  0.736464  0.041884  1
  Dy  Dy3  1  0.694580  0.263536  0.958116  1
  Dy  Dy4  1  0.187926  0.514837  0.326911  1
  Dy  Dy5  1  0.187926  0.861015  0.673089  1
  Dy  Dy6  1  0.812074  0.485163  0.673089  1
  Dy  Dy7  1  0.812074  0.138985  0.326911  1
  Dy  Dy8  1  0.397358  0.217668  0.179690  1
  Dy  Dy9  1  0.037977  0.217668  0.820310  1
  Dy  Dy10  1  0.962023  0.782332  0.179690  1
  Dy  Dy11  1  0.602642  0.782332  0.820310  1
  Zn  Zn12  1  0.500000  0.500000  0.000000  1
  Ga  Ga13  1  0.500000  0.000000  0.500000  1
  Co  Co14  1  0.166391  0.500000  0.666391  1
  Co  Co15  1  0.833609  0.500000  0.333609  1
  Co  Co16  1  0.000000  0.115285  0.115285  1
  Co  Co17  1  0.000000  0.884715  0.884715  1
