# generated using pymatgen
data_Tm9Zr3Sn10
_symmetry_space_group_name_H-M   'P 1'
_cell_length_a   11.34087165
_cell_length_b   11.34087208
_cell_length_c   11.34620524
_cell_angle_alpha   148.16472678
_cell_angle_beta   132.08165438
_cell_angle_gamma   58.63608854
_symmetry_Int_Tables_number   1
_chemical_formula_structural   Tm9Zr3Sn10
_chemical_formula_sum   'Tm9 Zr3 Sn10'
_cell_volume   566.82564137
_cell_formula_units_Z   1
loop_
 _symmetry_equiv_pos_site_id
 _symmetry_equiv_pos_as_xyz
  1  'x, y, z'
loop_
 _atom_site_type_symbol
 _atom_site_label
 _atom_site_symmetry_multiplicity
 _atom_site_fract_x
 _atom_site_fract_y
 _atom_site_fract_z
 _atom_site_occupancy
  Tm  Tm0  1  0.305667  0.055667  0.750000  1
  Tm  Tm1  1  0.675510  0.438892  0.237779  1
  Tm  Tm2  1  0.324376  0.562602  0.762830  1
  Tm  Tm3  1  0.201113  0.937731  0.262221  1
  Tm  Tm4  1  0.799772  0.061546  0.737170  1
  Tm  Tm5  1  0.260180  0.146718  0.120490  1
  Tm  Tm6  1  0.739883  0.853679  0.881432  1
  Tm  Tm7  1  0.026228  0.639690  0.379510  1
  Tm  Tm8  1  0.972247  0.358451  0.618568  1
  Zr  Zr9  1  0.308862  0.558862  0.250000  1
  Zr  Zr10  1  0.691462  0.441462  0.750000  1
  Zr  Zr11  1  0.693216  0.943216  0.250000  1
  Sn  Sn12  1  0.594690  0.293106  0.308879  1
  Sn  Sn13  1  0.410368  0.700725  0.691535  1
  Sn  Sn14  1  0.984227  0.785811  0.191121  1
  Sn  Sn15  1  0.009191  0.218834  0.808465  1
  Sn  Sn16  1  0.000785  0.250785  0.250000  1
  Sn  Sn17  1  0.999715  0.749715  0.750000  1
  Sn  Sn18  1  0.477525  0.070394  0.400903  1
  Sn  Sn19  1  0.525872  0.924258  0.594637  1
  Sn  Sn20  1  0.669491  0.576621  0.099097  1
  Sn  Sn21  1  0.329620  0.431236  0.905363  1
