# generated using pymatgen
data_Sc12Sn(RhI8)2
_symmetry_space_group_name_H-M   'P 1'
_cell_length_a   9.27641829
_cell_length_b   12.25771424
_cell_length_c   12.91876655
_cell_angle_alpha   116.87604344
_cell_angle_beta   101.11327584
_cell_angle_gamma   100.53233577
_symmetry_Int_Tables_number   1
_chemical_formula_structural   Sc12Sn(RhI8)2
_chemical_formula_sum   'Sc12 Sn1 Rh2 I16'
_cell_volume   1223.05685236
_cell_formula_units_Z   1
loop_
 _symmetry_equiv_pos_site_id
 _symmetry_equiv_pos_as_xyz
  1  'x, y, z'
loop_
 _atom_site_type_symbol
 _atom_site_label
 _atom_site_symmetry_multiplicity
 _atom_site_fract_x
 _atom_site_fract_y
 _atom_site_fract_z
 _atom_site_occupancy
  Sc  Sc0  1  0.101425  0.270823  0.359711  1
  Sc  Sc1  1  0.898575  0.729177  0.640289  1
  Sc  Sc2  1  0.768486  0.536223  0.329427  1
  Sc  Sc3  1  0.231514  0.463777  0.670573  1
  Sc  Sc4  1  0.287515  0.729433  0.640025  1
  Sc  Sc5  1  0.712485  0.270567  0.359975  1
  Sc  Sc6  1  0.157549  0.536456  0.329314  1
  Sc  Sc7  1  0.842451  0.463544  0.670686  1
  Sc  Sc8  1  0.411150  0.368085  0.287361  1
  Sc  Sc9  1  0.588850  0.631915  0.712639  1
  Sc  Sc10  1  0.461439  0.318281  0.520929  1
  Sc  Sc11  1  0.538561  0.681719  0.479071  1
  Sn  Sn12  1  0.000000  0.500000  0.500000  1
  Rh  Rh13  1  0.341477  0.500132  0.499898  1
  Rh  Rh14  1  0.658524  0.499868  0.500102  1
  I  I15  1  0.393623  0.732388  0.874141  1
  I  I16  1  0.606377  0.267612  0.125859  1
  I  I17  1  0.181094  0.947187  0.773110  1
  I  I18  1  0.818906  0.052813  0.226890  1
  I  I19  1  0.340840  0.106720  0.260069  1
  I  I20  1  0.659160  0.893280  0.739931  1
  I  I21  1  0.562579  0.436929  0.792376  1
  I  I22  1  0.437421  0.563071  0.207624  1
  I  I23  1  0.304513  0.820002  0.462911  1
  I  I24  1  0.695487  0.179998  0.537089  1
  I  I25  1  0.169127  0.180477  0.536712  1
  I  I26  1  0.830873  0.819523  0.463288  1
  I  I27  1  0.927755  0.571692  0.168136  1
  I  I28  1  0.072245  0.428308  0.831864  1
  I  I29  1  0.919091  0.731948  0.874300  1
  I  I30  1  0.080909  0.268052  0.125700  1
