# generated using pymatgen
data_Tb2Er4TiAl23Os8
_symmetry_space_group_name_H-M   'P 1'
_cell_length_a   8.86008300
_cell_length_b   8.84462595
_cell_length_c   9.55612100
_cell_angle_alpha   89.99968016
_cell_angle_beta   90.00212180
_cell_angle_gamma   120.05530553
_symmetry_Int_Tables_number   1
_chemical_formula_structural   Tb2Er4TiAl23Os8
_chemical_formula_sum   'Tb2 Er4 Ti1 Al23 Os8'
_cell_volume   648.16747268
_cell_formula_units_Z   1
loop_
 _symmetry_equiv_pos_site_id
 _symmetry_equiv_pos_as_xyz
  1  'x, y, z'
loop_
 _atom_site_type_symbol
 _atom_site_label
 _atom_site_symmetry_multiplicity
 _atom_site_fract_x
 _atom_site_fract_y
 _atom_site_fract_z
 _atom_site_occupancy
  Tb  Tb0  1  0.193648  0.387283  0.249890  1
  Tb  Tb1  1  0.807345  0.614696  0.748193  1
  Er  Er2  1  0.611050  0.805593  0.249936  1
  Er  Er3  1  0.386855  0.193526  0.747924  1
  Er  Er4  1  0.194546  0.805606  0.249939  1
  Er  Er5  1  0.806680  0.193522  0.747950  1
  Ti  Ti6  1  0.333464  0.666924  0.992545  1
  Al  Al7  1  0.666588  0.333174  0.980707  1
  Al  Al8  1  0.666730  0.333405  0.516570  1
  Al  Al9  1  0.333282  0.666629  0.481666  1
  Al  Al10  1  0.162484  0.324994  0.575658  1
  Al  Al11  1  0.837299  0.674571  0.423752  1
  Al  Al12  1  0.675144  0.838030  0.575104  1
  Al  Al13  1  0.836800  0.673600  0.077347  1
  Al  Al14  1  0.325301  0.162154  0.424285  1
  Al  Al15  1  0.159636  0.319276  0.925156  1
  Al  Al16  1  0.162888  0.838000  0.575083  1
  Al  Al17  1  0.326367  0.162782  0.076843  1
  Al  Al18  1  0.836844  0.162175  0.424311  1
  Al  Al19  1  0.680721  0.840738  0.925891  1
  Al  Al20  1  0.836406  0.162793  0.076830  1
  Al  Al21  1  0.160018  0.840731  0.925900  1
  Al  Al22  1  0.561292  0.122593  0.253270  1
  Al  Al23  1  0.441426  0.882833  0.750385  1
  Al  Al24  1  0.876575  0.438691  0.253260  1
  Al  Al25  1  0.118047  0.558600  0.750338  1
  Al  Al26  1  0.562118  0.438673  0.253252  1
  Al  Al27  1  0.440543  0.558615  0.750344  1
  Al  Al28  1  0.999219  0.998425  0.250186  1
  Al  Al29  1  0.000761  0.001519  0.749662  1
  Os  Os30  1  0.499173  0.998348  0.002844  1
  Os  Os31  1  0.001568  0.500785  0.002816  1
  Os  Os32  1  0.499650  0.999293  0.503081  1
  Os  Os33  1  0.499209  0.500788  0.002818  1
  Os  Os34  1  0.000793  0.500351  0.502981  1
  Os  Os35  1  0.499549  0.500344  0.502981  1
  Os  Os36  1  0.999977  0.999950  0.000493  1
  Os  Os37  1  0.000004  0.999994  0.499810  1
