# generated using pymatgen
data_Ca7Yb3Ir3Pd
_symmetry_space_group_name_H-M   'P 1'
_cell_length_a   8.59505138
_cell_length_b   8.58757352
_cell_length_c   7.66779172
_cell_angle_alpha   82.70501952
_cell_angle_beta   82.75542742
_cell_angle_gamma   44.16831342
_symmetry_Int_Tables_number   1
_chemical_formula_structural   Ca7Yb3Ir3Pd
_chemical_formula_sum   'Ca7 Yb3 Ir3 Pd1'
_cell_volume   390.65169681
_cell_formula_units_Z   1
loop_
 _symmetry_equiv_pos_site_id
 _symmetry_equiv_pos_as_xyz
  1  'x, y, z'
loop_
 _atom_site_type_symbol
 _atom_site_label
 _atom_site_symmetry_multiplicity
 _atom_site_fract_x
 _atom_site_fract_y
 _atom_site_fract_z
 _atom_site_occupancy
  Ca  Ca0  1  0.041906  0.787234  0.916669  1
  Ca  Ca1  1  0.205653  0.970654  0.581080  1
  Ca  Ca2  1  0.974982  0.207462  0.080719  1
  Ca  Ca3  1  0.799022  0.030264  0.425632  1
  Ca  Ca4  1  0.360771  0.198433  0.814921  1
  Ca  Ca5  1  0.798610  0.636730  0.677417  1
  Ca  Ca6  1  0.634294  0.794471  0.179081  1
  Yb  Yb7  1  0.190172  0.370750  0.330495  1
  Yb  Yb8  1  0.574517  0.430070  0.741412  1
  Yb  Yb9  1  0.423348  0.578521  0.255200  1
  Ir  Ir10  1  0.184923  0.595361  0.578873  1
  Ir  Ir11  1  0.399373  0.814197  0.920835  1
  Ir  Ir12  1  0.819551  0.397913  0.417297  1
  Pd  Pd13  1  0.592880  0.187944  0.080367  1
