# generated using pymatgen
data_Ta6Ti3NbGa6C
_symmetry_space_group_name_H-M   'P 1'
_cell_length_a   7.69415800
_cell_length_b   7.69415812
_cell_length_c   5.24192900
_cell_angle_alpha   90.00000000
_cell_angle_beta   90.00000000
_cell_angle_gamma   119.99999090
_symmetry_Int_Tables_number   1
_chemical_formula_structural   Ta6Ti3NbGa6C
_chemical_formula_sum   'Ta6 Ti3 Nb1 Ga6 C1'
_cell_volume   268.74724012
_cell_formula_units_Z   1
loop_
 _symmetry_equiv_pos_site_id
 _symmetry_equiv_pos_as_xyz
  1  'x, y, z'
loop_
 _atom_site_type_symbol
 _atom_site_label
 _atom_site_symmetry_multiplicity
 _atom_site_fract_x
 _atom_site_fract_y
 _atom_site_fract_z
 _atom_site_occupancy
  Ta  Ta0  1  0.001376  0.765915  0.252229  1
  Ta  Ta1  1  0.234085  0.235461  0.252229  1
  Ta  Ta2  1  0.764539  0.998624  0.252229  1
  Ta  Ta3  1  0.001376  0.235461  0.747771  1
  Ta  Ta4  1  0.764539  0.765915  0.747771  1
  Ta  Ta5  1  0.234085  0.998624  0.747771  1
  Ti  Ti6  1  0.333333  0.666667  0.000000  1
  Ti  Ti7  1  0.666667  0.333333  0.000000  1
  Ti  Ti8  1  0.666667  0.333333  0.500000  1
  Nb  Nb9  1  0.333333  0.666667  0.500000  1
  Ga  Ga10  1  0.996812  0.400708  0.242884  1
  Ga  Ga11  1  0.599292  0.596104  0.242884  1
  Ga  Ga12  1  0.403896  0.003188  0.242884  1
  Ga  Ga13  1  0.996812  0.596104  0.757116  1
  Ga  Ga14  1  0.403896  0.400708  0.757116  1
  Ga  Ga15  1  0.599292  0.003188  0.757116  1
  C  C16  1  0.000000  0.000000  0.500000  1
