# generated using pymatgen
data_La5Al4Si5Au
_symmetry_space_group_name_H-M   'P 1'
_cell_length_a   4.22790444
_cell_length_b   4.41118633
_cell_length_c   37.21418755
_cell_angle_alpha   86.60804382
_cell_angle_beta   86.75574615
_cell_angle_gamma   89.99743381
_symmetry_Int_Tables_number   1
_chemical_formula_structural   La5Al4Si5Au
_chemical_formula_sum   'La10 Al8 Si10 Au2'
_cell_volume   691.71732441
_cell_formula_units_Z   2
loop_
 _symmetry_equiv_pos_site_id
 _symmetry_equiv_pos_as_xyz
  1  'x, y, z'
loop_
 _atom_site_type_symbol
 _atom_site_label
 _atom_site_symmetry_multiplicity
 _atom_site_fract_x
 _atom_site_fract_y
 _atom_site_fract_z
 _atom_site_occupancy
  La  La0  1  0.950152  0.450184  0.099420  1
  La  La1  1  0.351089  0.851090  0.297760  1
  La  La2  1  0.751776  0.251659  0.496517  1
  La  La3  1  0.147115  0.646956  0.705815  1
  La  La4  1  0.545570  0.045675  0.908703  1
  La  La5  1  0.000277  0.000314  0.999518  1
  La  La6  1  0.401061  0.401123  0.197715  1
  La  La7  1  0.801778  0.801940  0.396330  1
  La  La8  1  0.201889  0.202464  0.595858  1
  La  La9  1  0.600955  0.600738  0.798049  1
  Al  Al10  1  0.467244  0.967304  0.065528  1
  Al  Al11  1  0.868074  0.368176  0.263786  1
  Al  Al12  1  0.268790  0.768690  0.462594  1
  Al  Al13  1  0.666325  0.166320  0.667263  1
  Al  Al14  1  0.064876  0.564985  0.870080  1
  Al  Al15  1  0.917166  0.917150  0.165647  1
  Al  Al16  1  0.317929  0.317956  0.364129  1
  Al  Al17  1  0.718000  0.718063  0.563911  1
  Si  Si18  1  0.115929  0.115805  0.768469  1
  Si  Si19  1  0.514973  0.515008  0.969837  1
  Si  Si20  1  0.434292  0.934359  0.131482  1
  Si  Si21  1  0.834999  0.334922  0.330074  1
  Si  Si22  1  0.235525  0.735598  0.528811  1
  Si  Si23  1  0.632357  0.132594  0.735225  1
  Si  Si24  1  0.031377  0.531329  0.937273  1
  Si  Si25  1  0.483257  0.483188  0.033656  1
  Si  Si26  1  0.884222  0.884109  0.231790  1
  Si  Si27  1  0.284815  0.284705  0.430305  1
  Au  Au28  1  0.683706  0.683192  0.633156  1
  Au  Au29  1  0.081681  0.081603  0.836898  1
