# generated using pymatgen
data_CaErGaSe4
_symmetry_space_group_name_H-M   'P 1'
_cell_length_a   6.63365500
_cell_length_b   8.35576600
_cell_length_c   14.60155600
_cell_angle_alpha   90.00000000
_cell_angle_beta   90.00000000
_cell_angle_gamma   90.00000000
_symmetry_Int_Tables_number   1
_chemical_formula_structural   CaErGaSe4
_chemical_formula_sum   'Ca4 Er4 Ga4 Se16'
_cell_volume   809.35357395
_cell_formula_units_Z   4
loop_
 _symmetry_equiv_pos_site_id
 _symmetry_equiv_pos_as_xyz
  1  'x, y, z'
loop_
 _atom_site_type_symbol
 _atom_site_label
 _atom_site_symmetry_multiplicity
 _atom_site_fract_x
 _atom_site_fract_y
 _atom_site_fract_z
 _atom_site_occupancy
  Ca  Ca0  1  0.492506  0.500000  0.236461  1
  Ca  Ca1  1  0.992507  0.000000  0.263539  1
  Ca  Ca2  1  0.007495  0.500000  0.736461  1
  Ca  Ca3  1  0.507494  0.000000  0.763539  1
  Er  Er4  1  0.000000  0.250000  0.000000  1
  Er  Er5  1  0.000000  0.750001  0.000000  1
  Er  Er6  1  0.500001  0.250000  0.500000  1
  Er  Er7  1  0.500001  0.750001  0.500000  1
  Ga  Ga8  1  0.400253  0.000000  0.083753  1
  Ga  Ga9  1  0.900256  0.500000  0.416247  1
  Ga  Ga10  1  0.099746  0.000000  0.583753  1
  Ga  Ga11  1  0.599746  0.500000  0.916248  1
  Se  Se12  1  0.754039  0.500000  0.070824  1
  Se  Se13  1  0.766086  0.000000  0.085690  1
  Se  Se14  1  0.247199  0.231599  0.158833  1
  Se  Se15  1  0.247199  0.768402  0.158833  1
  Se  Se16  1  0.747200  0.268400  0.341166  1
  Se  Se17  1  0.747200  0.731600  0.341166  1
  Se  Se18  1  0.266087  0.500000  0.414310  1
  Se  Se19  1  0.254038  0.000000  0.429176  1
  Se  Se20  1  0.745962  0.500000  0.570824  1
  Se  Se21  1  0.733915  0.000000  0.585690  1
  Se  Se22  1  0.252802  0.231599  0.658833  1
  Se  Se23  1  0.252802  0.768402  0.658833  1
  Se  Se24  1  0.752801  0.268400  0.841166  1
  Se  Se25  1  0.752801  0.731600  0.841166  1
  Se  Se26  1  0.233914  0.500000  0.914310  1
  Se  Se27  1  0.245963  0.000000  0.929176  1
