# generated using pymatgen
data_NdDy2ZnGa7Ag3
_symmetry_space_group_name_H-M   'P 1'
_cell_length_a   4.35249276
_cell_length_b   8.37696230
_cell_length_c   8.36969034
_cell_angle_alpha   70.08214390
_cell_angle_beta   74.92903366
_cell_angle_gamma   74.94242899
_symmetry_Int_Tables_number   1
_chemical_formula_structural   NdDy2ZnGa7Ag3
_chemical_formula_sum   'Nd1 Dy2 Zn1 Ga7 Ag3'
_cell_volume   272.07054389
_cell_formula_units_Z   1
loop_
 _symmetry_equiv_pos_site_id
 _symmetry_equiv_pos_as_xyz
  1  'x, y, z'
loop_
 _atom_site_type_symbol
 _atom_site_label
 _atom_site_symmetry_multiplicity
 _atom_site_fract_x
 _atom_site_fract_y
 _atom_site_fract_z
 _atom_site_occupancy
  Nd  Nd0  1  0.500605  0.499124  0.499667  1
  Dy  Dy1  1  0.799683  0.199177  0.201458  1
  Dy  Dy2  1  0.199466  0.802633  0.798436  1
  Zn  Zn3  1  0.643714  0.077451  0.635121  1
  Ga  Ga4  1  0.356706  0.925828  0.360759  1
  Ga  Ga5  1  0.644331  0.638382  0.072955  1
  Ga  Ga6  1  0.357595  0.359418  0.925393  1
  Ga  Ga7  1  0.835812  0.796521  0.531855  1
  Ga  Ga8  1  0.159881  0.206581  0.473655  1
  Ga  Ga9  1  0.839656  0.528946  0.791742  1
  Ga  Ga10  1  0.160806  0.469286  0.209103  1
  Ag  Ag11  1  0.501277  0.998878  0.998570  1
  Ag  Ag12  1  0.999665  0.804298  0.196372  1
  Ag  Ag13  1  0.000804  0.193478  0.804914  1
