# generated using pymatgen
data_YHo3Th6(Si3C)2
_symmetry_space_group_name_H-M   'P 1'
_cell_length_a   6.36997000
_cell_length_b   8.74966074
_cell_length_c   8.74955100
_cell_angle_alpha   120.00022230
_cell_angle_beta   90.00014083
_cell_angle_gamma   89.99979851
_symmetry_Int_Tables_number   1
_chemical_formula_structural   YHo3Th6(Si3C)2
_chemical_formula_sum   'Y1 Ho3 Th6 Si6 C2'
_cell_volume   422.32231237
_cell_formula_units_Z   1
loop_
 _symmetry_equiv_pos_site_id
 _symmetry_equiv_pos_as_xyz
  1  'x, y, z'
loop_
 _atom_site_type_symbol
 _atom_site_label
 _atom_site_symmetry_multiplicity
 _atom_site_fract_x
 _atom_site_fract_y
 _atom_site_fract_z
 _atom_site_occupancy
  Y  Y0  1  0.499999  0.333319  0.666652  1
  Ho  Ho1  1  0.499980  0.666675  0.333354  1
  Ho  Ho2  1  0.000014  0.666655  0.333313  1
  Ho  Ho3  1  0.999999  0.333351  0.666692  1
  Th  Th4  1  0.750098  0.233321  0.999788  1
  Th  Th5  1  0.750107  0.766468  0.766671  1
  Th  Th6  1  0.750112  0.000216  0.233536  1
  Th  Th7  1  0.249907  0.766471  0.999788  1
  Th  Th8  1  0.249896  0.233323  0.233539  1
  Th  Th9  1  0.249887  0.000204  0.766672  1
  Si  Si10  1  0.752902  0.598559  0.001405  1
  Si  Si11  1  0.752939  0.402853  0.401445  1
  Si  Si12  1  0.752953  0.998596  0.597147  1
  Si  Si13  1  0.247098  0.402845  0.001405  1
  Si  Si14  1  0.247063  0.598554  0.597145  1
  Si  Si15  1  0.247044  0.998596  0.401450  1
  C  C16  1  0.500001  0.999998  0.000001  1
  C  C17  1  0.000003  0.999999  0.000001  1
