# generated using pymatgen
data_Mn2Zn2P6N13
_symmetry_space_group_name_H-M   'P 1'
_cell_length_a   6.99175279
_cell_length_b   6.99175321
_cell_length_c   7.03312464
_cell_angle_alpha   109.92288297
_cell_angle_beta   109.92288792
_cell_angle_gamma   108.32803916
_symmetry_Int_Tables_number   1
_chemical_formula_structural   Mn2Zn2P6N13
_chemical_formula_sum   'Mn2 Zn2 P6 N13'
_cell_volume   265.39556186
_cell_formula_units_Z   1
loop_
 _symmetry_equiv_pos_site_id
 _symmetry_equiv_pos_as_xyz
  1  'x, y, z'
loop_
 _atom_site_type_symbol
 _atom_site_label
 _atom_site_symmetry_multiplicity
 _atom_site_fract_x
 _atom_site_fract_y
 _atom_site_fract_z
 _atom_site_occupancy
  Mn  Mn0  1  0.983441  0.712202  0.000000  1
  Mn  Mn1  1  0.712202  0.983441  0.000000  1
  Zn  Zn2  1  0.002630  0.002630  0.711573  1
  Zn  Zn3  1  0.291057  0.291057  0.288427  1
  P  P4  1  0.499735  0.247812  0.748313  1
  P  P5  1  0.499499  0.751422  0.251687  1
  P  P6  1  0.751422  0.499499  0.251687  1
  P  P7  1  0.250514  0.750514  0.500000  1
  P  P8  1  0.750514  0.250514  0.500000  1
  P  P9  1  0.247812  0.499735  0.748313  1
  N  N10  1  0.999740  0.736131  0.457235  1
  N  N11  1  0.278895  0.542505  0.542765  1
  N  N12  1  0.735840  0.454961  0.000000  1
  N  N13  1  0.263808  0.727199  0.264891  1
  N  N14  1  0.462308  0.998917  0.735109  1
  N  N15  1  0.727199  0.263808  0.264891  1
  N  N16  1  0.542505  0.278895  0.542765  1
  N  N17  1  0.736131  0.999740  0.457235  1
  N  N18  1  0.265479  0.265479  0.723883  1
  N  N19  1  0.454961  0.735840  0.000000  1
  N  N20  1  0.541598  0.541598  0.276117  1
  N  N21  1  0.998917  0.462308  0.735109  1
  N  N22  1  0.003794  0.003794  0.000000  1
