# generated using pymatgen
data_Dy4Sc4Ir3Au
_symmetry_space_group_name_H-M   'P 1'
_cell_length_a   4.42953000
_cell_length_b   7.07491742
_cell_length_c   8.62408074
_cell_angle_alpha   91.31901058
_cell_angle_beta   90.00000000
_cell_angle_gamma   90.00000000
_symmetry_Int_Tables_number   1
_chemical_formula_structural   Dy4Sc4Ir3Au
_chemical_formula_sum   'Dy4 Sc4 Ir3 Au1'
_cell_volume   270.19464953
_cell_formula_units_Z   1
loop_
 _symmetry_equiv_pos_site_id
 _symmetry_equiv_pos_as_xyz
  1  'x, y, z'
loop_
 _atom_site_type_symbol
 _atom_site_label
 _atom_site_symmetry_multiplicity
 _atom_site_fract_x
 _atom_site_fract_y
 _atom_site_fract_z
 _atom_site_occupancy
  Dy  Dy0  1  0.250000  0.012543  0.331322  1
  Dy  Dy1  1  0.250000  0.534669  0.182039  1
  Dy  Dy2  1  0.750000  0.983343  0.669225  1
  Dy  Dy3  1  0.750000  0.483177  0.818718  1
  Sc  Sc4  1  0.250000  0.133724  0.922203  1
  Sc  Sc5  1  0.250000  0.642645  0.569536  1
  Sc  Sc6  1  0.750000  0.855086  0.062484  1
  Sc  Sc7  1  0.750000  0.358469  0.435946  1
  Ir  Ir8  1  0.250000  0.259928  0.606056  1
  Ir  Ir9  1  0.250000  0.752148  0.900825  1
  Ir  Ir10  1  0.750000  0.738992  0.393019  1
  Au  Au11  1  0.750000  0.245277  0.108626  1
