# generated using pymatgen
data_Sc4V2NiOs5
_symmetry_space_group_name_H-M   'P 1'
_cell_length_a   5.28028900
_cell_length_b   5.30497464
_cell_length_c   8.05673200
_cell_angle_alpha   90.00000000
_cell_angle_beta   90.00000000
_cell_angle_gamma   119.84620777
_symmetry_Int_Tables_number   1
_chemical_formula_structural   Sc4V2NiOs5
_chemical_formula_sum   'Sc4 V2 Ni1 Os5'
_cell_volume   195.74987880
_cell_formula_units_Z   1
loop_
 _symmetry_equiv_pos_site_id
 _symmetry_equiv_pos_as_xyz
  1  'x, y, z'
loop_
 _atom_site_type_symbol
 _atom_site_label
 _atom_site_symmetry_multiplicity
 _atom_site_fract_x
 _atom_site_fract_y
 _atom_site_fract_z
 _atom_site_occupancy
  Sc  Sc0  1  0.334308  0.668617  0.439419  1
  Sc  Sc1  1  0.665734  0.331466  0.565877  1
  Sc  Sc2  1  0.665734  0.331466  0.934123  1
  Sc  Sc3  1  0.334308  0.668617  0.060581  1
  V  V4  1  0.997181  0.994363  0.999514  1
  V  V5  1  0.997181  0.994363  0.500486  1
  Ni  Ni6  1  0.169470  0.338938  0.750000  1
  Os  Os7  1  0.172540  0.830836  0.750000  1
  Os  Os8  1  0.343854  0.175215  0.250000  1
  Os  Os9  1  0.830034  0.660070  0.250000  1
  Os  Os10  1  0.658297  0.830836  0.750000  1
  Os  Os11  1  0.831359  0.175215  0.250000  1
