# generated using pymatgen
data_Tb4Lu4In3Co
_symmetry_space_group_name_H-M   'P 1'
_cell_length_a   10.19668700
_cell_length_b   10.19668677
_cell_length_c   7.11065000
_cell_angle_alpha   90.00000000
_cell_angle_beta   90.00000000
_cell_angle_gamma   119.99999750
_symmetry_Int_Tables_number   1
_chemical_formula_structural   Tb4Lu4In3Co
_chemical_formula_sum   'Tb8 Lu8 In6 Co2'
_cell_volume   640.26256743
_cell_formula_units_Z   2
loop_
 _symmetry_equiv_pos_site_id
 _symmetry_equiv_pos_as_xyz
  1  'x, y, z'
loop_
 _atom_site_type_symbol
 _atom_site_label
 _atom_site_symmetry_multiplicity
 _atom_site_fract_x
 _atom_site_fract_y
 _atom_site_fract_z
 _atom_site_occupancy
  Tb  Tb0  1  0.535604  0.071207  0.785940  1
  Tb  Tb1  1  0.928793  0.464396  0.785940  1
  Tb  Tb2  1  0.535604  0.464396  0.785940  1
  Tb  Tb3  1  0.464396  0.928793  0.285940  1
  Tb  Tb4  1  0.071207  0.535604  0.285940  1
  Tb  Tb5  1  0.464396  0.535604  0.285940  1
  Tb  Tb6  1  0.000000  0.000000  0.773012  1
  Tb  Tb7  1  0.000000  0.000000  0.273012  1
  Lu  Lu8  1  0.821003  0.642006  0.489838  1
  Lu  Lu9  1  0.357994  0.178997  0.489838  1
  Lu  Lu10  1  0.821003  0.178997  0.489838  1
  Lu  Lu11  1  0.178997  0.357994  0.989838  1
  Lu  Lu12  1  0.642006  0.821003  0.989838  1
  Lu  Lu13  1  0.178997  0.821003  0.989838  1
  Lu  Lu14  1  0.666667  0.333333  0.183128  1
  Lu  Lu15  1  0.333333  0.666667  0.683128  1
  In  In16  1  0.836209  0.672419  0.041407  1
  In  In17  1  0.327581  0.163791  0.041407  1
  In  In18  1  0.836209  0.163791  0.041407  1
  In  In19  1  0.163791  0.327581  0.541407  1
  In  In20  1  0.672419  0.836209  0.541407  1
  In  In21  1  0.163791  0.836209  0.541407  1
  Co  Co22  1  0.666667  0.333333  0.555341  1
  Co  Co23  1  0.333333  0.666667  0.055341  1
