# generated using pymatgen
data_Pr2As7Pd12
_symmetry_space_group_name_H-M   'P 1'
_cell_length_a   10.09134500
_cell_length_b   10.09134514
_cell_length_c   4.20077900
_cell_angle_alpha   90.00000000
_cell_angle_beta   90.00000000
_cell_angle_gamma   120.00000282
_symmetry_Int_Tables_number   1
_chemical_formula_structural   Pr2As7Pd12
_chemical_formula_sum   'Pr2 As7 Pd12'
_cell_volume   370.47471060
_cell_formula_units_Z   1
loop_
 _symmetry_equiv_pos_site_id
 _symmetry_equiv_pos_as_xyz
  1  'x, y, z'
loop_
 _atom_site_type_symbol
 _atom_site_label
 _atom_site_symmetry_multiplicity
 _atom_site_fract_x
 _atom_site_fract_y
 _atom_site_fract_z
 _atom_site_occupancy
  Pr  Pr0  1  0.666667  0.333333  0.246041  1
  Pr  Pr1  1  0.000000  0.000000  0.752226  1
  As  As2  1  0.333333  0.666667  0.480520  1
  As  As3  1  0.741299  0.781811  0.251825  1
  As  As4  1  0.040513  0.258701  0.251825  1
  As  As5  1  0.218189  0.959487  0.251825  1
  As  As6  1  0.924715  0.552003  0.745217  1
  As  As7  1  0.627288  0.075285  0.745217  1
  As  As8  1  0.447997  0.372712  0.745217  1
  Pd  Pd9  1  0.769924  0.045293  0.249629  1
  Pd  Pd10  1  0.275370  0.230076  0.249629  1
  Pd  Pd11  1  0.954707  0.724630  0.249629  1
  Pd  Pd12  1  0.898317  0.288098  0.746582  1
  Pd  Pd13  1  0.389780  0.101683  0.746582  1
  Pd  Pd14  1  0.711902  0.610220  0.746582  1
  Pd  Pd15  1  0.476024  0.554110  0.227861  1
  Pd  Pd16  1  0.078086  0.523976  0.227861  1
  Pd  Pd17  1  0.445890  0.921914  0.227861  1
  Pd  Pd18  1  0.193563  0.775249  0.769798  1
  Pd  Pd19  1  0.581686  0.806437  0.769798  1
  Pd  Pd20  1  0.224751  0.418314  0.769798  1
