# generated using pymatgen
data_Y3Tm(Si2Tc)2
_symmetry_space_group_name_H-M   'P 1'
_cell_length_a   5.79789946
_cell_length_b   5.79790034
_cell_length_c   10.08299704
_cell_angle_alpha   63.63204923
_cell_angle_beta   63.63204331
_cell_angle_gamma   42.38078455
_symmetry_Int_Tables_number   1
_chemical_formula_structural   Y3Tm(Si2Tc)2
_chemical_formula_sum   'Y3 Tm1 Si4 Tc2'
_cell_volume   200.88313821
_cell_formula_units_Z   1
loop_
 _symmetry_equiv_pos_site_id
 _symmetry_equiv_pos_as_xyz
  1  'x, y, z'
loop_
 _atom_site_type_symbol
 _atom_site_label
 _atom_site_symmetry_multiplicity
 _atom_site_fract_x
 _atom_site_fract_y
 _atom_site_fract_z
 _atom_site_occupancy
  Y  Y0  1  0.187515  0.187515  0.891502  1
  Y  Y1  1  0.994312  0.994312  0.676953  1
  Y  Y2  1  0.811951  0.811951  0.109818  1
  Tm  Tm3  1  0.003614  0.003614  0.324516  1
  Si  Si4  1  0.357740  0.357740  0.559269  1
  Si  Si5  1  0.499283  0.499283  0.877813  1
  Si  Si6  1  0.642611  0.642611  0.439008  1
  Si  Si7  1  0.501685  0.501685  0.123740  1
  Tc  Tc8  1  0.728718  0.728718  0.627765  1
  Tc  Tc9  1  0.272570  0.272570  0.369617  1
