# generated using pymatgen
data_ErTm19(Ir2Rh)4
_symmetry_space_group_name_H-M   'P 1'
_cell_length_a   10.72700600
_cell_length_b   10.72636401
_cell_length_c   6.31561700
_cell_angle_alpha   89.99589854
_cell_angle_beta   89.99949490
_cell_angle_gamma   89.99777796
_symmetry_Int_Tables_number   1
_chemical_formula_structural   ErTm19(Ir2Rh)4
_chemical_formula_sum   'Er1 Tm19 Ir8 Rh4'
_cell_volume   726.68607567
_cell_formula_units_Z   1
loop_
 _symmetry_equiv_pos_site_id
 _symmetry_equiv_pos_as_xyz
  1  'x, y, z'
loop_
 _atom_site_type_symbol
 _atom_site_label
 _atom_site_symmetry_multiplicity
 _atom_site_fract_x
 _atom_site_fract_y
 _atom_site_fract_z
 _atom_site_occupancy
  Er  Er0  1  0.290479  0.088328  0.378033  1
  Tm  Tm1  1  0.290709  0.911636  0.878127  1
  Tm  Tm2  1  0.709299  0.088281  0.878164  1
  Tm  Tm3  1  0.709319  0.911724  0.378160  1
  Tm  Tm4  1  0.588278  0.790683  0.878130  1
  Tm  Tm5  1  0.588407  0.209371  0.378148  1
  Tm  Tm6  1  0.411763  0.790571  0.378137  1
  Tm  Tm7  1  0.411820  0.209358  0.878151  1
  Tm  Tm8  1  0.209302  0.411756  0.621851  1
  Tm  Tm9  1  0.209303  0.588285  0.121846  1
  Tm  Tm10  1  0.790688  0.411737  0.121853  1
  Tm  Tm11  1  0.790692  0.588257  0.621833  1
  Tm  Tm12  1  0.911736  0.709303  0.121857  1
  Tm  Tm13  1  0.911715  0.290695  0.621821  1
  Tm  Tm14  1  0.088259  0.709291  0.621860  1
  Tm  Tm15  1  0.088174  0.290768  0.121736  1
  Tm  Tm16  1  0.999853  0.999939  0.500076  1
  Tm  Tm17  1  0.999974  0.999989  0.999996  1
  Tm  Tm18  1  0.500007  0.500009  0.000001  1
  Tm  Tm19  1  0.500020  0.500000  0.500057  1
  Ir  Ir20  1  0.846023  0.153977  0.249995  1
  Ir  Ir21  1  0.846009  0.846046  0.749987  1
  Ir  Ir22  1  0.153837  0.154058  0.750398  1
  Ir  Ir23  1  0.153913  0.845856  0.249894  1
  Ir  Ir24  1  0.653961  0.346025  0.749969  1
  Ir  Ir25  1  0.653957  0.653975  0.249995  1
  Ir  Ir26  1  0.346091  0.346265  0.249883  1
  Ir  Ir27  1  0.346034  0.653976  0.750024  1
  Rh  Rh28  1  0.500176  0.999907  0.122854  1
  Rh  Rh29  1  0.500213  0.999927  0.623258  1
  Rh  Rh30  1  0.000002  0.499991  0.876960  1
  Rh  Rh31  1  0.999988  0.500016  0.376947  1
