# generated using pymatgen
data_LiTb3GeS7
_symmetry_space_group_name_H-M   'P 1'
_cell_length_a   9.90338900
_cell_length_b   9.90342552
_cell_length_c   5.80149700
_cell_angle_alpha   90.00000000
_cell_angle_beta   90.00000000
_cell_angle_gamma   119.99827109
_symmetry_Int_Tables_number   1
_chemical_formula_structural   LiTb3GeS7
_chemical_formula_sum   'Li2 Tb6 Ge2 S14'
_cell_volume   492.77373024
_cell_formula_units_Z   2
loop_
 _symmetry_equiv_pos_site_id
 _symmetry_equiv_pos_as_xyz
  1  'x, y, z'
loop_
 _atom_site_type_symbol
 _atom_site_label
 _atom_site_symmetry_multiplicity
 _atom_site_fract_x
 _atom_site_fract_y
 _atom_site_fract_z
 _atom_site_occupancy
  Li  Li0  1  0.000000  0.000002  0.997119  1
  Li  Li1  1  0.000000  0.999998  0.497120  1
  Tb  Tb2  1  0.357887  0.131948  0.274232  1
  Tb  Tb3  1  0.868052  0.225941  0.274235  1
  Tb  Tb4  1  0.774052  0.642109  0.274230  1
  Tb  Tb5  1  0.225947  0.357891  0.774231  1
  Tb  Tb6  1  0.131947  0.774058  0.774236  1
  Tb  Tb7  1  0.642113  0.868052  0.774233  1
  Ge  Ge8  1  0.333323  0.666673  0.352479  1
  Ge  Ge9  1  0.666677  0.333327  0.852478  1
  S  S10  1  0.154639  0.248508  0.232596  1
  S  S11  1  0.093870  0.845359  0.232596  1
  S  S12  1  0.751492  0.906135  0.232596  1
  S  S13  1  0.666667  0.333333  0.473257  1
  S  S14  1  0.419159  0.901075  0.514987  1
  S  S15  1  0.098926  0.518088  0.514987  1
  S  S16  1  0.481905  0.580844  0.514983  1
  S  S17  1  0.248508  0.093865  0.732596  1
  S  S18  1  0.906131  0.154641  0.732597  1
  S  S19  1  0.845360  0.751492  0.732597  1
  S  S20  1  0.333334  0.666667  0.973257  1
  S  S21  1  0.580841  0.098925  0.014988  1
  S  S22  1  0.901074  0.481912  0.014988  1
  S  S23  1  0.518095  0.419156  0.014983  1
