# generated using pymatgen
data_Tb4Al18Ni4RuRh
_symmetry_space_group_name_H-M   'P 1'
_cell_length_a   7.46385233
_cell_length_b   7.46385230
_cell_length_c   9.34892509
_cell_angle_alpha   89.94578372
_cell_angle_beta   89.94578267
_cell_angle_gamma   118.95516831
_symmetry_Int_Tables_number   1
_chemical_formula_structural   Tb4Al18Ni4RuRh
_chemical_formula_sum   'Tb4 Al18 Ni4 Ru1 Rh1'
_cell_volume   455.71618262
_cell_formula_units_Z   1
loop_
 _symmetry_equiv_pos_site_id
 _symmetry_equiv_pos_as_xyz
  1  'x, y, z'
loop_
 _atom_site_type_symbol
 _atom_site_label
 _atom_site_symmetry_multiplicity
 _atom_site_fract_x
 _atom_site_fract_y
 _atom_site_fract_z
 _atom_site_occupancy
  Tb  Tb0  1  0.995360  0.674809  0.249719  1
  Tb  Tb1  1  0.004640  0.325191  0.750281  1
  Tb  Tb2  1  0.674809  0.995360  0.249719  1
  Tb  Tb3  1  0.325191  0.004640  0.750281  1
  Al  Al4  1  0.133202  0.133202  0.248908  1
  Al  Al5  1  0.866798  0.866798  0.751092  1
  Al  Al6  1  0.998148  0.336480  0.072920  1
  Al  Al7  1  0.001852  0.663520  0.927080  1
  Al  Al8  1  0.000794  0.661034  0.574179  1
  Al  Al9  1  0.338966  0.999206  0.425821  1
  Al  Al10  1  0.999206  0.338966  0.425821  1
  Al  Al11  1  0.661034  0.000794  0.574179  1
  Al  Al12  1  0.663520  0.001852  0.927080  1
  Al  Al13  1  0.336480  0.998148  0.072920  1
  Al  Al14  1  0.335037  0.335037  0.547325  1
  Al  Al15  1  0.664963  0.664963  0.452675  1
  Al  Al16  1  0.666257  0.666257  0.046081  1
  Al  Al17  1  0.333743  0.333743  0.953919  1
  Al  Al18  1  0.342592  0.555778  0.249532  1
  Al  Al19  1  0.657408  0.444222  0.750468  1
  Al  Al20  1  0.555778  0.342592  0.249532  1
  Al  Al21  1  0.444222  0.657408  0.750468  1
  Ni  Ni22  1  0.671048  0.328952  0.000000  1
  Ni  Ni23  1  0.328952  0.671048  0.000000  1
  Ni  Ni24  1  0.328719  0.671281  0.500000  1
  Ni  Ni25  1  0.671281  0.328719  0.500000  1
  Ru  Ru26  1  0.000000  0.000000  0.000000  1
  Rh  Rh27  1  0.000000  0.000000  0.500000  1
