# generated using pymatgen
data_YTm3(MgPt)4
_symmetry_space_group_name_H-M   'P 1'
_cell_length_a   4.20444800
_cell_length_b   7.03179882
_cell_length_c   8.55621446
_cell_angle_alpha   91.60592090
_cell_angle_beta   90.00000000
_cell_angle_gamma   90.00000000
_symmetry_Int_Tables_number   1
_chemical_formula_structural   YTm3(MgPt)4
_chemical_formula_sum   'Y1 Tm3 Mg4 Pt4'
_cell_volume   252.86368950
_cell_formula_units_Z   1
loop_
 _symmetry_equiv_pos_site_id
 _symmetry_equiv_pos_as_xyz
  1  'x, y, z'
loop_
 _atom_site_type_symbol
 _atom_site_label
 _atom_site_symmetry_multiplicity
 _atom_site_fract_x
 _atom_site_fract_y
 _atom_site_fract_z
 _atom_site_occupancy
  Y  Y0  1  0.750000  0.534580  0.827676  1
  Tm  Tm1  1  0.250000  0.962271  0.324876  1
  Tm  Tm2  1  0.250000  0.465229  0.171553  1
  Tm  Tm3  1  0.750000  0.038357  0.674255  1
  Mg  Mg4  1  0.250000  0.863953  0.940171  1
  Mg  Mg5  1  0.250000  0.364887  0.559789  1
  Mg  Mg6  1  0.750000  0.135479  0.061154  1
  Mg  Mg7  1  0.750000  0.635054  0.438567  1
  Pt  Pt8  1  0.250000  0.250306  0.871931  1
  Pt  Pt9  1  0.250000  0.760248  0.622021  1
  Pt  Pt10  1  0.750000  0.746626  0.131656  1
  Pt  Pt11  1  0.750000  0.243010  0.376352  1
