# generated using pymatgen
data_La3ZnIn3IrAu
_symmetry_space_group_name_H-M   'P 1'
_cell_length_a   8.02090700
_cell_length_b   8.02090792
_cell_length_c   4.06877500
_cell_angle_alpha   90.00000000
_cell_angle_beta   90.00000000
_cell_angle_gamma   120.00000032
_symmetry_Int_Tables_number   1
_chemical_formula_structural   La3ZnIn3IrAu
_chemical_formula_sum   'La3 Zn1 In3 Ir1 Au1'
_cell_volume   226.69467373
_cell_formula_units_Z   1
loop_
 _symmetry_equiv_pos_site_id
 _symmetry_equiv_pos_as_xyz
  1  'x, y, z'
loop_
 _atom_site_type_symbol
 _atom_site_label
 _atom_site_symmetry_multiplicity
 _atom_site_fract_x
 _atom_site_fract_y
 _atom_site_fract_z
 _atom_site_occupancy
  La  La0  1  0.021527  0.599249  0.500000  1
  La  La1  1  0.400751  0.422279  0.500000  1
  La  La2  1  0.577721  0.978473  0.500000  1
  Zn  Zn3  1  0.000000  0.000000  0.500000  1
  In  In4  1  0.749708  0.747057  0.000000  1
  In  In5  1  0.997349  0.250292  0.000000  1
  In  In6  1  0.252943  0.002651  0.000000  1
  Ir  Ir7  1  0.333333  0.666667  0.000000  1
  Au  Au8  1  0.666667  0.333333  0.000000  1
