# generated using pymatgen
data_Tb4Y(SnBi)2
_symmetry_space_group_name_H-M   'P 1'
_cell_length_a   8.21869500
_cell_length_b   8.26085600
_cell_length_c   15.72658700
_cell_angle_alpha   90.00000000
_cell_angle_beta   90.00000000
_cell_angle_gamma   90.00000000
_symmetry_Int_Tables_number   1
_chemical_formula_structural   Tb4Y(SnBi)2
_chemical_formula_sum   'Tb16 Y4 Sn8 Bi8'
_cell_volume   1067.73234099
_cell_formula_units_Z   4
loop_
 _symmetry_equiv_pos_site_id
 _symmetry_equiv_pos_as_xyz
  1  'x, y, z'
loop_
 _atom_site_type_symbol
 _atom_site_label
 _atom_site_symmetry_multiplicity
 _atom_site_fract_x
 _atom_site_fract_y
 _atom_site_fract_z
 _atom_site_occupancy
  Tb  Tb0  1  0.386228  0.838254  0.876672  1
  Tb  Tb1  1  0.886228  0.661746  0.623328  1
  Tb  Tb2  1  0.613772  0.161746  0.376672  1
  Tb  Tb3  1  0.113772  0.338254  0.123328  1
  Tb  Tb4  1  0.613772  0.161746  0.123328  1
  Tb  Tb5  1  0.113772  0.338254  0.376672  1
  Tb  Tb6  1  0.386228  0.838254  0.623328  1
  Tb  Tb7  1  0.886228  0.661746  0.876672  1
  Tb  Tb8  1  0.552941  0.328085  0.889904  1
  Tb  Tb9  1  0.052941  0.171915  0.610096  1
  Tb  Tb10  1  0.447059  0.671915  0.389904  1
  Tb  Tb11  1  0.947059  0.828085  0.110096  1
  Tb  Tb12  1  0.447059  0.671915  0.110096  1
  Tb  Tb13  1  0.947059  0.828085  0.389904  1
  Tb  Tb14  1  0.552941  0.328085  0.610096  1
  Tb  Tb15  1  0.052941  0.171915  0.889904  1
  Y  Y16  1  0.217594  0.498078  0.750000  1
  Y  Y17  1  0.717594  0.001922  0.750000  1
  Y  Y18  1  0.782406  0.501922  0.250000  1
  Y  Y19  1  0.282406  0.998078  0.250000  1
  Sn  Sn20  1  0.582749  0.626218  0.750000  1
  Sn  Sn21  1  0.082749  0.873782  0.750000  1
  Sn  Sn22  1  0.417251  0.373782  0.250000  1
  Sn  Sn23  1  0.917251  0.126218  0.250000  1
  Sn  Sn24  1  0.356382  0.143795  0.750000  1
  Sn  Sn25  1  0.856382  0.356205  0.750000  1
  Sn  Sn26  1  0.643618  0.856205  0.250000  1
  Sn  Sn27  1  0.143618  0.643795  0.250000  1
  Bi  Bi28  1  0.270418  0.020755  0.044277  1
  Bi  Bi29  1  0.770418  0.479245  0.455723  1
  Bi  Bi30  1  0.729582  0.979245  0.544277  1
  Bi  Bi31  1  0.229582  0.520755  0.955723  1
  Bi  Bi32  1  0.729582  0.979245  0.955723  1
  Bi  Bi33  1  0.229582  0.520755  0.544277  1
  Bi  Bi34  1  0.270418  0.020755  0.455723  1
  Bi  Bi35  1  0.770418  0.479245  0.044277  1
