# generated using pymatgen
data_Nd4Cd2Ni2Hg
_symmetry_space_group_name_H-M   'P 1'
_cell_length_a   3.77344900
_cell_length_b   7.59300602
_cell_length_c   8.29535264
_cell_angle_alpha   72.66312866
_cell_angle_beta   90.00000000
_cell_angle_gamma   90.00000000
_symmetry_Int_Tables_number   1
_chemical_formula_structural   Nd4Cd2Ni2Hg
_chemical_formula_sum   'Nd4 Cd2 Ni2 Hg1'
_cell_volume   226.87911204
_cell_formula_units_Z   1
loop_
 _symmetry_equiv_pos_site_id
 _symmetry_equiv_pos_as_xyz
  1  'x, y, z'
loop_
 _atom_site_type_symbol
 _atom_site_label
 _atom_site_symmetry_multiplicity
 _atom_site_fract_x
 _atom_site_fract_y
 _atom_site_fract_z
 _atom_site_occupancy
  Nd  Nd0  1  0.500000  0.608806  0.185715  1
  Nd  Nd1  1  0.500000  0.915012  0.722073  1
  Nd  Nd2  1  0.500000  0.084988  0.277927  1
  Nd  Nd3  1  0.500000  0.391194  0.814285  1
  Cd  Cd4  1  0.000000  0.698817  0.510020  1
  Cd  Cd5  1  0.000000  0.301183  0.489980  1
  Ni  Ni6  1  0.000000  0.348970  0.109307  1
  Ni  Ni7  1  0.000000  0.651030  0.890693  1
  Hg  Hg8  1  0.000000  0.000000  0.000000  1
