# generated using pymatgen
data_Zr2BIrRh5
_symmetry_space_group_name_H-M   'P 1'
_cell_length_a   5.72972043
_cell_length_b   5.72811363
_cell_length_c   5.72811323
_cell_angle_alpha   60.01856913
_cell_angle_beta   59.99070945
_cell_angle_gamma   59.99071476
_symmetry_Int_Tables_number   1
_chemical_formula_structural   Zr2BIrRh5
_chemical_formula_sum   'Zr2 B1 Ir1 Rh5'
_cell_volume   132.93568044
_cell_formula_units_Z   1
loop_
 _symmetry_equiv_pos_site_id
 _symmetry_equiv_pos_as_xyz
  1  'x, y, z'
loop_
 _atom_site_type_symbol
 _atom_site_label
 _atom_site_symmetry_multiplicity
 _atom_site_fract_x
 _atom_site_fract_y
 _atom_site_fract_z
 _atom_site_occupancy
  Zr  Zr0  1  0.749951  0.750049  0.750049  1
  Zr  Zr1  1  0.249951  0.250049  0.250049  1
  B  B2  1  0.999410  0.000590  0.000590  1
  Ir  Ir3  1  0.257474  0.742526  0.742526  1
  Rh  Rh4  1  0.742572  0.742511  0.257428  1
  Rh  Rh5  1  0.257489  0.742511  0.257428  1
  Rh  Rh6  1  0.743091  0.256909  0.256909  1
  Rh  Rh7  1  0.257489  0.257428  0.742511  1
  Rh  Rh8  1  0.742572  0.257428  0.742511  1
