# generated using pymatgen
data_PrDyTm(Co3P2)3
_symmetry_space_group_name_H-M   'P 1'
_cell_length_a   3.71982200
_cell_length_b   10.57111500
_cell_length_c   12.21022900
_cell_angle_alpha   90.00000000
_cell_angle_beta   90.00000000
_cell_angle_gamma   90.00000000
_symmetry_Int_Tables_number   1
_chemical_formula_structural   PrDyTm(Co3P2)3
_chemical_formula_sum   'Pr2 Dy2 Tm2 Co18 P12'
_cell_volume   480.13875848
_cell_formula_units_Z   2
loop_
 _symmetry_equiv_pos_site_id
 _symmetry_equiv_pos_as_xyz
  1  'x, y, z'
loop_
 _atom_site_type_symbol
 _atom_site_label
 _atom_site_symmetry_multiplicity
 _atom_site_fract_x
 _atom_site_fract_y
 _atom_site_fract_z
 _atom_site_occupancy
  Pr  Pr0  1  0.000000  0.500000  0.521772  1
  Pr  Pr1  1  0.500000  0.000000  0.477474  1
  Dy  Dy2  1  0.000000  0.682600  0.795567  1
  Dy  Dy3  1  0.000000  0.317400  0.795567  1
  Tm  Tm4  1  0.500000  0.817831  0.204620  1
  Tm  Tm5  1  0.500000  0.182169  0.204620  1
  Co  Co6  1  0.500000  0.500000  0.156014  1
  Co  Co7  1  0.000000  0.000000  0.844261  1
  Co  Co8  1  0.500000  0.500000  0.707268  1
  Co  Co9  1  0.000000  0.000000  0.292545  1
  Co  Co10  1  0.000000  0.500000  0.987904  1
  Co  Co11  1  0.500000  0.000000  0.014517  1
  Co  Co12  1  0.500000  0.332804  0.995931  1
  Co  Co13  1  0.500000  0.667196  0.995931  1
  Co  Co14  1  0.000000  0.166297  0.006002  1
  Co  Co15  1  0.000000  0.833703  0.006002  1
  Co  Co16  1  0.500000  0.296323  0.427398  1
  Co  Co17  1  0.500000  0.703677  0.427398  1
  Co  Co18  1  0.000000  0.203309  0.570685  1
  Co  Co19  1  0.000000  0.796691  0.570685  1
  Co  Co20  1  0.500000  0.879758  0.713216  1
  Co  Co21  1  0.500000  0.120242  0.713216  1
  Co  Co22  1  0.000000  0.620896  0.285942  1
  Co  Co23  1  0.000000  0.379104  0.285942  1
  P  P24  1  0.500000  0.500000  0.884968  1
  P  P25  1  0.000000  0.000000  0.116985  1
  P  P26  1  0.500000  0.500000  0.338103  1
  P  P27  1  0.000000  0.000000  0.661432  1
  P  P28  1  0.500000  0.306532  0.617346  1
  P  P29  1  0.500000  0.693468  0.617346  1
  P  P30  1  0.000000  0.192783  0.380688  1
  P  P31  1  0.000000  0.807217  0.380688  1
  P  P32  1  0.500000  0.847090  0.894854  1
  P  P33  1  0.500000  0.152910  0.894854  1
  P  P34  1  0.000000  0.654538  0.106127  1
  P  P35  1  0.000000  0.345462  0.106127  1
