# generated using pymatgen
data_NbRe5Sb14
_symmetry_space_group_name_H-M   'P 1'
_cell_length_a   8.30368478
_cell_length_b   8.30368535
_cell_length_c   8.30368438
_cell_angle_alpha   109.28702495
_cell_angle_beta   109.84023776
_cell_angle_gamma   109.28703035
_symmetry_Int_Tables_number   1
_chemical_formula_structural   NbRe5Sb14
_chemical_formula_sum   'Nb1 Re5 Sb14'
_cell_volume   440.73461486
_cell_formula_units_Z   1
loop_
 _symmetry_equiv_pos_site_id
 _symmetry_equiv_pos_as_xyz
  1  'x, y, z'
loop_
 _atom_site_type_symbol
 _atom_site_label
 _atom_site_symmetry_multiplicity
 _atom_site_fract_x
 _atom_site_fract_y
 _atom_site_fract_z
 _atom_site_occupancy
  Nb  Nb0  1  0.343971  0.000000  0.343971  1
  Re  Re1  1  0.999995  0.342056  0.342051  1
  Re  Re2  1  0.999995  0.657944  0.657939  1
  Re  Re3  1  0.342051  0.342056  0.999995  1
  Re  Re4  1  0.657939  0.657944  0.999995  1
  Re  Re5  1  0.664440  0.000000  0.664440  1
  Sb  Sb6  1  0.750679  0.500000  0.250679  1
  Sb  Sb7  1  0.499802  0.747689  0.247491  1
  Sb  Sb8  1  0.499802  0.252311  0.752113  1
  Sb  Sb9  1  0.752113  0.252311  0.499802  1
  Sb  Sb10  1  0.247491  0.747689  0.499802  1
  Sb  Sb11  1  0.250679  0.500000  0.750679  1
  Sb  Sb12  1  0.997879  0.000000  0.325808  1
  Sb  Sb13  1  0.672387  0.000000  0.999448  1
  Sb  Sb14  1  0.997879  0.672071  0.997879  1
  Sb  Sb15  1  0.325808  0.327929  0.325808  1
  Sb  Sb16  1  0.999448  0.327061  0.999448  1
  Sb  Sb17  1  0.672387  0.672939  0.672387  1
  Sb  Sb18  1  0.325808  0.000000  0.997879  1
  Sb  Sb19  1  0.999448  0.000000  0.672387  1
