# generated using pymatgen
data_NbTc2(NiP)3
_symmetry_space_group_name_H-M   'P 1'
_cell_length_a   5.88913820
_cell_length_b   5.88913730
_cell_length_c   3.71949600
_cell_angle_alpha   90.00000000
_cell_angle_beta   90.00000000
_cell_angle_gamma   120.25017935
_symmetry_Int_Tables_number   1
_chemical_formula_structural   NbTc2(NiP)3
_chemical_formula_sum   'Nb1 Tc2 Ni3 P3'
_cell_volume   111.43401512
_cell_formula_units_Z   1
loop_
 _symmetry_equiv_pos_site_id
 _symmetry_equiv_pos_as_xyz
  1  'x, y, z'
loop_
 _atom_site_type_symbol
 _atom_site_label
 _atom_site_symmetry_multiplicity
 _atom_site_fract_x
 _atom_site_fract_y
 _atom_site_fract_z
 _atom_site_occupancy
  Nb  Nb0  1  0.584084  0.584084  0.500000  1
  Tc  Tc1  1  0.409427  0.997233  0.500000  1
  Tc  Tc2  1  0.997233  0.409427  0.500000  1
  Ni  Ni3  1  0.750635  0.999740  0.000000  1
  Ni  Ni4  1  0.999740  0.750635  0.000000  1
  Ni  Ni5  1  0.252529  0.252529  0.000000  1
  P  P6  1  0.326007  0.671238  0.000000  1
  P  P7  1  0.671238  0.326007  0.000000  1
  P  P8  1  0.009108  0.009108  0.500000  1
