# generated using pymatgen
data_Er3Tm3Co16(P6W)2
_symmetry_space_group_name_H-M   'P 1'
_cell_length_a   3.70312900
_cell_length_b   10.52843812
_cell_length_c   12.20285513
_cell_angle_alpha   89.98295590
_cell_angle_beta   90.00000000
_cell_angle_gamma   90.00000000
_symmetry_Int_Tables_number   1
_chemical_formula_structural   Er3Tm3Co16(P6W)2
_chemical_formula_sum   'Er3 Tm3 Co16 P12 W2'
_cell_volume   475.76690249
_cell_formula_units_Z   1
loop_
 _symmetry_equiv_pos_site_id
 _symmetry_equiv_pos_as_xyz
  1  'x, y, z'
loop_
 _atom_site_type_symbol
 _atom_site_label
 _atom_site_symmetry_multiplicity
 _atom_site_fract_x
 _atom_site_fract_y
 _atom_site_fract_z
 _atom_site_occupancy
  Er  Er0  1  0.750000  0.249954  0.475189  1
  Er  Er1  1  0.250000  0.750011  0.524879  1
  Er  Er2  1  0.750000  0.430372  0.204972  1
  Tm  Tm3  1  0.250000  0.930259  0.794922  1
  Tm  Tm4  1  0.250000  0.569751  0.795074  1
  Tm  Tm5  1  0.750000  0.069593  0.205017  1
  Co  Co6  1  0.250000  0.249733  0.299045  1
  Co  Co7  1  0.750000  0.750018  0.701118  1
  Co  Co8  1  0.750000  0.249668  0.013012  1
  Co  Co9  1  0.250000  0.750301  0.986730  1
  Co  Co10  1  0.250000  0.417256  0.009791  1
  Co  Co11  1  0.250000  0.082612  0.009978  1
  Co  Co12  1  0.750000  0.582883  0.989773  1
  Co  Co13  1  0.750000  0.917264  0.989863  1
  Co  Co14  1  0.250000  0.454145  0.568698  1
  Co  Co15  1  0.250000  0.045828  0.568529  1
  Co  Co16  1  0.750000  0.545955  0.431753  1
  Co  Co17  1  0.750000  0.954030  0.431476  1
  Co  Co18  1  0.250000  0.872553  0.292774  1
  Co  Co19  1  0.250000  0.627849  0.292997  1
  Co  Co20  1  0.750000  0.127487  0.707165  1
  Co  Co21  1  0.750000  0.372499  0.707296  1
  P  P22  1  0.250000  0.249709  0.120320  1
  P  P23  1  0.750000  0.750066  0.879454  1
  P  P24  1  0.250000  0.250008  0.648699  1
  P  P25  1  0.750000  0.749939  0.351313  1
  P  P26  1  0.250000  0.437866  0.383962  1
  P  P27  1  0.250000  0.062040  0.383556  1
  P  P28  1  0.750000  0.562256  0.616592  1
  P  P29  1  0.750000  0.937794  0.616458  1
  P  P30  1  0.250000  0.906499  0.108095  1
  P  P31  1  0.250000  0.593718  0.107691  1
  P  P32  1  0.750000  0.093445  0.891787  1
  P  P33  1  0.750000  0.406589  0.892084  1
  W  W34  1  0.250000  0.249960  0.843197  1
  W  W35  1  0.750000  0.750090  0.156738  1
