# generated using pymatgen
data_Ho3TmAl4Ru3Rh
_symmetry_space_group_name_H-M   'P 1'
_cell_length_a   4.02832300
_cell_length_b   6.99775408
_cell_length_c   8.06190347
_cell_angle_alpha   89.97189343
_cell_angle_beta   90.00000000
_cell_angle_gamma   90.00000000
_symmetry_Int_Tables_number   1
_chemical_formula_structural   Ho3TmAl4Ru3Rh
_chemical_formula_sum   'Ho3 Tm1 Al4 Ru3 Rh1'
_cell_volume   227.25869248
_cell_formula_units_Z   1
loop_
 _symmetry_equiv_pos_site_id
 _symmetry_equiv_pos_as_xyz
  1  'x, y, z'
loop_
 _atom_site_type_symbol
 _atom_site_label
 _atom_site_symmetry_multiplicity
 _atom_site_fract_x
 _atom_site_fract_y
 _atom_site_fract_z
 _atom_site_occupancy
  Ho  Ho0  1  0.250000  0.966416  0.320197  1
  Ho  Ho1  1  0.750000  0.532424  0.823748  1
  Ho  Ho2  1  0.750000  0.037113  0.679016  1
  Tm  Tm3  1  0.250000  0.465422  0.177465  1
  Al  Al4  1  0.750000  0.635509  0.439690  1
  Al  Al5  1  0.750000  0.136671  0.058418  1
  Al  Al6  1  0.250000  0.362020  0.558191  1
  Al  Al7  1  0.250000  0.864033  0.942594  1
  Ru  Ru8  1  0.750000  0.766030  0.125329  1
  Ru  Ru9  1  0.750000  0.268457  0.375678  1
  Ru  Ru10  1  0.250000  0.234058  0.875250  1
  Rh  Rh11  1  0.250000  0.731850  0.624425  1
