# generated using pymatgen
data_Ce2Be2Ir5
_symmetry_space_group_name_H-M   'P 1'
_cell_length_a   11.65317711
_cell_length_b   11.65317675
_cell_length_c   11.65317819
_cell_angle_alpha   27.09406449
_cell_angle_beta   27.09406590
_cell_angle_gamma   27.09407001
_symmetry_Int_Tables_number   1
_chemical_formula_structural   Ce2Be2Ir5
_chemical_formula_sum   'Ce4 Be4 Ir10'
_cell_volume   289.57504816
_cell_formula_units_Z   2
loop_
 _symmetry_equiv_pos_site_id
 _symmetry_equiv_pos_as_xyz
  1  'x, y, z'
loop_
 _atom_site_type_symbol
 _atom_site_label
 _atom_site_symmetry_multiplicity
 _atom_site_fract_x
 _atom_site_fract_y
 _atom_site_fract_z
 _atom_site_occupancy
  Ce  Ce0  1  0.150113  0.150113  0.150113  1
  Ce  Ce1  1  0.949229  0.949229  0.949229  1
  Ce  Ce2  1  0.849887  0.849887  0.849887  1
  Ce  Ce3  1  0.050771  0.050771  0.050771  1
  Be  Be4  1  0.614941  0.614941  0.614941  1
  Be  Be5  1  0.717174  0.717174  0.717174  1
  Be  Be6  1  0.385059  0.385059  0.385059  1
  Be  Be7  1  0.282826  0.282826  0.282826  1
  Ir  Ir8  1  0.396591  0.898311  0.396591  1
  Ir  Ir9  1  0.898311  0.396591  0.396591  1
  Ir  Ir10  1  0.500000  0.500000  0.000000  1
  Ir  Ir11  1  0.500000  0.000000  0.500000  1
  Ir  Ir12  1  0.000000  0.500000  0.500000  1
  Ir  Ir13  1  0.500000  0.500000  0.500000  1
  Ir  Ir14  1  0.603409  0.101689  0.603409  1
  Ir  Ir15  1  0.603409  0.603409  0.101689  1
  Ir  Ir16  1  0.101689  0.603409  0.603409  1
  Ir  Ir17  1  0.396591  0.396591  0.898311  1
