# generated using pymatgen
data_Ba4ZnGa7Au20
_symmetry_space_group_name_H-M   'P 1'
_cell_length_a   7.35411100
_cell_length_b   9.18952683
_cell_length_c   10.23706525
_cell_angle_alpha   89.90934644
_cell_angle_beta   90.00000000
_cell_angle_gamma   90.00000000
_symmetry_Int_Tables_number   1
_chemical_formula_structural   Ba4ZnGa7Au20
_chemical_formula_sum   'Ba4 Zn1 Ga7 Au20'
_cell_volume   691.82819714
_cell_formula_units_Z   1
loop_
 _symmetry_equiv_pos_site_id
 _symmetry_equiv_pos_as_xyz
  1  'x, y, z'
loop_
 _atom_site_type_symbol
 _atom_site_label
 _atom_site_symmetry_multiplicity
 _atom_site_fract_x
 _atom_site_fract_y
 _atom_site_fract_z
 _atom_site_occupancy
  Ba  Ba0  1  0.250000  0.248086  0.120673  1
  Ba  Ba1  1  0.250000  0.750476  0.380388  1
  Ba  Ba2  1  0.750000  0.751819  0.880341  1
  Ba  Ba3  1  0.750000  0.250037  0.619081  1
  Zn  Zn4  1  0.250000  0.055314  0.616675  1
  Ga  Ga5  1  0.250000  0.555530  0.884884  1
  Ga  Ga6  1  0.750000  0.947013  0.385946  1
  Ga  Ga7  1  0.750000  0.447409  0.115928  1
  Ga  Ga8  1  0.250000  0.348570  0.475522  1
  Ga  Ga9  1  0.250000  0.855141  0.026304  1
  Ga  Ga10  1  0.750000  0.643917  0.525432  1
  Ga  Ga11  1  0.750000  0.145409  0.971374  1
  Au  Au12  1  0.055894  0.104684  0.394984  1
  Au  Au13  1  0.445286  0.605114  0.105652  1
  Au  Au14  1  0.554185  0.892868  0.605367  1
  Au  Au15  1  0.944688  0.394587  0.894192  1
  Au  Au16  1  0.945815  0.892868  0.605367  1
  Au  Au17  1  0.555312  0.394587  0.894192  1
  Au  Au18  1  0.444106  0.104684  0.394984  1
  Au  Au19  1  0.054714  0.605114  0.105652  1
  Au  Au20  1  0.043227  0.067572  0.852172  1
  Au  Au21  1  0.458900  0.567371  0.643338  1
  Au  Au22  1  0.541558  0.932319  0.144772  1
  Au  Au23  1  0.959072  0.432980  0.357322  1
  Au  Au24  1  0.958442  0.932319  0.144772  1
  Au  Au25  1  0.540928  0.432980  0.357322  1
  Au  Au26  1  0.456773  0.067572  0.852172  1
  Au  Au27  1  0.041100  0.567371  0.643338  1
  Au  Au28  1  0.250000  0.312368  0.729122  1
  Au  Au29  1  0.250000  0.809658  0.772890  1
  Au  Au30  1  0.750000  0.691698  0.274110  1
  Au  Au31  1  0.750000  0.192565  0.225732  1
