# generated using pymatgen
data_TbYbErTiMnC6
_symmetry_space_group_name_H-M   'P 1'
_cell_length_a   8.16757779
_cell_length_b   8.22619855
_cell_length_c   5.05803900
_cell_angle_alpha   90.00000000
_cell_angle_beta   90.00000000
_cell_angle_gamma   119.43204438
_symmetry_Int_Tables_number   1
_chemical_formula_structural   TbYbErTiMnC6
_chemical_formula_sum   'Tb2 Yb2 Er2 Ti2 Mn2 C12'
_cell_volume   295.98005041
_cell_formula_units_Z   2
loop_
 _symmetry_equiv_pos_site_id
 _symmetry_equiv_pos_as_xyz
  1  'x, y, z'
loop_
 _atom_site_type_symbol
 _atom_site_label
 _atom_site_symmetry_multiplicity
 _atom_site_fract_x
 _atom_site_fract_y
 _atom_site_fract_z
 _atom_site_occupancy
  Tb  Tb0  1  0.063151  0.382943  0.750000  1
  Tb  Tb1  1  0.385427  0.317413  0.250000  1
  Yb  Yb2  1  0.675368  0.067214  0.250000  1
  Yb  Yb3  1  0.325325  0.931925  0.750000  1
  Er  Er4  1  0.619764  0.686048  0.750000  1
  Er  Er5  1  0.938219  0.620400  0.250000  1
  Ti  Ti6  1  0.999944  0.000086  0.499993  1
  Ti  Ti7  1  0.999944  0.000086  0.000007  1
  Mn  Mn8  1  0.670017  0.339831  0.750000  1
  Mn  Mn9  1  0.329801  0.660559  0.250000  1
  C  C10  1  0.960581  0.765055  0.750000  1
  C  C11  1  0.197884  0.957253  0.250000  1
  C  C12  1  0.760732  0.798404  0.250000  1
  C  C13  1  0.238928  0.198000  0.750000  1
  C  C14  1  0.798204  0.039699  0.750000  1
  C  C15  1  0.039302  0.235706  0.250000  1
  C  C16  1  0.863720  0.575406  0.750000  1
  C  C17  1  0.285455  0.853417  0.250000  1
  C  C18  1  0.569465  0.710230  0.250000  1
  C  C19  1  0.430008  0.288927  0.750000  1
  C  C20  1  0.135729  0.425384  0.250000  1
  C  C21  1  0.713030  0.146017  0.750000  1
