# generated using pymatgen
data_HoInNiH
_symmetry_space_group_name_H-M   'P 1'
_cell_length_a   3.96184900
_cell_length_b   7.32234200
_cell_length_c   8.64585600
_cell_angle_alpha   90.00000000
_cell_angle_beta   90.00000000
_cell_angle_gamma   90.00000000
_symmetry_Int_Tables_number   1
_chemical_formula_structural   HoInNiH
_chemical_formula_sum   'Ho4 In4 Ni4 H4'
_cell_volume   250.81639781
_cell_formula_units_Z   4
loop_
 _symmetry_equiv_pos_site_id
 _symmetry_equiv_pos_as_xyz
  1  'x, y, z'
loop_
 _atom_site_type_symbol
 _atom_site_label
 _atom_site_symmetry_multiplicity
 _atom_site_fract_x
 _atom_site_fract_y
 _atom_site_fract_z
 _atom_site_occupancy
  Ho  Ho0  1  0.750000  0.024008  0.681952  1
  Ho  Ho1  1  0.250000  0.975992  0.318048  1
  Ho  Ho2  1  0.250000  0.475992  0.181952  1
  Ho  Ho3  1  0.750000  0.524008  0.818048  1
  In  In4  1  0.750000  0.643145  0.437216  1
  In  In5  1  0.250000  0.356855  0.562784  1
  In  In6  1  0.250000  0.856855  0.937216  1
  In  In7  1  0.750000  0.143145  0.062784  1
  Ni  Ni8  1  0.750000  0.759504  0.131465  1
  Ni  Ni9  1  0.250000  0.240496  0.868535  1
  Ni  Ni10  1  0.250000  0.740496  0.631465  1
  Ni  Ni11  1  0.750000  0.259504  0.368535  1
  H  H12  1  0.250000  0.449037  0.927543  1
  H  H13  1  0.750000  0.550963  0.072457  1
  H  H14  1  0.750000  0.050963  0.427543  1
  H  H15  1  0.250000  0.949037  0.572457  1
