# generated using pymatgen
data_CeEr3(LuAl9)2
_symmetry_space_group_name_H-M   'P 1'
_cell_length_a   14.54105105
_cell_length_b   14.54105110
_cell_length_c   14.54105200
_cell_angle_alpha   24.50204597
_cell_angle_beta   24.50204554
_cell_angle_gamma   24.50204804
_symmetry_Int_Tables_number   1
_chemical_formula_structural   CeEr3(LuAl9)2
_chemical_formula_sum   'Ce1 Er3 Lu2 Al18'
_cell_volume   464.94816081
_cell_formula_units_Z   1
loop_
 _symmetry_equiv_pos_site_id
 _symmetry_equiv_pos_as_xyz
  1  'x, y, z'
loop_
 _atom_site_type_symbol
 _atom_site_label
 _atom_site_symmetry_multiplicity
 _atom_site_fract_x
 _atom_site_fract_y
 _atom_site_fract_z
 _atom_site_occupancy
  Ce  Ce0  1  0.108867  0.108867  0.108867  1
  Er  Er1  1  0.999630  0.999630  0.999630  1
  Er  Er2  1  0.500006  0.500006  0.500006  1
  Er  Er3  1  0.609159  0.609159  0.609159  1
  Lu  Lu4  1  0.891136  0.891136  0.891136  1
  Lu  Lu5  1  0.390757  0.390757  0.390757  1
  Al  Al6  1  0.924270  0.371096  0.371096  1
  Al  Al7  1  0.423104  0.869984  0.869984  1
  Al  Al8  1  0.371096  0.371096  0.924270  1
  Al  Al9  1  0.869984  0.869984  0.423104  1
  Al  Al10  1  0.371096  0.924270  0.371096  1
  Al  Al11  1  0.869984  0.423104  0.869984  1
  Al  Al12  1  0.577420  0.128555  0.128555  1
  Al  Al13  1  0.078594  0.628087  0.628087  1
  Al  Al14  1  0.128555  0.128555  0.577420  1
  Al  Al15  1  0.628087  0.628087  0.078594  1
  Al  Al16  1  0.128555  0.577420  0.128555  1
  Al  Al17  1  0.628087  0.078594  0.628087  1
  Al  Al18  1  0.498851  0.498851  0.001759  1
  Al  Al19  1  0.001242  0.001242  0.499670  1
  Al  Al20  1  0.498851  0.001759  0.498851  1
  Al  Al21  1  0.001242  0.499670  0.001242  1
  Al  Al22  1  0.001759  0.498851  0.498851  1
  Al  Al23  1  0.499670  0.001242  0.001242  1
