# generated using pymatgen
data_Dy2Er3Tm7Os4
_symmetry_space_group_name_H-M   'P 1'
_cell_length_a   7.37929204
_cell_length_b   8.92111408
_cell_length_c   6.24911235
_cell_angle_alpha   89.98499861
_cell_angle_beta   90.15364969
_cell_angle_gamma   90.00015147
_symmetry_Int_Tables_number   1
_chemical_formula_structural   Dy2Er3Tm7Os4
_chemical_formula_sum   'Dy2 Er3 Tm7 Os4'
_cell_volume   411.38698453
_cell_formula_units_Z   1
loop_
 _symmetry_equiv_pos_site_id
 _symmetry_equiv_pos_as_xyz
  1  'x, y, z'
loop_
 _atom_site_type_symbol
 _atom_site_label
 _atom_site_symmetry_multiplicity
 _atom_site_fract_x
 _atom_site_fract_y
 _atom_site_fract_z
 _atom_site_occupancy
  Dy  Dy0  1  0.039305  0.250048  0.628539  1
  Dy  Dy1  1  0.960638  0.749958  0.371533  1
  Er  Er2  1  0.460106  0.749950  0.129144  1
  Er  Er3  1  0.539934  0.250021  0.870817  1
  Er  Er4  1  0.175855  0.062609  0.164494  1
  Tm  Tm5  1  0.824154  0.937297  0.835450  1
  Tm  Tm6  1  0.327189  0.937347  0.667455  1
  Tm  Tm7  1  0.824188  0.562691  0.835486  1
  Tm  Tm8  1  0.672830  0.062629  0.332572  1
  Tm  Tm9  1  0.175795  0.437417  0.164501  1
  Tm  Tm10  1  0.672828  0.437384  0.332530  1
  Tm  Tm11  1  0.327168  0.562600  0.667471  1
  Os  Os12  1  0.383526  0.250059  0.460668  1
  Os  Os13  1  0.616594  0.750032  0.539465  1
  Os  Os14  1  0.118336  0.749925  0.958707  1
  Os  Os15  1  0.881553  0.250034  0.041167  1
