# generated using pymatgen
data_YTiF7
_symmetry_space_group_name_H-M   'P 1'
_cell_length_a   5.55595200
_cell_length_b   8.84236942
_cell_length_c   11.88704309
_cell_angle_alpha   62.52221541
_cell_angle_beta   90.00000000
_cell_angle_gamma   90.00000000
_symmetry_Int_Tables_number   1
_chemical_formula_structural   YTiF7
_chemical_formula_sum   'Y4 Ti4 F28'
_cell_volume   518.10468327
_cell_formula_units_Z   4
loop_
 _symmetry_equiv_pos_site_id
 _symmetry_equiv_pos_as_xyz
  1  'x, y, z'
loop_
 _atom_site_type_symbol
 _atom_site_label
 _atom_site_symmetry_multiplicity
 _atom_site_fract_x
 _atom_site_fract_y
 _atom_site_fract_z
 _atom_site_occupancy
  Y  Y0  1  0.758747  0.811045  0.265857  1
  Y  Y1  1  0.258747  0.188955  0.234143  1
  Y  Y2  1  0.241253  0.188955  0.734143  1
  Y  Y3  1  0.741253  0.811045  0.765857  1
  Ti  Ti4  1  0.243433  0.725874  0.544135  1
  Ti  Ti5  1  0.743433  0.274126  0.955865  1
  Ti  Ti6  1  0.756567  0.274126  0.455865  1
  Ti  Ti7  1  0.256567  0.725874  0.044135  1
  F  F8  1  0.959757  0.718454  0.456530  1
  F  F9  1  0.459757  0.281546  0.043470  1
  F  F10  1  0.040243  0.281546  0.543470  1
  F  F11  1  0.540243  0.718454  0.956530  1
  F  F12  1  0.054488  0.708606  0.923960  1
  F  F13  1  0.554488  0.291394  0.576040  1
  F  F14  1  0.945512  0.291394  0.076040  1
  F  F15  1  0.445512  0.708606  0.423960  1
  F  F16  1  0.730190  0.514465  0.861707  1
  F  F17  1  0.230190  0.485535  0.638293  1
  F  F18  1  0.269810  0.485535  0.138293  1
  F  F19  1  0.769810  0.514465  0.361707  1
  F  F20  1  0.741104  0.035668  0.050239  1
  F  F21  1  0.241104  0.964332  0.449761  1
  F  F22  1  0.258896  0.964332  0.949761  1
  F  F23  1  0.758896  0.035668  0.550239  1
  F  F24  1  0.045808  0.744499  0.669100  1
  F  F25  1  0.545808  0.255501  0.830900  1
  F  F26  1  0.954192  0.255501  0.330900  1
  F  F27  1  0.454192  0.744499  0.169100  1
  F  F28  1  0.013747  0.269431  0.860693  1
  F  F29  1  0.513747  0.730569  0.639307  1
  F  F30  1  0.986253  0.730569  0.139307  1
  F  F31  1  0.486253  0.269431  0.360693  1
  F  F32  1  0.082916  0.970603  0.231042  1
  F  F33  1  0.582916  0.029397  0.268958  1
  F  F34  1  0.917084  0.029397  0.768958  1
  F  F35  1  0.417084  0.970603  0.731042  1
