# generated using pymatgen
data_Tb7Nd(P7Ir8)2
_symmetry_space_group_name_H-M   'P 1'
_cell_length_a   3.95237400
_cell_length_b   12.72991960
_cell_length_c   13.16197079
_cell_angle_alpha   80.74709406
_cell_angle_beta   90.00000000
_cell_angle_gamma   90.00000000
_symmetry_Int_Tables_number   1
_chemical_formula_structural   Tb7Nd(P7Ir8)2
_chemical_formula_sum   'Tb7 Nd1 P14 Ir16'
_cell_volume   653.60683211
_cell_formula_units_Z   1
loop_
 _symmetry_equiv_pos_site_id
 _symmetry_equiv_pos_as_xyz
  1  'x, y, z'
loop_
 _atom_site_type_symbol
 _atom_site_label
 _atom_site_symmetry_multiplicity
 _atom_site_fract_x
 _atom_site_fract_y
 _atom_site_fract_z
 _atom_site_occupancy
  Tb  Tb0  1  0.750000  0.791218  0.561019  1
  Tb  Tb1  1  0.250000  0.208720  0.439292  1
  Tb  Tb2  1  0.750000  0.479828  0.705510  1
  Tb  Tb3  1  0.250000  0.520598  0.294644  1
  Tb  Tb4  1  0.750000  0.720417  0.897329  1
  Tb  Tb5  1  0.250000  0.102575  0.788348  1
  Tb  Tb6  1  0.750000  0.897293  0.211832  1
  Nd  Nd7  1  0.250000  0.279148  0.102675  1
  P  P8  1  0.250000  0.907063  0.411276  1
  P  P9  1  0.750000  0.473447  0.129412  1
  P  P10  1  0.250000  0.527431  0.870590  1
  P  P11  1  0.750000  0.092689  0.588946  1
  P  P12  1  0.250000  0.741848  0.079584  1
  P  P13  1  0.750000  0.257220  0.918154  1
  P  P14  1  0.750000  0.157469  0.283477  1
  P  P15  1  0.250000  0.842714  0.717627  1
  P  P16  1  0.250000  0.049454  0.100719  1
  P  P17  1  0.750000  0.947785  0.899426  1
  P  P18  1  0.250000  0.312396  0.689356  1
  P  P19  1  0.750000  0.687674  0.310323  1
  P  P20  1  0.250000  0.607685  0.565994  1
  P  P21  1  0.750000  0.392699  0.434829  1
  Ir  Ir22  1  0.250000  0.990605  0.576630  1
  Ir  Ir23  1  0.750000  0.009158  0.423946  1
  Ir  Ir24  1  0.250000  0.662222  0.730749  1
  Ir  Ir25  1  0.750000  0.339095  0.271412  1
  Ir  Ir26  1  0.250000  0.553851  0.046286  1
  Ir  Ir27  1  0.750000  0.449040  0.951879  1
  Ir  Ir28  1  0.250000  0.060568  0.272929  1
  Ir  Ir29  1  0.750000  0.938488  0.727624  1
  Ir  Ir30  1  0.250000  0.422164  0.525029  1
  Ir  Ir31  1  0.750000  0.578332  0.475245  1
  Ir  Ir32  1  0.250000  0.914484  0.997177  1
  Ir  Ir33  1  0.750000  0.084095  0.001687  1
  Ir  Ir34  1  0.250000  0.729652  0.394131  1
  Ir  Ir35  1  0.750000  0.270271  0.605808  1
  Ir  Ir36  1  0.250000  0.341562  0.857449  1
  Ir  Ir37  1  0.750000  0.659042  0.141657  1
