# generated using pymatgen
data_BaSrGeS4
_symmetry_space_group_name_H-M   'P 1'
_cell_length_a   6.85478338
_cell_length_b   6.84145000
_cell_length_c   8.62524057
_cell_angle_alpha   90.00000000
_cell_angle_beta   108.16726116
_cell_angle_gamma   90.00000000
_symmetry_Int_Tables_number   1
_chemical_formula_structural   BaSrGeS4
_chemical_formula_sum   'Ba2 Sr2 Ge2 S8'
_cell_volume   384.33102896
_cell_formula_units_Z   2
loop_
 _symmetry_equiv_pos_site_id
 _symmetry_equiv_pos_as_xyz
  1  'x, y, z'
loop_
 _atom_site_type_symbol
 _atom_site_label
 _atom_site_symmetry_multiplicity
 _atom_site_fract_x
 _atom_site_fract_y
 _atom_site_fract_z
 _atom_site_occupancy
  Ba  Ba0  1  0.229521  0.749999  0.430925  1
  Ba  Ba1  1  0.770479  0.249999  0.569076  1
  Sr  Sr2  1  0.727039  0.249999  0.053412  1
  Sr  Sr3  1  0.272962  0.749999  0.946589  1
  Ge  Ge4  1  0.279553  0.249999  0.192198  1
  Ge  Ge5  1  0.720447  0.749999  0.807802  1
  S  S6  1  0.902698  0.749999  0.070038  1
  S  S7  1  0.494558  0.503401  0.245941  1
  S  S8  1  0.494558  0.996600  0.245941  1
  S  S9  1  0.088778  0.249999  0.361807  1
  S  S10  1  0.911222  0.749999  0.638193  1
  S  S11  1  0.505442  0.003401  0.754059  1
  S  S12  1  0.505442  0.496600  0.754059  1
  S  S13  1  0.097302  0.249999  0.929962  1
