# generated using pymatgen
data_ErTm3Ti4(SiO9)2
_symmetry_space_group_name_H-M   'P 1'
_cell_length_a   11.15998700
_cell_length_b   4.88382501
_cell_length_c   12.30287947
_cell_angle_alpha   84.10207447
_cell_angle_beta   90.00000000
_cell_angle_gamma   90.00000000
_symmetry_Int_Tables_number   1
_chemical_formula_structural   ErTm3Ti4(SiO9)2
_chemical_formula_sum   'Er2 Tm6 Ti8 Si4 O36'
_cell_volume   666.99952645
_cell_formula_units_Z   2
loop_
 _symmetry_equiv_pos_site_id
 _symmetry_equiv_pos_as_xyz
  1  'x, y, z'
loop_
 _atom_site_type_symbol
 _atom_site_label
 _atom_site_symmetry_multiplicity
 _atom_site_fract_x
 _atom_site_fract_y
 _atom_site_fract_z
 _atom_site_occupancy
  Er  Er0  1  0.641503  0.802832  0.069128  1
  Er  Er1  1  0.141503  0.197168  0.930872  1
  Tm  Tm2  1  0.358732  0.696020  0.930866  1
  Tm  Tm3  1  0.858732  0.303980  0.069134  1
  Tm  Tm4  1  0.638332  0.738289  0.422276  1
  Tm  Tm5  1  0.138332  0.261711  0.577724  1
  Tm  Tm6  1  0.361686  0.761689  0.577852  1
  Tm  Tm7  1  0.861686  0.238311  0.422148  1
  Ti  Ti8  1  0.837730  0.949238  0.850693  1
  Ti  Ti9  1  0.337730  0.050762  0.149307  1
  Ti  Ti10  1  0.162167  0.550701  0.149399  1
  Ti  Ti11  1  0.662167  0.449299  0.850601  1
  Ti  Ti12  1  0.837234  0.584512  0.638105  1
  Ti  Ti13  1  0.337234  0.415488  0.361895  1
  Ti  Ti14  1  0.162739  0.915359  0.361886  1
  Ti  Ti15  1  0.662739  0.084641  0.638114  1
  Si  Si16  1  0.596254  0.321016  0.248131  1
  Si  Si17  1  0.096254  0.678984  0.751869  1
  Si  Si18  1  0.403883  0.178709  0.752024  1
  Si  Si19  1  0.903883  0.821291  0.247976  1
  O  O20  1  0.840016  0.752516  0.133503  1
  O  O21  1  0.340016  0.247484  0.866497  1
  O  O22  1  0.160710  0.745971  0.866433  1
  O  O23  1  0.660710  0.254029  0.133567  1
  O  O24  1  0.788799  0.919515  0.550847  1
  O  O25  1  0.288799  0.080485  0.449153  1
  O  O26  1  0.211176  0.580495  0.449200  1
  O  O27  1  0.711176  0.419505  0.550800  1
  O  O28  1  0.949248  0.081072  0.935378  1
  O  O29  1  0.449248  0.918928  0.064622  1
  O  O30  1  0.049765  0.419519  0.065355  1
  O  O31  1  0.549765  0.580481  0.934645  1
  O  O32  1  0.600431  0.658277  0.247501  1
  O  O33  1  0.100431  0.341723  0.752499  1
  O  O34  1  0.399336  0.841281  0.753211  1
  O  O35  1  0.899336  0.158719  0.246789  1
  O  O36  1  0.950660  0.771263  0.745607  1
  O  O37  1  0.450660  0.228737  0.254393  1
  O  O38  1  0.049465  0.728980  0.254546  1
  O  O39  1  0.549465  0.271020  0.745454  1
  O  O40  1  0.789141  0.614313  0.936946  1
  O  O41  1  0.289141  0.385687  0.063054  1
  O  O42  1  0.211016  0.884812  0.063328  1
  O  O43  1  0.711016  0.115188  0.936672  1
  O  O44  1  0.953831  0.442292  0.561212  1
  O  O45  1  0.453831  0.557708  0.438788  1
  O  O46  1  0.046085  0.057661  0.438731  1
  O  O47  1  0.546085  0.942339  0.561269  1
  O  O48  1  0.834464  0.681400  0.357638  1
  O  O49  1  0.334464  0.318600  0.642362  1
  O  O50  1  0.165637  0.819082  0.642292  1
  O  O51  1  0.665637  0.180918  0.357708  1
  O  O52  1  0.707154  0.768086  0.744303  1
  O  O53  1  0.207154  0.231914  0.255697  1
  O  O54  1  0.292808  0.731932  0.255834  1
  O  O55  1  0.792808  0.268068  0.744166  1
