# generated using pymatgen
data_BaLiLuS3
_symmetry_space_group_name_H-M   'P 1'
_cell_length_a   7.04940045
_cell_length_b   7.04939978
_cell_length_c   10.15127100
_cell_angle_alpha   90.00000000
_cell_angle_beta   90.00000000
_cell_angle_gamma   33.41476825
_symmetry_Int_Tables_number   1
_chemical_formula_structural   BaLiLuS3
_chemical_formula_sum   'Ba2 Li2 Lu2 S6'
_cell_volume   277.80278367
_cell_formula_units_Z   2
loop_
 _symmetry_equiv_pos_site_id
 _symmetry_equiv_pos_as_xyz
  1  'x, y, z'
loop_
 _atom_site_type_symbol
 _atom_site_label
 _atom_site_symmetry_multiplicity
 _atom_site_fract_x
 _atom_site_fract_y
 _atom_site_fract_z
 _atom_site_occupancy
  Ba  Ba0  1  0.743246  0.743246  0.250000  1
  Ba  Ba1  1  0.256755  0.256755  0.750000  1
  Li  Li2  1  0.467219  0.467219  0.250000  1
  Li  Li3  1  0.532782  0.532782  0.750000  1
  Lu  Lu4  1  0.000000  0.000000  0.000000  1
  Lu  Lu5  1  0.000000  0.000000  0.500000  1
  S  S6  1  0.370941  0.370941  0.056413  1
  S  S7  1  0.062508  0.062508  0.250000  1
  S  S8  1  0.370941  0.370941  0.443588  1
  S  S9  1  0.629060  0.629060  0.556412  1
  S  S10  1  0.937494  0.937494  0.750000  1
  S  S11  1  0.629060  0.629060  0.943587  1
