# generated using pymatgen
data_Sc(Si2Rh3)2
_symmetry_space_group_name_H-M   'P 1'
_cell_length_a   7.01379300
_cell_length_b   7.01379332
_cell_length_c   3.73096500
_cell_angle_alpha   90.00000000
_cell_angle_beta   90.00000000
_cell_angle_gamma   120.00000319
_symmetry_Int_Tables_number   1
_chemical_formula_structural   Sc(Si2Rh3)2
_chemical_formula_sum   'Sc1 Si4 Rh6'
_cell_volume   158.94896389
_cell_formula_units_Z   1
loop_
 _symmetry_equiv_pos_site_id
 _symmetry_equiv_pos_as_xyz
  1  'x, y, z'
loop_
 _atom_site_type_symbol
 _atom_site_label
 _atom_site_symmetry_multiplicity
 _atom_site_fract_x
 _atom_site_fract_y
 _atom_site_fract_z
 _atom_site_occupancy
  Sc  Sc0  1  0.000000  0.000000  0.000000  1
  Si  Si1  1  0.666667  0.333333  0.000000  1
  Si  Si2  1  0.197629  0.396073  0.500000  1
  Si  Si3  1  0.198442  0.802371  0.500000  1
  Si  Si4  1  0.603927  0.801558  0.500000  1
  Rh  Rh5  1  0.468461  0.933573  0.000000  1
  Rh  Rh6  1  0.465112  0.531539  0.000000  1
  Rh  Rh7  1  0.066427  0.534888  0.000000  1
  Rh  Rh8  1  0.804531  0.609974  0.500000  1
  Rh  Rh9  1  0.805443  0.195469  0.500000  1
  Rh  Rh10  1  0.390026  0.194557  0.500000  1
