# generated using pymatgen
data_Tb6Dy13SnIr12
_symmetry_space_group_name_H-M   'P 1'
_cell_length_a   10.89219305
_cell_length_b   10.89147704
_cell_length_c   6.34155301
_cell_angle_alpha   90.00072412
_cell_angle_beta   89.99360867
_cell_angle_gamma   89.99074166
_symmetry_Int_Tables_number   1
_chemical_formula_structural   Tb6Dy13SnIr12
_chemical_formula_sum   'Tb6 Dy13 Sn1 Ir12'
_cell_volume   752.31154920
_cell_formula_units_Z   1
loop_
 _symmetry_equiv_pos_site_id
 _symmetry_equiv_pos_as_xyz
  1  'x, y, z'
loop_
 _atom_site_type_symbol
 _atom_site_label
 _atom_site_symmetry_multiplicity
 _atom_site_fract_x
 _atom_site_fract_y
 _atom_site_fract_z
 _atom_site_occupancy
  Tb  Tb0  1  0.284131  0.084962  0.380235  1
  Tb  Tb1  1  0.291506  0.910868  0.882469  1
  Tb  Tb2  1  0.708507  0.089204  0.882478  1
  Tb  Tb3  1  0.715883  0.914952  0.380255  1
  Tb  Tb4  1  0.589167  0.790938  0.882297  1
  Tb  Tb5  1  0.588338  0.208505  0.378795  1
  Dy  Dy6  1  0.411641  0.791724  0.378944  1
  Dy  Dy7  1  0.410767  0.208831  0.882471  1
  Dy  Dy8  1  0.208036  0.411753  0.621127  1
  Dy  Dy9  1  0.208578  0.589069  0.117568  1
  Dy  Dy10  1  0.791454  0.410985  0.117454  1
  Dy  Dy11  1  0.792005  0.588211  0.621009  1
  Dy  Dy12  1  0.911039  0.708032  0.117282  1
  Dy  Dy13  1  0.915231  0.284538  0.619551  1
  Dy  Dy14  1  0.084810  0.715472  0.619535  1
  Dy  Dy15  1  0.088979  0.291962  0.117243  1
  Dy  Dy16  1  0.000003  0.000007  0.000097  1
  Dy  Dy17  1  0.499957  0.499912  0.000051  1
  Dy  Dy18  1  0.499938  0.500070  0.500060  1
  Sn  Sn19  1  0.000012  0.999993  0.500171  1
  Ir  Ir20  1  0.848366  0.155380  0.248154  1
  Ir  Ir21  1  0.845158  0.847861  0.752206  1
  Ir  Ir22  1  0.155075  0.152185  0.752319  1
  Ir  Ir23  1  0.151821  0.844566  0.248213  1
  Ir  Ir24  1  0.654800  0.347324  0.746339  1
  Ir  Ir25  1  0.652956  0.654497  0.254140  1
  Ir  Ir26  1  0.346985  0.345467  0.253677  1
  Ir  Ir27  1  0.345121  0.652734  0.745889  1
  Ir  Ir28  1  0.499883  0.000053  0.126185  1
  Ir  Ir29  1  0.499866  0.999959  0.621096  1
  Ir  Ir30  1  0.999993  0.499995  0.873787  1
  Ir  Ir31  1  0.999991  0.499993  0.378903  1
