# generated using pymatgen
data_TbHo2Tm2Pb3
_symmetry_space_group_name_H-M   'P 1'
_cell_length_a   6.56245800
_cell_length_b   9.02505086
_cell_length_c   9.03152905
_cell_angle_alpha   120.01954411
_cell_angle_beta   90.00045537
_cell_angle_gamma   90.00003402
_symmetry_Int_Tables_number   1
_chemical_formula_structural   TbHo2Tm2Pb3
_chemical_formula_sum   'Tb2 Ho4 Tm4 Pb6'
_cell_volume   463.15093618
_cell_formula_units_Z   2
loop_
 _symmetry_equiv_pos_site_id
 _symmetry_equiv_pos_as_xyz
  1  'x, y, z'
loop_
 _atom_site_type_symbol
 _atom_site_label
 _atom_site_symmetry_multiplicity
 _atom_site_fract_x
 _atom_site_fract_y
 _atom_site_fract_z
 _atom_site_occupancy
  Tb  Tb0  1  0.749996  0.238576  0.000112  1
  Tb  Tb1  1  0.749997  0.761366  0.761519  1
  Ho  Ho2  1  0.750007  0.999956  0.238688  1
  Ho  Ho3  1  0.250001  0.761623  0.000100  1
  Ho  Ho4  1  0.249996  0.238442  0.238494  1
  Ho  Ho5  1  0.249999  0.000040  0.761354  1
  Tm  Tm6  1  0.499923  0.333297  0.666650  1
  Tm  Tm7  1  0.499920  0.666668  0.333270  1
  Tm  Tm8  1  0.000078  0.666705  0.333271  1
  Tm  Tm9  1  0.000080  0.333330  0.666648  1
  Pb  Pb10  1  0.749992  0.605343  0.000297  1
  Pb  Pb11  1  0.750003  0.394609  0.394876  1
  Pb  Pb12  1  0.750011  0.000023  0.604673  1
  Pb  Pb13  1  0.249995  0.394712  0.000013  1
  Pb  Pb14  1  0.250003  0.605338  0.605381  1
  Pb  Pb15  1  0.250000  0.999972  0.394654  1
