# generated using pymatgen
data_Y(ZrSe2)4
_symmetry_space_group_name_H-M   'P 1'
_cell_length_a   8.03422297
_cell_length_b   8.03422262
_cell_length_c   8.03422242
_cell_angle_alpha   56.33530802
_cell_angle_beta   56.33531109
_cell_angle_gamma   56.33530379
_symmetry_Int_Tables_number   1
_chemical_formula_structural   Y(ZrSe2)4
_chemical_formula_sum   'Y1 Zr4 Se8'
_cell_volume   335.61936424
_cell_formula_units_Z   1
loop_
 _symmetry_equiv_pos_site_id
 _symmetry_equiv_pos_as_xyz
  1  'x, y, z'
loop_
 _atom_site_type_symbol
 _atom_site_label
 _atom_site_symmetry_multiplicity
 _atom_site_fract_x
 _atom_site_fract_y
 _atom_site_fract_z
 _atom_site_occupancy
  Y  Y0  1  0.500000  0.500000  0.500000  1
  Zr  Zr1  1  0.000000  0.500000  0.500000  1
  Zr  Zr2  1  0.500000  0.000000  0.500000  1
  Zr  Zr3  1  0.500000  0.500000  0.000000  1
  Zr  Zr4  1  0.000000  0.000000  0.000000  1
  Se  Se5  1  0.242737  0.755430  0.755430  1
  Se  Se6  1  0.244570  0.244570  0.757263  1
  Se  Se7  1  0.757263  0.244570  0.244570  1
  Se  Se8  1  0.244570  0.757263  0.244570  1
  Se  Se9  1  0.254742  0.254742  0.254742  1
  Se  Se10  1  0.745258  0.745258  0.745258  1
  Se  Se11  1  0.755430  0.242737  0.755430  1
  Se  Se12  1  0.755430  0.755430  0.242737  1
