# generated using pymatgen
data_YHo4Tc2C7
_symmetry_space_group_name_H-M   'P 1'
_cell_length_a   8.31221000
_cell_length_b   8.31220976
_cell_length_c   3.41282700
_cell_angle_alpha   90.00000000
_cell_angle_beta   90.00000000
_cell_angle_gamma   122.52268229
_symmetry_Int_Tables_number   1
_chemical_formula_structural   YHo4Tc2C7
_chemical_formula_sum   'Y1 Ho4 Tc2 C7'
_cell_volume   198.82312170
_cell_formula_units_Z   1
loop_
 _symmetry_equiv_pos_site_id
 _symmetry_equiv_pos_as_xyz
  1  'x, y, z'
loop_
 _atom_site_type_symbol
 _atom_site_label
 _atom_site_symmetry_multiplicity
 _atom_site_fract_x
 _atom_site_fract_y
 _atom_site_fract_z
 _atom_site_occupancy
  Y  Y0  1  0.500000  0.500000  0.000000  1
  Ho  Ho1  1  0.076666  0.336642  0.500000  1
  Ho  Ho2  1  0.923334  0.663358  0.500000  1
  Ho  Ho3  1  0.663358  0.923334  0.500000  1
  Ho  Ho4  1  0.336642  0.076666  0.500000  1
  Tc  Tc5  1  0.714292  0.285708  0.000000  1
  Tc  Tc6  1  0.285708  0.714292  0.000000  1
  C  C7  1  0.626870  0.373130  0.500000  1
  C  C8  1  0.373130  0.626870  0.500000  1
  C  C9  1  0.000000  0.000000  0.000000  1
  C  C10  1  0.169523  0.169523  0.000000  1
  C  C11  1  0.830477  0.830477  0.000000  1
  C  C12  1  0.000000  0.500000  0.000000  1
  C  C13  1  0.500000  0.000000  0.000000  1
