# generated using pymatgen
data_Nd2CrTc16C3
_symmetry_space_group_name_H-M   'P 1'
_cell_length_a   6.99275617
_cell_length_b   6.99275602
_cell_length_c   6.98279335
_cell_angle_alpha   83.02494789
_cell_angle_beta   83.02494750
_cell_angle_gamma   82.58069909
_symmetry_Int_Tables_number   1
_chemical_formula_structural   Nd2CrTc16C3
_chemical_formula_sum   'Nd2 Cr1 Tc16 C3'
_cell_volume   334.13895861
_cell_formula_units_Z   1
loop_
 _symmetry_equiv_pos_site_id
 _symmetry_equiv_pos_as_xyz
  1  'x, y, z'
loop_
 _atom_site_type_symbol
 _atom_site_label
 _atom_site_symmetry_multiplicity
 _atom_site_fract_x
 _atom_site_fract_y
 _atom_site_fract_z
 _atom_site_occupancy
  Nd  Nd0  1  0.650134  0.650134  0.650321  1
  Nd  Nd1  1  0.349866  0.349866  0.349679  1
  Cr  Cr2  1  0.000000  0.000000  0.500000  1
  Tc  Tc3  1  0.500000  0.000000  0.000000  1
  Tc  Tc4  1  0.000000  0.500000  0.000000  1
  Tc  Tc5  1  0.722380  0.277620  0.000000  1
  Tc  Tc6  1  0.999069  0.724697  0.281106  1
  Tc  Tc7  1  0.275303  0.000931  0.718894  1
  Tc  Tc8  1  0.000931  0.275303  0.718894  1
  Tc  Tc9  1  0.724697  0.999069  0.281106  1
  Tc  Tc10  1  0.277620  0.722380  0.000000  1
  Tc  Tc11  1  0.341962  0.868516  0.347985  1
  Tc  Tc12  1  0.348531  0.348531  0.863306  1
  Tc  Tc13  1  0.868516  0.341962  0.347985  1
  Tc  Tc14  1  0.658038  0.131484  0.652015  1
  Tc  Tc15  1  0.651469  0.651469  0.136694  1
  Tc  Tc16  1  0.131484  0.658038  0.652015  1
  Tc  Tc17  1  0.902728  0.902728  0.901884  1
  Tc  Tc18  1  0.097272  0.097272  0.098116  1
  C  C19  1  0.500000  0.500000  0.000000  1
  C  C20  1  0.000000  0.500000  0.500000  1
  C  C21  1  0.500000  0.000000  0.500000  1
