# generated using pymatgen
data_La3Tb9Tc4
_symmetry_space_group_name_H-M   'P 1'
_cell_length_a   6.43737836
_cell_length_b   7.44160694
_cell_length_c   9.40131600
_cell_angle_alpha   90.00000000
_cell_angle_beta   90.00000000
_cell_angle_gamma   90.19139898
_symmetry_Int_Tables_number   1
_chemical_formula_structural   La3Tb9Tc4
_chemical_formula_sum   'La3 Tb9 Tc4'
_cell_volume   450.36226097
_cell_formula_units_Z   1
loop_
 _symmetry_equiv_pos_site_id
 _symmetry_equiv_pos_as_xyz
  1  'x, y, z'
loop_
 _atom_site_type_symbol
 _atom_site_label
 _atom_site_symmetry_multiplicity
 _atom_site_fract_x
 _atom_site_fract_y
 _atom_site_fract_z
 _atom_site_occupancy
  La  La0  1  0.126760  0.057342  0.250000  1
  La  La1  1  0.371410  0.553759  0.250000  1
  La  La2  1  0.633647  0.447157  0.750000  1
  Tb  Tb3  1  0.836738  0.678858  0.064032  1
  Tb  Tb4  1  0.664455  0.171863  0.063817  1
  Tb  Tb5  1  0.162317  0.325418  0.932032  1
  Tb  Tb6  1  0.333727  0.826682  0.568484  1
  Tb  Tb7  1  0.871481  0.954848  0.750000  1
  Tb  Tb8  1  0.162317  0.325418  0.567968  1
  Tb  Tb9  1  0.664455  0.171863  0.436183  1
  Tb  Tb10  1  0.333727  0.826682  0.931516  1
  Tb  Tb11  1  0.836738  0.678858  0.435968  1
  Tc  Tc12  1  0.526279  0.872657  0.250000  1
  Tc  Tc13  1  0.469770  0.120326  0.750000  1
  Tc  Tc14  1  0.030625  0.615729  0.750000  1
  Tc  Tc15  1  0.975555  0.372537  0.250000  1
