# generated using pymatgen
data_Sr2NdThPt4
_symmetry_space_group_name_H-M   'P 1'
_cell_length_a   4.54371700
_cell_length_b   5.90204455
_cell_length_c   7.74475513
_cell_angle_alpha   90.97010901
_cell_angle_beta   90.00000000
_cell_angle_gamma   90.00000000
_symmetry_Int_Tables_number   1
_chemical_formula_structural   Sr2NdThPt4
_chemical_formula_sum   'Sr2 Nd1 Th1 Pt4'
_cell_volume   207.66303337
_cell_formula_units_Z   1
loop_
 _symmetry_equiv_pos_site_id
 _symmetry_equiv_pos_as_xyz
  1  'x, y, z'
loop_
 _atom_site_type_symbol
 _atom_site_label
 _atom_site_symmetry_multiplicity
 _atom_site_fract_x
 _atom_site_fract_y
 _atom_site_fract_z
 _atom_site_occupancy
  Sr  Sr0  1  0.250000  0.139981  0.182145  1
  Sr  Sr1  1  0.750000  0.642583  0.317055  1
  Nd  Nd2  1  0.750000  0.862173  0.821591  1
  Th  Th3  1  0.250000  0.362423  0.681785  1
  Pt  Pt4  1  0.250000  0.846300  0.570572  1
  Pt  Pt5  1  0.250000  0.638777  0.012542  1
  Pt  Pt6  1  0.750000  0.156471  0.489410  1
  Pt  Pt7  1  0.750000  0.351290  0.924900  1
