# generated using pymatgen
data_Tb3Al3GePdPt
_symmetry_space_group_name_H-M   'P 1'
_cell_length_a   7.08356900
_cell_length_b   7.08357037
_cell_length_c   4.19050800
_cell_angle_alpha   90.00000000
_cell_angle_beta   90.00000000
_cell_angle_gamma   119.99999826
_symmetry_Int_Tables_number   1
_chemical_formula_structural   Tb3Al3GePdPt
_chemical_formula_sum   'Tb3 Al3 Ge1 Pd1 Pt1'
_cell_volume   182.09652365
_cell_formula_units_Z   1
loop_
 _symmetry_equiv_pos_site_id
 _symmetry_equiv_pos_as_xyz
  1  'x, y, z'
loop_
 _atom_site_type_symbol
 _atom_site_label
 _atom_site_symmetry_multiplicity
 _atom_site_fract_x
 _atom_site_fract_y
 _atom_site_fract_z
 _atom_site_occupancy
  Tb  Tb0  1  0.995519  0.579605  0.500000  1
  Tb  Tb1  1  0.420395  0.415915  0.500000  1
  Tb  Tb2  1  0.584085  0.004481  0.500000  1
  Al  Al3  1  0.769574  0.755936  0.000000  1
  Al  Al4  1  0.244064  0.013636  0.000000  1
  Al  Al5  1  0.986364  0.230426  0.000000  1
  Ge  Ge6  1  0.333333  0.666667  0.000000  1
  Pd  Pd7  1  0.000000  0.000000  0.500000  1
  Pt  Pt8  1  0.666667  0.333333  0.000000  1
