# generated using pymatgen
data_NdSmCo12Si4P3
_symmetry_space_group_name_H-M   'P 1'
_cell_length_a   9.15243900
_cell_length_b   9.15243679
_cell_length_c   3.63146300
_cell_angle_alpha   90.00000000
_cell_angle_beta   90.00000000
_cell_angle_gamma   119.99999713
_symmetry_Int_Tables_number   1
_chemical_formula_structural   NdSmCo12Si4P3
_chemical_formula_sum   'Nd1 Sm1 Co12 Si4 P3'
_cell_volume   263.44250621
_cell_formula_units_Z   1
loop_
 _symmetry_equiv_pos_site_id
 _symmetry_equiv_pos_as_xyz
  1  'x, y, z'
loop_
 _atom_site_type_symbol
 _atom_site_label
 _atom_site_symmetry_multiplicity
 _atom_site_fract_x
 _atom_site_fract_y
 _atom_site_fract_z
 _atom_site_occupancy
  Nd  Nd0  1  0.333333  0.666667  0.500000  1
  Sm  Sm1  1  0.000000  0.000000  0.000000  1
  Co  Co2  1  0.101853  0.386381  0.000000  1
  Co  Co3  1  0.613619  0.715471  0.000000  1
  Co  Co4  1  0.284529  0.898147  0.000000  1
  Co  Co5  1  0.044390  0.769504  0.500000  1
  Co  Co6  1  0.230496  0.274886  0.500000  1
  Co  Co7  1  0.725114  0.955610  0.500000  1
  Co  Co8  1  0.813186  0.611409  0.000000  1
  Co  Co9  1  0.388591  0.201777  0.000000  1
  Co  Co10  1  0.798223  0.186814  0.000000  1
  Co  Co11  1  0.899181  0.437298  0.500000  1
  Co  Co12  1  0.562702  0.461883  0.500000  1
  Co  Co13  1  0.538117  0.100819  0.500000  1
  Si  Si14  1  0.666667  0.333333  0.000000  1
  Si  Si15  1  0.059345  0.618841  0.000000  1
  Si  Si16  1  0.381159  0.440505  0.000000  1
  Si  Si17  1  0.559495  0.940655  0.000000  1
  P  P18  1  0.770948  0.731825  0.500000  1
  P  P19  1  0.268175  0.039123  0.500000  1
  P  P20  1  0.960877  0.229052  0.500000  1
