# generated using pymatgen
data_Er6Sc8Al8Rh7
_symmetry_space_group_name_H-M   'P 1'
_cell_length_a   9.28851033
_cell_length_b   9.28851003
_cell_length_c   9.28851000
_cell_angle_alpha   60.00000010
_cell_angle_beta   60.00000116
_cell_angle_gamma   60.00000588
_symmetry_Int_Tables_number   1
_chemical_formula_structural   Er6Sc8Al8Rh7
_chemical_formula_sum   'Er6 Sc8 Al8 Rh7'
_cell_volume   566.66084009
_cell_formula_units_Z   1
loop_
 _symmetry_equiv_pos_site_id
 _symmetry_equiv_pos_as_xyz
  1  'x, y, z'
loop_
 _atom_site_type_symbol
 _atom_site_label
 _atom_site_symmetry_multiplicity
 _atom_site_fract_x
 _atom_site_fract_y
 _atom_site_fract_z
 _atom_site_occupancy
  Er  Er0  1  0.688220  0.688220  0.311780  1
  Er  Er1  1  0.311780  0.688220  0.311780  1
  Er  Er2  1  0.688220  0.311780  0.311780  1
  Er  Er3  1  0.311780  0.311780  0.688220  1
  Er  Er4  1  0.688220  0.311780  0.688220  1
  Er  Er5  1  0.311780  0.688220  0.688220  1
  Sc  Sc6  1  0.878512  0.878512  0.364462  1
  Sc  Sc7  1  0.878512  0.364462  0.878512  1
  Sc  Sc8  1  0.364462  0.878512  0.878512  1
  Sc  Sc9  1  0.878512  0.878512  0.878512  1
  Sc  Sc10  1  0.121488  0.121488  0.635538  1
  Sc  Sc11  1  0.121488  0.635538  0.121488  1
  Sc  Sc12  1  0.635538  0.121488  0.121488  1
  Sc  Sc13  1  0.121488  0.121488  0.121488  1
  Al  Al14  1  0.667878  0.667878  0.996364  1
  Al  Al15  1  0.667878  0.996364  0.667878  1
  Al  Al16  1  0.996364  0.667878  0.667878  1
  Al  Al17  1  0.667878  0.667878  0.667878  1
  Al  Al18  1  0.332122  0.332122  0.003636  1
  Al  Al19  1  0.332122  0.003636  0.332122  1
  Al  Al20  1  0.003636  0.332122  0.332122  1
  Al  Al21  1  0.332122  0.332122  0.332122  1
  Rh  Rh22  1  0.000000  0.000000  0.000000  1
  Rh  Rh23  1  0.000000  0.000000  0.500000  1
  Rh  Rh24  1  0.500000  0.000000  0.500000  1
  Rh  Rh25  1  0.000000  0.500000  0.500000  1
  Rh  Rh26  1  0.500000  0.500000  0.000000  1
  Rh  Rh27  1  0.000000  0.500000  0.000000  1
  Rh  Rh28  1  0.500000  0.000000  0.000000  1
