# generated using pymatgen
data_Dy5ReWC7
_symmetry_space_group_name_H-M   'P 1'
_cell_length_a   8.39029515
_cell_length_b   8.39029374
_cell_length_c   3.42189100
_cell_angle_alpha   90.00000000
_cell_angle_beta   90.00000000
_cell_angle_gamma   122.71961453
_symmetry_Int_Tables_number   1
_chemical_formula_structural   Dy5ReWC7
_chemical_formula_sum   'Dy5 Re1 W1 C7'
_cell_volume   202.66781100
_cell_formula_units_Z   1
loop_
 _symmetry_equiv_pos_site_id
 _symmetry_equiv_pos_as_xyz
  1  'x, y, z'
loop_
 _atom_site_type_symbol
 _atom_site_label
 _atom_site_symmetry_multiplicity
 _atom_site_fract_x
 _atom_site_fract_y
 _atom_site_fract_z
 _atom_site_occupancy
  Dy  Dy0  1  0.498841  0.501159  0.000000  1
  Dy  Dy1  1  0.076070  0.334458  0.500000  1
  Dy  Dy2  1  0.926635  0.667767  0.500000  1
  Dy  Dy3  1  0.665542  0.923930  0.500000  1
  Dy  Dy4  1  0.332233  0.073365  0.500000  1
  Re  Re5  1  0.286414  0.713586  0.000000  1
  W  W6  1  0.713946  0.286054  0.000000  1
  C  C7  1  0.624749  0.375251  0.500000  1
  C  C8  1  0.373286  0.626714  0.500000  1
  C  C9  1  0.999948  0.000052  0.000000  1
  C  C10  1  0.169035  0.167939  0.000000  1
  C  C11  1  0.832061  0.830965  0.000000  1
  C  C12  1  0.000987  0.499747  0.000000  1
  C  C13  1  0.500253  0.999013  0.000000  1
