# generated using pymatgen
data_La16Cd4Co3Pd
_symmetry_space_group_name_H-M   'P 1'
_cell_length_a   10.03545489
_cell_length_b   10.06183013
_cell_length_c   10.06183100
_cell_angle_alpha   60.00000043
_cell_angle_beta   59.91302194
_cell_angle_gamma   59.91302137
_symmetry_Int_Tables_number   1
_chemical_formula_structural   La16Cd4Co3Pd
_chemical_formula_sum   'La16 Cd4 Co3 Pd1'
_cell_volume   717.47018210
_cell_formula_units_Z   1
loop_
 _symmetry_equiv_pos_site_id
 _symmetry_equiv_pos_as_xyz
  1  'x, y, z'
loop_
 _atom_site_type_symbol
 _atom_site_label
 _atom_site_symmetry_multiplicity
 _atom_site_fract_x
 _atom_site_fract_y
 _atom_site_fract_z
 _atom_site_occupancy
  La  La0  1  0.336600  0.351524  0.351524  1
  La  La1  1  0.336600  0.351524  0.960351  1
  La  La2  1  0.336600  0.960351  0.351524  1
  La  La3  1  0.967336  0.344221  0.344221  1
  La  La4  1  0.822433  0.190421  0.190421  1
  La  La5  1  0.188697  0.812000  0.812000  1
  La  La6  1  0.188697  0.812000  0.187303  1
  La  La7  1  0.822433  0.190421  0.796725  1
  La  La8  1  0.188697  0.187303  0.812000  1
  La  La9  1  0.822433  0.796725  0.190421  1
  La  La10  1  0.937653  0.561611  0.561611  1
  La  La11  1  0.559336  0.938859  0.938859  1
  La  La12  1  0.559336  0.938859  0.562946  1
  La  La13  1  0.937653  0.561611  0.939126  1
  La  La14  1  0.559336  0.562946  0.938859  1
  La  La15  1  0.937653  0.939126  0.561611  1
  Cd  Cd16  1  0.579166  0.579009  0.579009  1
  Cd  Cd17  1  0.579166  0.579009  0.262816  1
  Cd  Cd18  1  0.579166  0.262816  0.579009  1
  Cd  Cd19  1  0.262223  0.579259  0.579259  1
  Co  Co20  1  0.140853  0.141054  0.141054  1
  Co  Co21  1  0.140853  0.141054  0.577040  1
  Co  Co22  1  0.140853  0.577040  0.141054  1
  Pd  Pd23  1  0.576230  0.141257  0.141257  1
