# generated using pymatgen
data_Ho4Al22Ga2Pt9
_symmetry_space_group_name_H-M   'P 1'
_cell_length_a   7.50888428
_cell_length_b   7.51563737
_cell_length_c   13.18503106
_cell_angle_alpha   84.59108194
_cell_angle_beta   100.82609425
_cell_angle_gamma   119.82970052
_symmetry_Int_Tables_number   1
_chemical_formula_structural   Ho4Al22Ga2Pt9
_chemical_formula_sum   'Ho4 Al22 Ga2 Pt9'
_cell_volume   634.01021674
_cell_formula_units_Z   1
loop_
 _symmetry_equiv_pos_site_id
 _symmetry_equiv_pos_as_xyz
  1  'x, y, z'
loop_
 _atom_site_type_symbol
 _atom_site_label
 _atom_site_symmetry_multiplicity
 _atom_site_fract_x
 _atom_site_fract_y
 _atom_site_fract_z
 _atom_site_occupancy
  Ho  Ho0  1  0.734652  0.998540  0.192303  1
  Ho  Ho1  1  0.265348  0.001460  0.807697  1
  Ho  Ho2  1  0.061824  0.670434  0.192278  1
  Ho  Ho3  1  0.938176  0.329566  0.807722  1
  Al  Al4  1  0.981785  0.666045  0.944603  1
  Al  Al5  1  0.018215  0.333955  0.055397  1
  Al  Al6  1  0.397903  0.665422  0.816446  1
  Al  Al7  1  0.602097  0.334578  0.183554  1
  Al  Al8  1  0.882230  0.664987  0.670149  1
  Al  Al9  1  0.117770  0.335013  0.329851  1
  Al  Al10  1  0.604299  0.457780  0.816033  1
  Al  Al11  1  0.395701  0.542220  0.183967  1
  Al  Al12  1  0.230850  0.340458  0.669595  1
  Al  Al13  1  0.769150  0.659542  0.330405  1
  Al  Al14  1  0.853446  0.333345  0.558524  1
  Al  Al15  1  0.185746  0.999120  0.558820  1
  Al  Al16  1  0.814254  0.000880  0.441180  1
  Al  Al17  1  0.352442  0.999390  0.055524  1
  Al  Al18  1  0.647558  0.000610  0.944476  1
  Al  Al19  1  0.555777  0.993633  0.670347  1
  Al  Al20  1  0.444223  0.006367  0.329653  1
  Al  Al21  1  0.520922  0.667949  0.561040  1
  Al  Al22  1  0.479078  0.332051  0.438960  1
  Al  Al23  1  0.683364  0.667331  0.048317  1
  Al  Al24  1  0.316636  0.332669  0.951683  1
  Al  Al25  1  0.146554  0.666655  0.441476  1
  Ga  Ga26  1  0.803025  0.864470  0.815307  1
  Ga  Ga27  1  0.196975  0.135530  0.184693  1
  Pt  Pt28  1  0.328963  0.671151  0.000025  1
  Pt  Pt29  1  0.546304  0.325049  0.637649  1
  Pt  Pt30  1  0.453696  0.674951  0.362351  1
  Pt  Pt31  1  0.888560  0.009293  0.637200  1
  Pt  Pt32  1  0.111440  0.990707  0.362800  1
  Pt  Pt33  1  0.671037  0.328849  0.999975  1
  Pt  Pt34  1  0.204636  0.666852  0.639155  1
  Pt  Pt35  1  0.795364  0.333148  0.360845  1
  Pt  Pt36  1  0.000000  0.000000  0.000000  1
