# generated using pymatgen
data_Hf3Fe4Si4W
_symmetry_space_group_name_H-M   'P 1'
_cell_length_a   3.85510000
_cell_length_b   6.24807501
_cell_length_c   7.01261555
_cell_angle_alpha   89.58381851
_cell_angle_beta   90.00000000
_cell_angle_gamma   90.00000000
_symmetry_Int_Tables_number   1
_chemical_formula_structural   Hf3Fe4Si4W
_chemical_formula_sum   'Hf3 Fe4 Si4 W1'
_cell_volume   168.90809209
_cell_formula_units_Z   1
loop_
 _symmetry_equiv_pos_site_id
 _symmetry_equiv_pos_as_xyz
  1  'x, y, z'
loop_
 _atom_site_type_symbol
 _atom_site_label
 _atom_site_symmetry_multiplicity
 _atom_site_fract_x
 _atom_site_fract_y
 _atom_site_fract_z
 _atom_site_occupancy
  Hf  Hf0  1  0.250000  0.502954  0.196637  1
  Hf  Hf1  1  0.750000  0.994465  0.690038  1
  Hf  Hf2  1  0.750000  0.490096  0.805598  1
  Fe  Fe3  1  0.250000  0.152771  0.940590  1
  Fe  Fe4  1  0.250000  0.661007  0.561280  1
  Fe  Fe5  1  0.750000  0.843879  0.062654  1
  Fe  Fe6  1  0.750000  0.348900  0.429533  1
  Si  Si7  1  0.250000  0.283119  0.602698  1
  Si  Si8  1  0.250000  0.785450  0.890844  1
  Si  Si9  1  0.750000  0.726573  0.384100  1
  Si  Si10  1  0.750000  0.202586  0.118304  1
  W  W11  1  0.250000  0.008200  0.317725  1
