# generated using pymatgen
data_ZrPaCo6B
_symmetry_space_group_name_H-M   'P 1'
_cell_length_a   5.42333225
_cell_length_b   5.42333244
_cell_length_c   5.42333200
_cell_angle_alpha   59.99999051
_cell_angle_beta   59.99998934
_cell_angle_gamma   59.99999406
_symmetry_Int_Tables_number   1
_chemical_formula_structural   ZrPaCo6B
_chemical_formula_sum   'Zr1 Pa1 Co6 B1'
_cell_volume   112.79336328
_cell_formula_units_Z   1
loop_
 _symmetry_equiv_pos_site_id
 _symmetry_equiv_pos_as_xyz
  1  'x, y, z'
loop_
 _atom_site_type_symbol
 _atom_site_label
 _atom_site_symmetry_multiplicity
 _atom_site_fract_x
 _atom_site_fract_y
 _atom_site_fract_z
 _atom_site_occupancy
  Zr  Zr0  1  0.250000  0.250000  0.250000  1
  Pa  Pa1  1  0.750000  0.750000  0.750000  1
  Co  Co2  1  0.741042  0.741042  0.258958  1
  Co  Co3  1  0.258958  0.741042  0.258958  1
  Co  Co4  1  0.741042  0.258958  0.258958  1
  Co  Co5  1  0.258958  0.258958  0.741042  1
  Co  Co6  1  0.741042  0.258958  0.741042  1
  Co  Co7  1  0.258958  0.741042  0.741042  1
  B  B8  1  0.000000  0.000000  0.000000  1
