# generated using pymatgen
data_Rb4OsPbCl12
_symmetry_space_group_name_H-M   'P 1'
_cell_length_a   7.40761400
_cell_length_b   7.40810815
_cell_length_c   10.35991600
_cell_angle_alpha   90.00000000
_cell_angle_beta   90.00000000
_cell_angle_gamma   89.98847604
_symmetry_Int_Tables_number   1
_chemical_formula_structural   Rb4OsPbCl12
_chemical_formula_sum   'Rb4 Os1 Pb1 Cl12'
_cell_volume   568.51494136
_cell_formula_units_Z   1
loop_
 _symmetry_equiv_pos_site_id
 _symmetry_equiv_pos_as_xyz
  1  'x, y, z'
loop_
 _atom_site_type_symbol
 _atom_site_label
 _atom_site_symmetry_multiplicity
 _atom_site_fract_x
 _atom_site_fract_y
 _atom_site_fract_z
 _atom_site_occupancy
  Rb  Rb0  1  0.500000  0.000000  0.744406  1
  Rb  Rb1  1  0.000000  0.500000  0.255731  1
  Rb  Rb2  1  0.500000  0.000000  0.255594  1
  Rb  Rb3  1  0.000000  0.500000  0.744269  1
  Os  Os4  1  0.000000  0.000000  0.000000  1
  Pb  Pb5  1  0.500000  0.500000  0.500000  1
  Cl  Cl6  1  0.000000  0.000000  0.775160  1
  Cl  Cl7  1  0.500000  0.500000  0.246749  1
  Cl  Cl8  1  0.750203  0.750139  0.500000  1
  Cl  Cl9  1  0.224412  0.224157  0.000000  1
  Cl  Cl10  1  0.750387  0.249833  0.500000  1
  Cl  Cl11  1  0.224440  0.775432  0.000000  1
  Cl  Cl12  1  0.000000  0.000000  0.224840  1
  Cl  Cl13  1  0.500000  0.500000  0.753251  1
  Cl  Cl14  1  0.249797  0.249861  0.500000  1
  Cl  Cl15  1  0.775588  0.775843  0.000000  1
  Cl  Cl16  1  0.249613  0.750167  0.500000  1
  Cl  Cl17  1  0.775560  0.224568  0.000000  1
