# generated using pymatgen
data_Ba5Al5Sb
_symmetry_space_group_name_H-M   'P 1'
_cell_length_a   6.07223900
_cell_length_b   6.07223905
_cell_length_c   11.25980500
_cell_angle_alpha   90.00000000
_cell_angle_beta   90.00000000
_cell_angle_gamma   120.00000518
_symmetry_Int_Tables_number   1
_chemical_formula_structural   Ba5Al5Sb
_chemical_formula_sum   'Ba5 Al5 Sb1'
_cell_volume   359.54991924
_cell_formula_units_Z   1
loop_
 _symmetry_equiv_pos_site_id
 _symmetry_equiv_pos_as_xyz
  1  'x, y, z'
loop_
 _atom_site_type_symbol
 _atom_site_label
 _atom_site_symmetry_multiplicity
 _atom_site_fract_x
 _atom_site_fract_y
 _atom_site_fract_z
 _atom_site_occupancy
  Ba  Ba0  1  0.666667  0.333333  0.785213  1
  Ba  Ba1  1  0.666667  0.333333  0.214787  1
  Ba  Ba2  1  0.000000  0.000000  0.676803  1
  Ba  Ba3  1  0.000000  0.000000  0.323197  1
  Ba  Ba4  1  0.333333  0.666667  0.000000  1
  Al  Al5  1  0.980989  0.490494  0.500000  1
  Al  Al6  1  0.333333  0.666667  0.679701  1
  Al  Al7  1  0.509506  0.490494  0.500000  1
  Al  Al8  1  0.509506  0.019011  0.500000  1
  Al  Al9  1  0.333333  0.666667  0.320299  1
  Sb  Sb10  1  0.000000  0.000000  0.000000  1
