# generated using pymatgen
data_SbNF10
_symmetry_space_group_name_H-M   'P 1'
_cell_length_a   5.66049499
_cell_length_b   7.63165281
_cell_length_c   9.12524664
_cell_angle_alpha   88.31819285
_cell_angle_beta   109.01274594
_cell_angle_gamma   97.05117685
_symmetry_Int_Tables_number   1
_chemical_formula_structural   SbNF10
_chemical_formula_sum   'Sb2 N2 F20'
_cell_volume   369.85319977
_cell_formula_units_Z   2
loop_
 _symmetry_equiv_pos_site_id
 _symmetry_equiv_pos_as_xyz
  1  'x, y, z'
loop_
 _atom_site_type_symbol
 _atom_site_label
 _atom_site_symmetry_multiplicity
 _atom_site_fract_x
 _atom_site_fract_y
 _atom_site_fract_z
 _atom_site_occupancy
  Sb  Sb0  1  0.995639  0.755023  0.295927  1
  Sb  Sb1  1  0.004361  0.244977  0.704073  1
  N  N2  1  0.294563  0.274695  0.215254  1
  N  N3  1  0.705437  0.725305  0.784746  1
  F  F4  1  0.057840  0.232337  0.213382  1
  F  F5  1  0.942160  0.767663  0.786618  1
  F  F6  1  0.371377  0.140987  0.157112  1
  F  F7  1  0.628623  0.859013  0.842888  1
  F  F8  1  0.933081  0.192978  0.895197  1
  F  F9  1  0.066919  0.807022  0.104803  1
  F  F10  1  0.075044  0.300346  0.516310  1
  F  F11  1  0.924956  0.699654  0.483690  1
  F  F12  1  0.779627  0.041654  0.607583  1
  F  F13  1  0.220373  0.958346  0.392417  1
  F  F14  1  0.279911  0.106292  0.777705  1
  F  F15  1  0.720089  0.893708  0.222295  1
  F  F16  1  0.216115  0.453896  0.805390  1
  F  F17  1  0.783885  0.546104  0.194610  1
  F  F18  1  0.725497  0.381957  0.640797  1
  F  F19  1  0.274503  0.618043  0.359203  1
  F  F20  1  0.695554  0.582865  0.872913  1
  F  F21  1  0.304446  0.417135  0.127087  1
  F  F22  1  0.553360  0.691618  0.639747  1
  F  F23  1  0.446640  0.308382  0.360253  1
