# generated using pymatgen
data_ErTm3(MoO4)6
_symmetry_space_group_name_H-M   'P 1'
_cell_length_a   7.38938924
_cell_length_b   7.38940123
_cell_length_c   10.59166136
_cell_angle_alpha   89.97891368
_cell_angle_beta   89.97879214
_cell_angle_gamma   89.98033444
_symmetry_Int_Tables_number   1
_chemical_formula_structural   ErTm3(MoO4)6
_chemical_formula_sum   'Er1 Tm3 Mo6 O24'
_cell_volume   578.33808759
_cell_formula_units_Z   1
loop_
 _symmetry_equiv_pos_site_id
 _symmetry_equiv_pos_as_xyz
  1  'x, y, z'
loop_
 _atom_site_type_symbol
 _atom_site_label
 _atom_site_symmetry_multiplicity
 _atom_site_fract_x
 _atom_site_fract_y
 _atom_site_fract_z
 _atom_site_occupancy
  Er  Er0  1  0.314598  0.814598  0.761358  1
  Tm  Tm1  1  0.185592  0.314334  0.238051  1
  Tm  Tm2  1  0.814330  0.685595  0.238050  1
  Tm  Tm3  1  0.686188  0.186189  0.762182  1
  Mo  Mo4  1  0.705855  0.205855  0.144432  1
  Mo  Mo5  1  0.294218  0.794219  0.145309  1
  Mo  Mo6  1  0.999116  0.000747  0.499413  1
  Mo  Mo7  1  0.500747  0.499117  0.499414  1
  Mo  Mo8  1  0.205714  0.293947  0.855816  1
  Mo  Mo9  1  0.793946  0.705713  0.855816  1
  O  O10  1  0.193105  0.306620  0.023772  1
  O  O11  1  0.806620  0.693099  0.023770  1
  O  O12  1  0.874833  0.374832  0.191909  1
  O  O13  1  0.125203  0.625202  0.192906  1
  O  O14  1  0.225398  0.008969  0.205135  1
  O  O15  1  0.490907  0.274543  0.204135  1
  O  O16  1  0.508970  0.725400  0.205133  1
  O  O17  1  0.774546  0.990907  0.204135  1
  O  O18  1  0.042637  0.192918  0.400806  1
  O  O19  1  0.308230  0.454668  0.401417  1
  O  O20  1  0.692915  0.542636  0.400805  1
  O  O21  1  0.954660  0.808232  0.401415  1
  O  O22  1  0.807726  0.044889  0.598536  1
  O  O23  1  0.544888  0.307725  0.598534  1
  O  O24  1  0.457052  0.691870  0.597265  1
  O  O25  1  0.191873  0.957048  0.597264  1
  O  O26  1  0.991177  0.224547  0.796039  1
  O  O27  1  0.724548  0.491176  0.796040  1
  O  O28  1  0.274027  0.508326  0.795588  1
  O  O29  1  0.008323  0.774026  0.795586  1
  O  O30  1  0.375557  0.126190  0.808056  1
  O  O31  1  0.626190  0.875552  0.808056  1
  O  O32  1  0.693572  0.193572  0.976456  1
  O  O33  1  0.306737  0.806739  0.977415  1
