# generated using pymatgen
data_Ho2ZnGa3Ag2
_symmetry_space_group_name_H-M   'P 1'
_cell_length_a   4.33844900
_cell_length_b   6.96153376
_cell_length_c   10.22984522
_cell_angle_alpha   89.92099075
_cell_angle_beta   90.00000000
_cell_angle_gamma   90.00000000
_symmetry_Int_Tables_number   1
_chemical_formula_structural   Ho2ZnGa3Ag2
_chemical_formula_sum   'Ho4 Zn2 Ga6 Ag4'
_cell_volume   308.96414305
_cell_formula_units_Z   2
loop_
 _symmetry_equiv_pos_site_id
 _symmetry_equiv_pos_as_xyz
  1  'x, y, z'
loop_
 _atom_site_type_symbol
 _atom_site_label
 _atom_site_symmetry_multiplicity
 _atom_site_fract_x
 _atom_site_fract_y
 _atom_site_fract_z
 _atom_site_occupancy
  Ho  Ho0  1  0.250000  0.784335  0.829073  1
  Ho  Ho1  1  0.750000  0.215665  0.170927  1
  Ho  Ho2  1  0.750000  0.719809  0.328432  1
  Ho  Ho3  1  0.250000  0.280191  0.671568  1
  Zn  Zn4  1  0.250000  0.922942  0.149760  1
  Zn  Zn5  1  0.750000  0.077058  0.850240  1
  Ga  Ga6  1  0.750000  0.575897  0.653530  1
  Ga  Ga7  1  0.250000  0.424103  0.346470  1
  Ga  Ga8  1  0.250000  0.704453  0.535907  1
  Ga  Ga9  1  0.750000  0.295547  0.464093  1
  Ga  Ga10  1  0.750000  0.799393  0.037699  1
  Ga  Ga11  1  0.250000  0.200607  0.962301  1
  Ag  Ag12  1  0.250000  0.541575  0.097398  1
  Ag  Ag13  1  0.750000  0.458425  0.902602  1
  Ag  Ag14  1  0.750000  0.958377  0.600760  1
  Ag  Ag15  1  0.250000  0.041623  0.399240  1
