# generated using pymatgen
data_Dy2HoSiPt5
_symmetry_space_group_name_H-M   'P 1'
_cell_length_a   8.20764629
_cell_length_b   8.21079612
_cell_length_c   8.21062214
_cell_angle_alpha   127.60170310
_cell_angle_beta   125.90066958
_cell_angle_gamma   78.67299945
_symmetry_Int_Tables_number   1
_chemical_formula_structural   Dy2HoSiPt5
_chemical_formula_sum   'Dy4 Ho2 Si2 Pt10'
_cell_volume   343.69467449
_cell_formula_units_Z   2
loop_
 _symmetry_equiv_pos_site_id
 _symmetry_equiv_pos_as_xyz
  1  'x, y, z'
loop_
 _atom_site_type_symbol
 _atom_site_label
 _atom_site_symmetry_multiplicity
 _atom_site_fract_x
 _atom_site_fract_y
 _atom_site_fract_z
 _atom_site_occupancy
  Dy  Dy0  1  0.828473  0.549293  0.279165  1
  Dy  Dy1  1  0.611542  0.249969  0.361577  1
  Dy  Dy2  1  0.171527  0.450707  0.720835  1
  Dy  Dy3  1  0.388458  0.750031  0.638423  1
  Ho  Ho4  1  0.230166  0.950935  0.279255  1
  Ho  Ho5  1  0.769834  0.049065  0.720745  1
  Si  Si6  1  0.220913  0.250037  0.970890  1
  Si  Si7  1  0.779087  0.749963  0.029110  1
  Pt  Pt8  1  0.168899  0.899171  0.856032  1
  Pt  Pt9  1  0.831101  0.100829  0.143968  1
  Pt  Pt10  1  0.456744  0.186197  0.855056  1
  Pt  Pt11  1  0.543259  0.398282  0.729473  1
  Pt  Pt12  1  0.831130  0.687140  0.730291  1
  Pt  Pt13  1  0.456741  0.601718  0.270527  1
  Pt  Pt14  1  0.543256  0.813803  0.144944  1
  Pt  Pt15  1  0.168870  0.312860  0.269709  1
  Pt  Pt16  1  0.000000  0.000000  0.500000  1
  Pt  Pt17  1  0.000000  0.500000  0.000000  1
