# generated using pymatgen
data_Yb5Sm2Th(B6Os)4
_symmetry_space_group_name_H-M   'P 1'
_cell_length_a   3.70684000
_cell_length_b   9.13035128
_cell_length_c   11.54305633
_cell_angle_alpha   90.06269937
_cell_angle_beta   90.00000000
_cell_angle_gamma   90.00000000
_symmetry_Int_Tables_number   1
_chemical_formula_structural   Yb5Sm2Th(B6Os)4
_chemical_formula_sum   'Yb5 Sm2 Th1 B24 Os4'
_cell_volume   390.67163738
_cell_formula_units_Z   1
loop_
 _symmetry_equiv_pos_site_id
 _symmetry_equiv_pos_as_xyz
  1  'x, y, z'
loop_
 _atom_site_type_symbol
 _atom_site_label
 _atom_site_symmetry_multiplicity
 _atom_site_fract_x
 _atom_site_fract_y
 _atom_site_fract_z
 _atom_site_occupancy
  Yb  Yb0  1  0.000000  0.177642  0.911980  1
  Yb  Yb1  1  0.000000  0.942469  0.368822  1
  Yb  Yb2  1  0.000000  0.059681  0.634339  1
  Yb  Yb3  1  0.000000  0.439776  0.131976  1
  Yb  Yb4  1  0.000000  0.557536  0.867087  1
  Sm  Sm5  1  0.000000  0.321083  0.415085  1
  Sm  Sm6  1  0.000000  0.677134  0.587770  1
  Th  Th7  1  0.000000  0.820767  0.084547  1
  B  B8  1  0.500000  0.555512  0.431584  1
  B  B9  1  0.500000  0.444670  0.568602  1
  B  B10  1  0.500000  0.056610  0.067409  1
  B  B11  1  0.500000  0.946473  0.929789  1
  B  B12  1  0.500000  0.750626  0.417670  1
  B  B13  1  0.500000  0.249556  0.584053  1
  B  B14  1  0.500000  0.250663  0.082100  1
  B  B15  1  0.500000  0.750740  0.914534  1
  B  B16  1  0.500000  0.789343  0.266938  1
  B  B17  1  0.500000  0.209841  0.735413  1
  B  B18  1  0.500000  0.289651  0.234046  1
  B  B19  1  0.500000  0.709851  0.764937  1
  B  B20  1  0.500000  0.627521  0.186932  1
  B  B21  1  0.500000  0.371064  0.814368  1
  B  B22  1  0.500000  0.128735  0.314390  1
  B  B23  1  0.500000  0.872550  0.686353  1
  B  B24  1  0.500000  0.985248  0.212548  1
  B  B25  1  0.500000  0.018231  0.787503  1
  B  B26  1  0.500000  0.482906  0.287572  1
  B  B27  1  0.500000  0.516192  0.712420  1
  B  B28  1  0.500000  0.591357  0.025572  1
  B  B29  1  0.500000  0.406039  0.973497  1
  B  B30  1  0.500000  0.093894  0.474692  1
  B  B31  1  0.500000  0.906678  0.526805  1
  Os  Os32  1  0.000000  0.638949  0.319773  1
  Os  Os33  1  0.000000  0.362256  0.680052  1
  Os  Os34  1  0.000000  0.137838  0.178885  1
  Os  Os35  1  0.000000  0.860917  0.819956  1
