# generated using pymatgen
data_Er4U2Tc5Ir
_symmetry_space_group_name_H-M   'P 1'
_cell_length_a   5.78083857
_cell_length_b   5.78083874
_cell_length_c   8.21657300
_cell_angle_alpha   90.00000000
_cell_angle_beta   90.00000000
_cell_angle_gamma   120.56217191
_symmetry_Int_Tables_number   1
_chemical_formula_structural   Er4U2Tc5Ir
_chemical_formula_sum   'Er4 U2 Tc5 Ir1'
_cell_volume   236.43668848
_cell_formula_units_Z   1
loop_
 _symmetry_equiv_pos_site_id
 _symmetry_equiv_pos_as_xyz
  1  'x, y, z'
loop_
 _atom_site_type_symbol
 _atom_site_label
 _atom_site_symmetry_multiplicity
 _atom_site_fract_x
 _atom_site_fract_y
 _atom_site_fract_z
 _atom_site_occupancy
  Er  Er0  1  0.334015  0.665985  0.439424  1
  Er  Er1  1  0.668244  0.331756  0.557298  1
  Er  Er2  1  0.668244  0.331756  0.942702  1
  Er  Er3  1  0.334015  0.665985  0.060576  1
  U  U4  1  0.005385  0.994615  0.502226  1
  U  U5  1  0.005385  0.994615  0.997774  1
  Tc  Tc6  1  0.835207  0.678470  0.250000  1
  Tc  Tc7  1  0.321530  0.164793  0.250000  1
  Tc  Tc8  1  0.164791  0.835209  0.750000  1
  Tc  Tc9  1  0.166441  0.326895  0.750000  1
  Tc  Tc10  1  0.673105  0.833559  0.750000  1
  Ir  Ir11  1  0.823638  0.176362  0.250000  1
