# generated using pymatgen
data_Ta3Cr2Sb3(Pb4O13)2
_symmetry_space_group_name_H-M   'P 1'
_cell_length_a   7.49081456
_cell_length_b   13.02368000
_cell_length_c   7.46493878
_cell_angle_alpha   89.49702223
_cell_angle_beta   60.56935476
_cell_angle_gamma   106.43793011
_symmetry_Int_Tables_number   1
_chemical_formula_structural   Ta3Cr2Sb3(Pb4O13)2
_chemical_formula_sum   'Ta3 Cr2 Sb3 Pb8 O26'
_cell_volume   598.75632775
_cell_formula_units_Z   1
loop_
 _symmetry_equiv_pos_site_id
 _symmetry_equiv_pos_as_xyz
  1  'x, y, z'
loop_
 _atom_site_type_symbol
 _atom_site_label
 _atom_site_symmetry_multiplicity
 _atom_site_fract_x
 _atom_site_fract_y
 _atom_site_fract_z
 _atom_site_occupancy
  Ta  Ta0  1  0.997675  0.249826  0.750680  1
  Ta  Ta1  1  0.999470  0.750054  0.249838  1
  Ta  Ta2  1  0.499688  0.000506  0.999681  1
  Cr  Cr3  1  0.501266  0.749739  0.251622  1
  Cr  Cr4  1  0.498999  0.249903  0.749608  1
  Sb  Sb5  1  0.500210  0.500397  0.499883  1
  Sb  Sb6  1  0.499469  0.249804  0.249956  1
  Sb  Sb7  1  0.500957  0.749943  0.748860  1
  Pb  Pb8  1  0.001284  0.499528  0.002269  1
  Pb  Pb9  1  0.000571  0.999386  0.502062  1
  Pb  Pb10  1  0.493608  0.499272  0.002766  1
  Pb  Pb11  1  0.495326  0.998870  0.501027  1
  Pb  Pb12  1  0.002600  0.252738  0.247676  1
  Pb  Pb13  1  0.000686  0.751460  0.748346  1
  Pb  Pb14  1  0.001520  0.500400  0.496250  1
  Pb  Pb15  1  0.999579  0.999901  0.997675  1
  O  O16  1  0.875942  0.061806  0.314025  1
  O  O17  1  0.876257  0.562204  0.813842  1
  O  O18  1  0.175350  0.214979  0.856189  1
  O  O19  1  0.176568  0.715209  0.355484  1
  O  O20  1  0.573211  0.414491  0.660297  1
  O  O21  1  0.569414  0.911994  0.159533  1
  O  O22  1  0.573478  0.212808  0.458342  1
  O  O23  1  0.573807  0.712746  0.958529  1
  O  O24  1  0.574857  0.411534  0.265279  1
  O  O25  1  0.571183  0.909983  0.769802  1
  O  O26  1  0.179803  0.214340  0.465569  1
  O  O27  1  0.180627  0.714502  0.965405  1
  O  O28  1  0.180407  0.409856  0.661113  1
  O  O29  1  0.181861  0.909139  0.160564  1
  O  O30  1  0.819102  0.282454  0.650655  1
  O  O31  1  0.820483  0.782936  0.150002  1
  O  O32  1  0.435543  0.090306  0.841965  1
  O  O33  1  0.430102  0.587334  0.340160  1
  O  O34  1  0.429451  0.285816  0.038981  1
  O  O35  1  0.429645  0.786019  0.539258  1
  O  O36  1  0.431345  0.090852  0.226347  1
  O  O37  1  0.427380  0.589592  0.731159  1
  O  O38  1  0.817897  0.284371  0.032830  1
  O  O39  1  0.818789  0.784756  0.532460  1
  O  O40  1  0.816391  0.091858  0.839826  1
  O  O41  1  0.818202  0.591387  0.339186  1
