# generated using pymatgen
data_LaBe12Ni
_symmetry_space_group_name_H-M   'P 1'
_cell_length_a   7.41172535
_cell_length_b   7.44277979
_cell_length_c   7.38351505
_cell_angle_alpha   59.98572886
_cell_angle_beta   59.83587177
_cell_angle_gamma   59.61033751
_symmetry_Int_Tables_number   1
_chemical_formula_structural   LaBe12Ni
_chemical_formula_sum   'La2 Be24 Ni2'
_cell_volume   286.76255796
_cell_formula_units_Z   2
loop_
 _symmetry_equiv_pos_site_id
 _symmetry_equiv_pos_as_xyz
  1  'x, y, z'
loop_
 _atom_site_type_symbol
 _atom_site_label
 _atom_site_symmetry_multiplicity
 _atom_site_fract_x
 _atom_site_fract_y
 _atom_site_fract_z
 _atom_site_occupancy
  La  La0  1  0.249051  0.250949  0.249051  1
  La  La1  1  0.750949  0.749051  0.750949  1
  Be  Be2  1  0.500000  0.500000  0.500000  1
  Be  Be3  1  0.000000  0.000000  0.000000  1
  Be  Be4  1  0.567957  0.786648  0.432043  1
  Be  Be5  1  0.432043  0.213352  0.567957  1
  Be  Be6  1  0.287480  0.932767  0.712520  1
  Be  Be7  1  0.712520  0.067233  0.287480  1
  Be  Be8  1  0.933619  0.285522  0.066381  1
  Be  Be9  1  0.066381  0.714478  0.933619  1
  Be  Be10  1  0.209958  0.791886  0.563278  1
  Be  Be11  1  0.790042  0.208114  0.436722  1
  Be  Be12  1  0.436722  0.565121  0.790042  1
  Be  Be13  1  0.563278  0.434879  0.209958  1
  Be  Be14  1  0.715023  0.282000  0.934802  1
  Be  Be15  1  0.284977  0.718000  0.065198  1
  Be  Be16  1  0.065198  0.931826  0.284977  1
  Be  Be17  1  0.934802  0.068174  0.715023  1
  Be  Be18  1  0.564916  0.210679  0.788998  1
  Be  Be19  1  0.435084  0.789321  0.211002  1
  Be  Be20  1  0.788998  0.435408  0.564916  1
  Be  Be21  1  0.211002  0.564592  0.435084  1
  Be  Be22  1  0.935296  0.715461  0.285267  1
  Be  Be23  1  0.064704  0.284539  0.714733  1
  Be  Be24  1  0.285267  0.063975  0.935296  1
  Be  Be25  1  0.714733  0.936025  0.064704  1
  Ni  Ni26  1  0.793802  0.561271  0.206198  1
  Ni  Ni27  1  0.206198  0.438729  0.793802  1
