# generated using pymatgen
data_MgCd(FeCl4)4
_symmetry_space_group_name_H-M   'P 1'
_cell_length_a   10.16476410
_cell_length_b   10.16476362
_cell_length_c   12.14264850
_cell_angle_alpha   56.08934039
_cell_angle_beta   56.08934322
_cell_angle_gamma   49.00850751
_symmetry_Int_Tables_number   1
_chemical_formula_structural   MgCd(FeCl4)4
_chemical_formula_sum   'Mg1 Cd1 Fe4 Cl16'
_cell_volume   748.10753542
_cell_formula_units_Z   1
loop_
 _symmetry_equiv_pos_site_id
 _symmetry_equiv_pos_as_xyz
  1  'x, y, z'
loop_
 _atom_site_type_symbol
 _atom_site_label
 _atom_site_symmetry_multiplicity
 _atom_site_fract_x
 _atom_site_fract_y
 _atom_site_fract_z
 _atom_site_occupancy
  Mg  Mg0  1  0.004326  0.995674  0.250000  1
  Cd  Cd1  1  0.000326  0.999674  0.750000  1
  Fe  Fe2  1  0.156449  0.681003  0.526834  1
  Fe  Fe3  1  0.318997  0.843551  0.973166  1
  Fe  Fe4  1  0.843180  0.319913  0.466977  1
  Fe  Fe5  1  0.680087  0.156820  0.033023  1
  Cl  Cl6  1  0.299209  0.396821  0.548543  1
  Cl  Cl7  1  0.603179  0.700791  0.951457  1
  Cl  Cl8  1  0.700040  0.603909  0.446791  1
  Cl  Cl9  1  0.396091  0.299960  0.053209  1
  Cl  Cl10  1  0.880548  0.837549  0.501311  1
  Cl  Cl11  1  0.162451  0.119452  0.998689  1
  Cl  Cl12  1  0.122330  0.172002  0.484147  1
  Cl  Cl13  1  0.827998  0.877670  0.015853  1
  Cl  Cl14  1  0.144421  0.691086  0.712184  1
  Cl  Cl15  1  0.308914  0.855579  0.787816  1
  Cl  Cl16  1  0.862860  0.292300  0.286599  1
  Cl  Cl17  1  0.707700  0.137140  0.213401  1
  Cl  Cl18  1  0.281815  0.837341  0.323417  1
  Cl  Cl19  1  0.162659  0.718185  0.176583  1
  Cl  Cl20  1  0.708144  0.171726  0.669813  1
  Cl  Cl21  1  0.828274  0.291856  0.830187  1
