# generated using pymatgen
data_TbP2Rh3
_symmetry_space_group_name_H-M   'P 1'
_cell_length_a   3.92833800
_cell_length_b   11.21184700
_cell_length_c   12.79368500
_cell_angle_alpha   90.00000000
_cell_angle_beta   90.00000000
_cell_angle_gamma   90.00000000
_symmetry_Int_Tables_number   1
_chemical_formula_structural   TbP2Rh3
_chemical_formula_sum   'Tb6 P12 Rh18'
_cell_volume   563.48409776
_cell_formula_units_Z   6
loop_
 _symmetry_equiv_pos_site_id
 _symmetry_equiv_pos_as_xyz
  1  'x, y, z'
loop_
 _atom_site_type_symbol
 _atom_site_label
 _atom_site_symmetry_multiplicity
 _atom_site_fract_x
 _atom_site_fract_y
 _atom_site_fract_z
 _atom_site_occupancy
  Tb  Tb0  1  0.000000  0.500000  0.521003  1
  Tb  Tb1  1  0.500000  0.000000  0.478997  1
  Tb  Tb2  1  0.500000  0.814437  0.204938  1
  Tb  Tb3  1  0.500000  0.185563  0.204938  1
  Tb  Tb4  1  0.000000  0.685563  0.795062  1
  Tb  Tb5  1  0.000000  0.314437  0.795062  1
  P  P6  1  0.500000  0.500000  0.878119  1
  P  P7  1  0.000000  0.000000  0.121881  1
  P  P8  1  0.500000  0.500000  0.351326  1
  P  P9  1  0.000000  0.000000  0.648674  1
  P  P10  1  0.500000  0.314989  0.618571  1
  P  P11  1  0.500000  0.685011  0.618571  1
  P  P12  1  0.000000  0.185011  0.381429  1
  P  P13  1  0.000000  0.814989  0.381429  1
  P  P14  1  0.500000  0.846847  0.892847  1
  P  P15  1  0.500000  0.153153  0.892847  1
  P  P16  1  0.000000  0.653153  0.107153  1
  P  P17  1  0.000000  0.346847  0.107153  1
  Rh  Rh18  1  0.500000  0.500000  0.169746  1
  Rh  Rh19  1  0.000000  0.000000  0.830254  1
  Rh  Rh20  1  0.500000  0.500000  0.700805  1
  Rh  Rh21  1  0.000000  0.000000  0.299195  1
  Rh  Rh22  1  0.000000  0.500000  0.979060  1
  Rh  Rh23  1  0.500000  0.000000  0.020940  1
  Rh  Rh24  1  0.500000  0.334355  0.993916  1
  Rh  Rh25  1  0.500000  0.665645  0.993916  1
  Rh  Rh26  1  0.000000  0.165645  0.006084  1
  Rh  Rh27  1  0.000000  0.834355  0.006084  1
  Rh  Rh28  1  0.500000  0.294829  0.431392  1
  Rh  Rh29  1  0.500000  0.705171  0.431392  1
  Rh  Rh30  1  0.000000  0.205171  0.568608  1
  Rh  Rh31  1  0.000000  0.794829  0.568608  1
  Rh  Rh32  1  0.500000  0.873272  0.710815  1
  Rh  Rh33  1  0.500000  0.126728  0.710815  1
  Rh  Rh34  1  0.000000  0.626728  0.289185  1
  Rh  Rh35  1  0.000000  0.373272  0.289185  1
