# generated using pymatgen
data_Li3Gd3Si2Sn
_symmetry_space_group_name_H-M   'P 1'
_cell_length_a   7.18518000
_cell_length_b   7.18517964
_cell_length_c   4.39162000
_cell_angle_alpha   90.00000000
_cell_angle_beta   90.00000000
_cell_angle_gamma   120.00000164
_symmetry_Int_Tables_number   1
_chemical_formula_structural   Li3Gd3Si2Sn
_chemical_formula_sum   'Li3 Gd3 Si2 Sn1'
_cell_volume   196.34988986
_cell_formula_units_Z   1
loop_
 _symmetry_equiv_pos_site_id
 _symmetry_equiv_pos_as_xyz
  1  'x, y, z'
loop_
 _atom_site_type_symbol
 _atom_site_label
 _atom_site_symmetry_multiplicity
 _atom_site_fract_x
 _atom_site_fract_y
 _atom_site_fract_z
 _atom_site_occupancy
  Li  Li0  1  0.757848  0.000000  0.500001  1
  Li  Li1  1  0.242151  0.242152  0.500001  1
  Li  Li2  1  0.000000  0.757848  0.500001  1
  Gd  Gd3  1  0.445108  0.000000  0.000000  1
  Gd  Gd4  1  0.000000  0.445109  0.000000  1
  Gd  Gd5  1  0.554892  0.554892  0.000000  1
  Si  Si6  1  0.666666  0.333333  0.500001  1
  Si  Si7  1  0.333333  0.666667  0.500001  1
  Sn  Sn8  1  0.000000  0.000000  0.000000  1
