# generated using pymatgen
data_Y8AsAuI12
_symmetry_space_group_name_H-M   'P 1'
_cell_length_a   4.23738100
_cell_length_b   13.98039730
_cell_length_c   14.78650700
_cell_angle_alpha   89.96713578
_cell_angle_beta   90.00000000
_cell_angle_gamma   90.00000000
_symmetry_Int_Tables_number   1
_chemical_formula_structural   Y8AsAuI12
_chemical_formula_sum   'Y8 As1 Au1 I12'
_cell_volume   875.95652132
_cell_formula_units_Z   1
loop_
 _symmetry_equiv_pos_site_id
 _symmetry_equiv_pos_as_xyz
  1  'x, y, z'
loop_
 _atom_site_type_symbol
 _atom_site_label
 _atom_site_symmetry_multiplicity
 _atom_site_fract_x
 _atom_site_fract_y
 _atom_site_fract_z
 _atom_site_occupancy
  Y  Y0  1  0.500000  0.114604  0.346737  1
  Y  Y1  1  0.500000  0.885396  0.653263  1
  Y  Y2  1  0.500000  0.617511  0.156075  1
  Y  Y3  1  0.500000  0.382489  0.843925  1
  Y  Y4  1  0.000000  0.109352  0.573478  1
  Y  Y5  1  0.000000  0.890648  0.426522  1
  Y  Y6  1  0.000000  0.612852  0.924136  1
  Y  Y7  1  0.000000  0.387148  0.075864  1
  As  As8  1  0.500000  0.000000  0.500000  1
  Au  Au9  1  0.500000  0.500000  0.000000  1
  I  I10  1  0.500000  0.243525  0.165225  1
  I  I11  1  0.500000  0.756475  0.834775  1
  I  I12  1  0.500000  0.748277  0.339884  1
  I  I13  1  0.500000  0.251723  0.660116  1
  I  I14  1  0.000000  0.258005  0.415218  1
  I  I15  1  0.000000  0.741995  0.584782  1
  I  I16  1  0.000000  0.763881  0.087275  1
  I  I17  1  0.000000  0.236119  0.912725  1
  I  I18  1  0.000000  0.999060  0.241526  1
  I  I19  1  0.000000  0.000940  0.758474  1
  I  I20  1  0.000000  0.500766  0.265162  1
  I  I21  1  0.000000  0.499234  0.734838  1
