# generated using pymatgen
data_Tb2Nd2B4I5
_symmetry_space_group_name_H-M   'P 1'
_cell_length_a   9.77530273
_cell_length_b   9.77530234
_cell_length_c   9.80347896
_cell_angle_alpha   75.32434009
_cell_angle_beta   75.32434086
_cell_angle_gamma   25.45464261
_symmetry_Int_Tables_number   1
_chemical_formula_structural   Tb2Nd2B4I5
_chemical_formula_sum   'Tb2 Nd2 B4 I5'
_cell_volume   388.81000133
_cell_formula_units_Z   1
loop_
 _symmetry_equiv_pos_site_id
 _symmetry_equiv_pos_as_xyz
  1  'x, y, z'
loop_
 _atom_site_type_symbol
 _atom_site_label
 _atom_site_symmetry_multiplicity
 _atom_site_fract_x
 _atom_site_fract_y
 _atom_site_fract_z
 _atom_site_occupancy
  Tb  Tb0  1  0.503603  0.503603  0.753676  1
  Tb  Tb1  1  0.498254  0.498254  0.245168  1
  Nd  Nd2  1  0.133735  0.133735  0.931759  1
  Nd  Nd3  1  0.867957  0.867957  0.066900  1
  B  B4  1  0.315568  0.686115  0.999471  1
  B  B5  1  0.686115  0.315568  0.999471  1
  B  B6  1  0.000652  0.000652  0.096903  1
  B  B7  1  0.000981  0.000981  0.902043  1
  I  I8  1  0.672691  0.672691  0.672615  1
  I  I9  1  0.329229  0.329229  0.326579  1
  I  I10  1  0.330105  0.330105  0.841245  1
  I  I11  1  0.672008  0.672008  0.156327  1
  I  I12  1  0.003405  0.003405  0.498041  1
