# generated using pymatgen
data_Dy4Y2NbCo17P12
_symmetry_space_group_name_H-M   'P 1'
_cell_length_a   3.69612600
_cell_length_b   10.55070800
_cell_length_c   12.25638300
_cell_angle_alpha   90.00000000
_cell_angle_beta   90.00000000
_cell_angle_gamma   90.00000000
_symmetry_Int_Tables_number   1
_chemical_formula_structural   Dy4Y2NbCo17P12
_chemical_formula_sum   'Dy4 Y2 Nb1 Co17 P12'
_cell_volume   477.95905666
_cell_formula_units_Z   1
loop_
 _symmetry_equiv_pos_site_id
 _symmetry_equiv_pos_as_xyz
  1  'x, y, z'
loop_
 _atom_site_type_symbol
 _atom_site_label
 _atom_site_symmetry_multiplicity
 _atom_site_fract_x
 _atom_site_fract_y
 _atom_site_fract_z
 _atom_site_occupancy
  Dy  Dy0  1  0.500000  0.819582  0.207132  1
  Dy  Dy1  1  0.500000  0.180418  0.207132  1
  Dy  Dy2  1  0.000000  0.682879  0.795857  1
  Dy  Dy3  1  0.000000  0.317121  0.795857  1
  Y  Y4  1  0.000000  0.500000  0.526625  1
  Y  Y5  1  0.500000  0.000000  0.477949  1
  Nb  Nb6  1  0.500000  0.500000  0.154541  1
  Co  Co7  1  0.000000  0.000000  0.838702  1
  Co  Co8  1  0.500000  0.500000  0.702488  1
  Co  Co9  1  0.000000  0.000000  0.296188  1
  Co  Co10  1  0.000000  0.500000  0.984185  1
  Co  Co11  1  0.500000  0.000000  0.014309  1
  Co  Co12  1  0.500000  0.329666  0.989395  1
  Co  Co13  1  0.500000  0.670334  0.989395  1
  Co  Co14  1  0.000000  0.163629  0.003852  1
  Co  Co15  1  0.000000  0.836371  0.003852  1
  Co  Co16  1  0.500000  0.295171  0.433011  1
  Co  Co17  1  0.500000  0.704829  0.433011  1
  Co  Co18  1  0.000000  0.202380  0.569896  1
  Co  Co19  1  0.000000  0.797620  0.569896  1
  Co  Co20  1  0.500000  0.879755  0.708420  1
  Co  Co21  1  0.500000  0.120245  0.708420  1
  Co  Co22  1  0.000000  0.622831  0.294471  1
  Co  Co23  1  0.000000  0.377169  0.294471  1
  P  P24  1  0.500000  0.500000  0.881024  1
  P  P25  1  0.000000  0.000000  0.116941  1
  P  P26  1  0.500000  0.500000  0.355378  1
  P  P27  1  0.000000  0.000000  0.656036  1
  P  P28  1  0.500000  0.309528  0.617385  1
  P  P29  1  0.500000  0.690472  0.617385  1
  P  P30  1  0.000000  0.188488  0.385748  1
  P  P31  1  0.000000  0.811512  0.385748  1
  P  P32  1  0.500000  0.851444  0.890113  1
  P  P33  1  0.500000  0.148556  0.890113  1
  P  P34  1  0.000000  0.661004  0.102535  1
  P  P35  1  0.000000  0.338996  0.102535  1
