# generated using pymatgen
data_AsPd3(SeO3)8
_symmetry_space_group_name_H-M   'P 1'
_cell_length_a   8.05901935
_cell_length_b   8.05901835
_cell_length_c   8.05901934
_cell_angle_alpha   90.25870898
_cell_angle_beta   89.74129522
_cell_angle_gamma   90.25870210
_symmetry_Int_Tables_number   1
_chemical_formula_structural   AsPd3(SeO3)8
_chemical_formula_sum   'As1 Pd3 Se8 O24'
_cell_volume   523.39949487
_cell_formula_units_Z   1
loop_
 _symmetry_equiv_pos_site_id
 _symmetry_equiv_pos_as_xyz
  1  'x, y, z'
loop_
 _atom_site_type_symbol
 _atom_site_label
 _atom_site_symmetry_multiplicity
 _atom_site_fract_x
 _atom_site_fract_y
 _atom_site_fract_z
 _atom_site_occupancy
  As  As0  1  0.000000  0.500000  0.500000  1
  Pd  Pd1  1  0.500000  0.500000  0.000000  1
  Pd  Pd2  1  0.500000  0.000000  0.500000  1
  Pd  Pd3  1  0.000000  0.000000  0.000000  1
  Se  Se4  1  0.832384  0.170657  0.669701  1
  Se  Se5  1  0.167616  0.829343  0.330299  1
  Se  Se6  1  0.670657  0.669701  0.667616  1
  Se  Se7  1  0.169701  0.667616  0.829343  1
  Se  Se8  1  0.338967  0.161033  0.838967  1
  Se  Se9  1  0.830299  0.332384  0.170657  1
  Se  Se10  1  0.661033  0.838967  0.161033  1
  Se  Se11  1  0.329343  0.330299  0.332384  1
  O  O12  1  0.229916  0.472882  0.473309  1
  O  O13  1  0.976884  0.251310  0.034923  1
  O  O14  1  0.026691  0.729916  0.472882  1
  O  O15  1  0.474847  0.249232  0.983714  1
  O  O16  1  0.248690  0.965077  0.476884  1
  O  O17  1  0.534923  0.523116  0.748690  1
  O  O18  1  0.979175  0.036238  0.749299  1
  O  O19  1  0.525153  0.750768  0.016286  1
  O  O20  1  0.516286  0.974847  0.249232  1
  O  O21  1  0.483714  0.025153  0.750768  1
  O  O22  1  0.749232  0.983714  0.025153  1
  O  O23  1  0.249299  0.520825  0.963762  1
  O  O24  1  0.027118  0.526691  0.729916  1
  O  O25  1  0.020825  0.963762  0.250701  1
  O  O26  1  0.250768  0.016286  0.974847  1
  O  O27  1  0.465077  0.476884  0.251310  1
  O  O28  1  0.770084  0.527118  0.526691  1
  O  O29  1  0.972882  0.473309  0.270084  1
  O  O30  1  0.023116  0.748690  0.965077  1
  O  O31  1  0.463762  0.250701  0.479175  1
  O  O32  1  0.536238  0.749299  0.520825  1
  O  O33  1  0.973309  0.270084  0.527118  1
  O  O34  1  0.751310  0.034923  0.523116  1
  O  O35  1  0.750701  0.479175  0.036238  1
