# generated using pymatgen
data_DyLu(Al3Ni)6
_symmetry_space_group_name_H-M   'P 1'
_cell_length_a   10.08356195
_cell_length_b   10.08356159
_cell_length_c   10.08356300
_cell_angle_alpha   42.49049047
_cell_angle_beta   42.49049268
_cell_angle_gamma   42.49049221
_symmetry_Int_Tables_number   1
_chemical_formula_structural   DyLu(Al3Ni)6
_chemical_formula_sum   'Dy1 Lu1 Al18 Ni6'
_cell_volume   423.56720554
_cell_formula_units_Z   1
loop_
 _symmetry_equiv_pos_site_id
 _symmetry_equiv_pos_as_xyz
  1  'x, y, z'
loop_
 _atom_site_type_symbol
 _atom_site_label
 _atom_site_symmetry_multiplicity
 _atom_site_fract_x
 _atom_site_fract_y
 _atom_site_fract_z
 _atom_site_occupancy
  Dy  Dy0  1  0.166843  0.166843  0.166843  1
  Lu  Lu1  1  0.833110  0.833110  0.833110  1
  Al  Al2  1  0.102389  0.433455  0.761893  1
  Al  Al3  1  0.433455  0.761893  0.102389  1
  Al  Al4  1  0.568556  0.896672  0.237069  1
  Al  Al5  1  0.947947  0.947947  0.947947  1
  Al  Al6  1  0.051970  0.051970  0.051970  1
  Al  Al7  1  0.289934  0.707519  0.502553  1
  Al  Al8  1  0.896672  0.237069  0.568556  1
  Al  Al9  1  0.387031  0.387031  0.387031  1
  Al  Al10  1  0.502553  0.289934  0.707519  1
  Al  Al11  1  0.237069  0.568556  0.896672  1
  Al  Al12  1  0.718346  0.718346  0.718346  1
  Al  Al13  1  0.612937  0.612937  0.612937  1
  Al  Al14  1  0.334500  0.999544  0.665954  1
  Al  Al15  1  0.707519  0.502553  0.289934  1
  Al  Al16  1  0.665954  0.334500  0.999544  1
  Al  Al17  1  0.281753  0.281753  0.281753  1
  Al  Al18  1  0.999544  0.665954  0.334500  1
  Al  Al19  1  0.761893  0.102389  0.433455  1
  Ni  Ni20  1  0.418631  0.078132  0.758657  1
  Ni  Ni21  1  0.581646  0.241247  0.921709  1
  Ni  Ni22  1  0.078132  0.758657  0.418631  1
  Ni  Ni23  1  0.758657  0.418631  0.078132  1
  Ni  Ni24  1  0.921709  0.581646  0.241247  1
  Ni  Ni25  1  0.241247  0.921709  0.581646  1
