# generated using pymatgen
data_KLiSe2O7
_symmetry_space_group_name_H-M   'P 1'
_cell_length_a   5.68467986
_cell_length_b   7.80627213
_cell_length_c   7.99771726
_cell_angle_alpha   102.83656349
_cell_angle_beta   93.00341171
_cell_angle_gamma   96.05250707
_symmetry_Int_Tables_number   1
_chemical_formula_structural   KLiSe2O7
_chemical_formula_sum   'K2 Li2 Se4 O14'
_cell_volume   343.05531756
_cell_formula_units_Z   2
loop_
 _symmetry_equiv_pos_site_id
 _symmetry_equiv_pos_as_xyz
  1  'x, y, z'
loop_
 _atom_site_type_symbol
 _atom_site_label
 _atom_site_symmetry_multiplicity
 _atom_site_fract_x
 _atom_site_fract_y
 _atom_site_fract_z
 _atom_site_occupancy
  K  K0  1  0.199392  0.787917  0.424311  1
  K  K1  1  0.800608  0.212083  0.575689  1
  Li  Li2  1  0.197094  0.597452  0.880593  1
  Li  Li3  1  0.802906  0.402548  0.119407  1
  Se  Se4  1  0.697214  0.711019  0.698983  1
  Se  Se5  1  0.693069  0.803207  0.103792  1
  Se  Se6  1  0.306931  0.196793  0.896208  1
  Se  Se7  1  0.302786  0.288981  0.301017  1
  O  O8  1  0.734515  0.876882  0.903761  1
  O  O9  1  0.587262  0.282036  0.906658  1
  O  O10  1  0.883671  0.656279  0.105340  1
  O  O11  1  0.565840  0.402150  0.305476  1
  O  O12  1  0.265485  0.123118  0.096239  1
  O  O13  1  0.412738  0.717964  0.093342  1
  O  O14  1  0.116329  0.343721  0.894660  1
  O  O15  1  0.434160  0.597850  0.694524  1
  O  O16  1  0.078680  0.407398  0.299697  1
  O  O17  1  0.287378  0.164038  0.441648  1
  O  O18  1  0.234090  0.010231  0.755148  1
  O  O19  1  0.712622  0.835962  0.558352  1
  O  O20  1  0.921320  0.592602  0.700303  1
  O  O21  1  0.765910  0.989769  0.244852  1
