# generated using pymatgen
data_Y4Lu4Mn(FeB8)3
_symmetry_space_group_name_H-M   'P 1'
_cell_length_a   3.51405100
_cell_length_b   9.02798688
_cell_length_c   11.41664637
_cell_angle_alpha   90.07387506
_cell_angle_beta   90.00000000
_cell_angle_gamma   90.00000000
_symmetry_Int_Tables_number   1
_chemical_formula_structural   Y4Lu4Mn(FeB8)3
_chemical_formula_sum   'Y4 Lu4 Mn1 Fe3 B24'
_cell_volume   362.19059381
_cell_formula_units_Z   1
loop_
 _symmetry_equiv_pos_site_id
 _symmetry_equiv_pos_as_xyz
  1  'x, y, z'
loop_
 _atom_site_type_symbol
 _atom_site_label
 _atom_site_symmetry_multiplicity
 _atom_site_fract_x
 _atom_site_fract_y
 _atom_site_fract_z
 _atom_site_occupancy
  Y  Y0  1  0.000000  0.825084  0.086180  1
  Y  Y1  1  0.000000  0.176009  0.916189  1
  Y  Y2  1  0.000000  0.322499  0.412942  1
  Y  Y3  1  0.000000  0.676072  0.584904  1
  Lu  Lu4  1  0.000000  0.442627  0.129945  1
  Lu  Lu5  1  0.000000  0.557511  0.869505  1
  Lu  Lu6  1  0.000000  0.943731  0.369666  1
  Lu  Lu7  1  0.000000  0.057106  0.630711  1
  Mn  Mn8  1  0.000000  0.139260  0.180543  1
  Fe  Fe9  1  0.000000  0.860173  0.818861  1
  Fe  Fe10  1  0.000000  0.639398  0.319701  1
  Fe  Fe11  1  0.000000  0.360729  0.680672  1
  B  B12  1  0.500000  0.054548  0.068560  1
  B  B13  1  0.500000  0.945110  0.931294  1
  B  B14  1  0.500000  0.554985  0.431262  1
  B  B15  1  0.500000  0.444831  0.568500  1
  B  B16  1  0.500000  0.247920  0.082835  1
  B  B17  1  0.500000  0.752189  0.917302  1
  B  B18  1  0.500000  0.748051  0.417408  1
  B  B19  1  0.500000  0.251816  0.582628  1
  B  B20  1  0.500000  0.290891  0.234007  1
  B  B21  1  0.500000  0.709538  0.765956  1
  B  B22  1  0.500000  0.790536  0.266195  1
  B  B23  1  0.500000  0.209862  0.734211  1
  B  B24  1  0.500000  0.131097  0.313953  1
  B  B25  1  0.500000  0.868713  0.685546  1
  B  B26  1  0.500000  0.631223  0.185942  1
  B  B27  1  0.500000  0.369002  0.814518  1
  B  B28  1  0.500000  0.485286  0.287583  1
  B  B29  1  0.500000  0.514388  0.712231  1
  B  B30  1  0.500000  0.984941  0.212437  1
  B  B31  1  0.500000  0.014288  0.787606  1
  B  B32  1  0.500000  0.103267  0.472267  1
  B  B33  1  0.500000  0.896555  0.528457  1
  B  B34  1  0.500000  0.603549  0.028093  1
  B  B35  1  0.500000  0.397216  0.971391  1
