# generated using pymatgen
data_Yb2Y3Tm3(B6Ru)4
_symmetry_space_group_name_H-M   'P 1'
_cell_length_a   3.63952600
_cell_length_b   9.12127253
_cell_length_c   11.51854010
_cell_angle_alpha   89.85922641
_cell_angle_beta   90.00000000
_cell_angle_gamma   90.00000000
_symmetry_Int_Tables_number   1
_chemical_formula_structural   Yb2Y3Tm3(B6Ru)4
_chemical_formula_sum   'Yb2 Y3 Tm3 B24 Ru4'
_cell_volume   382.38107157
_cell_formula_units_Z   1
loop_
 _symmetry_equiv_pos_site_id
 _symmetry_equiv_pos_as_xyz
  1  'x, y, z'
loop_
 _atom_site_type_symbol
 _atom_site_label
 _atom_site_symmetry_multiplicity
 _atom_site_fract_x
 _atom_site_fract_y
 _atom_site_fract_z
 _atom_site_occupancy
  Yb  Yb0  1  0.000000  0.325009  0.415016  1
  Yb  Yb1  1  0.000000  0.674925  0.585295  1
  Y  Y2  1  0.000000  0.821743  0.085688  1
  Y  Y3  1  0.000000  0.178271  0.913933  1
  Y  Y4  1  0.000000  0.942087  0.370573  1
  Tm  Tm5  1  0.000000  0.058518  0.630848  1
  Tm  Tm6  1  0.000000  0.442731  0.130698  1
  Tm  Tm7  1  0.000000  0.557302  0.868927  1
  B  B8  1  0.500000  0.553507  0.432437  1
  B  B9  1  0.500000  0.445596  0.567793  1
  B  B10  1  0.500000  0.054304  0.066754  1
  B  B11  1  0.500000  0.945880  0.932696  1
  B  B12  1  0.500000  0.746955  0.417843  1
  B  B13  1  0.500000  0.251635  0.582373  1
  B  B14  1  0.500000  0.249505  0.081546  1
  B  B15  1  0.500000  0.750819  0.918132  1
  B  B16  1  0.500000  0.790032  0.264386  1
  B  B17  1  0.500000  0.208983  0.735297  1
  B  B18  1  0.500000  0.291151  0.234484  1
  B  B19  1  0.500000  0.709367  0.765267  1
  B  B20  1  0.500000  0.630088  0.184784  1
  B  B21  1  0.500000  0.369557  0.814936  1
  B  B22  1  0.500000  0.131581  0.313950  1
  B  B23  1  0.500000  0.869532  0.685677  1
  B  B24  1  0.500000  0.983709  0.211228  1
  B  B25  1  0.500000  0.016848  0.787974  1
  B  B26  1  0.500000  0.482990  0.287830  1
  B  B27  1  0.500000  0.516591  0.712013  1
  B  B28  1  0.500000  0.601534  0.027744  1
  B  B29  1  0.500000  0.398448  0.971948  1
  B  B30  1  0.500000  0.100104  0.473811  1
  B  B31  1  0.500000  0.901132  0.528697  1
  Ru  Ru32  1  0.000000  0.638429  0.318516  1
  Ru  Ru33  1  0.000000  0.360350  0.681570  1
  Ru  Ru34  1  0.000000  0.138498  0.178102  1
  Ru  Ru35  1  0.000000  0.862289  0.821236  1
