# generated using pymatgen
data_Sr4Hf3SnO12
_symmetry_space_group_name_H-M   'P 1'
_cell_length_a   5.82725367
_cell_length_b   8.21168931
_cell_length_c   5.78314960
_cell_angle_alpha   89.89129426
_cell_angle_beta   90.06620244
_cell_angle_gamma   90.02817416
_symmetry_Int_Tables_number   1
_chemical_formula_structural   Sr4Hf3SnO12
_chemical_formula_sum   'Sr4 Hf3 Sn1 O12'
_cell_volume   276.73222620
_cell_formula_units_Z   1
loop_
 _symmetry_equiv_pos_site_id
 _symmetry_equiv_pos_as_xyz
  1  'x, y, z'
loop_
 _atom_site_type_symbol
 _atom_site_label
 _atom_site_symmetry_multiplicity
 _atom_site_fract_x
 _atom_site_fract_y
 _atom_site_fract_z
 _atom_site_occupancy
  Sr  Sr0  1  0.471829  0.250117  0.494309  1
  Sr  Sr1  1  0.971557  0.249837  0.004361  1
  Sr  Sr2  1  0.528171  0.749883  0.505691  1
  Sr  Sr3  1  0.028443  0.750163  0.995639  1
  Hf  Hf4  1  0.000000  0.500000  0.500000  1
  Hf  Hf5  1  0.500000  0.500000  0.000000  1
  Hf  Hf6  1  0.000000  0.000000  0.500000  1
  Sn  Sn7  1  0.500000  0.000000  0.000000  1
  O  O8  1  0.716262  0.036644  0.285236  1
  O  O9  1  0.213614  0.468178  0.213232  1
  O  O10  1  0.286397  0.534198  0.713710  1
  O  O11  1  0.785390  0.966363  0.784619  1
  O  O12  1  0.283738  0.963356  0.714764  1
  O  O13  1  0.786386  0.531822  0.786768  1
  O  O14  1  0.713603  0.465802  0.286290  1
  O  O15  1  0.214610  0.033637  0.215381  1
  O  O16  1  0.018097  0.250115  0.563885  1
  O  O17  1  0.513533  0.250367  0.933331  1
  O  O18  1  0.981903  0.749885  0.436115  1
  O  O19  1  0.486467  0.749633  0.066669  1
