# generated using pymatgen
data_Ce2Dy3Tc2
_symmetry_space_group_name_H-M   'P 1'
_cell_length_a   6.35600918
_cell_length_b   7.13313505
_cell_length_c   8.82653479
_cell_angle_alpha   95.99400506
_cell_angle_beta   111.10332812
_cell_angle_gamma   90.00000616
_symmetry_Int_Tables_number   1
_chemical_formula_structural   Ce2Dy3Tc2
_chemical_formula_sum   'Ce4 Dy6 Tc4'
_cell_volume   370.99472481
_cell_formula_units_Z   2
loop_
 _symmetry_equiv_pos_site_id
 _symmetry_equiv_pos_as_xyz
  1  'x, y, z'
loop_
 _atom_site_type_symbol
 _atom_site_label
 _atom_site_symmetry_multiplicity
 _atom_site_fract_x
 _atom_site_fract_y
 _atom_site_fract_z
 _atom_site_occupancy
  Ce  Ce0  1  0.795505  0.597398  0.808744  1
  Ce  Ce1  1  0.986763  0.902602  0.191256  1
  Ce  Ce2  1  0.204495  0.402602  0.191256  1
  Ce  Ce3  1  0.013237  0.097398  0.808744  1
  Dy  Dy4  1  0.211463  0.689620  0.571345  1
  Dy  Dy5  1  0.640118  0.810380  0.428655  1
  Dy  Dy6  1  0.788537  0.310380  0.428655  1
  Dy  Dy7  1  0.359882  0.189620  0.571345  1
  Dy  Dy8  1  0.425823  0.750000  0.000000  1
  Dy  Dy9  1  0.574177  0.250000  0.000000  1
  Tc  Tc10  1  0.647095  0.904710  0.781145  1
  Tc  Tc11  1  0.865949  0.595290  0.218855  1
  Tc  Tc12  1  0.352905  0.095290  0.218855  1
  Tc  Tc13  1  0.134051  0.404710  0.781145  1
