# generated using pymatgen
data_Tb3Y3Tm6Co5Bi
_symmetry_space_group_name_H-M   'P 1'
_cell_length_a   8.27364374
_cell_length_b   8.27559937
_cell_length_c   8.25680451
_cell_angle_alpha   110.93365514
_cell_angle_beta   110.66644507
_cell_angle_gamma   106.96007868
_symmetry_Int_Tables_number   1
_chemical_formula_structural   Tb3Y3Tm6Co5Bi
_chemical_formula_sum   'Tb3 Y3 Tm6 Co5 Bi1'
_cell_volume   433.92454202
_cell_formula_units_Z   1
loop_
 _symmetry_equiv_pos_site_id
 _symmetry_equiv_pos_as_xyz
  1  'x, y, z'
loop_
 _atom_site_type_symbol
 _atom_site_label
 _atom_site_symmetry_multiplicity
 _atom_site_fract_x
 _atom_site_fract_y
 _atom_site_fract_z
 _atom_site_occupancy
  Tb  Tb0  1  0.402513  0.207069  0.194579  1
  Tb  Tb1  1  0.986927  0.792378  0.193712  1
  Tb  Tb2  1  0.010935  0.206456  0.806057  1
  Y  Y3  1  0.814600  0.710099  0.525726  1
  Y  Y4  1  0.185157  0.290612  0.474917  1
  Y  Y5  1  0.185895  0.709581  0.894630  1
  Tm  Tm6  1  0.816367  0.289010  0.106383  1
  Tm  Tm7  1  0.687431  0.377354  0.690098  1
  Tm  Tm8  1  0.312628  0.623206  0.311674  1
  Tm  Tm9  1  0.687427  0.998477  0.309324  1
  Tm  Tm10  1  0.314553  0.002109  0.690615  1
  Tm  Tm11  1  0.599115  0.794781  0.805947  1
  Co  Co12  1  0.622929  0.999621  0.624187  1
  Co  Co13  1  0.378076  0.000648  0.377694  1
  Co  Co14  1  0.111842  0.611223  0.498368  1
  Co  Co15  1  0.886520  0.387029  0.497244  1
  Co  Co16  1  0.997204  0.999614  0.999427  1
  Bi  Bi17  1  0.499879  0.500732  0.999418  1
