# generated using pymatgen
data_SnPd6
_symmetry_space_group_name_H-M   'P 1'
_cell_length_a   4.89661630
_cell_length_b   4.89817546
_cell_length_c   4.89862953
_cell_angle_alpha   99.45570952
_cell_angle_beta   99.34787855
_cell_angle_gamma   99.54153069
_symmetry_Int_Tables_number   1
_chemical_formula_structural   SnPd6
_chemical_formula_sum   'Sn1 Pd6'
_cell_volume   112.09807110
_cell_formula_units_Z   1
loop_
 _symmetry_equiv_pos_site_id
 _symmetry_equiv_pos_as_xyz
  1  'x, y, z'
loop_
 _atom_site_type_symbol
 _atom_site_label
 _atom_site_symmetry_multiplicity
 _atom_site_fract_x
 _atom_site_fract_y
 _atom_site_fract_z
 _atom_site_occupancy
  Sn  Sn0  1  0.766142  0.660123  0.563475  1
  Pd  Pd1  1  0.053825  0.804431  0.136049  1
  Pd  Pd2  1  0.337437  0.949839  0.706824  1
  Pd  Pd3  1  0.908388  0.233195  0.851095  1
  Pd  Pd4  1  0.477988  0.518331  0.990543  1
  Pd  Pd5  1  0.623247  0.088406  0.276541  1
  Pd  Pd6  1  0.194269  0.373801  0.419784  1
