# generated using pymatgen
data_Sm2V3Co9As6P
_symmetry_space_group_name_H-M   'P 1'
_cell_length_a   9.38176700
_cell_length_b   9.38176864
_cell_length_c   3.79120900
_cell_angle_alpha   90.00000000
_cell_angle_beta   90.00000000
_cell_angle_gamma   120.00001186
_symmetry_Int_Tables_number   1
_chemical_formula_structural   Sm2V3Co9As6P
_chemical_formula_sum   'Sm2 V3 Co9 As6 P1'
_cell_volume   288.98657502
_cell_formula_units_Z   1
loop_
 _symmetry_equiv_pos_site_id
 _symmetry_equiv_pos_as_xyz
  1  'x, y, z'
loop_
 _atom_site_type_symbol
 _atom_site_label
 _atom_site_symmetry_multiplicity
 _atom_site_fract_x
 _atom_site_fract_y
 _atom_site_fract_z
 _atom_site_occupancy
  Sm  Sm0  1  0.333333  0.666667  0.000000  1
  Sm  Sm1  1  0.666667  0.333333  0.500000  1
  V  V2  1  0.206555  0.109757  0.500000  1
  V  V3  1  0.890243  0.096799  0.500000  1
  V  V4  1  0.903201  0.793445  0.500000  1
  Co  Co5  1  0.429592  0.373118  0.000000  1
  Co  Co6  1  0.626882  0.056475  0.000000  1
  Co  Co7  1  0.943525  0.570408  0.000000  1
  Co  Co8  1  0.149548  0.882452  0.000000  1
  Co  Co9  1  0.117548  0.267098  0.000000  1
  Co  Co10  1  0.732902  0.850452  0.000000  1
  Co  Co11  1  0.378266  0.950231  0.500000  1
  Co  Co12  1  0.049769  0.428035  0.500000  1
  Co  Co13  1  0.571965  0.621734  0.500000  1
  As  As14  1  0.408486  0.112881  0.000000  1
  As  As15  1  0.887119  0.295604  0.000000  1
  As  As16  1  0.704396  0.591514  0.000000  1
  As  As17  1  0.112753  0.706754  0.500000  1
  As  As18  1  0.293246  0.405998  0.500000  1
  As  As19  1  0.594002  0.887247  0.500000  1
  P  P20  1  0.000000  0.000000  0.000000  1
