# generated using pymatgen
data_Cs3Nb2AsS11
_symmetry_space_group_name_H-M   'P 1'
_cell_length_a   10.27258594
_cell_length_b   10.27258600
_cell_length_c   10.12237458
_cell_angle_alpha   85.31017804
_cell_angle_beta   85.31017972
_cell_angle_gamma   85.80754731
_symmetry_Int_Tables_number   1
_chemical_formula_structural   Cs3Nb2AsS11
_chemical_formula_sum   'Cs6 Nb4 As2 S22'
_cell_volume   1058.65841831
_cell_formula_units_Z   2
loop_
 _symmetry_equiv_pos_site_id
 _symmetry_equiv_pos_as_xyz
  1  'x, y, z'
loop_
 _atom_site_type_symbol
 _atom_site_label
 _atom_site_symmetry_multiplicity
 _atom_site_fract_x
 _atom_site_fract_y
 _atom_site_fract_z
 _atom_site_occupancy
  Cs  Cs0  1  0.302894  0.459743  0.339795  1
  Cs  Cs1  1  0.459743  0.302894  0.839795  1
  Cs  Cs2  1  0.566319  0.700797  0.670054  1
  Cs  Cs3  1  0.700797  0.566319  0.170054  1
  Cs  Cs4  1  0.933097  0.095004  0.926327  1
  Cs  Cs5  1  0.095004  0.933097  0.426327  1
  Nb  Nb6  1  0.203938  0.663179  0.944507  1
  Nb  Nb7  1  0.663179  0.203938  0.444507  1
  Nb  Nb8  1  0.954315  0.537085  0.761899  1
  Nb  Nb9  1  0.537085  0.954315  0.261899  1
  As  As10  1  0.999493  0.327918  0.510084  1
  As  As11  1  0.327918  0.999493  0.010084  1
  S  S12  1  0.213885  0.636261  0.701180  1
  S  S13  1  0.636261  0.213885  0.201180  1
  S  S14  1  0.228894  0.826575  0.753405  1
  S  S15  1  0.826575  0.228894  0.253405  1
  S  S16  1  0.405132  0.588742  0.997222  1
  S  S17  1  0.588742  0.405132  0.497222  1
  S  S18  1  0.112409  0.344458  0.695417  1
  S  S19  1  0.344458  0.112409  0.195417  1
  S  S20  1  0.562697  0.056338  0.625427  1
  S  S21  1  0.056338  0.562697  0.125427  1
  S  S22  1  0.776085  0.437122  0.845217  1
  S  S23  1  0.437122  0.776085  0.345217  1
  S  S24  1  0.916013  0.536837  0.519599  1
  S  S25  1  0.536837  0.916013  0.019599  1
  S  S26  1  0.890547  0.771395  0.709737  1
  S  S27  1  0.771395  0.890547  0.209737  1
  S  S28  1  0.851707  0.181039  0.592560  1
  S  S29  1  0.181039  0.851707  0.092560  1
  S  S30  1  0.094435  0.448293  0.964687  1
  S  S31  1  0.448293  0.094435  0.464687  1
  S  S32  1  0.934301  0.723552  0.904233  1
  S  S33  1  0.723552  0.934301  0.404233  1
