# generated using pymatgen
data_Tb3Pr2Zr3(As3Pd4)4
_symmetry_space_group_name_H-M   'P 1'
_cell_length_a   13.59650400
_cell_length_b   13.59650325
_cell_length_c   4.12970600
_cell_angle_alpha   90.00000000
_cell_angle_beta   90.00000000
_cell_angle_gamma   120.00000183
_symmetry_Int_Tables_number   1
_chemical_formula_structural   Tb3Pr2Zr3(As3Pd4)4
_chemical_formula_sum   'Tb3 Pr2 Zr3 As12 Pd16'
_cell_volume   661.15645743
_cell_formula_units_Z   1
loop_
 _symmetry_equiv_pos_site_id
 _symmetry_equiv_pos_as_xyz
  1  'x, y, z'
loop_
 _atom_site_type_symbol
 _atom_site_label
 _atom_site_symmetry_multiplicity
 _atom_site_fract_x
 _atom_site_fract_y
 _atom_site_fract_z
 _atom_site_occupancy
  Tb  Tb0  1  0.190577  0.190577  0.500000  1
  Tb  Tb1  1  0.809423  0.000000  0.500000  1
  Tb  Tb2  1  0.000000  0.809423  0.500000  1
  Pr  Pr3  1  0.333333  0.666667  0.000000  1
  Pr  Pr4  1  0.666667  0.333333  0.000000  1
  Zr  Zr5  1  0.557352  0.557352  0.000000  1
  Zr  Zr6  1  0.442648  0.000000  0.000000  1
  Zr  Zr7  1  0.000000  0.442648  0.000000  1
  As  As8  1  0.826483  0.826483  0.000000  1
  As  As9  1  0.173517  0.000000  0.000000  1
  As  As10  1  0.000000  0.173517  0.000000  1
  As  As11  1  0.165178  0.481120  0.500000  1
  As  As12  1  0.518880  0.684058  0.500000  1
  As  As13  1  0.315942  0.834822  0.500000  1
  As  As14  1  0.684058  0.518880  0.500000  1
  As  As15  1  0.834822  0.315942  0.500000  1
  As  As16  1  0.481120  0.165178  0.500000  1
  As  As17  1  0.358095  0.358095  0.000000  1
  As  As18  1  0.641905  0.000000  0.000000  1
  As  As19  1  0.000000  0.641905  0.000000  1
  Pd  Pd20  1  0.723655  0.723655  0.500000  1
  Pd  Pd21  1  0.276345  0.000000  0.500000  1
  Pd  Pd22  1  0.000000  0.276345  0.500000  1
  Pd  Pd23  1  0.179910  0.370172  0.000000  1
  Pd  Pd24  1  0.629828  0.809738  0.000000  1
  Pd  Pd25  1  0.190262  0.820090  0.000000  1
  Pd  Pd26  1  0.809738  0.629828  0.000000  1
  Pd  Pd27  1  0.820090  0.190262  0.000000  1
  Pd  Pd28  1  0.370172  0.179910  0.000000  1
  Pd  Pd29  1  0.358032  0.482633  0.500000  1
  Pd  Pd30  1  0.517367  0.875399  0.500000  1
  Pd  Pd31  1  0.124601  0.641968  0.500000  1
  Pd  Pd32  1  0.875399  0.517367  0.500000  1
  Pd  Pd33  1  0.641968  0.124601  0.500000  1
  Pd  Pd34  1  0.482633  0.358032  0.500000  1
  Pd  Pd35  1  0.000000  0.000000  0.000000  1
