# generated using pymatgen
data_Pa2AlRe3
_symmetry_space_group_name_H-M   'P 1'
_cell_length_a   5.42767100
_cell_length_b   5.42766991
_cell_length_c   8.79503200
_cell_angle_alpha   90.00000000
_cell_angle_beta   90.00000000
_cell_angle_gamma   120.00000055
_symmetry_Int_Tables_number   1
_chemical_formula_structural   Pa2AlRe3
_chemical_formula_sum   'Pa4 Al2 Re6'
_cell_volume   224.38560688
_cell_formula_units_Z   2
loop_
 _symmetry_equiv_pos_site_id
 _symmetry_equiv_pos_as_xyz
  1  'x, y, z'
loop_
 _atom_site_type_symbol
 _atom_site_label
 _atom_site_symmetry_multiplicity
 _atom_site_fract_x
 _atom_site_fract_y
 _atom_site_fract_z
 _atom_site_occupancy
  Pa  Pa0  1  0.333333  0.666667  0.426615  1
  Pa  Pa1  1  0.666667  0.333333  0.573385  1
  Pa  Pa2  1  0.666667  0.333333  0.926615  1
  Pa  Pa3  1  0.333333  0.666667  0.073385  1
  Al  Al4  1  0.000000  0.000000  0.500000  1
  Al  Al5  1  0.000000  0.000000  0.000000  1
  Re  Re6  1  0.829837  0.170163  0.250000  1
  Re  Re7  1  0.829837  0.659673  0.250000  1
  Re  Re8  1  0.340327  0.170163  0.250000  1
  Re  Re9  1  0.170163  0.829837  0.750000  1
  Re  Re10  1  0.170163  0.340327  0.750000  1
  Re  Re11  1  0.659673  0.829837  0.750000  1
