# generated using pymatgen
data_Mn3(PbO4)2
_symmetry_space_group_name_H-M   'P 1'
_cell_length_a   5.10449032
_cell_length_b   5.95879703
_cell_length_c   6.91131724
_cell_angle_alpha   115.53674259
_cell_angle_beta   107.53192482
_cell_angle_gamma   90.00000087
_symmetry_Int_Tables_number   1
_chemical_formula_structural   Mn3(PbO4)2
_chemical_formula_sum   'Mn3 Pb2 O8'
_cell_volume   178.79953391
_cell_formula_units_Z   1
loop_
 _symmetry_equiv_pos_site_id
 _symmetry_equiv_pos_as_xyz
  1  'x, y, z'
loop_
 _atom_site_type_symbol
 _atom_site_label
 _atom_site_symmetry_multiplicity
 _atom_site_fract_x
 _atom_site_fract_y
 _atom_site_fract_z
 _atom_site_occupancy
  Mn  Mn0  1  0.500001  0.999999  0.000000  1
  Mn  Mn1  1  0.000000  0.747099  0.999999  1
  Mn  Mn2  1  0.000001  0.252903  0.000001  1
  Pb  Pb3  1  0.659506  0.698197  0.396393  1
  Pb  Pb4  1  0.340495  0.301803  0.603608  1
  O  O5  1  0.038094  0.406617  0.813234  1
  O  O6  1  0.961907  0.593383  0.186767  1
  O  O7  1  0.102115  0.915212  0.830425  1
  O  O8  1  0.897884  0.084788  0.169575  1
  O  O9  1  0.388440  0.312044  0.175768  1
  O  O10  1  0.388440  0.863724  0.175768  1
  O  O11  1  0.611561  0.136274  0.824232  1
  O  O12  1  0.611561  0.687957  0.824232  1
