# generated using pymatgen
data_Nb10AlGa11Os7
_symmetry_space_group_name_H-M   'P 1'
_cell_length_a   8.75952643
_cell_length_b   8.75952545
_cell_length_c   8.73915742
_cell_angle_alpha   59.92286526
_cell_angle_beta   59.92287641
_cell_angle_gamma   59.99999532
_symmetry_Int_Tables_number   1
_chemical_formula_structural   Nb10AlGa11Os7
_chemical_formula_sum   'Nb10 Al1 Ga11 Os7'
_cell_volume   473.59648160
_cell_formula_units_Z   1
loop_
 _symmetry_equiv_pos_site_id
 _symmetry_equiv_pos_as_xyz
  1  'x, y, z'
loop_
 _atom_site_type_symbol
 _atom_site_label
 _atom_site_symmetry_multiplicity
 _atom_site_fract_x
 _atom_site_fract_y
 _atom_site_fract_z
 _atom_site_occupancy
  Nb  Nb0  1  0.691463  0.691463  0.308731  1
  Nb  Nb1  1  0.308341  0.691463  0.308731  1
  Nb  Nb2  1  0.691463  0.308341  0.308731  1
  Nb  Nb3  1  0.308274  0.308274  0.692498  1
  Nb  Nb4  1  0.690955  0.308274  0.692498  1
  Nb  Nb5  1  0.308274  0.690955  0.692498  1
  Nb  Nb6  1  0.877952  0.877952  0.366145  1
  Nb  Nb7  1  0.877238  0.368077  0.877448  1
  Nb  Nb8  1  0.368077  0.877238  0.877448  1
  Nb  Nb9  1  0.877238  0.877238  0.877448  1
  Al  Al10  1  0.123413  0.123413  0.629760  1
  Ga  Ga11  1  0.121184  0.636199  0.121431  1
  Ga  Ga12  1  0.636199  0.121184  0.121431  1
  Ga  Ga13  1  0.121184  0.121184  0.121431  1
  Ga  Ga14  1  0.653254  0.653254  0.040237  1
  Ga  Ga15  1  0.653498  0.039461  0.653543  1
  Ga  Ga16  1  0.039461  0.653498  0.653543  1
  Ga  Ga17  1  0.653498  0.653498  0.653543  1
  Ga  Ga18  1  0.343707  0.343707  0.968880  1
  Ga  Ga19  1  0.343699  0.967149  0.345454  1
  Ga  Ga20  1  0.967149  0.343699  0.345454  1
  Ga  Ga21  1  0.343699  0.343699  0.345454  1
  Os  Os22  1  0.001917  0.001917  0.994249  1
  Os  Os23  1  0.997480  0.997480  0.503063  1
  Os  Os24  1  0.501976  0.997480  0.503063  1
  Os  Os25  1  0.997480  0.501976  0.503063  1
  Os  Os26  1  0.502165  0.502165  0.998075  1
  Os  Os27  1  0.997597  0.502165  0.998075  1
  Os  Os28  1  0.502165  0.997597  0.998075  1
