# generated using pymatgen
data_Lu12Re(TcPb)2
_symmetry_space_group_name_H-M   'P 1'
_cell_length_a   8.33757149
_cell_length_b   8.33740707
_cell_length_c   8.33757200
_cell_angle_alpha   109.58478892
_cell_angle_beta   109.58478079
_cell_angle_gamma   109.24512201
_symmetry_Int_Tables_number   1
_chemical_formula_structural   Lu12Re(TcPb)2
_chemical_formula_sum   'Lu12 Re1 Tc2 Pb2'
_cell_volume   446.14800140
_cell_formula_units_Z   1
loop_
 _symmetry_equiv_pos_site_id
 _symmetry_equiv_pos_as_xyz
  1  'x, y, z'
loop_
 _atom_site_type_symbol
 _atom_site_label
 _atom_site_symmetry_multiplicity
 _atom_site_fract_x
 _atom_site_fract_y
 _atom_site_fract_z
 _atom_site_occupancy
  Lu  Lu0  1  0.320564  0.320562  0.641127  1
  Lu  Lu1  1  0.679436  0.679438  0.358873  1
  Lu  Lu2  1  0.320567  0.679438  0.000003  1
  Lu  Lu3  1  0.679433  0.320562  0.999997  1
  Lu  Lu4  1  0.426231  0.186180  0.240059  1
  Lu  Lu5  1  0.573769  0.813820  0.759941  1
  Lu  Lu6  1  0.946120  0.186180  0.759948  1
  Lu  Lu7  1  0.186176  0.946120  0.759946  1
  Lu  Lu8  1  0.053880  0.813820  0.240052  1
  Lu  Lu9  1  0.813824  0.053880  0.240054  1
  Lu  Lu10  1  0.186176  0.426232  0.240056  1
  Lu  Lu11  1  0.813824  0.573768  0.759944  1
  Re  Re12  1  0.000000  0.000000  0.000000  1
  Tc  Tc13  1  0.341708  0.341712  0.000004  1
  Tc  Tc14  1  0.658292  0.658288  0.999996  1
  Pb  Pb15  1  0.500000  0.000000  0.500000  1
  Pb  Pb16  1  0.000000  0.500000  0.500000  1
