# generated using pymatgen
data_NdY5(CuRh8)2
_symmetry_space_group_name_H-M   'P 1'
_cell_length_a   5.31094200
_cell_length_b   5.31094313
_cell_length_c   17.21027000
_cell_angle_alpha   90.00000000
_cell_angle_beta   90.00000000
_cell_angle_gamma   119.99999293
_symmetry_Int_Tables_number   1
_chemical_formula_structural   NdY5(CuRh8)2
_chemical_formula_sum   'Nd1 Y5 Cu2 Rh16'
_cell_volume   420.39888575
_cell_formula_units_Z   1
loop_
 _symmetry_equiv_pos_site_id
 _symmetry_equiv_pos_as_xyz
  1  'x, y, z'
loop_
 _atom_site_type_symbol
 _atom_site_label
 _atom_site_symmetry_multiplicity
 _atom_site_fract_x
 _atom_site_fract_y
 _atom_site_fract_z
 _atom_site_occupancy
  Nd  Nd0  1  0.333333  0.666667  0.750000  1
  Y  Y1  1  0.333333  0.666667  0.958367  1
  Y  Y2  1  0.666667  0.333333  0.042564  1
  Y  Y3  1  0.666667  0.333333  0.457436  1
  Y  Y4  1  0.333333  0.666667  0.541633  1
  Y  Y5  1  0.666667  0.333333  0.250000  1
  Cu  Cu6  1  0.333333  0.666667  0.250000  1
  Cu  Cu7  1  0.666667  0.333333  0.750000  1
  Rh  Rh8  1  0.168317  0.831683  0.373991  1
  Rh  Rh9  1  0.168317  0.336636  0.373991  1
  Rh  Rh10  1  0.663364  0.831683  0.373991  1
  Rh  Rh11  1  0.831672  0.168328  0.625177  1
  Rh  Rh12  1  0.831672  0.663343  0.625177  1
  Rh  Rh13  1  0.336657  0.168328  0.625177  1
  Rh  Rh14  1  0.831672  0.168328  0.874823  1
  Rh  Rh15  1  0.831672  0.663343  0.874823  1
  Rh  Rh16  1  0.336657  0.168328  0.874823  1
  Rh  Rh17  1  0.168317  0.831683  0.126009  1
  Rh  Rh18  1  0.168317  0.336636  0.126009  1
  Rh  Rh19  1  0.663364  0.831683  0.126009  1
  Rh  Rh20  1  0.000000  0.000000  0.250000  1
  Rh  Rh21  1  0.000000  0.000000  0.750000  1
  Rh  Rh22  1  0.000000  0.000000  0.499620  1
  Rh  Rh23  1  0.000000  0.000000  0.000380  1
