# generated using pymatgen
data_La16MgHg3IrRu3
_symmetry_space_group_name_H-M   'P 1'
_cell_length_a   10.10107946
_cell_length_b   10.12472975
_cell_length_c   10.06467027
_cell_angle_alpha   59.80240650
_cell_angle_beta   59.81380373
_cell_angle_gamma   59.92252475
_symmetry_Int_Tables_number   1
_chemical_formula_structural   La16MgHg3IrRu3
_chemical_formula_sum   'La16 Mg1 Hg3 Ir1 Ru3'
_cell_volume   725.29811415
_cell_formula_units_Z   1
loop_
 _symmetry_equiv_pos_site_id
 _symmetry_equiv_pos_as_xyz
  1  'x, y, z'
loop_
 _atom_site_type_symbol
 _atom_site_label
 _atom_site_symmetry_multiplicity
 _atom_site_fract_x
 _atom_site_fract_y
 _atom_site_fract_z
 _atom_site_occupancy
  La  La0  1  0.440959  0.058938  0.441166  1
  La  La1  1  0.808951  0.810133  0.190788  1
  La  La2  1  0.060770  0.440326  0.058579  1
  La  La3  1  0.187707  0.808686  0.194920  1
  La  La4  1  0.808951  0.190128  0.190788  1
  La  La5  1  0.058512  0.059112  0.441915  1
  La  La6  1  0.655465  0.653118  0.653607  1
  La  La7  1  0.655465  0.037809  0.653607  1
  La  La8  1  0.184701  0.811210  0.813355  1
  La  La9  1  0.037406  0.654072  0.654449  1
  La  La10  1  0.058512  0.440461  0.441915  1
  La  La11  1  0.184701  0.190734  0.813355  1
  La  La12  1  0.652035  0.650186  0.047593  1
  La  La13  1  0.440565  0.061414  0.058742  1
  La  La14  1  0.811470  0.187100  0.814330  1
  La  La15  1  0.440565  0.439279  0.058742  1
  Mg  Mg16  1  0.430873  0.430468  0.708191  1
  Hg  Hg17  1  0.752637  0.413803  0.419756  1
  Hg  Hg18  1  0.413946  0.413762  0.419473  1
  Hg  Hg19  1  0.413946  0.752818  0.419473  1
  Ir  Ir20  1  0.418693  0.859783  0.861742  1
  Ru  Ru21  1  0.861162  0.861899  0.863901  1
  Ru  Ru22  1  0.861162  0.413038  0.863901  1
  Ru  Ru23  1  0.860845  0.861722  0.415711  1
