# generated using pymatgen
data_Dy16Cd2NiHg2Ru3
_symmetry_space_group_name_H-M   'P 1'
_cell_length_a   9.55004165
_cell_length_b   9.59966932
_cell_length_c   9.63041100
_cell_angle_alpha   59.89401328
_cell_angle_beta   59.72122493
_cell_angle_gamma   59.70577614
_symmetry_Int_Tables_number   1
_chemical_formula_structural   Dy16Cd2NiHg2Ru3
_chemical_formula_sum   'Dy16 Cd2 Ni1 Hg2 Ru3'
_cell_volume   621.08492908
_cell_formula_units_Z   1
loop_
 _symmetry_equiv_pos_site_id
 _symmetry_equiv_pos_as_xyz
  1  'x, y, z'
loop_
 _atom_site_type_symbol
 _atom_site_label
 _atom_site_symmetry_multiplicity
 _atom_site_fract_x
 _atom_site_fract_y
 _atom_site_fract_z
 _atom_site_occupancy
  Dy  Dy0  1  0.601255  0.596616  0.594737  1
  Dy  Dy1  1  0.601255  0.596616  0.207393  1
  Dy  Dy2  1  0.602274  0.206901  0.595413  1
  Dy  Dy3  1  0.205746  0.598571  0.597842  1
  Dy  Dy4  1  0.059605  0.438126  0.440273  1
  Dy  Dy5  1  0.436672  0.060329  0.061712  1
  Dy  Dy6  1  0.436672  0.060329  0.441287  1
  Dy  Dy7  1  0.059605  0.438126  0.061997  1
  Dy  Dy8  1  0.437749  0.438110  0.062070  1
  Dy  Dy9  1  0.058793  0.059267  0.440970  1
  Dy  Dy10  1  0.188583  0.810097  0.810969  1
  Dy  Dy11  1  0.808515  0.186388  0.187716  1
  Dy  Dy12  1  0.808515  0.186388  0.817380  1
  Dy  Dy13  1  0.188583  0.810097  0.190351  1
  Dy  Dy14  1  0.808206  0.817331  0.187231  1
  Dy  Dy15  1  0.189463  0.189992  0.810272  1
  Cd  Cd16  1  0.828844  0.509383  0.830886  1
  Cd  Cd17  1  0.509508  0.829258  0.830617  1
  Ni  Ni18  1  0.827455  0.392394  0.390075  1
  Hg  Hg19  1  0.832469  0.833807  0.836591  1
  Hg  Hg20  1  0.832469  0.833807  0.497132  1
  Ru  Ru21  1  0.392440  0.389761  0.388890  1
  Ru  Ru22  1  0.392440  0.389761  0.828908  1
  Ru  Ru23  1  0.392886  0.828542  0.389286  1
