# generated using pymatgen
data_Tb2Al2Co3Ni3B2
_symmetry_space_group_name_H-M   'P 1'
_cell_length_a   5.13329862
_cell_length_b   5.17876257
_cell_length_c   6.74300100
_cell_angle_alpha   89.99833022
_cell_angle_beta   90.00219065
_cell_angle_gamma   119.94035537
_symmetry_Int_Tables_number   1
_chemical_formula_structural   Tb2Al2Co3Ni3B2
_chemical_formula_sum   'Tb2 Al2 Co3 Ni3 B2'
_cell_volume   155.33420191
_cell_formula_units_Z   1
loop_
 _symmetry_equiv_pos_site_id
 _symmetry_equiv_pos_as_xyz
  1  'x, y, z'
loop_
 _atom_site_type_symbol
 _atom_site_label
 _atom_site_symmetry_multiplicity
 _atom_site_fract_x
 _atom_site_fract_y
 _atom_site_fract_z
 _atom_site_occupancy
  Tb  Tb0  1  0.000001  0.000004  0.992295  1
  Tb  Tb1  1  0.999995  0.000004  0.498234  1
  Al  Al2  1  0.338199  0.670723  0.000297  1
  Al  Al3  1  0.661802  0.329284  0.000249  1
  Co  Co4  1  0.499918  0.999893  0.297690  1
  Co  Co5  1  0.500059  0.000080  0.704232  1
  Co  Co6  1  0.500020  0.499971  0.704437  1
  Ni  Ni7  1  0.499860  0.499996  0.295553  1
  Ni  Ni8  1  0.999999  0.500030  0.294524  1
  Ni  Ni9  1  0.999966  0.500034  0.706718  1
  B  B10  1  0.342493  0.675190  0.502821  1
  B  B11  1  0.657489  0.324791  0.502948  1
