# generated using pymatgen
data_NbCl30
_symmetry_space_group_name_H-M   'P 1'
_cell_length_a   13.78841108
_cell_length_b   13.78841091
_cell_length_c   16.24031471
_cell_angle_alpha   83.72170974
_cell_angle_beta   83.72171213
_cell_angle_gamma   124.50148396
_symmetry_Int_Tables_number   1
_chemical_formula_structural   NbCl30
_chemical_formula_sum   'Nb1 Cl30'
_cell_volume   2473.35673154
_cell_formula_units_Z   1
loop_
 _symmetry_equiv_pos_site_id
 _symmetry_equiv_pos_as_xyz
  1  'x, y, z'
loop_
 _atom_site_type_symbol
 _atom_site_label
 _atom_site_symmetry_multiplicity
 _atom_site_fract_x
 _atom_site_fract_y
 _atom_site_fract_z
 _atom_site_occupancy
  Nb  Nb0  1  0.000000  0.000000  0.000000  1
  Cl  Cl1  1  0.944831  0.944831  0.154375  1
  Cl  Cl2  1  0.055169  0.055169  0.845625  1
  Cl  Cl3  1  0.060014  0.196339  0.005382  1
  Cl  Cl4  1  0.939986  0.803661  0.994618  1
  Cl  Cl5  1  0.196339  0.060014  0.005382  1
  Cl  Cl6  1  0.803661  0.939986  0.994618  1
  Cl  Cl7  1  0.203829  0.743678  0.062952  1
  Cl  Cl8  1  0.796171  0.256322  0.937048  1
  Cl  Cl9  1  0.701320  0.076981  0.262496  1
  Cl  Cl10  1  0.256322  0.796171  0.937048  1
  Cl  Cl11  1  0.298680  0.923019  0.737504  1
  Cl  Cl12  1  0.743678  0.203829  0.062952  1
  Cl  Cl13  1  0.977640  0.198342  0.780947  1
  Cl  Cl14  1  0.923019  0.298680  0.737504  1
  Cl  Cl15  1  0.022360  0.801658  0.219053  1
  Cl  Cl16  1  0.076981  0.701320  0.262496  1
  Cl  Cl17  1  0.801658  0.022360  0.219053  1
  Cl  Cl18  1  0.198342  0.977640  0.780947  1
  Cl  Cl19  1  0.464955  0.546420  0.259124  1
  Cl  Cl20  1  0.535045  0.453580  0.740876  1
  Cl  Cl21  1  0.507625  0.206460  0.451430  1
  Cl  Cl22  1  0.453580  0.535045  0.740876  1
  Cl  Cl23  1  0.492375  0.793540  0.548570  1
  Cl  Cl24  1  0.546420  0.464955  0.259124  1
  Cl  Cl25  1  0.239892  0.429670  0.543416  1
  Cl  Cl26  1  0.793540  0.492375  0.548570  1
  Cl  Cl27  1  0.760108  0.570330  0.456584  1
  Cl  Cl28  1  0.206460  0.507625  0.451430  1
  Cl  Cl29  1  0.570330  0.760108  0.456584  1
  Cl  Cl30  1  0.429670  0.239892  0.543416  1
