# generated using pymatgen
data_Nb6Co16Si6Ge
_symmetry_space_group_name_H-M   'P 1'
_cell_length_a   7.93364974
_cell_length_b   7.93365035
_cell_length_c   7.93112700
_cell_angle_alpha   60.01051652
_cell_angle_beta   60.01051396
_cell_angle_gamma   60.12020086
_symmetry_Int_Tables_number   1
_chemical_formula_structural   Nb6Co16Si6Ge
_chemical_formula_sum   'Nb6 Co16 Si6 Ge1'
_cell_volume   353.36870720
_cell_formula_units_Z   1
loop_
 _symmetry_equiv_pos_site_id
 _symmetry_equiv_pos_as_xyz
  1  'x, y, z'
loop_
 _atom_site_type_symbol
 _atom_site_label
 _atom_site_symmetry_multiplicity
 _atom_site_fract_x
 _atom_site_fract_y
 _atom_site_fract_z
 _atom_site_occupancy
  Nb  Nb0  1  0.204576  0.795424  0.798420  1
  Nb  Nb1  1  0.796825  0.796825  0.203175  1
  Nb  Nb2  1  0.795424  0.204576  0.201580  1
  Nb  Nb3  1  0.203175  0.203175  0.796825  1
  Nb  Nb4  1  0.795424  0.204576  0.798420  1
  Nb  Nb5  1  0.204576  0.795424  0.201580  1
  Co  Co6  1  0.618329  0.618329  0.143778  1
  Co  Co7  1  0.166900  0.500963  0.166069  1
  Co  Co8  1  0.855231  0.385791  0.379489  1
  Co  Co9  1  0.499037  0.833100  0.833931  1
  Co  Co10  1  0.500963  0.166900  0.166069  1
  Co  Co11  1  0.831018  0.831018  0.499312  1
  Co  Co12  1  0.168982  0.168982  0.500688  1
  Co  Co13  1  0.144769  0.614209  0.620511  1
  Co  Co14  1  0.168982  0.168982  0.161350  1
  Co  Co15  1  0.381671  0.381671  0.856222  1
  Co  Co16  1  0.618329  0.618329  0.619564  1
  Co  Co17  1  0.385791  0.855231  0.379489  1
  Co  Co18  1  0.381671  0.381671  0.380436  1
  Co  Co19  1  0.831018  0.831018  0.838650  1
  Co  Co20  1  0.614209  0.144769  0.620511  1
  Co  Co21  1  0.833100  0.499037  0.833931  1
  Si  Si22  1  0.500000  0.000000  0.500000  1
  Si  Si23  1  0.500000  0.500000  0.000000  1
  Si  Si24  1  0.500000  0.500000  0.500000  1
  Si  Si25  1  0.000000  0.500000  0.000000  1
  Si  Si26  1  0.000000  0.500000  0.500000  1
  Si  Si27  1  0.500000  0.000000  0.000000  1
  Ge  Ge28  1  0.000000  0.000000  0.500000  1
