# generated using pymatgen
data_Er5Lu2CoI12
_symmetry_space_group_name_H-M   'P 1'
_cell_length_a   9.66543635
_cell_length_b   9.66191745
_cell_length_c   9.67157608
_cell_angle_alpha   106.84345659
_cell_angle_beta   106.83507469
_cell_angle_gamma   106.82084607
_symmetry_Int_Tables_number   1
_chemical_formula_structural   Er5Lu2CoI12
_chemical_formula_sum   'Er5 Lu2 Co1 I12'
_cell_volume   755.58823701
_cell_formula_units_Z   1
loop_
 _symmetry_equiv_pos_site_id
 _symmetry_equiv_pos_as_xyz
  1  'x, y, z'
loop_
 _atom_site_type_symbol
 _atom_site_label
 _atom_site_symmetry_multiplicity
 _atom_site_fract_x
 _atom_site_fract_y
 _atom_site_fract_z
 _atom_site_occupancy
  Er  Er0  1  0.499974  0.499990  0.499794  1
  Er  Er1  1  0.091418  0.022211  0.285714  1
  Er  Er2  1  0.714421  0.909802  0.978666  1
  Er  Er3  1  0.979065  0.714450  0.909117  1
  Er  Er4  1  0.909914  0.979290  0.714924  1
  Lu  Lu5  1  0.282377  0.089992  0.021305  1
  Lu  Lu6  1  0.021584  0.282452  0.089486  1
  Co  Co7  1  0.000312  0.000362  0.000095  1
  I  I8  1  0.463506  0.161226  0.386363  1
  I  I9  1  0.386491  0.462807  0.161076  1
  I  I10  1  0.160990  0.387070  0.462811  1
  I  I11  1  0.536642  0.839095  0.613279  1
  I  I12  1  0.613308  0.536760  0.839077  1
  I  I13  1  0.839065  0.613204  0.536659  1
  I  I14  1  0.323723  0.776800  0.929605  1
  I  I15  1  0.929679  0.323953  0.776806  1
  I  I16  1  0.775655  0.929318  0.323431  1
  I  I17  1  0.676478  0.224505  0.070669  1
  I  I18  1  0.070558  0.675818  0.224017  1
  I  I19  1  0.224840  0.070894  0.677107  1
