# generated using pymatgen
data_Tm12ZnCdNi4
_symmetry_space_group_name_H-M   'P 1'
_cell_length_a   8.21649111
_cell_length_b   8.22553754
_cell_length_c   8.21710942
_cell_angle_alpha   105.75979022
_cell_angle_beta   109.92403940
_cell_angle_gamma   112.77236041
_symmetry_Int_Tables_number   1
_chemical_formula_structural   Tm12ZnCdNi4
_chemical_formula_sum   'Tm12 Zn1 Cd1 Ni4'
_cell_volume   426.07930292
_cell_formula_units_Z   1
loop_
 _symmetry_equiv_pos_site_id
 _symmetry_equiv_pos_as_xyz
  1  'x, y, z'
loop_
 _atom_site_type_symbol
 _atom_site_label
 _atom_site_symmetry_multiplicity
 _atom_site_fract_x
 _atom_site_fract_y
 _atom_site_fract_z
 _atom_site_occupancy
  Tm  Tm0  1  0.695199  0.266978  0.962119  1
  Tm  Tm1  1  0.304839  0.733081  0.038058  1
  Tm  Tm2  1  0.695196  0.733064  0.428295  1
  Tm  Tm3  1  0.304874  0.266714  0.571638  1
  Tm  Tm4  1  0.807462  0.131860  0.324419  1
  Tm  Tm5  1  0.807781  0.483429  0.675669  1
  Tm  Tm6  1  0.192507  0.868126  0.675786  1
  Tm  Tm7  1  0.192401  0.516692  0.324461  1
  Tm  Tm8  1  0.606234  0.786626  0.819832  1
  Tm  Tm9  1  0.966839  0.786611  0.180375  1
  Tm  Tm10  1  0.033075  0.213352  0.819656  1
  Tm  Tm11  1  0.393631  0.213317  0.180174  1
  Zn  Zn12  1  0.499802  0.499943  0.999852  1
  Cd  Cd13  1  0.499923  0.999934  0.499917  1
  Ni  Ni14  1  0.849524  0.500031  0.348237  1
  Ni  Ni15  1  0.151249  0.499450  0.651008  1
  Ni  Ni16  1  0.001171  0.123729  0.123270  1
  Ni  Ni17  1  0.998295  0.877064  0.877235  1
