# generated using pymatgen
data_TbHf2(SnRh)3
_symmetry_space_group_name_H-M   'P 1'
_cell_length_a   7.48800885
_cell_length_b   7.45944307
_cell_length_c   7.37624300
_cell_angle_alpha   90.00000000
_cell_angle_beta   90.00000000
_cell_angle_gamma   119.84471823
_symmetry_Int_Tables_number   1
_chemical_formula_structural   TbHf2(SnRh)3
_chemical_formula_sum   'Tb2 Hf4 Sn6 Rh6'
_cell_volume   357.36829983
_cell_formula_units_Z   2
loop_
 _symmetry_equiv_pos_site_id
 _symmetry_equiv_pos_as_xyz
  1  'x, y, z'
loop_
 _atom_site_type_symbol
 _atom_site_label
 _atom_site_symmetry_multiplicity
 _atom_site_fract_x
 _atom_site_fract_y
 _atom_site_fract_z
 _atom_site_occupancy
  Tb  Tb0  1  0.000957  0.405760  0.250000  1
  Tb  Tb1  1  0.597229  0.592084  0.250000  1
  Hf  Hf2  1  0.995659  0.389490  0.750000  1
  Hf  Hf3  1  0.604859  0.612396  0.750000  1
  Hf  Hf4  1  0.394041  0.997612  0.750000  1
  Hf  Hf5  1  0.396891  0.992787  0.250000  1
  Sn  Sn6  1  0.269432  0.267445  0.508941  1
  Sn  Sn7  1  0.998080  0.731675  0.509711  1
  Sn  Sn8  1  0.998080  0.731675  0.990289  1
  Sn  Sn9  1  0.732752  0.001127  0.494518  1
  Sn  Sn10  1  0.732752  0.001127  0.005482  1
  Sn  Sn11  1  0.269432  0.267445  0.991059  1
  Rh  Rh12  1  0.335236  0.675454  0.528873  1
  Rh  Rh13  1  0.662814  0.328421  0.536224  1
  Rh  Rh14  1  0.335236  0.675454  0.971127  1
  Rh  Rh15  1  0.995200  0.001400  0.750000  1
  Rh  Rh16  1  0.018535  0.000226  0.250000  1
  Rh  Rh17  1  0.662814  0.328421  0.963776  1
