# generated using pymatgen
data_Dy8Ti10NbSi16Ag
_symmetry_space_group_name_H-M   'P 1'
_cell_length_a   7.06977600
_cell_length_b   7.06977579
_cell_length_c   12.92888597
_cell_angle_alpha   89.81988654
_cell_angle_beta   90.18011367
_cell_angle_gamma   89.66295077
_symmetry_Int_Tables_number   1
_chemical_formula_structural   Dy8Ti10NbSi16Ag
_chemical_formula_sum   'Dy8 Ti10 Nb1 Si16 Ag1'
_cell_volume   646.19049877
_cell_formula_units_Z   1
loop_
 _symmetry_equiv_pos_site_id
 _symmetry_equiv_pos_as_xyz
  1  'x, y, z'
loop_
 _atom_site_type_symbol
 _atom_site_label
 _atom_site_symmetry_multiplicity
 _atom_site_fract_x
 _atom_site_fract_y
 _atom_site_fract_z
 _atom_site_occupancy
  Dy  Dy0  1  0.998217  0.658802  0.032813  1
  Dy  Dy1  1  0.999059  0.343697  0.531621  1
  Dy  Dy2  1  0.658802  0.998217  0.967187  1
  Dy  Dy3  1  0.159474  0.502364  0.783490  1
  Dy  Dy4  1  0.841823  0.498488  0.285478  1
  Dy  Dy5  1  0.502364  0.159474  0.216510  1
  Dy  Dy6  1  0.498488  0.841823  0.714522  1
  Dy  Dy7  1  0.343697  0.999059  0.468379  1
  Ti  Ti8  1  0.349199  0.505706  0.376026  1
  Ti  Ti9  1  0.851901  0.991943  0.377051  1
  Ti  Ti10  1  0.008795  0.151578  0.124977  1
  Ti  Ti11  1  0.991943  0.851901  0.622949  1
  Ti  Ti12  1  0.505706  0.349199  0.623974  1
  Ti  Ti13  1  0.151578  0.008795  0.875023  1
  Ti  Ti14  1  0.826065  0.173646  0.749815  1
  Ti  Ti15  1  0.173646  0.826065  0.250185  1
  Ti  Ti16  1  0.491500  0.649474  0.124891  1
  Ti  Ti17  1  0.649474  0.491500  0.875109  1
  Nb  Nb18  1  0.326775  0.326775  0.000000  1
  Si  Si19  1  0.061903  0.713903  0.433846  1
  Si  Si20  1  0.952062  0.290572  0.935844  1
  Si  Si21  1  0.713903  0.061903  0.566154  1
  Si  Si22  1  0.208046  0.453546  0.186520  1
  Si  Si23  1  0.792295  0.544637  0.690778  1
  Si  Si24  1  0.453546  0.208046  0.813480  1
  Si  Si25  1  0.544637  0.792295  0.309222  1
  Si  Si26  1  0.290572  0.952062  0.064156  1
  Si  Si27  1  0.797838  0.868310  0.184762  1
  Si  Si28  1  0.281397  0.626251  0.570092  1
  Si  Si29  1  0.705614  0.369541  0.066649  1
  Si  Si30  1  0.626251  0.281397  0.429908  1
  Si  Si31  1  0.369541  0.705614  0.933351  1
  Si  Si32  1  0.131717  0.202039  0.317065  1
  Si  Si33  1  0.202039  0.131717  0.682935  1
  Si  Si34  1  0.868310  0.797838  0.815238  1
  Ag  Ag35  1  0.671821  0.671821  0.500000  1
