# generated using pymatgen
data_EuLu4HfH18
_symmetry_space_group_name_H-M   'P 1'
_cell_length_a   6.17612647
_cell_length_b   6.18349661
_cell_length_c   6.46301756
_cell_angle_alpha   89.71744798
_cell_angle_beta   90.23539449
_cell_angle_gamma   119.92216296
_symmetry_Int_Tables_number   1
_chemical_formula_structural   EuLu4HfH18
_chemical_formula_sum   'Eu1 Lu4 Hf1 H18'
_cell_volume   213.91946694
_cell_formula_units_Z   1
loop_
 _symmetry_equiv_pos_site_id
 _symmetry_equiv_pos_as_xyz
  1  'x, y, z'
loop_
 _atom_site_type_symbol
 _atom_site_label
 _atom_site_symmetry_multiplicity
 _atom_site_fract_x
 _atom_site_fract_y
 _atom_site_fract_z
 _atom_site_occupancy
  Eu  Eu0  1  0.333926  0.335143  0.750118  1
  Lu  Lu1  1  0.997735  0.661116  0.749753  1
  Lu  Lu2  1  0.663896  0.664125  0.252489  1
  Lu  Lu3  1  0.000571  0.335643  0.246452  1
  Lu  Lu4  1  0.336778  0.001003  0.251101  1
  Hf  Hf5  1  0.659519  0.999441  0.750153  1
  H  H6  1  0.339353  0.964925  0.905080  1
  H  H7  1  0.653579  0.705967  0.907086  1
  H  H8  1  0.008708  0.345041  0.911105  1
  H  H9  1  0.319153  0.348029  0.399265  1
  H  H10  1  0.029274  0.676934  0.410774  1
  H  H11  1  0.653975  0.973182  0.419787  1
  H  H12  1  0.678739  0.026963  0.080451  1
  H  H13  1  0.352797  0.322823  0.100871  1
  H  H14  1  0.971885  0.654963  0.088658  1
  H  H15  1  0.686970  0.664254  0.589924  1
  H  H16  1  0.944639  0.303016  0.595077  1
  H  H17  1  0.371804  0.019711  0.591436  1
  H  H18  1  0.972775  0.987345  0.750538  1
  H  H19  1  0.000493  0.000057  0.250024  1
  H  H20  1  0.675705  0.316589  0.810568  1
  H  H21  1  0.667626  0.333698  0.303484  1
  H  H22  1  0.333385  0.667092  0.196483  1
  H  H23  1  0.346717  0.692940  0.689323  1
