# generated using pymatgen
data_Ho3Er(Ga5Co3)2
_symmetry_space_group_name_H-M   'P 1'
_cell_length_a   8.28924569
_cell_length_b   8.28998397
_cell_length_c   5.48162506
_cell_angle_alpha   70.70546284
_cell_angle_beta   70.70526706
_cell_angle_gamma   96.84460698
_symmetry_Int_Tables_number   1
_chemical_formula_structural   Ho3Er(Ga5Co3)2
_chemical_formula_sum   'Ho3 Er1 Ga10 Co6'
_cell_volume   324.34510267
_cell_formula_units_Z   1
loop_
 _symmetry_equiv_pos_site_id
 _symmetry_equiv_pos_as_xyz
  1  'x, y, z'
loop_
 _atom_site_type_symbol
 _atom_site_label
 _atom_site_symmetry_multiplicity
 _atom_site_fract_x
 _atom_site_fract_y
 _atom_site_fract_z
 _atom_site_occupancy
  Ho  Ho0  1  0.424308  0.130733  0.722077  1
  Ho  Ho1  1  0.130658  0.424401  0.222065  1
  Ho  Ho2  1  0.575650  0.869276  0.277936  1
  Er  Er3  1  0.869266  0.575403  0.778084  1
  Ga  Ga4  1  0.264119  0.101398  0.317065  1
  Ga  Ga5  1  0.898479  0.735596  0.183137  1
  Ga  Ga6  1  0.735846  0.898313  0.683072  1
  Ga  Ga7  1  0.101390  0.264145  0.817076  1
  Ga  Ga8  1  0.201877  0.797862  0.750010  1
  Ga  Ga9  1  0.798025  0.202149  0.249859  1
  Ga  Ga10  1  0.500178  0.500105  0.750021  1
  Ga  Ga11  1  0.500159  0.500116  0.249701  1
  Ga  Ga12  1  0.798180  0.202002  0.749967  1
  Ga  Ga13  1  0.201709  0.798031  0.250249  1
  Co  Co14  1  0.000024  0.999914  0.750004  1
  Co  Co15  1  0.999921  0.000021  0.250057  1
  Co  Co16  1  0.734190  0.432165  0.417042  1
  Co  Co17  1  0.431891  0.734029  0.917277  1
  Co  Co18  1  0.265837  0.568049  0.582826  1
  Co  Co19  1  0.568291  0.266293  0.082475  1
