# generated using pymatgen
data_Pr16Nd4Si15Hg
_symmetry_space_group_name_H-M   'P 1'
_cell_length_a   7.97593584
_cell_length_b   7.96305085
_cell_length_c   15.33682009
_cell_angle_alpha   90.02795116
_cell_angle_beta   89.68490845
_cell_angle_gamma   89.93521220
_symmetry_Int_Tables_number   1
_chemical_formula_structural   Pr16Nd4Si15Hg
_chemical_formula_sum   'Pr16 Nd4 Si15 Hg1'
_cell_volume   974.06865045
_cell_formula_units_Z   1
loop_
 _symmetry_equiv_pos_site_id
 _symmetry_equiv_pos_as_xyz
  1  'x, y, z'
loop_
 _atom_site_type_symbol
 _atom_site_label
 _atom_site_symmetry_multiplicity
 _atom_site_fract_x
 _atom_site_fract_y
 _atom_site_fract_z
 _atom_site_occupancy
  Pr  Pr0  1  0.374775  0.012237  0.447964  1
  Pr  Pr1  1  0.492817  0.868933  0.699105  1
  Pr  Pr2  1  0.510437  0.122080  0.197722  1
  Pr  Pr3  1  0.878355  0.489063  0.300596  1
  Pr  Pr4  1  0.118726  0.520208  0.803845  1
  Pr  Pr5  1  0.625844  0.987149  0.951069  1
  Pr  Pr6  1  0.001156  0.383321  0.547204  1
  Pr  Pr7  1  0.989673  0.625020  0.052849  1
  Pr  Pr8  1  0.129458  0.981797  0.879476  1
  Pr  Pr9  1  0.519544  0.628939  0.126769  1
  Pr  Pr10  1  0.486947  0.376565  0.626316  1
  Pr  Pr11  1  0.628767  0.520569  0.876531  1
  Pr  Pr12  1  0.373587  0.483324  0.372029  1
  Pr  Pr13  1  0.872657  0.019611  0.375426  1
  Pr  Pr14  1  0.982675  0.126871  0.124282  1
  Pr  Pr15  1  0.009525  0.861185  0.620648  1
  Nd  Nd16  1  0.307833  0.308437  0.000213  1
  Nd  Nd17  1  0.192909  0.809040  0.249423  1
  Nd  Nd18  1  0.799988  0.186816  0.752629  1
  Nd  Nd19  1  0.692229  0.689681  0.497828  1
  Si  Si20  1  0.331608  0.694651  0.953325  1
  Si  Si21  1  0.663070  0.302752  0.450380  1
  Si  Si22  1  0.698072  0.333430  0.049336  1
  Si  Si23  1  0.306610  0.669711  0.546217  1
  Si  Si24  1  0.806381  0.831873  0.202619  1
  Si  Si25  1  0.168800  0.195940  0.298623  1
  Si  Si26  1  0.833945  0.804937  0.798730  1
  Si  Si27  1  0.287769  0.922094  0.060769  1
  Si  Si28  1  0.579708  0.787771  0.309779  1
  Si  Si29  1  0.433622  0.209778  0.815797  1
  Si  Si30  1  0.785957  0.577858  0.691366  1
  Si  Si31  1  0.213031  0.421419  0.190323  1
  Si  Si32  1  0.709401  0.078914  0.558943  1
  Si  Si33  1  0.923660  0.289753  0.941004  1
  Si  Si34  1  0.080373  0.713571  0.438322  1
  Hg  Hg35  1  0.190085  0.164704  0.692544  1
