# generated using pymatgen
data_Sc5OsWC7
_symmetry_space_group_name_H-M   'P 1'
_cell_length_a   7.87608761
_cell_length_b   7.87608919
_cell_length_c   3.25754200
_cell_angle_alpha   90.00000000
_cell_angle_beta   90.00000000
_cell_angle_gamma   120.29686640
_symmetry_Int_Tables_number   1
_chemical_formula_structural   Sc5OsWC7
_chemical_formula_sum   'Sc5 Os1 W1 C7'
_cell_volume   174.47566929
_cell_formula_units_Z   1
loop_
 _symmetry_equiv_pos_site_id
 _symmetry_equiv_pos_as_xyz
  1  'x, y, z'
loop_
 _atom_site_type_symbol
 _atom_site_label
 _atom_site_symmetry_multiplicity
 _atom_site_fract_x
 _atom_site_fract_y
 _atom_site_fract_z
 _atom_site_occupancy
  Sc  Sc0  1  0.081733  0.337606  0.500000  1
  Sc  Sc1  1  0.342176  0.085845  0.500000  1
  Sc  Sc2  1  0.502077  0.497923  0.000000  1
  Sc  Sc3  1  0.914155  0.657824  0.500000  1
  Sc  Sc4  1  0.662394  0.918267  0.500000  1
  Os  Os5  1  0.712744  0.287256  0.000000  1
  W  W6  1  0.285261  0.714739  0.000000  1
  C  C7  1  0.999786  0.000214  0.000000  1
  C  C8  1  0.998517  0.501543  0.000000  1
  C  C9  1  0.498457  0.001483  0.000000  1
  C  C10  1  0.172130  0.173427  0.000000  1
  C  C11  1  0.826573  0.827870  0.000000  1
  C  C12  1  0.621287  0.378713  0.500000  1
  C  C13  1  0.382710  0.617290  0.500000  1
