# generated using pymatgen
data_Zr4Tc24Sn
_symmetry_space_group_name_H-M   'P 1'
_cell_length_a   8.42605327
_cell_length_b   8.42605309
_cell_length_c   8.42605300
_cell_angle_alpha   109.47122523
_cell_angle_beta   109.47122480
_cell_angle_gamma   109.47122029
_symmetry_Int_Tables_number   1
_chemical_formula_structural   Zr4Tc24Sn
_chemical_formula_sum   'Zr4 Tc24 Sn1'
_cell_volume   460.52227560
_cell_formula_units_Z   1
loop_
 _symmetry_equiv_pos_site_id
 _symmetry_equiv_pos_as_xyz
  1  'x, y, z'
loop_
 _atom_site_type_symbol
 _atom_site_label
 _atom_site_symmetry_multiplicity
 _atom_site_fract_x
 _atom_site_fract_y
 _atom_site_fract_z
 _atom_site_occupancy
  Zr  Zr0  1  0.627347  0.000000  0.000000  1
  Zr  Zr1  1  0.000000  0.627347  0.000000  1
  Zr  Zr2  1  0.000000  0.000000  0.627347  1
  Zr  Zr3  1  0.372653  0.372653  0.372653  1
  Tc  Tc4  1  0.391463  0.672786  0.000000  1
  Tc  Tc5  1  0.718677  0.327214  0.327214  1
  Tc  Tc6  1  0.391463  0.000000  0.672786  1
  Tc  Tc7  1  0.672786  0.391463  0.000000  1
  Tc  Tc8  1  0.000000  0.391463  0.672786  1
  Tc  Tc9  1  0.327214  0.718677  0.327214  1
  Tc  Tc10  1  0.327214  0.327214  0.718677  1
  Tc  Tc11  1  0.000000  0.672786  0.391463  1
  Tc  Tc12  1  0.672786  0.000000  0.391463  1
  Tc  Tc13  1  0.608537  0.608537  0.281323  1
  Tc  Tc14  1  0.281323  0.608537  0.608537  1
  Tc  Tc15  1  0.608537  0.281323  0.608537  1
  Tc  Tc16  1  0.375066  0.194859  0.000000  1
  Tc  Tc17  1  0.180206  0.805141  0.805141  1
  Tc  Tc18  1  0.375066  0.000000  0.194859  1
  Tc  Tc19  1  0.194859  0.375066  0.000000  1
  Tc  Tc20  1  0.000000  0.375066  0.194859  1
  Tc  Tc21  1  0.805141  0.180206  0.805141  1
  Tc  Tc22  1  0.805141  0.805141  0.180206  1
  Tc  Tc23  1  0.000000  0.194859  0.375066  1
  Tc  Tc24  1  0.194859  0.000000  0.375066  1
  Tc  Tc25  1  0.624934  0.624934  0.819794  1
  Tc  Tc26  1  0.819794  0.624934  0.624934  1
  Tc  Tc27  1  0.624934  0.819794  0.624934  1
  Sn  Sn28  1  0.000000  0.000000  0.000000  1
