# generated using pymatgen
data_Tb4Lu2Al13Si11Os8
_symmetry_space_group_name_H-M   'P 1'
_cell_length_a   8.61674300
_cell_length_b   8.79742511
_cell_length_c   9.22091202
_cell_angle_alpha   89.99315471
_cell_angle_beta   90.00000000
_cell_angle_gamma   119.32289656
_symmetry_Int_Tables_number   1
_chemical_formula_structural   Tb4Lu2Al13Si11Os8
_chemical_formula_sum   'Tb4 Lu2 Al13 Si11 Os8'
_cell_volume   609.43324041
_cell_formula_units_Z   1
loop_
 _symmetry_equiv_pos_site_id
 _symmetry_equiv_pos_as_xyz
  1  'x, y, z'
loop_
 _atom_site_type_symbol
 _atom_site_label
 _atom_site_symmetry_multiplicity
 _atom_site_fract_x
 _atom_site_fract_y
 _atom_site_fract_z
 _atom_site_occupancy
  Tb  Tb0  1  0.629554  0.812140  0.248997  1
  Tb  Tb1  1  0.370682  0.188134  0.750478  1
  Tb  Tb2  1  0.182586  0.812140  0.248997  1
  Tb  Tb3  1  0.817451  0.188134  0.750478  1
  Lu  Lu4  1  0.204252  0.408504  0.250078  1
  Lu  Lu5  1  0.795106  0.590214  0.750489  1
  Al  Al6  1  0.335853  0.671706  0.470846  1
  Al  Al7  1  0.165355  0.330709  0.576308  1
  Al  Al8  1  0.834330  0.668660  0.422297  1
  Al  Al9  1  0.672009  0.832290  0.583446  1
  Al  Al10  1  0.834224  0.668450  0.077377  1
  Al  Al11  1  0.330671  0.168726  0.415380  1
  Al  Al12  1  0.166310  0.332619  0.921586  1
  Al  Al13  1  0.160281  0.832290  0.583446  1
  Al  Al14  1  0.330421  0.169100  0.084354  1
  Al  Al15  1  0.838055  0.168726  0.415380  1
  Al  Al16  1  0.668542  0.830546  0.914440  1
  Al  Al17  1  0.838678  0.169100  0.084354  1
  Al  Al18  1  0.162005  0.830546  0.914440  1
  Si  Si19  1  0.336175  0.672351  0.048325  1
  Si  Si20  1  0.663796  0.327592  0.955433  1
  Si  Si21  1  0.663865  0.327729  0.543592  1
  Si  Si22  1  0.559147  0.118294  0.249659  1
  Si  Si23  1  0.441107  0.882213  0.747857  1
  Si  Si24  1  0.874095  0.440329  0.249789  1
  Si  Si25  1  0.124955  0.559374  0.748262  1
  Si  Si26  1  0.566235  0.440329  0.249789  1
  Si  Si27  1  0.434419  0.559374  0.748262  1
  Si  Si28  1  0.023000  0.046000  0.248764  1
  Si  Si29  1  0.976639  0.953278  0.748958  1
  Os  Os30  1  0.500484  0.000968  0.998596  1
  Os  Os31  1  0.999052  0.499501  0.998702  1
  Os  Os32  1  0.504039  0.008076  0.501470  1
  Os  Os33  1  0.500449  0.499501  0.998702  1
  Os  Os34  1  0.992486  0.495917  0.501445  1
  Os  Os35  1  0.503432  0.495917  0.501445  1
  Os  Os36  1  0.999699  0.999398  0.998889  1
  Os  Os37  1  0.000562  0.001124  0.498885  1
