# generated using pymatgen
data_TbY3Ga4PdRh3
_symmetry_space_group_name_H-M   'P 1'
_cell_length_a   4.35675700
_cell_length_b   6.90759711
_cell_length_c   7.75573556
_cell_angle_alpha   89.81702573
_cell_angle_beta   90.00000000
_cell_angle_gamma   90.00000000
_symmetry_Int_Tables_number   1
_chemical_formula_structural   TbY3Ga4PdRh3
_chemical_formula_sum   'Tb1 Y3 Ga4 Pd1 Rh3'
_cell_volume   233.40551579
_cell_formula_units_Z   1
loop_
 _symmetry_equiv_pos_site_id
 _symmetry_equiv_pos_as_xyz
  1  'x, y, z'
loop_
 _atom_site_type_symbol
 _atom_site_label
 _atom_site_symmetry_multiplicity
 _atom_site_fract_x
 _atom_site_fract_y
 _atom_site_fract_z
 _atom_site_occupancy
  Tb  Tb0  1  0.250000  0.977871  0.308892  1
  Y  Y1  1  0.250000  0.479963  0.195496  1
  Y  Y2  1  0.750000  0.021949  0.687533  1
  Y  Y3  1  0.750000  0.528530  0.809530  1
  Ga  Ga4  1  0.250000  0.343843  0.570727  1
  Ga  Ga5  1  0.250000  0.834392  0.926963  1
  Ga  Ga6  1  0.750000  0.658388  0.427574  1
  Ga  Ga7  1  0.750000  0.158882  0.073659  1
  Pd  Pd8  1  0.250000  0.223262  0.894733  1
  Rh  Rh9  1  0.250000  0.728952  0.604740  1
  Rh  Rh10  1  0.750000  0.773171  0.105226  1
  Rh  Rh11  1  0.750000  0.270795  0.394929  1
