# generated using pymatgen
data_ThAs4(RuRh)3
_symmetry_space_group_name_H-M   'P 1'
_cell_length_a   7.18908000
_cell_length_b   7.18908058
_cell_length_c   3.94827600
_cell_angle_alpha   90.00000000
_cell_angle_beta   90.00000000
_cell_angle_gamma   120.00000654
_symmetry_Int_Tables_number   1
_chemical_formula_structural   ThAs4(RuRh)3
_chemical_formula_sum   'Th1 As4 Ru3 Rh3'
_cell_volume   176.71962238
_cell_formula_units_Z   1
loop_
 _symmetry_equiv_pos_site_id
 _symmetry_equiv_pos_as_xyz
  1  'x, y, z'
loop_
 _atom_site_type_symbol
 _atom_site_label
 _atom_site_symmetry_multiplicity
 _atom_site_fract_x
 _atom_site_fract_y
 _atom_site_fract_z
 _atom_site_occupancy
  Th  Th0  1  0.000000  0.000000  0.000000  1
  As  As1  1  0.802509  0.197491  0.500000  1
  As  As2  1  0.394981  0.197491  0.500000  1
  As  As3  1  0.333333  0.666667  0.000000  1
  As  As4  1  0.802509  0.605019  0.500000  1
  Ru  Ru5  1  0.532567  0.065135  0.000000  1
  Ru  Ru6  1  0.934865  0.467433  0.000000  1
  Ru  Ru7  1  0.532567  0.467433  0.000000  1
  Rh  Rh8  1  0.196363  0.803637  0.500000  1
  Rh  Rh9  1  0.196363  0.392725  0.500000  1
  Rh  Rh10  1  0.607275  0.803637  0.500000  1
