# generated using pymatgen
data_Cs2NaErAs2
_symmetry_space_group_name_H-M   'P 1'
_cell_length_a   9.77916249
_cell_length_b   9.77916229
_cell_length_c   9.77916194
_cell_angle_alpha   136.40696130
_cell_angle_beta   136.90110031
_cell_angle_gamma   62.97166549
_symmetry_Int_Tables_number   1
_chemical_formula_structural   Cs2NaErAs2
_chemical_formula_sum   'Cs4 Na2 Er2 As4'
_cell_volume   435.07147768
_cell_formula_units_Z   2
loop_
 _symmetry_equiv_pos_site_id
 _symmetry_equiv_pos_as_xyz
  1  'x, y, z'
loop_
 _atom_site_type_symbol
 _atom_site_label
 _atom_site_symmetry_multiplicity
 _atom_site_fract_x
 _atom_site_fract_y
 _atom_site_fract_z
 _atom_site_occupancy
  Cs  Cs0  1  0.680768  0.402752  0.721985  1
  Cs  Cs1  1  0.819232  0.041217  0.221985  1
  Cs  Cs2  1  0.180768  0.958783  0.778015  1
  Cs  Cs3  1  0.319232  0.597248  0.278015  1
  Na  Na4  1  0.750000  0.000000  0.750000  1
  Na  Na5  1  0.250000  0.000000  0.250000  1
  Er  Er6  1  0.250000  0.500000  0.750000  1
  Er  Er7  1  0.750000  0.500000  0.250000  1
  As  As8  1  0.410104  0.190170  0.780066  1
  As  As9  1  0.589896  0.809830  0.219934  1
  As  As10  1  0.089896  0.369963  0.280066  1
  As  As11  1  0.910104  0.630037  0.719934  1
