# generated using pymatgen
data_CsLi3Lu2S5
_symmetry_space_group_name_H-M   'P 1'
_cell_length_a   3.96446800
_cell_length_b   7.57441549
_cell_length_c   16.62108100
_cell_angle_alpha   90.00000000
_cell_angle_beta   90.00000000
_cell_angle_gamma   74.82896774
_symmetry_Int_Tables_number   1
_chemical_formula_structural   CsLi3Lu2S5
_chemical_formula_sum   'Cs2 Li6 Lu4 S10'
_cell_volume   481.71219417
_cell_formula_units_Z   2
loop_
 _symmetry_equiv_pos_site_id
 _symmetry_equiv_pos_as_xyz
  1  'x, y, z'
loop_
 _atom_site_type_symbol
 _atom_site_label
 _atom_site_symmetry_multiplicity
 _atom_site_fract_x
 _atom_site_fract_y
 _atom_site_fract_z
 _atom_site_occupancy
  Cs  Cs0  1  0.935401  0.129199  0.250000  1
  Cs  Cs1  1  0.064599  0.870801  0.750000  1
  Li  Li2  1  0.419164  0.161670  0.040549  1
  Li  Li3  1  0.648023  0.703955  0.250000  1
  Li  Li4  1  0.419164  0.161670  0.459452  1
  Li  Li5  1  0.580836  0.838330  0.540548  1
  Li  Li6  1  0.351977  0.296045  0.750000  1
  Li  Li7  1  0.580836  0.838330  0.959452  1
  Lu  Lu8  1  0.195980  0.608039  0.094703  1
  Lu  Lu9  1  0.195980  0.608039  0.405297  1
  Lu  Lu10  1  0.804020  0.391961  0.594703  1
  Lu  Lu11  1  0.804020  0.391961  0.905297  1
  S  S12  1  0.822682  0.354637  0.066555  1
  S  S13  1  0.573190  0.853622  0.109618  1
  S  S14  1  0.234483  0.531031  0.250000  1
  S  S15  1  0.573190  0.853622  0.390381  1
  S  S16  1  0.822682  0.354637  0.433445  1
  S  S17  1  0.177317  0.645363  0.566556  1
  S  S18  1  0.426809  0.146379  0.609618  1
  S  S19  1  0.765516  0.468970  0.750000  1
  S  S20  1  0.426809  0.146379  0.890381  1
  S  S21  1  0.177317  0.645363  0.933445  1
