# generated using pymatgen
data_Zr3Sc5(P3Rh4)4
_symmetry_space_group_name_H-M   'P 1'
_cell_length_a   12.81261300
_cell_length_b   12.81261245
_cell_length_c   3.86028900
_cell_angle_alpha   90.00000000
_cell_angle_beta   90.00000000
_cell_angle_gamma   119.99999884
_symmetry_Int_Tables_number   1
_chemical_formula_structural   Zr3Sc5(P3Rh4)4
_chemical_formula_sum   'Zr3 Sc5 P12 Rh16'
_cell_volume   548.81485072
_cell_formula_units_Z   1
loop_
 _symmetry_equiv_pos_site_id
 _symmetry_equiv_pos_as_xyz
  1  'x, y, z'
loop_
 _atom_site_type_symbol
 _atom_site_label
 _atom_site_symmetry_multiplicity
 _atom_site_fract_x
 _atom_site_fract_y
 _atom_site_fract_z
 _atom_site_occupancy
  Zr  Zr0  1  0.552988  0.552988  0.000000  1
  Zr  Zr1  1  0.447012  0.000000  0.000000  1
  Zr  Zr2  1  0.000000  0.447012  0.000000  1
  Sc  Sc3  1  0.186482  0.186482  0.500000  1
  Sc  Sc4  1  0.813518  0.000000  0.500000  1
  Sc  Sc5  1  0.000000  0.813518  0.500000  1
  Sc  Sc6  1  0.333333  0.666667  0.000000  1
  Sc  Sc7  1  0.666667  0.333333  0.000000  1
  P  P8  1  0.826584  0.826584  0.000000  1
  P  P9  1  0.173416  0.000000  0.000000  1
  P  P10  1  0.000000  0.173416  0.000000  1
  P  P11  1  0.171338  0.484807  0.500000  1
  P  P12  1  0.515193  0.686531  0.500000  1
  P  P13  1  0.313469  0.828662  0.500000  1
  P  P14  1  0.686531  0.515193  0.500000  1
  P  P15  1  0.828662  0.313469  0.500000  1
  P  P16  1  0.484807  0.171338  0.500000  1
  P  P17  1  0.347929  0.347929  0.000000  1
  P  P18  1  0.652071  0.000000  0.000000  1
  P  P19  1  0.000000  0.652071  0.000000  1
  Rh  Rh20  1  0.725944  0.725944  0.500000  1
  Rh  Rh21  1  0.274056  0.000000  0.500000  1
  Rh  Rh22  1  0.000000  0.274056  0.500000  1
  Rh  Rh23  1  0.177394  0.370669  0.000000  1
  Rh  Rh24  1  0.629331  0.806725  0.000000  1
  Rh  Rh25  1  0.193275  0.822606  0.000000  1
  Rh  Rh26  1  0.806725  0.629331  0.000000  1
  Rh  Rh27  1  0.822606  0.193275  0.000000  1
  Rh  Rh28  1  0.370669  0.177394  0.000000  1
  Rh  Rh29  1  0.355841  0.489345  0.500000  1
  Rh  Rh30  1  0.510655  0.866497  0.500000  1
  Rh  Rh31  1  0.133503  0.644159  0.500000  1
  Rh  Rh32  1  0.866497  0.510655  0.500000  1
  Rh  Rh33  1  0.644159  0.133503  0.500000  1
  Rh  Rh34  1  0.489345  0.355841  0.500000  1
  Rh  Rh35  1  0.000000  0.000000  0.000000  1
