# generated using pymatgen
data_Li4Ac3NdGe8
_symmetry_space_group_name_H-M   'P 1'
_cell_length_a   4.12006500
_cell_length_b   8.09179800
_cell_length_c   11.09189704
_cell_angle_alpha   89.90175023
_cell_angle_beta   90.00000000
_cell_angle_gamma   90.00000000
_symmetry_Int_Tables_number   1
_chemical_formula_structural   Li4Ac3NdGe8
_chemical_formula_sum   'Li4 Ac3 Nd1 Ge8'
_cell_volume   369.78925832
_cell_formula_units_Z   1
loop_
 _symmetry_equiv_pos_site_id
 _symmetry_equiv_pos_as_xyz
  1  'x, y, z'
loop_
 _atom_site_type_symbol
 _atom_site_label
 _atom_site_symmetry_multiplicity
 _atom_site_fract_x
 _atom_site_fract_y
 _atom_site_fract_z
 _atom_site_occupancy
  Li  Li0  1  0.250000  0.491411  0.387703  1
  Li  Li1  1  0.250000  0.989815  0.109840  1
  Li  Li2  1  0.750000  0.509028  0.610382  1
  Li  Li3  1  0.750000  0.009625  0.892718  1
  Ac  Ac4  1  0.250000  0.140395  0.633046  1
  Ac  Ac5  1  0.250000  0.637303  0.867613  1
  Ac  Ac6  1  0.750000  0.861670  0.364774  1
  Nd  Nd7  1  0.750000  0.366566  0.133584  1
  Ge  Ge8  1  0.250000  0.219828  0.937240  1
  Ge  Ge9  1  0.250000  0.716333  0.569981  1
  Ge  Ge10  1  0.750000  0.775828  0.070902  1
  Ge  Ge11  1  0.750000  0.286825  0.424348  1
  Ge  Ge12  1  0.250000  0.167737  0.311562  1
  Ge  Ge13  1  0.250000  0.653977  0.181896  1
  Ge  Ge14  1  0.750000  0.837473  0.681768  1
  Ge  Ge15  1  0.750000  0.336187  0.822645  1
