# generated using pymatgen
data_Li8Ac7DySi8
_symmetry_space_group_name_H-M   'P 1'
_cell_length_a   9.25648800
_cell_length_b   9.25648771
_cell_length_c   7.89697500
_cell_angle_alpha   90.00000000
_cell_angle_beta   90.00000000
_cell_angle_gamma   119.99999389
_symmetry_Int_Tables_number   1
_chemical_formula_structural   Li8Ac7DySi8
_chemical_formula_sum   'Li8 Ac7 Dy1 Si8'
_cell_volume   585.98148344
_cell_formula_units_Z   1
loop_
 _symmetry_equiv_pos_site_id
 _symmetry_equiv_pos_as_xyz
  1  'x, y, z'
loop_
 _atom_site_type_symbol
 _atom_site_label
 _atom_site_symmetry_multiplicity
 _atom_site_fract_x
 _atom_site_fract_y
 _atom_site_fract_z
 _atom_site_occupancy
  Li  Li0  1  0.165036  0.330072  0.277802  1
  Li  Li1  1  0.165036  0.834964  0.277802  1
  Li  Li2  1  0.669928  0.834964  0.277802  1
  Li  Li3  1  0.836607  0.673214  0.798463  1
  Li  Li4  1  0.836607  0.163393  0.798463  1
  Li  Li5  1  0.326786  0.163393  0.798463  1
  Li  Li6  1  0.333333  0.666667  0.671406  1
  Li  Li7  1  0.666667  0.333333  0.161879  1
  Ac  Ac8  1  0.512877  0.025754  0.496715  1
  Ac  Ac9  1  0.512877  0.487123  0.496715  1
  Ac  Ac10  1  0.974246  0.487123  0.496715  1
  Ac  Ac11  1  0.486459  0.972917  0.995683  1
  Ac  Ac12  1  0.486459  0.513541  0.995683  1
  Ac  Ac13  1  0.027083  0.513541  0.995683  1
  Ac  Ac14  1  0.000000  0.000000  0.505073  1
  Dy  Dy15  1  0.000000  0.000000  0.010861  1
  Si  Si16  1  0.164783  0.329566  0.729676  1
  Si  Si17  1  0.164783  0.835217  0.729676  1
  Si  Si18  1  0.670434  0.835217  0.729676  1
  Si  Si19  1  0.838061  0.676123  0.211529  1
  Si  Si20  1  0.838061  0.161939  0.211529  1
  Si  Si21  1  0.323877  0.161939  0.211529  1
  Si  Si22  1  0.333333  0.666667  0.285691  1
  Si  Si23  1  0.666667  0.333333  0.777490  1
