# generated using pymatgen
data_Ac2Hg3Pd2Pb
_symmetry_space_group_name_H-M   'P 1'
_cell_length_a   5.85152110
_cell_length_b   5.85152242
_cell_length_c   8.60830200
_cell_angle_alpha   89.22658682
_cell_angle_beta   90.77341336
_cell_angle_gamma   135.73307383
_symmetry_Int_Tables_number   1
_chemical_formula_structural   Ac2Hg3Pd2Pb
_chemical_formula_sum   'Ac2 Hg3 Pd2 Pb1'
_cell_volume   205.71488573
_cell_formula_units_Z   1
loop_
 _symmetry_equiv_pos_site_id
 _symmetry_equiv_pos_as_xyz
  1  'x, y, z'
loop_
 _atom_site_type_symbol
 _atom_site_label
 _atom_site_symmetry_multiplicity
 _atom_site_fract_x
 _atom_site_fract_y
 _atom_site_fract_z
 _atom_site_occupancy
  Ac  Ac0  1  0.930493  0.069507  0.234910  1
  Ac  Ac1  1  0.066690  0.933310  0.762443  1
  Hg  Hg2  1  0.362425  0.637575  0.556689  1
  Hg  Hg3  1  0.642994  0.357006  0.044892  1
  Hg  Hg4  1  0.355046  0.644954  0.950434  1
  Pd  Pd5  1  0.220171  0.779829  0.252562  1
  Pd  Pd6  1  0.775297  0.224703  0.748483  1
  Pb  Pb7  1  0.646885  0.353115  0.449586  1
