# generated using pymatgen
data_ErLu(Si7Ir3)2
_symmetry_space_group_name_H-M   'P 1'
_cell_length_a   8.03950309
_cell_length_b   8.03950173
_cell_length_c   8.03950221
_cell_angle_alpha   56.45876078
_cell_angle_beta   56.45876504
_cell_angle_gamma   56.45876015
_symmetry_Int_Tables_number   1
_chemical_formula_structural   ErLu(Si7Ir3)2
_chemical_formula_sum   'Er1 Lu1 Si14 Ir6'
_cell_volume   337.34812052
_cell_formula_units_Z   1
loop_
 _symmetry_equiv_pos_site_id
 _symmetry_equiv_pos_as_xyz
  1  'x, y, z'
loop_
 _atom_site_type_symbol
 _atom_site_label
 _atom_site_symmetry_multiplicity
 _atom_site_fract_x
 _atom_site_fract_y
 _atom_site_fract_z
 _atom_site_occupancy
  Er  Er0  1  0.500000  0.500000  0.500000  1
  Lu  Lu1  1  0.000000  0.000000  0.000000  1
  Si  Si2  1  0.850350  0.064003  0.672780  1
  Si  Si3  1  0.672780  0.850350  0.064003  1
  Si  Si4  1  0.064003  0.672780  0.850350  1
  Si  Si5  1  0.649657  0.827628  0.435602  1
  Si  Si6  1  0.249962  0.249962  0.249962  1
  Si  Si7  1  0.750038  0.750038  0.750038  1
  Si  Si8  1  0.172372  0.564398  0.350343  1
  Si  Si9  1  0.564398  0.350343  0.172372  1
  Si  Si10  1  0.350343  0.172372  0.564398  1
  Si  Si11  1  0.935997  0.327220  0.149650  1
  Si  Si12  1  0.327220  0.149650  0.935997  1
  Si  Si13  1  0.149650  0.935997  0.327220  1
  Si  Si14  1  0.827628  0.435602  0.649657  1
  Si  Si15  1  0.435602  0.649657  0.827628  1
  Ir  Ir16  1  0.750634  0.070969  0.427982  1
  Ir  Ir17  1  0.427982  0.750634  0.070969  1
  Ir  Ir18  1  0.070969  0.427982  0.750634  1
  Ir  Ir19  1  0.249366  0.929031  0.572018  1
  Ir  Ir20  1  0.572018  0.249366  0.929031  1
  Ir  Ir21  1  0.929031  0.572018  0.249366  1
