# generated using pymatgen
data_LaTh3(Pd2Pb)2
_symmetry_space_group_name_H-M   'P 1'
_cell_length_a   8.04584514
_cell_length_b   8.04584514
_cell_length_c   3.86655700
_cell_angle_alpha   90.00000000
_cell_angle_beta   90.00000000
_cell_angle_gamma   89.18973301
_symmetry_Int_Tables_number   1
_chemical_formula_structural   LaTh3(Pd2Pb)2
_chemical_formula_sum   'La1 Th3 Pd4 Pb2'
_cell_volume   250.27895109
_cell_formula_units_Z   1
loop_
 _symmetry_equiv_pos_site_id
 _symmetry_equiv_pos_as_xyz
  1  'x, y, z'
loop_
 _atom_site_type_symbol
 _atom_site_label
 _atom_site_symmetry_multiplicity
 _atom_site_fract_x
 _atom_site_fract_y
 _atom_site_fract_z
 _atom_site_occupancy
  La  La0  1  0.324164  0.824164  0.500000  1
  Th  Th1  1  0.673909  0.173909  0.500000  1
  Th  Th2  1  0.174443  0.325262  0.500000  1
  Th  Th3  1  0.825262  0.674443  0.500000  1
  Pd  Pd4  1  0.378527  0.133278  0.000000  1
  Pd  Pd5  1  0.117756  0.617756  0.000000  1
  Pd  Pd6  1  0.633278  0.878527  0.000000  1
  Pd  Pd7  1  0.871104  0.371104  0.000000  1
  Pb  Pb8  1  0.001719  0.999839  0.000000  1
  Pb  Pb9  1  0.499839  0.501719  0.000000  1
