# generated using pymatgen
data_Zr16Co5Os3
_symmetry_space_group_name_H-M   'P 1'
_cell_length_a   8.68368951
_cell_length_b   8.69139878
_cell_length_c   8.68943318
_cell_angle_alpha   60.00100385
_cell_angle_beta   59.99718358
_cell_angle_gamma   60.00042940
_symmetry_Int_Tables_number   1
_chemical_formula_structural   Zr16Co5Os3
_chemical_formula_sum   'Zr16 Co5 Os3'
_cell_volume   463.73072618
_cell_formula_units_Z   1
loop_
 _symmetry_equiv_pos_site_id
 _symmetry_equiv_pos_as_xyz
  1  'x, y, z'
loop_
 _atom_site_type_symbol
 _atom_site_label
 _atom_site_symmetry_multiplicity
 _atom_site_fract_x
 _atom_site_fract_y
 _atom_site_fract_z
 _atom_site_occupancy
  Zr  Zr0  1  0.057182  0.647491  0.647511  1
  Zr  Zr1  1  0.647486  0.057251  0.647495  1
  Zr  Zr2  1  0.647508  0.647500  0.057199  1
  Zr  Zr3  1  0.648675  0.648625  0.648642  1
  Zr  Zr4  1  0.798606  0.798444  0.201800  1
  Zr  Zr5  1  0.202554  0.202626  0.798217  1
  Zr  Zr6  1  0.798605  0.201807  0.798484  1
  Zr  Zr7  1  0.202596  0.798166  0.202634  1
  Zr  Zr8  1  0.201772  0.798515  0.798554  1
  Zr  Zr9  1  0.798256  0.202611  0.202577  1
  Zr  Zr10  1  0.435129  0.435183  0.063003  1
  Zr  Zr11  1  0.064324  0.064298  0.435511  1
  Zr  Zr12  1  0.435127  0.063010  0.435179  1
  Zr  Zr13  1  0.064317  0.435524  0.064291  1
  Zr  Zr14  1  0.063089  0.435148  0.435141  1
  Zr  Zr15  1  0.435505  0.064301  0.064302  1
  Co  Co16  1  0.419352  0.419411  0.419406  1
  Co  Co17  1  0.421083  0.860025  0.860000  1
  Co  Co18  1  0.859937  0.421131  0.860047  1
  Co  Co19  1  0.859931  0.860069  0.421121  1
  Co  Co20  1  0.859316  0.859403  0.859384  1
  Os  Os21  1  0.742733  0.418431  0.418421  1
  Os  Os22  1  0.418470  0.742559  0.418475  1
  Os  Os23  1  0.418447  0.418470  0.742607  1
