# generated using pymatgen
data_Ho(AlAg2)4
_symmetry_space_group_name_H-M   'P 1'
_cell_length_a   7.13442453
_cell_length_b   7.13442521
_cell_length_c   7.13442429
_cell_angle_alpha   98.05554697
_cell_angle_beta   98.05554943
_cell_angle_gamma   136.03250913
_symmetry_Int_Tables_number   1
_chemical_formula_structural   Ho(AlAg2)4
_chemical_formula_sum   'Ho1 Al4 Ag8'
_cell_volume   233.78058567
_cell_formula_units_Z   1
loop_
 _symmetry_equiv_pos_site_id
 _symmetry_equiv_pos_as_xyz
  1  'x, y, z'
loop_
 _atom_site_type_symbol
 _atom_site_label
 _atom_site_symmetry_multiplicity
 _atom_site_fract_x
 _atom_site_fract_y
 _atom_site_fract_z
 _atom_site_occupancy
  Ho  Ho0  1  0.000000  0.000000  0.000000  1
  Al  Al1  1  0.500000  0.500000  0.500000  1
  Al  Al2  1  0.000000  0.000000  0.500000  1
  Al  Al3  1  0.000000  0.500000  0.000000  1
  Al  Al4  1  0.500000  0.000000  0.000000  1
  Ag  Ag5  1  0.283765  0.500000  0.783765  1
  Ag  Ag6  1  0.716235  0.500000  0.216235  1
  Ag  Ag7  1  0.500000  0.283765  0.783765  1
  Ag  Ag8  1  0.500000  0.716235  0.216235  1
  Ag  Ag9  1  0.343911  0.000000  0.343911  1
  Ag  Ag10  1  0.656089  0.000000  0.656089  1
  Ag  Ag11  1  0.000000  0.343911  0.343911  1
  Ag  Ag12  1  0.000000  0.656089  0.656089  1
