# generated using pymatgen
data_Ce3Lu(B4W)4
_symmetry_space_group_name_H-M   'P 1'
_cell_length_a   3.67113200
_cell_length_b   6.05144692
_cell_length_c   11.70305401
_cell_angle_alpha   89.85329554
_cell_angle_beta   90.00000000
_cell_angle_gamma   90.00000000
_symmetry_Int_Tables_number   1
_chemical_formula_structural   Ce3Lu(B4W)4
_chemical_formula_sum   'Ce3 Lu1 B16 W4'
_cell_volume   259.99022171
_cell_formula_units_Z   1
loop_
 _symmetry_equiv_pos_site_id
 _symmetry_equiv_pos_as_xyz
  1  'x, y, z'
loop_
 _atom_site_type_symbol
 _atom_site_label
 _atom_site_symmetry_multiplicity
 _atom_site_fract_x
 _atom_site_fract_y
 _atom_site_fract_z
 _atom_site_occupancy
  Ce  Ce0  1  0.000000  0.625173  0.349257  1
  Ce  Ce1  1  0.000000  0.374609  0.651669  1
  Ce  Ce2  1  0.000000  0.124878  0.149985  1
  Lu  Lu3  1  0.000000  0.874601  0.850058  1
  B  B4  1  0.500000  0.786970  0.184625  1
  B  B5  1  0.500000  0.211735  0.814651  1
  B  B6  1  0.500000  0.285829  0.314149  1
  B  B7  1  0.500000  0.713819  0.687204  1
  B  B8  1  0.500000  0.865556  0.030948  1
  B  B9  1  0.500000  0.134315  0.966822  1
  B  B10  1  0.500000  0.364407  0.468437  1
  B  B11  1  0.500000  0.635637  0.532857  1
  B  B12  1  0.500000  0.885843  0.453865  1
  B  B13  1  0.500000  0.113351  0.547960  1
  B  B14  1  0.500000  0.386753  0.045468  1
  B  B15  1  0.500000  0.617038  0.951486  1
  B  B16  1  0.500000  0.974676  0.308068  1
  B  B17  1  0.500000  0.024176  0.693956  1
  B  B18  1  0.500000  0.474873  0.191155  1
  B  B19  1  0.500000  0.524630  0.807799  1
  W  W20  1  0.000000  0.631472  0.084382  1
  W  W21  1  0.000000  0.370228  0.913848  1
  W  W22  1  0.000000  0.131110  0.414578  1
  W  W23  1  0.000000  0.868322  0.586772  1
