# generated using pymatgen
data_LuTh3(B4Ir)4
_symmetry_space_group_name_H-M   'P 1'
_cell_length_a   7.09917445
_cell_length_b   7.09917435
_cell_length_c   7.09917400
_cell_angle_alpha   111.75339015
_cell_angle_beta   111.75339851
_cell_angle_gamma   104.99740144
_symmetry_Int_Tables_number   1
_chemical_formula_structural   LuTh3(B4Ir)4
_chemical_formula_sum   'Lu1 Th3 B16 Ir4'
_cell_volume   274.17737181
_cell_formula_units_Z   1
loop_
 _symmetry_equiv_pos_site_id
 _symmetry_equiv_pos_as_xyz
  1  'x, y, z'
loop_
 _atom_site_type_symbol
 _atom_site_label
 _atom_site_symmetry_multiplicity
 _atom_site_fract_x
 _atom_site_fract_y
 _atom_site_fract_z
 _atom_site_occupancy
  Lu  Lu0  1  0.250017  0.749994  0.499978  1
  Th  Th1  1  0.786390  0.786436  0.000046  1
  Th  Th2  1  0.213593  0.213527  0.999934  1
  Th  Th3  1  0.749986  0.249984  0.499998  1
  B  B4  1  0.264637  0.107752  0.371395  1
  B  B5  1  0.736353  0.893243  0.628612  1
  B  B6  1  0.264632  0.893243  0.156890  1
  B  B7  1  0.736357  0.107752  0.843116  1
  B  B8  1  0.106759  0.735367  0.843113  1
  B  B9  1  0.892255  0.263653  0.156893  1
  B  B10  1  0.106760  0.263653  0.371398  1
  B  B11  1  0.892255  0.735367  0.628609  1
  B  B12  1  0.112936  0.111572  0.527232  1
  B  B13  1  0.584334  0.585705  0.472769  1
  B  B14  1  0.112936  0.585705  0.001370  1
  B  B15  1  0.584340  0.111572  0.998637  1
  B  B16  1  0.888435  0.887065  0.472774  1
  B  B17  1  0.414299  0.415667  0.527237  1
  B  B18  1  0.888430  0.415667  0.001367  1
  B  B19  1  0.414292  0.887065  0.998631  1
  Ir  Ir20  1  0.262001  0.503368  0.758638  1
  Ir  Ir21  1  0.744731  0.503368  0.241368  1
  Ir  Ir22  1  0.496639  0.738010  0.241371  1
  Ir  Ir23  1  0.496634  0.255261  0.758627  1
