# generated using pymatgen
data_Lu7Pa(Si4Ru3)4
_symmetry_space_group_name_H-M   'P 1'
_cell_length_a   10.11580346
_cell_length_b   10.11023904
_cell_length_c   13.59625400
_cell_angle_alpha   53.39148641
_cell_angle_beta   53.34516671
_cell_angle_gamma   30.87747681
_symmetry_Int_Tables_number   1
_chemical_formula_structural   Lu7Pa(Si4Ru3)4
_chemical_formula_sum   'Lu7 Pa1 Si16 Ru12'
_cell_volume   560.47244525
_cell_formula_units_Z   1
loop_
 _symmetry_equiv_pos_site_id
 _symmetry_equiv_pos_as_xyz
  1  'x, y, z'
loop_
 _atom_site_type_symbol
 _atom_site_label
 _atom_site_symmetry_multiplicity
 _atom_site_fract_x
 _atom_site_fract_y
 _atom_site_fract_z
 _atom_site_occupancy
  Lu  Lu0  1  0.038535  0.290020  0.639833  1
  Lu  Lu1  1  0.711712  0.960027  0.859218  1
  Lu  Lu2  1  0.960613  0.710472  0.360249  1
  Lu  Lu3  1  0.288791  0.038553  0.140610  1
  Lu  Lu4  1  0.296760  0.558304  0.645102  1
  Lu  Lu5  1  0.440175  0.709654  0.849918  1
  Lu  Lu6  1  0.703333  0.441136  0.357180  1
  Pa  Pa7  1  0.559573  0.301416  0.139609  1
  Si  Si8  1  0.979052  0.252200  0.891770  1
  Si  Si9  1  0.749576  0.021961  0.607635  1
  Si  Si10  1  0.017354  0.751024  0.105353  1
  Si  Si11  1  0.251470  0.977347  0.393974  1
  Si  Si12  1  0.143674  0.381861  0.898014  1
  Si  Si13  1  0.618333  0.858279  0.600505  1
  Si  Si14  1  0.858655  0.613885  0.102647  1
  Si  Si15  1  0.380854  0.141457  0.400316  1
  Si  Si16  1  0.081254  0.574775  0.567532  1
  Si  Si17  1  0.425941  0.918674  0.932294  1
  Si  Si18  1  0.918616  0.425068  0.433663  1
  Si  Si19  1  0.574089  0.076799  0.065998  1
  Si  Si20  1  0.618419  0.381187  0.749904  1
  Si  Si21  1  0.378779  0.622053  0.252802  1
  Si  Si22  1  0.128739  0.870801  0.750118  1
  Si  Si23  1  0.875244  0.126006  0.252276  1
  Ru  Ru24  1  0.897552  0.140057  0.587694  1
  Ru  Ru25  1  0.852000  0.109035  0.915146  1
  Ru  Ru26  1  0.101782  0.861104  0.414116  1
  Ru  Ru27  1  0.142471  0.891668  0.087330  1
  Ru  Ru28  1  0.833982  0.644308  0.782666  1
  Ru  Ru29  1  0.356657  0.166529  0.716970  1
  Ru  Ru30  1  0.169427  0.356304  0.217244  1
  Ru  Ru31  1  0.645929  0.832959  0.282069  1
  Ru  Ru32  1  0.250691  0.505969  0.931000  1
  Ru  Ru33  1  0.494809  0.748598  0.569828  1
  Ru  Ru34  1  0.748437  0.491405  0.070659  1
  Ru  Ru35  1  0.506722  0.249101  0.428759  1
