# generated using pymatgen
data_PrGd4(ReO6)2
_symmetry_space_group_name_H-M   'P 1'
_cell_length_a   6.95650977
_cell_length_b   6.95650812
_cell_length_c   7.71255400
_cell_angle_alpha   73.90158280
_cell_angle_beta   73.90158673
_cell_angle_gamma   48.70801278
_symmetry_Int_Tables_number   1
_chemical_formula_structural   PrGd4(ReO6)2
_chemical_formula_sum   'Pr1 Gd4 Re2 O12'
_cell_volume   267.12595053
_cell_formula_units_Z   1
loop_
 _symmetry_equiv_pos_site_id
 _symmetry_equiv_pos_as_xyz
  1  'x, y, z'
loop_
 _atom_site_type_symbol
 _atom_site_label
 _atom_site_symmetry_multiplicity
 _atom_site_fract_x
 _atom_site_fract_y
 _atom_site_fract_z
 _atom_site_occupancy
  Pr  Pr0  1  0.194339  0.194339  0.642273  1
  Gd  Gd1  1  0.185558  0.185558  0.170840  1
  Gd  Gd2  1  0.500855  0.500855  0.499397  1
  Gd  Gd3  1  0.806003  0.806003  0.354693  1
  Gd  Gd4  1  0.814318  0.814318  0.827455  1
  Re  Re5  1  0.712340  0.285934  0.002221  1
  Re  Re6  1  0.285934  0.712340  0.002221  1
  O  O7  1  0.414681  0.909225  0.922967  1
  O  O8  1  0.909225  0.414681  0.922967  1
  O  O9  1  0.903198  0.406940  0.417547  1
  O  O10  1  0.406940  0.903198  0.417547  1
  O  O11  1  0.497467  0.497467  0.205507  1
  O  O12  1  0.998184  0.998184  0.173627  1
  O  O13  1  0.998982  0.998982  0.832339  1
  O  O14  1  0.500906  0.500906  0.797238  1
  O  O15  1  0.087104  0.587092  0.081304  1
  O  O16  1  0.587092  0.087104  0.081304  1
  O  O17  1  0.092372  0.604501  0.574277  1
  O  O18  1  0.604501  0.092372  0.574277  1
