# generated using pymatgen
data_U2ReWC4
_symmetry_space_group_name_H-M   'P 1'
_cell_length_a   3.19646600
_cell_length_b   5.63301900
_cell_length_c   11.06838700
_cell_angle_alpha   90.00000000
_cell_angle_beta   90.00000000
_cell_angle_gamma   90.00000000
_symmetry_Int_Tables_number   1
_chemical_formula_structural   U2ReWC4
_chemical_formula_sum   'U4 Re2 W2 C8'
_cell_volume   199.29465030
_cell_formula_units_Z   2
loop_
 _symmetry_equiv_pos_site_id
 _symmetry_equiv_pos_as_xyz
  1  'x, y, z'
loop_
 _atom_site_type_symbol
 _atom_site_label
 _atom_site_symmetry_multiplicity
 _atom_site_fract_x
 _atom_site_fract_y
 _atom_site_fract_z
 _atom_site_occupancy
  U  U0  1  0.250000  0.080204  0.857276  1
  U  U1  1  0.250000  0.580204  0.642724  1
  U  U2  1  0.750000  0.918551  0.140493  1
  U  U3  1  0.750000  0.418551  0.359507  1
  Re  Re4  1  0.750000  0.577502  0.896737  1
  Re  Re5  1  0.750000  0.077502  0.603263  1
  W  W6  1  0.250000  0.421257  0.101911  1
  W  W7  1  0.250000  0.921257  0.398089  1
  C  C8  1  0.250000  0.164028  0.243311  1
  C  C9  1  0.250000  0.664028  0.256689  1
  C  C10  1  0.750000  0.839001  0.754948  1
  C  C11  1  0.750000  0.339001  0.745052  1
  C  C12  1  0.250000  0.746883  0.991795  1
  C  C13  1  0.250000  0.246883  0.508205  1
  C  C14  1  0.750000  0.252575  0.005996  1
  C  C15  1  0.750000  0.752575  0.494004  1
