# generated using pymatgen
data_Hf16TiFe4Au3
_symmetry_space_group_name_H-M   'P 1'
_cell_length_a   8.66824786
_cell_length_b   8.66995936
_cell_length_c   8.66843000
_cell_angle_alpha   60.22330892
_cell_angle_beta   60.24337353
_cell_angle_gamma   60.23214573
_symmetry_Int_Tables_number   1
_chemical_formula_structural   Hf16TiFe4Au3
_chemical_formula_sum   'Hf16 Ti1 Fe4 Au3'
_cell_volume   463.08218613
_cell_formula_units_Z   1
loop_
 _symmetry_equiv_pos_site_id
 _symmetry_equiv_pos_as_xyz
  1  'x, y, z'
loop_
 _atom_site_type_symbol
 _atom_site_label
 _atom_site_symmetry_multiplicity
 _atom_site_fract_x
 _atom_site_fract_y
 _atom_site_fract_z
 _atom_site_occupancy
  Hf  Hf0  1  0.707121  0.097764  0.097833  1
  Hf  Hf1  1  0.097821  0.707170  0.097742  1
  Hf  Hf2  1  0.097854  0.097712  0.707166  1
  Hf  Hf3  1  0.104168  0.104078  0.104140  1
  Hf  Hf4  1  0.312820  0.312766  0.673308  1
  Hf  Hf5  1  0.689287  0.689270  0.311140  1
  Hf  Hf6  1  0.312809  0.673276  0.312815  1
  Hf  Hf7  1  0.689286  0.311105  0.689315  1
  Hf  Hf8  1  0.673255  0.312791  0.312854  1
  Hf  Hf9  1  0.311124  0.689273  0.689314  1
  Hf  Hf10  1  0.944258  0.944241  0.555416  1
  Hf  Hf11  1  0.558678  0.558861  0.947513  1
  Hf  Hf12  1  0.944249  0.555459  0.944249  1
  Hf  Hf13  1  0.558724  0.947494  0.558848  1
  Hf  Hf14  1  0.555361  0.944244  0.944264  1
  Hf  Hf15  1  0.947488  0.558800  0.558745  1
  Ti  Ti16  1  0.327615  0.327607  0.327666  1
  Fe  Fe17  1  0.328735  0.892416  0.892313  1
  Fe  Fe18  1  0.892438  0.328776  0.892279  1
  Fe  Fe19  1  0.892378  0.892359  0.328627  1
  Fe  Fe20  1  0.888691  0.888716  0.888582  1
  Au  Au21  1  0.988883  0.338473  0.338472  1
  Au  Au22  1  0.338489  0.988866  0.338497  1
  Au  Au23  1  0.338464  0.338474  0.988899  1
