# generated using pymatgen
data_CaTbMgRuO6
_symmetry_space_group_name_H-M   'P 1'
_cell_length_a   5.65850400
_cell_length_b   5.39542291
_cell_length_c   9.43556987
_cell_angle_alpha   55.15004047
_cell_angle_beta   90.00000000
_cell_angle_gamma   90.00000000
_symmetry_Int_Tables_number   1
_chemical_formula_structural   CaTbMgRuO6
_chemical_formula_sum   'Ca2 Tb2 Mg2 Ru2 O12'
_cell_volume   236.40349536
_cell_formula_units_Z   2
loop_
 _symmetry_equiv_pos_site_id
 _symmetry_equiv_pos_as_xyz
  1  'x, y, z'
loop_
 _atom_site_type_symbol
 _atom_site_label
 _atom_site_symmetry_multiplicity
 _atom_site_fract_x
 _atom_site_fract_y
 _atom_site_fract_z
 _atom_site_occupancy
  Ca  Ca0  1  0.191079  0.235533  0.250079  1
  Ca  Ca1  1  0.808921  0.235533  0.750079  1
  Tb  Tb2  1  0.317621  0.767228  0.752514  1
  Tb  Tb3  1  0.682379  0.767228  0.252514  1
  Mg  Mg4  1  0.755731  0.500933  0.000268  1
  Mg  Mg5  1  0.244269  0.500933  0.500268  1
  Ru  Ru6  1  0.753110  0.999979  0.500409  1
  Ru  Ru7  1  0.246890  0.999979  0.000409  1
  O  O8  1  0.048774  0.124320  0.558122  1
  O  O9  1  0.951226  0.124320  0.058122  1
  O  O10  1  0.466020  0.859980  0.443203  1
  O  O11  1  0.533980  0.859980  0.943203  1
  O  O12  1  0.785321  0.358088  0.256454  1
  O  O13  1  0.214679  0.358088  0.756454  1
  O  O14  1  0.711678  0.659443  0.743509  1
  O  O15  1  0.288322  0.659443  0.243509  1
  O  O16  1  0.938982  0.754387  0.444898  1
  O  O17  1  0.061018  0.754387  0.944898  1
  O  O18  1  0.550113  0.240109  0.550546  1
  O  O19  1  0.449887  0.240109  0.050546  1
