# generated using pymatgen
data_Tm3Mn(Al4Ir)3
_symmetry_space_group_name_H-M   'P 1'
_cell_length_a   8.75216500
_cell_length_b   8.75216592
_cell_length_c   9.45522500
_cell_angle_alpha   90.00000000
_cell_angle_beta   90.00000000
_cell_angle_gamma   120.00000031
_symmetry_Int_Tables_number   1
_chemical_formula_structural   Tm3Mn(Al4Ir)3
_chemical_formula_sum   'Tm6 Mn2 Al24 Ir6'
_cell_volume   627.23969800
_cell_formula_units_Z   2
loop_
 _symmetry_equiv_pos_site_id
 _symmetry_equiv_pos_as_xyz
  1  'x, y, z'
loop_
 _atom_site_type_symbol
 _atom_site_label
 _atom_site_symmetry_multiplicity
 _atom_site_fract_x
 _atom_site_fract_y
 _atom_site_fract_z
 _atom_site_occupancy
  Tm  Tm0  1  0.194649  0.389297  0.250000  1
  Tm  Tm1  1  0.805351  0.610703  0.750000  1
  Tm  Tm2  1  0.610703  0.805351  0.250000  1
  Tm  Tm3  1  0.389297  0.194649  0.750000  1
  Tm  Tm4  1  0.194649  0.805351  0.250000  1
  Tm  Tm5  1  0.805351  0.194649  0.750000  1
  Mn  Mn6  1  0.000000  0.000000  0.000000  1
  Mn  Mn7  1  0.000000  0.000000  0.500000  1
  Al  Al8  1  0.333333  0.666667  0.024866  1
  Al  Al9  1  0.666667  0.333333  0.975134  1
  Al  Al10  1  0.666667  0.333333  0.524866  1
  Al  Al11  1  0.333333  0.666667  0.475134  1
  Al  Al12  1  0.160008  0.320016  0.576809  1
  Al  Al13  1  0.839992  0.679984  0.423191  1
  Al  Al14  1  0.679984  0.839992  0.576809  1
  Al  Al15  1  0.839992  0.679984  0.076809  1
  Al  Al16  1  0.320016  0.160008  0.423191  1
  Al  Al17  1  0.160008  0.320016  0.923191  1
  Al  Al18  1  0.160008  0.839992  0.576809  1
  Al  Al19  1  0.320016  0.160008  0.076809  1
  Al  Al20  1  0.839992  0.160008  0.423191  1
  Al  Al21  1  0.679984  0.839992  0.923191  1
  Al  Al22  1  0.839992  0.160008  0.076809  1
  Al  Al23  1  0.160008  0.839992  0.923191  1
  Al  Al24  1  0.562995  0.125989  0.250000  1
  Al  Al25  1  0.437005  0.874011  0.750000  1
  Al  Al26  1  0.874011  0.437005  0.250000  1
  Al  Al27  1  0.125989  0.562995  0.750000  1
  Al  Al28  1  0.562995  0.437005  0.250000  1
  Al  Al29  1  0.437005  0.562995  0.750000  1
  Al  Al30  1  0.000000  0.000000  0.250000  1
  Al  Al31  1  0.000000  0.000000  0.750000  1
  Ir  Ir32  1  0.500000  0.000000  0.000000  1
  Ir  Ir33  1  0.000000  0.500000  0.000000  1
  Ir  Ir34  1  0.500000  0.000000  0.500000  1
  Ir  Ir35  1  0.500000  0.500000  0.000000  1
  Ir  Ir36  1  0.000000  0.500000  0.500000  1
  Ir  Ir37  1  0.500000  0.500000  0.500000  1
