# generated using pymatgen
data_Er12Fe4CoSn
_symmetry_space_group_name_H-M   'P 1'
_cell_length_a   8.22940395
_cell_length_b   8.22919631
_cell_length_c   8.22940446
_cell_angle_alpha   111.12978458
_cell_angle_beta   110.51538304
_cell_angle_gamma   106.80263426
_symmetry_Int_Tables_number   1
_chemical_formula_structural   Er12Fe4CoSn
_chemical_formula_sum   'Er12 Fe4 Co1 Sn1'
_cell_volume   428.30255190
_cell_formula_units_Z   1
loop_
 _symmetry_equiv_pos_site_id
 _symmetry_equiv_pos_as_xyz
  1  'x, y, z'
loop_
 _atom_site_type_symbol
 _atom_site_label
 _atom_site_symmetry_multiplicity
 _atom_site_fract_x
 _atom_site_fract_y
 _atom_site_fract_z
 _atom_site_occupancy
  Er  Er0  1  0.285740  0.185929  0.471672  1
  Er  Er1  1  0.714260  0.814071  0.528328  1
  Er  Er2  1  0.285743  0.814071  0.099812  1
  Er  Er3  1  0.714257  0.185929  0.900188  1
  Er  Er4  1  0.614034  0.311581  0.302446  1
  Er  Er5  1  0.385966  0.688419  0.697554  1
  Er  Er6  1  0.009136  0.311581  0.697547  1
  Er  Er7  1  0.990864  0.688419  0.302453  1
  Er  Er8  1  0.213166  0.406685  0.193519  1
  Er  Er9  1  0.786834  0.593315  0.806481  1
  Er  Er10  1  0.213172  0.019654  0.806483  1
  Er  Er11  1  0.786828  0.980346  0.193517  1
  Fe  Fe12  1  0.000006  0.383083  0.383077  1
  Fe  Fe13  1  0.999994  0.616917  0.616923  1
  Fe  Fe14  1  0.391603  0.891590  0.499988  1
  Fe  Fe15  1  0.608397  0.108410  0.500012  1
  Co  Co16  1  0.000000  0.000000  0.000000  1
  Sn  Sn17  1  0.500000  0.500000  0.000000  1
