# generated using pymatgen
data_HoPa(H3Os)2
_symmetry_space_group_name_H-M   'P 1'
_cell_length_a   5.96318600
_cell_length_b   5.96318521
_cell_length_c   4.66089000
_cell_angle_alpha   90.00000000
_cell_angle_beta   90.00000000
_cell_angle_gamma   142.41657136
_symmetry_Int_Tables_number   1
_chemical_formula_structural   HoPa(H3Os)2
_chemical_formula_sum   'Ho1 Pa1 H6 Os2'
_cell_volume   101.08705062
_cell_formula_units_Z   1
loop_
 _symmetry_equiv_pos_site_id
 _symmetry_equiv_pos_as_xyz
  1  'x, y, z'
loop_
 _atom_site_type_symbol
 _atom_site_label
 _atom_site_symmetry_multiplicity
 _atom_site_fract_x
 _atom_site_fract_y
 _atom_site_fract_z
 _atom_site_occupancy
  Ho  Ho0  1  0.865163  0.134837  0.750001  1
  Pa  Pa1  1  0.118652  0.881348  0.250000  1
  H  H2  1  0.310718  0.689283  0.996596  1
  H  H3  1  0.912467  0.087534  0.250000  1
  H  H4  1  0.310718  0.689283  0.503405  1
  H  H5  1  0.694255  0.305746  0.486602  1
  H  H6  1  0.084623  0.915378  0.750001  1
  H  H7  1  0.694255  0.305746  0.013397  1
  Os  Os8  1  0.421837  0.578164  0.250000  1
  Os  Os9  1  0.587317  0.412684  0.750001  1
