# generated using pymatgen
data_Tb7Gd5(OsRu)2
_symmetry_space_group_name_H-M   'P 1'
_cell_length_a   6.36555803
_cell_length_b   7.35018042
_cell_length_c   9.21681600
_cell_angle_alpha   89.92654626
_cell_angle_beta   89.95419439
_cell_angle_gamma   90.06250517
_symmetry_Int_Tables_number   1
_chemical_formula_structural   Tb7Gd5(OsRu)2
_chemical_formula_sum   'Tb7 Gd5 Os2 Ru2'
_cell_volume   431.23563809
_cell_formula_units_Z   1
loop_
 _symmetry_equiv_pos_site_id
 _symmetry_equiv_pos_as_xyz
  1  'x, y, z'
loop_
 _atom_site_type_symbol
 _atom_site_label
 _atom_site_symmetry_multiplicity
 _atom_site_fract_x
 _atom_site_fract_y
 _atom_site_fract_z
 _atom_site_occupancy
  Tb  Tb0  1  0.635021  0.039113  0.249269  1
  Tb  Tb1  1  0.364752  0.961042  0.750613  1
  Tb  Tb2  1  0.133314  0.458933  0.750591  1
  Tb  Tb3  1  0.866527  0.540644  0.249310  1
  Tb  Tb4  1  0.170043  0.176928  0.064819  1
  Tb  Tb5  1  0.829544  0.823571  0.934565  1
  Tb  Tb6  1  0.669406  0.323713  0.937265  1
  Gd  Gd7  1  0.829260  0.823040  0.565422  1
  Gd  Gd8  1  0.331605  0.675335  0.062627  1
  Gd  Gd9  1  0.170661  0.176861  0.434118  1
  Gd  Gd10  1  0.330698  0.676274  0.436914  1
  Gd  Gd11  1  0.668956  0.324245  0.563348  1
  Os  Os12  1  0.458891  0.385311  0.249677  1
  Os  Os13  1  0.541255  0.614545  0.750499  1
  Ru  Ru14  1  0.960672  0.114228  0.751527  1
  Ru  Ru15  1  0.039395  0.886217  0.249435  1
