# generated using pymatgen
data_Ho9Er3In20
_symmetry_space_group_name_H-M   'P 1'
_cell_length_a   6.49910737
_cell_length_b   10.39734900
_cell_length_c   12.23114002
_cell_angle_alpha   90.00000000
_cell_angle_beta   90.02302964
_cell_angle_gamma   90.00000000
_symmetry_Int_Tables_number   1
_chemical_formula_structural   Ho9Er3In20
_chemical_formula_sum   'Ho9 Er3 In20'
_cell_volume   826.50072131
_cell_formula_units_Z   1
loop_
 _symmetry_equiv_pos_site_id
 _symmetry_equiv_pos_as_xyz
  1  'x, y, z'
loop_
 _atom_site_type_symbol
 _atom_site_label
 _atom_site_symmetry_multiplicity
 _atom_site_fract_x
 _atom_site_fract_y
 _atom_site_fract_z
 _atom_site_occupancy
  Ho  Ho0  1  0.850637  0.250000  0.443940  1
  Ho  Ho1  1  0.890209  0.492486  0.141818  1
  Ho  Ho2  1  0.609559  0.007112  0.642088  1
  Ho  Ho3  1  0.109930  0.992216  0.858476  1
  Ho  Ho4  1  0.389949  0.507076  0.358272  1
  Ho  Ho5  1  0.109930  0.507784  0.858476  1
  Ho  Ho6  1  0.389949  0.992924  0.358272  1
  Ho  Ho7  1  0.890209  0.007514  0.141818  1
  Ho  Ho8  1  0.609559  0.492888  0.642088  1
  Er  Er9  1  0.350143  0.750000  0.055255  1
  Er  Er10  1  0.149802  0.750000  0.555597  1
  Er  Er11  1  0.649894  0.250000  0.944849  1
  In  In12  1  0.614637  0.750000  0.505248  1
  In  In13  1  0.885129  0.750000  0.005430  1
  In  In14  1  0.383993  0.250000  0.495276  1
  In  In15  1  0.115092  0.250000  0.994226  1
  In  In16  1  0.650907  0.750000  0.244541  1
  In  In17  1  0.849052  0.750000  0.744927  1
  In  In18  1  0.349099  0.250000  0.755592  1
  In  In19  1  0.152349  0.250000  0.254338  1
  In  In20  1  0.125328  0.750000  0.283174  1
  In  In21  1  0.375361  0.750000  0.783426  1
  In  In22  1  0.875127  0.250000  0.717076  1
  In  In23  1  0.624983  0.250000  0.215551  1
  In  In24  1  0.874997  0.544365  0.401016  1
  In  In25  1  0.624939  0.956312  0.901019  1
  In  In26  1  0.124615  0.043514  0.599369  1
  In  In27  1  0.375037  0.456475  0.098718  1
  In  In28  1  0.124615  0.456486  0.599369  1
  In  In29  1  0.375037  0.043525  0.098718  1
  In  In30  1  0.874997  0.955635  0.401016  1
  In  In31  1  0.624939  0.543688  0.901019  1
