# generated using pymatgen
data_Pr3Nd2(Sn5Rh2)2
_symmetry_space_group_name_H-M   'P 1'
_cell_length_a   14.26453900
_cell_length_b   14.26453900
_cell_length_c   4.64213200
_cell_angle_alpha   90.00000000
_cell_angle_beta   90.00000000
_cell_angle_gamma   90.00000000
_symmetry_Int_Tables_number   1
_chemical_formula_structural   Pr3Nd2(Sn5Rh2)2
_chemical_formula_sum   'Pr6 Nd4 Sn20 Rh8'
_cell_volume   944.56743129
_cell_formula_units_Z   2
loop_
 _symmetry_equiv_pos_site_id
 _symmetry_equiv_pos_as_xyz
  1  'x, y, z'
loop_
 _atom_site_type_symbol
 _atom_site_label
 _atom_site_symmetry_multiplicity
 _atom_site_fract_x
 _atom_site_fract_y
 _atom_site_fract_z
 _atom_site_occupancy
  Pr  Pr0  1  0.500000  0.500000  0.000000  1
  Pr  Pr1  1  0.000000  0.000000  0.000000  1
  Pr  Pr2  1  0.888076  0.388076  0.500000  1
  Pr  Pr3  1  0.111924  0.611924  0.500000  1
  Pr  Pr4  1  0.388076  0.111924  0.500000  1
  Pr  Pr5  1  0.611924  0.888076  0.500000  1
  Nd  Nd6  1  0.678006  0.178006  0.500000  1
  Nd  Nd7  1  0.321994  0.821994  0.500000  1
  Nd  Nd8  1  0.178006  0.321994  0.500000  1
  Nd  Nd9  1  0.821994  0.678006  0.500000  1
  Sn  Sn10  1  0.569639  0.069639  0.000000  1
  Sn  Sn11  1  0.430361  0.930361  0.000000  1
  Sn  Sn12  1  0.069639  0.430361  0.000000  1
  Sn  Sn13  1  0.930361  0.569639  0.000000  1
  Sn  Sn14  1  0.653905  0.697846  0.000000  1
  Sn  Sn15  1  0.346095  0.302154  0.000000  1
  Sn  Sn16  1  0.153905  0.802154  0.000000  1
  Sn  Sn17  1  0.846095  0.197846  0.000000  1
  Sn  Sn18  1  0.302154  0.653905  0.000000  1
  Sn  Sn19  1  0.697846  0.346095  0.000000  1
  Sn  Sn20  1  0.197846  0.153905  0.000000  1
  Sn  Sn21  1  0.802154  0.846095  0.000000  1
  Sn  Sn22  1  0.663926  0.504828  0.500000  1
  Sn  Sn23  1  0.336074  0.495172  0.500000  1
  Sn  Sn24  1  0.163926  0.995172  0.500000  1
  Sn  Sn25  1  0.836074  0.004828  0.500000  1
  Sn  Sn26  1  0.495172  0.663926  0.500000  1
  Sn  Sn27  1  0.504828  0.336074  0.500000  1
  Sn  Sn28  1  0.004828  0.163926  0.500000  1
  Sn  Sn29  1  0.995172  0.836074  0.500000  1
  Rh  Rh30  1  0.746224  0.528036  0.000000  1
  Rh  Rh31  1  0.253776  0.471964  0.000000  1
  Rh  Rh32  1  0.246224  0.971964  0.000000  1
  Rh  Rh33  1  0.753776  0.028036  0.000000  1
  Rh  Rh34  1  0.471964  0.746224  0.000000  1
  Rh  Rh35  1  0.528036  0.253776  0.000000  1
  Rh  Rh36  1  0.028036  0.246224  0.000000  1
  Rh  Rh37  1  0.971964  0.753776  0.000000  1
