# generated using pymatgen
data_TbDyU(AlIr)3
_symmetry_space_group_name_H-M   'P 1'
_cell_length_a   7.04811118
_cell_length_b   7.22426989
_cell_length_c   3.95861400
_cell_angle_alpha   90.00000000
_cell_angle_beta   90.00000000
_cell_angle_gamma   120.82105517
_symmetry_Int_Tables_number   1
_chemical_formula_structural   TbDyU(AlIr)3
_chemical_formula_sum   'Tb1 Dy1 U1 Al3 Ir3'
_cell_volume   173.09621645
_cell_formula_units_Z   1
loop_
 _symmetry_equiv_pos_site_id
 _symmetry_equiv_pos_as_xyz
  1  'x, y, z'
loop_
 _atom_site_type_symbol
 _atom_site_label
 _atom_site_symmetry_multiplicity
 _atom_site_fract_x
 _atom_site_fract_y
 _atom_site_fract_z
 _atom_site_occupancy
  Tb  Tb0  1  0.413181  0.416086  0.500000  1
  Dy  Dy1  1  0.587005  0.002934  0.500000  1
  U  U2  1  0.000036  0.579710  0.500000  1
  Al  Al3  1  0.752034  0.757519  0.000000  1
  Al  Al4  1  0.248037  0.005343  0.000000  1
  Al  Al5  1  0.999852  0.228159  0.000000  1
  Ir  Ir6  1  0.700512  0.363008  0.000000  1
  Ir  Ir7  1  0.299551  0.662727  0.000000  1
  Ir  Ir8  1  0.999792  0.984515  0.500000  1
