# generated using pymatgen
data_Yb2Al20FeIr3
_symmetry_space_group_name_H-M   'P 1'
_cell_length_a   6.85171169
_cell_length_b   6.85632880
_cell_length_c   9.09949376
_cell_angle_alpha   90.11631482
_cell_angle_beta   89.86409959
_cell_angle_gamma   96.84557087
_symmetry_Int_Tables_number   1
_chemical_formula_structural   Yb2Al20FeIr3
_chemical_formula_sum   'Yb2 Al20 Fe1 Ir3'
_cell_volume   424.42297814
_cell_formula_units_Z   1
loop_
 _symmetry_equiv_pos_site_id
 _symmetry_equiv_pos_as_xyz
  1  'x, y, z'
loop_
 _atom_site_type_symbol
 _atom_site_label
 _atom_site_symmetry_multiplicity
 _atom_site_fract_x
 _atom_site_fract_y
 _atom_site_fract_z
 _atom_site_occupancy
  Yb  Yb0  1  0.874390  0.125526  0.248843  1
  Yb  Yb1  1  0.125610  0.874474  0.751157  1
  Al  Al2  1  0.223915  0.222868  0.497925  1
  Al  Al3  1  0.771328  0.780919  0.003140  1
  Al  Al4  1  0.776085  0.777132  0.502075  1
  Al  Al5  1  0.228672  0.219081  0.996860  1
  Al  Al6  1  0.378967  0.622546  0.553789  1
  Al  Al7  1  0.619613  0.372304  0.051005  1
  Al  Al8  1  0.582636  0.860074  0.755394  1
  Al  Al9  1  0.417364  0.139926  0.244606  1
  Al  Al10  1  0.856137  0.586904  0.249287  1
  Al  Al11  1  0.143863  0.413096  0.750713  1
  Al  Al12  1  0.479570  0.222023  0.755593  1
  Al  Al13  1  0.520430  0.777977  0.244407  1
  Al  Al14  1  0.225572  0.478368  0.249018  1
  Al  Al15  1  0.774428  0.521632  0.750982  1
  Al  Al16  1  0.156417  0.842998  0.397641  1
  Al  Al17  1  0.837451  0.153176  0.901589  1
  Al  Al18  1  0.843583  0.157002  0.602359  1
  Al  Al19  1  0.162549  0.846824  0.098411  1
  Al  Al20  1  0.380387  0.627696  0.948995  1
  Al  Al21  1  0.621033  0.377454  0.446211  1
  Fe  Fe22  1  0.500000  0.000000  0.000000  1
  Ir  Ir23  1  0.000000  0.500000  0.500000  1
  Ir  Ir24  1  0.000000  0.500000  0.000000  1
  Ir  Ir25  1  0.500000  0.000000  0.500000  1
