# generated using pymatgen
data_La2Er3Pb4
_symmetry_space_group_name_H-M   'P 1'
_cell_length_a   8.34324000
_cell_length_b   8.39109500
_cell_length_c   15.90549800
_cell_angle_alpha   90.00000000
_cell_angle_beta   90.00000000
_cell_angle_gamma   90.00000000
_symmetry_Int_Tables_number   1
_chemical_formula_structural   La2Er3Pb4
_chemical_formula_sum   'La8 Er12 Pb16'
_cell_volume   1113.52672826
_cell_formula_units_Z   4
loop_
 _symmetry_equiv_pos_site_id
 _symmetry_equiv_pos_as_xyz
  1  'x, y, z'
loop_
 _atom_site_type_symbol
 _atom_site_label
 _atom_site_symmetry_multiplicity
 _atom_site_fract_x
 _atom_site_fract_y
 _atom_site_fract_z
 _atom_site_occupancy
  La  La0  1  0.022896  0.177696  0.096783  1
  La  La1  1  0.522896  0.322304  0.403217  1
  La  La2  1  0.477104  0.677696  0.903217  1
  La  La3  1  0.977104  0.822304  0.596783  1
  La  La4  1  0.977104  0.822304  0.903217  1
  La  La5  1  0.477104  0.677696  0.596783  1
  La  La6  1  0.522896  0.322304  0.096783  1
  La  La7  1  0.022896  0.177696  0.403217  1
  Er  Er8  1  0.863970  0.658023  0.123058  1
  Er  Er9  1  0.363970  0.841977  0.376942  1
  Er  Er10  1  0.636030  0.158023  0.876942  1
  Er  Er11  1  0.136030  0.341977  0.623058  1
  Er  Er12  1  0.136030  0.341977  0.876942  1
  Er  Er13  1  0.636030  0.158023  0.623058  1
  Er  Er14  1  0.363970  0.841977  0.123058  1
  Er  Er15  1  0.863970  0.658023  0.376942  1
  Er  Er16  1  0.698158  0.994162  0.250000  1
  Er  Er17  1  0.198158  0.505838  0.250000  1
  Er  Er18  1  0.801842  0.494162  0.750000  1
  Er  Er19  1  0.301842  0.005838  0.750000  1
  Pb  Pb20  1  0.059646  0.869226  0.250000  1
  Pb  Pb21  1  0.559646  0.630774  0.250000  1
  Pb  Pb22  1  0.440354  0.369226  0.750000  1
  Pb  Pb23  1  0.940354  0.130774  0.750000  1
  Pb  Pb24  1  0.834948  0.351837  0.250000  1
  Pb  Pb25  1  0.334948  0.148163  0.250000  1
  Pb  Pb26  1  0.665052  0.851837  0.750000  1
  Pb  Pb27  1  0.165052  0.648163  0.750000  1
  Pb  Pb28  1  0.798322  0.457820  0.955848  1
  Pb  Pb29  1  0.298322  0.042180  0.544152  1
  Pb  Pb30  1  0.701678  0.957820  0.044152  1
  Pb  Pb31  1  0.201678  0.542180  0.455848  1
  Pb  Pb32  1  0.201678  0.542180  0.044152  1
  Pb  Pb33  1  0.701678  0.957820  0.455848  1
  Pb  Pb34  1  0.298322  0.042180  0.955848  1
  Pb  Pb35  1  0.798322  0.457820  0.544152  1
