# generated using pymatgen
data_V8CdFe3O16
_symmetry_space_group_name_H-M   'P 1'
_cell_length_a   6.21854900
_cell_length_b   8.52941800
_cell_length_c   6.21854900
_cell_angle_alpha   90.00000000
_cell_angle_beta   90.00000000
_cell_angle_gamma   90.00000000
_symmetry_Int_Tables_number   1
_chemical_formula_structural   V8CdFe3O16
_chemical_formula_sum   'V8 Cd1 Fe3 O16'
_cell_volume   329.83559356
_cell_formula_units_Z   1
loop_
 _symmetry_equiv_pos_site_id
 _symmetry_equiv_pos_as_xyz
  1  'x, y, z'
loop_
 _atom_site_type_symbol
 _atom_site_label
 _atom_site_symmetry_multiplicity
 _atom_site_fract_x
 _atom_site_fract_y
 _atom_site_fract_z
 _atom_site_occupancy
  V  V0  1  0.750000  0.255046  0.747134  1
  V  V1  1  0.250000  0.746589  0.252575  1
  V  V2  1  0.750000  0.255046  0.252866  1
  V  V3  1  0.250000  0.746589  0.747425  1
  V  V4  1  0.502575  0.503411  0.000000  1
  V  V5  1  0.997134  0.994954  0.500000  1
  V  V6  1  0.997425  0.503411  0.000000  1
  V  V7  1  0.502866  0.994954  0.500000  1
  Cd  Cd8  1  0.250000  0.125000  0.000000  1
  Fe  Fe9  1  0.750000  0.625000  0.500000  1
  Fe  Fe10  1  0.750000  0.872494  0.000000  1
  Fe  Fe11  1  0.250000  0.377506  0.500000  1
  O  O12  1  0.750000  0.496296  0.223219  1
  O  O13  1  0.250000  0.981940  0.712762  1
  O  O14  1  0.750000  0.496296  0.776781  1
  O  O15  1  0.250000  0.981940  0.287238  1
  O  O16  1  0.962762  0.268060  0.000000  1
  O  O17  1  0.473219  0.753704  0.500000  1
  O  O18  1  0.537238  0.268060  0.000000  1
  O  O19  1  0.026781  0.753704  0.500000  1
  O  O20  1  0.250000  0.508285  0.777151  1
  O  O21  1  0.750000  0.008889  0.277096  1
  O  O22  1  0.250000  0.508285  0.222849  1
  O  O23  1  0.750000  0.008889  0.722904  1
  O  O24  1  0.027151  0.741715  0.000000  1
  O  O25  1  0.527096  0.241111  0.500000  1
  O  O26  1  0.472849  0.741715  0.000000  1
  O  O27  1  0.972904  0.241111  0.500000  1
