# generated using pymatgen
data_Pr3DyHo4(CdPt)2
_symmetry_space_group_name_H-M   'P 1'
_cell_length_a   9.78862897
_cell_length_b   9.78862851
_cell_length_c   9.77727400
_cell_angle_alpha   60.03835731
_cell_angle_beta   60.03835888
_cell_angle_gamma   60.13826344
_symmetry_Int_Tables_number   1
_chemical_formula_structural   Pr3DyHo4(CdPt)2
_chemical_formula_sum   'Pr6 Dy2 Ho8 Cd4 Pt4'
_cell_volume   663.51437142
_cell_formula_units_Z   2
loop_
 _symmetry_equiv_pos_site_id
 _symmetry_equiv_pos_as_xyz
  1  'x, y, z'
loop_
 _atom_site_type_symbol
 _atom_site_label
 _atom_site_symmetry_multiplicity
 _atom_site_fract_x
 _atom_site_fract_y
 _atom_site_fract_z
 _atom_site_occupancy
  Pr  Pr0  1  0.938755  0.561195  0.561656  1
  Pr  Pr1  1  0.561195  0.938755  0.938394  1
  Pr  Pr2  1  0.561195  0.938755  0.561656  1
  Pr  Pr3  1  0.938755  0.561195  0.938394  1
  Pr  Pr4  1  0.561245  0.561245  0.938755  1
  Pr  Pr5  1  0.938584  0.938584  0.561416  1
  Dy  Dy6  1  0.350266  0.350266  0.350297  1
  Dy  Dy7  1  0.350266  0.350266  0.949172  1
  Ho  Ho8  1  0.350259  0.949181  0.350281  1
  Ho  Ho9  1  0.949181  0.350259  0.350281  1
  Ho  Ho10  1  0.812848  0.187231  0.187456  1
  Ho  Ho11  1  0.187231  0.812848  0.812465  1
  Ho  Ho12  1  0.187231  0.812848  0.187456  1
  Ho  Ho13  1  0.812848  0.187231  0.812465  1
  Ho  Ho14  1  0.187153  0.187153  0.812847  1
  Ho  Ho15  1  0.812657  0.812657  0.187343  1
  Cd  Cd16  1  0.579477  0.579477  0.579289  1
  Cd  Cd17  1  0.579477  0.579477  0.261756  1
  Cd  Cd18  1  0.579780  0.261739  0.579241  1
  Cd  Cd19  1  0.261739  0.579780  0.579241  1
  Pt  Pt20  1  0.142619  0.142619  0.142850  1
  Pt  Pt21  1  0.142619  0.142619  0.571913  1
  Pt  Pt22  1  0.142156  0.572466  0.142689  1
  Pt  Pt23  1  0.572466  0.142156  0.142689  1
