# generated using pymatgen
data_Er12Fe2Co3Pb
_symmetry_space_group_name_H-M   'P 1'
_cell_length_a   8.21894953
_cell_length_b   8.21894874
_cell_length_c   8.21894972
_cell_angle_alpha   111.29244800
_cell_angle_beta   111.28685635
_cell_angle_gamma   105.89254143
_symmetry_Int_Tables_number   1
_chemical_formula_structural   Er12Fe2Co3Pb
_chemical_formula_sum   'Er12 Fe2 Co3 Pb1'
_cell_volume   426.15219043
_cell_formula_units_Z   1
loop_
 _symmetry_equiv_pos_site_id
 _symmetry_equiv_pos_as_xyz
  1  'x, y, z'
loop_
 _atom_site_type_symbol
 _atom_site_label
 _atom_site_symmetry_multiplicity
 _atom_site_fract_x
 _atom_site_fract_y
 _atom_site_fract_z
 _atom_site_occupancy
  Er  Er0  1  0.286299  0.185926  0.472226  1
  Er  Er1  1  0.713701  0.814074  0.527774  1
  Er  Er2  1  0.286299  0.814074  0.100373  1
  Er  Er3  1  0.713701  0.185926  0.899627  1
  Er  Er4  1  0.617496  0.311359  0.306136  1
  Er  Er5  1  0.382504  0.688641  0.693864  1
  Er  Er6  1  0.005225  0.311359  0.693864  1
  Er  Er7  1  0.994775  0.688641  0.306136  1
  Er  Er8  1  0.210424  0.404803  0.194379  1
  Er  Er9  1  0.789576  0.595197  0.805621  1
  Er  Er10  1  0.210424  0.016045  0.805621  1
  Er  Er11  1  0.789576  0.983955  0.194379  1
  Fe  Fe12  1  0.000000  0.381728  0.381728  1
  Fe  Fe13  1  0.000000  0.618272  0.618272  1
  Co  Co14  1  0.388991  0.888991  0.500000  1
  Co  Co15  1  0.611009  0.111009  0.500000  1
  Co  Co16  1  0.000000  0.000000  0.000000  1
  Pb  Pb17  1  0.500000  0.500000  0.000000  1
