# generated using pymatgen
data_ThCuNi3Au
_symmetry_space_group_name_H-M   'P 1'
_cell_length_a   5.03154394
_cell_length_b   5.03154413
_cell_length_c   5.03154388
_cell_angle_alpha   60.65335069
_cell_angle_beta   60.65334663
_cell_angle_gamma   60.65334654
_symmetry_Int_Tables_number   1
_chemical_formula_structural   ThCuNi3Au
_chemical_formula_sum   'Th1 Cu1 Ni3 Au1'
_cell_volume   91.40042055
_cell_formula_units_Z   1
loop_
 _symmetry_equiv_pos_site_id
 _symmetry_equiv_pos_as_xyz
  1  'x, y, z'
loop_
 _atom_site_type_symbol
 _atom_site_label
 _atom_site_symmetry_multiplicity
 _atom_site_fract_x
 _atom_site_fract_y
 _atom_site_fract_z
 _atom_site_occupancy
  Th  Th0  1  0.248764  0.248764  0.248764  1
  Cu  Cu1  1  0.627037  0.627037  0.627037  1
  Ni  Ni2  1  0.625846  0.625846  0.123509  1
  Ni  Ni3  1  0.625846  0.123509  0.625846  1
  Ni  Ni4  1  0.123509  0.625846  0.625846  1
  Au  Au5  1  0.998998  0.998998  0.998998  1
