# generated using pymatgen
data_Lu4GaCo4Si2Ge
_symmetry_space_group_name_H-M   'P 1'
_cell_length_a   4.17646400
_cell_length_b   6.74700232
_cell_length_c   6.98108894
_cell_angle_alpha   89.42422202
_cell_angle_beta   90.00000000
_cell_angle_gamma   90.00000000
_symmetry_Int_Tables_number   1
_chemical_formula_structural   Lu4GaCo4Si2Ge
_chemical_formula_sum   'Lu4 Ga1 Co4 Si2 Ge1'
_cell_volume   196.70746569
_cell_formula_units_Z   1
loop_
 _symmetry_equiv_pos_site_id
 _symmetry_equiv_pos_as_xyz
  1  'x, y, z'
loop_
 _atom_site_type_symbol
 _atom_site_label
 _atom_site_symmetry_multiplicity
 _atom_site_fract_x
 _atom_site_fract_y
 _atom_site_fract_z
 _atom_site_occupancy
  Lu  Lu0  1  0.750000  0.513175  0.804641  1
  Lu  Lu1  1  0.750000  0.014061  0.691993  1
  Lu  Lu2  1  0.250000  0.489610  0.196775  1
  Lu  Lu3  1  0.250000  0.985518  0.306067  1
  Ga  Ga4  1  0.750000  0.200395  0.105613  1
  Co  Co5  1  0.750000  0.355069  0.446480  1
  Co  Co6  1  0.750000  0.835148  0.072236  1
  Co  Co7  1  0.250000  0.650426  0.557188  1
  Co  Co8  1  0.250000  0.156823  0.924532  1
  Si  Si9  1  0.750000  0.699961  0.394118  1
  Si  Si10  1  0.250000  0.302124  0.605581  1
  Ge  Ge11  1  0.250000  0.797691  0.894774  1
