# generated using pymatgen
data_YFeGeH
_symmetry_space_group_name_H-M   'P 1'
_cell_length_a   3.87554800
_cell_length_b   3.87554800
_cell_length_c   7.64488600
_cell_angle_alpha   90.00000000
_cell_angle_beta   90.00000000
_cell_angle_gamma   90.00000000
_symmetry_Int_Tables_number   1
_chemical_formula_structural   YFeGeH
_chemical_formula_sum   'Y2 Fe2 Ge2 H2'
_cell_volume   114.82521147
_cell_formula_units_Z   2
loop_
 _symmetry_equiv_pos_site_id
 _symmetry_equiv_pos_as_xyz
  1  'x, y, z'
loop_
 _atom_site_type_symbol
 _atom_site_label
 _atom_site_symmetry_multiplicity
 _atom_site_fract_x
 _atom_site_fract_y
 _atom_site_fract_z
 _atom_site_occupancy
  Y  Y0  1  0.500000  0.000000  0.342274  1
  Y  Y1  1  0.000000  0.500000  0.657726  1
  Fe  Fe2  1  0.500000  0.500000  0.000000  1
  Fe  Fe3  1  0.000000  0.000000  0.000000  1
  Ge  Ge4  1  0.500000  0.000000  0.813469  1
  Ge  Ge5  1  0.000000  0.500000  0.186531  1
  H  H6  1  0.000000  0.000000  0.500000  1
  H  H7  1  0.500000  0.500000  0.500000  1
