# generated using pymatgen
data_PrTmTcB6
_symmetry_space_group_name_H-M   'P 1'
_cell_length_a   3.72553400
_cell_length_b   9.21039100
_cell_length_c   11.67827600
_cell_angle_alpha   90.00000000
_cell_angle_beta   90.00000000
_cell_angle_gamma   90.00000000
_symmetry_Int_Tables_number   1
_chemical_formula_structural   PrTmTcB6
_chemical_formula_sum   'Pr4 Tm4 Tc4 B24'
_cell_volume   400.72398125
_cell_formula_units_Z   4
loop_
 _symmetry_equiv_pos_site_id
 _symmetry_equiv_pos_as_xyz
  1  'x, y, z'
loop_
 _atom_site_type_symbol
 _atom_site_label
 _atom_site_symmetry_multiplicity
 _atom_site_fract_x
 _atom_site_fract_y
 _atom_site_fract_z
 _atom_site_occupancy
  Pr  Pr0  1  0.000000  0.323394  0.414880  1
  Pr  Pr1  1  0.000000  0.676606  0.585120  1
  Pr  Pr2  1  0.000000  0.823394  0.085120  1
  Pr  Pr3  1  0.000000  0.176606  0.914880  1
  Tm  Tm4  1  0.000000  0.942951  0.368542  1
  Tm  Tm5  1  0.000000  0.057049  0.631458  1
  Tm  Tm6  1  0.000000  0.442951  0.131458  1
  Tm  Tm7  1  0.000000  0.557049  0.868542  1
  Tc  Tc8  1  0.000000  0.640818  0.318139  1
  Tc  Tc9  1  0.000000  0.359182  0.681861  1
  Tc  Tc10  1  0.000000  0.140818  0.181861  1
  Tc  Tc11  1  0.000000  0.859182  0.818139  1
  B  B12  1  0.500000  0.556386  0.429343  1
  B  B13  1  0.500000  0.443614  0.570657  1
  B  B14  1  0.500000  0.056386  0.070657  1
  B  B15  1  0.500000  0.943614  0.929343  1
  B  B16  1  0.500000  0.751257  0.415099  1
  B  B17  1  0.500000  0.248743  0.584901  1
  B  B18  1  0.500000  0.251257  0.084901  1
  B  B19  1  0.500000  0.748743  0.915099  1
  B  B20  1  0.500000  0.792372  0.265851  1
  B  B21  1  0.500000  0.207628  0.734149  1
  B  B22  1  0.500000  0.292372  0.234149  1
  B  B23  1  0.500000  0.707628  0.765851  1
  B  B24  1  0.500000  0.629676  0.185772  1
  B  B25  1  0.500000  0.370324  0.814228  1
  B  B26  1  0.500000  0.129676  0.314228  1
  B  B27  1  0.500000  0.870324  0.685772  1
  B  B28  1  0.500000  0.984561  0.213834  1
  B  B29  1  0.500000  0.015439  0.786166  1
  B  B30  1  0.500000  0.484561  0.286166  1
  B  B31  1  0.500000  0.515439  0.713834  1
  B  B32  1  0.500000  0.594869  0.025833  1
  B  B33  1  0.500000  0.405131  0.974167  1
  B  B34  1  0.500000  0.094869  0.474167  1
  B  B35  1  0.500000  0.905131  0.525833  1
