# generated using pymatgen
data_Li3Tm4Co9(Ni2P3)4
_symmetry_space_group_name_H-M   'P 1'
_cell_length_a   3.68462200
_cell_length_b   10.26433359
_cell_length_c   11.86995848
_cell_angle_alpha   90.24264349
_cell_angle_beta   90.00000000
_cell_angle_gamma   90.00000000
_symmetry_Int_Tables_number   1
_chemical_formula_structural   Li3Tm4Co9(Ni2P3)4
_chemical_formula_sum   'Li3 Tm4 Co9 Ni8 P12'
_cell_volume   448.92005177
_cell_formula_units_Z   1
loop_
 _symmetry_equiv_pos_site_id
 _symmetry_equiv_pos_as_xyz
  1  'x, y, z'
loop_
 _atom_site_type_symbol
 _atom_site_label
 _atom_site_symmetry_multiplicity
 _atom_site_fract_x
 _atom_site_fract_y
 _atom_site_fract_z
 _atom_site_occupancy
  Li  Li0  1  0.250000  0.702214  0.990943  1
  Li  Li1  1  0.250000  0.797061  0.492028  1
  Li  Li2  1  0.750000  0.296739  0.007025  1
  Tm  Tm3  1  0.250000  0.579419  0.703955  1
  Tm  Tm4  1  0.250000  0.919425  0.205814  1
  Tm  Tm5  1  0.750000  0.419866  0.293195  1
  Tm  Tm6  1  0.750000  0.079624  0.794940  1
  Co  Co7  1  0.250000  0.274919  0.672112  1
  Co  Co8  1  0.250000  0.880253  0.700260  1
  Co  Co9  1  0.250000  0.621552  0.199597  1
  Co  Co10  1  0.750000  0.121500  0.302557  1
  Co  Co11  1  0.750000  0.377380  0.797416  1
  Co  Co12  1  0.250000  0.465245  0.930319  1
  Co  Co13  1  0.250000  0.034809  0.432959  1
  Co  Co14  1  0.750000  0.533385  0.066824  1
  Co  Co15  1  0.750000  0.966567  0.567236  1
  Ni  Ni16  1  0.750000  0.210110  0.510573  1
  Ni  Ni17  1  0.250000  0.406339  0.484005  1
  Ni  Ni18  1  0.250000  0.094401  0.988539  1
  Ni  Ni19  1  0.750000  0.591997  0.513469  1
  Ni  Ni20  1  0.750000  0.906981  0.014407  1
  Ni  Ni21  1  0.250000  0.222761  0.176474  1
  Ni  Ni22  1  0.750000  0.778543  0.826993  1
  Ni  Ni23  1  0.750000  0.722191  0.326781  1
  P  P24  1  0.250000  0.426495  0.113859  1
  P  P25  1  0.250000  0.075410  0.614414  1
  P  P26  1  0.750000  0.572450  0.883753  1
  P  P27  1  0.750000  0.926955  0.385243  1
  P  P28  1  0.250000  0.269897  0.858607  1
  P  P29  1  0.250000  0.230348  0.365688  1
  P  P30  1  0.750000  0.728618  0.138681  1
  P  P31  1  0.750000  0.771839  0.639326  1
  P  P32  1  0.250000  0.597867  0.389268  1
  P  P33  1  0.250000  0.902119  0.890504  1
  P  P34  1  0.750000  0.394222  0.609642  1
  P  P35  1  0.750000  0.100503  0.112592  1
