# generated using pymatgen
data_YPaF8
_symmetry_space_group_name_H-M   'P 1'
_cell_length_a   8.29691086
_cell_length_b   8.37383476
_cell_length_c   8.18344568
_cell_angle_alpha   63.64766079
_cell_angle_beta   64.14801766
_cell_angle_gamma   80.68411813
_symmetry_Int_Tables_number   1
_chemical_formula_structural   YPaF8
_chemical_formula_sum   'Y3 Pa3 F24'
_cell_volume   458.13624824
_cell_formula_units_Z   3
loop_
 _symmetry_equiv_pos_site_id
 _symmetry_equiv_pos_as_xyz
  1  'x, y, z'
loop_
 _atom_site_type_symbol
 _atom_site_label
 _atom_site_symmetry_multiplicity
 _atom_site_fract_x
 _atom_site_fract_y
 _atom_site_fract_z
 _atom_site_occupancy
  Y  Y0  1  0.369910  0.235912  0.333255  1
  Y  Y1  1  0.222268  0.361761  0.842389  1
  Y  Y2  1  0.780793  0.618235  0.166114  1
  Pa  Pa3  1  0.625666  0.774741  0.662901  1
  Pa  Pa4  1  0.787028  0.206832  0.757438  1
  Pa  Pa5  1  0.213607  0.786189  0.260856  1
  F  F6  1  0.311961  0.267272  0.606625  1
  F  F7  1  0.684782  0.741718  0.393173  1
  F  F8  1  0.726595  0.687396  0.888792  1
  F  F9  1  0.271954  0.316157  0.102379  1
  F  F10  1  0.826485  0.933602  0.946195  1
  F  F11  1  0.183123  0.049722  0.047685  1
  F  F12  1  0.052015  0.173294  0.553083  1
  F  F13  1  0.928630  0.829954  0.463887  1
  F  F14  1  0.407899  0.603205  0.740429  1
  F  F15  1  0.603934  0.401289  0.245000  1
  F  F16  1  0.502439  0.995170  0.498621  1
  F  F17  1  0.004843  0.507869  0.991586  1
  F  F18  1  0.513477  0.250187  0.784481  1
  F  F19  1  0.494835  0.753447  0.204276  1
  F  F20  1  0.737801  0.499293  0.719546  1
  F  F21  1  0.259158  0.517856  0.277554  1
  F  F22  1  0.400247  0.812192  0.914887  1
  F  F23  1  0.613922  0.177645  0.064995  1
  F  F24  1  0.178691  0.608908  0.568146  1
  F  F25  1  0.814775  0.394045  0.444580  1
  F  F26  1  0.719527  0.025346  0.647503  1
  F  F27  1  0.270439  0.968382  0.354538  1
  F  F28  1  0.966159  0.275762  0.849390  1
  F  F29  1  0.027039  0.726618  0.169699  1
