# generated using pymatgen
data_Ga3Ni8Pt4W
_symmetry_space_group_name_H-M   'P 1'
_cell_length_a   3.75659400
_cell_length_b   3.70248800
_cell_length_c   14.88157200
_cell_angle_alpha   90.00000000
_cell_angle_beta   90.00000000
_cell_angle_gamma   90.00000000
_symmetry_Int_Tables_number   1
_chemical_formula_structural   Ga3Ni8Pt4W
_chemical_formula_sum   'Ga3 Ni8 Pt4 W1'
_cell_volume   206.98397833
_cell_formula_units_Z   1
loop_
 _symmetry_equiv_pos_site_id
 _symmetry_equiv_pos_as_xyz
  1  'x, y, z'
loop_
 _atom_site_type_symbol
 _atom_site_label
 _atom_site_symmetry_multiplicity
 _atom_site_fract_x
 _atom_site_fract_y
 _atom_site_fract_z
 _atom_site_occupancy
  Ga  Ga0  1  0.000000  0.000000  0.256585  1
  Ga  Ga1  1  0.000000  0.000000  0.500000  1
  Ga  Ga2  1  0.000000  0.000000  0.743415  1
  Ni  Ni3  1  0.500000  0.500000  0.000000  1
  Ni  Ni4  1  0.500000  0.500000  0.249710  1
  Ni  Ni5  1  0.500000  0.500000  0.500000  1
  Ni  Ni6  1  0.500000  0.500000  0.750290  1
  Ni  Ni7  1  0.000000  0.500000  0.120797  1
  Ni  Ni8  1  0.000000  0.500000  0.377013  1
  Ni  Ni9  1  0.000000  0.500000  0.622987  1
  Ni  Ni10  1  0.000000  0.500000  0.879203  1
  Pt  Pt11  1  0.500000  0.000000  0.125789  1
  Pt  Pt12  1  0.500000  0.000000  0.375995  1
  Pt  Pt13  1  0.500000  0.000000  0.624005  1
  Pt  Pt14  1  0.500000  0.000000  0.874211  1
  W  W15  1  0.000000  0.000000  0.000000  1
