# generated using pymatgen
data_Lu20AlSi7Hg4
_symmetry_space_group_name_H-M   'P 1'
_cell_length_a   7.41535010
_cell_length_b   7.41534925
_cell_length_c   13.89402500
_cell_angle_alpha   90.00958104
_cell_angle_beta   90.00958104
_cell_angle_gamma   89.63417013
_symmetry_Int_Tables_number   1
_chemical_formula_structural   Lu20AlSi7Hg4
_chemical_formula_sum   'Lu20 Al1 Si7 Hg4'
_cell_volume   763.98086693
_cell_formula_units_Z   1
loop_
 _symmetry_equiv_pos_site_id
 _symmetry_equiv_pos_as_xyz
  1  'x, y, z'
loop_
 _atom_site_type_symbol
 _atom_site_label
 _atom_site_symmetry_multiplicity
 _atom_site_fract_x
 _atom_site_fract_y
 _atom_site_fract_z
 _atom_site_occupancy
  Lu  Lu0  1  0.831039  0.826103  0.892459  1
  Lu  Lu1  1  0.173897  0.168961  0.607541  1
  Lu  Lu2  1  0.832541  0.171495  0.390336  1
  Lu  Lu3  1  0.167782  0.828336  0.389353  1
  Lu  Lu4  1  0.329189  0.332090  0.389896  1
  Lu  Lu5  1  0.828505  0.167459  0.109664  1
  Lu  Lu6  1  0.328696  0.666618  0.890037  1
  Lu  Lu7  1  0.171664  0.832218  0.110647  1
  Lu  Lu8  1  0.496599  0.998474  0.753502  1
  Lu  Lu9  1  0.000089  0.499963  0.246732  1
  Lu  Lu10  1  0.333382  0.671304  0.609963  1
  Lu  Lu11  1  0.667910  0.670811  0.110104  1
  Lu  Lu12  1  0.664454  0.330290  0.607774  1
  Lu  Lu13  1  0.001526  0.503401  0.746498  1
  Lu  Lu14  1  0.826344  0.830625  0.607495  1
  Lu  Lu15  1  0.669710  0.335546  0.892226  1
  Lu  Lu16  1  0.169375  0.173656  0.892505  1
  Lu  Lu17  1  0.500037  0.999911  0.253268  1
  Lu  Lu18  1  0.672179  0.666830  0.389864  1
  Lu  Lu19  1  0.333170  0.327821  0.110136  1
  Al  Al20  1  0.875128  0.124872  0.750000  1
  Si  Si21  1  0.627975  0.372025  0.250000  1
  Si  Si22  1  0.372111  0.627889  0.250000  1
  Si  Si23  1  0.128119  0.128499  0.250035  1
  Si  Si24  1  0.372368  0.371436  0.750058  1
  Si  Si25  1  0.126153  0.873847  0.750000  1
  Si  Si26  1  0.871501  0.871881  0.249965  1
  Si  Si27  1  0.628564  0.627632  0.749942  1
  Hg  Hg28  1  0.000778  0.500823  0.002368  1
  Hg  Hg29  1  0.499190  0.999152  0.999963  1
  Hg  Hg30  1  0.499177  0.999222  0.497632  1
  Hg  Hg31  1  0.000848  0.500810  0.500037  1
