# generated using pymatgen
data_Dy6ErRh3
_symmetry_space_group_name_H-M   'P 1'
_cell_length_a   9.79586000
_cell_length_b   9.79586034
_cell_length_c   6.16913200
_cell_angle_alpha   90.00000000
_cell_angle_beta   90.00000000
_cell_angle_gamma   119.99999887
_symmetry_Int_Tables_number   1
_chemical_formula_structural   Dy6ErRh3
_chemical_formula_sum   'Dy12 Er2 Rh6'
_cell_volume   512.67230106
_cell_formula_units_Z   2
loop_
 _symmetry_equiv_pos_site_id
 _symmetry_equiv_pos_as_xyz
  1  'x, y, z'
loop_
 _atom_site_type_symbol
 _atom_site_label
 _atom_site_symmetry_multiplicity
 _atom_site_fract_x
 _atom_site_fract_y
 _atom_site_fract_z
 _atom_site_occupancy
  Dy  Dy0  1  0.752013  0.876007  0.992255  1
  Dy  Dy1  1  0.876007  0.123993  0.492255  1
  Dy  Dy2  1  0.541044  0.458956  0.797575  1
  Dy  Dy3  1  0.082088  0.541044  0.297575  1
  Dy  Dy4  1  0.458956  0.917912  0.297575  1
  Dy  Dy5  1  0.541044  0.082088  0.797575  1
  Dy  Dy6  1  0.917912  0.458956  0.797575  1
  Dy  Dy7  1  0.458956  0.541044  0.297575  1
  Dy  Dy8  1  0.123993  0.247987  0.992255  1
  Dy  Dy9  1  0.876007  0.752013  0.492255  1
  Dy  Dy10  1  0.247987  0.123993  0.492255  1
  Dy  Dy11  1  0.123993  0.876007  0.992255  1
  Er  Er12  1  0.666667  0.333333  0.283882  1
  Er  Er13  1  0.333333  0.666667  0.783882  1
  Rh  Rh14  1  0.190122  0.809878  0.562877  1
  Rh  Rh15  1  0.380246  0.190122  0.062877  1
  Rh  Rh16  1  0.809878  0.619754  0.062877  1
  Rh  Rh17  1  0.190122  0.380246  0.562877  1
  Rh  Rh18  1  0.619754  0.809878  0.562877  1
  Rh  Rh19  1  0.809878  0.190122  0.062877  1
