# generated using pymatgen
data_Pr4Ga3SnRu4
_symmetry_space_group_name_H-M   'P 1'
_cell_length_a   4.74133500
_cell_length_b   7.18212434
_cell_length_c   7.54972943
_cell_angle_alpha   89.33661901
_cell_angle_beta   90.00000000
_cell_angle_gamma   90.00000000
_symmetry_Int_Tables_number   1
_chemical_formula_structural   Pr4Ga3SnRu4
_chemical_formula_sum   'Pr4 Ga3 Sn1 Ru4'
_cell_volume   257.07262880
_cell_formula_units_Z   1
loop_
 _symmetry_equiv_pos_site_id
 _symmetry_equiv_pos_as_xyz
  1  'x, y, z'
loop_
 _atom_site_type_symbol
 _atom_site_label
 _atom_site_symmetry_multiplicity
 _atom_site_fract_x
 _atom_site_fract_y
 _atom_site_fract_z
 _atom_site_occupancy
  Pr  Pr0  1  0.250000  0.812769  0.469866  1
  Pr  Pr1  1  0.750000  0.186448  0.538094  1
  Pr  Pr2  1  0.750000  0.305934  0.019576  1
  Pr  Pr3  1  0.250000  0.696775  0.965042  1
  Ga  Ga4  1  0.750000  0.611126  0.690214  1
  Ga  Ga5  1  0.750000  0.889214  0.189411  1
  Ga  Ga6  1  0.250000  0.110457  0.809377  1
  Sn  Sn7  1  0.250000  0.387772  0.307152  1
  Ru  Ru8  1  0.750000  0.567075  0.355196  1
  Ru  Ru9  1  0.750000  0.938900  0.848971  1
  Ru  Ru10  1  0.250000  0.052034  0.145930  1
  Ru  Ru11  1  0.250000  0.441496  0.661171  1
