# generated using pymatgen
data_CsDy8Tm2(C2Br9)2
_symmetry_space_group_name_H-M   'P 1'
_cell_length_a   10.70294325
_cell_length_b   10.77846930
_cell_length_c   10.87873152
_cell_angle_alpha   113.39273619
_cell_angle_beta   87.38387195
_cell_angle_gamma   119.04436895
_symmetry_Int_Tables_number   1
_chemical_formula_structural   CsDy8Tm2(C2Br9)2
_chemical_formula_sum   'Cs1 Dy8 Tm2 C4 Br18'
_cell_volume   989.91306499
_cell_formula_units_Z   1
loop_
 _symmetry_equiv_pos_site_id
 _symmetry_equiv_pos_as_xyz
  1  'x, y, z'
loop_
 _atom_site_type_symbol
 _atom_site_label
 _atom_site_symmetry_multiplicity
 _atom_site_fract_x
 _atom_site_fract_y
 _atom_site_fract_z
 _atom_site_occupancy
  Cs  Cs0  1  0.499962  0.999734  0.499869  1
  Dy  Dy1  1  0.093457  0.406022  0.300330  1
  Dy  Dy2  1  0.959789  0.036247  0.332511  1
  Dy  Dy3  1  0.907077  0.594175  0.699686  1
  Dy  Dy4  1  0.111208  0.941890  0.000901  1
  Dy  Dy5  1  0.040133  0.964014  0.667092  1
  Dy  Dy6  1  0.336483  0.282506  0.296972  1
  Dy  Dy7  1  0.717211  0.635782  0.987931  1
  Dy  Dy8  1  0.888715  0.058299  0.999313  1
  Tm  Tm9  1  0.665946  0.718597  0.705118  1
  Tm  Tm10  1  0.280875  0.362177  0.012666  1
  C  C11  1  0.157228  0.227933  0.122822  1
  C  C12  1  0.841865  0.771717  0.876104  1
  C  C13  1  0.921245  0.851377  0.795301  1
  C  C14  1  0.077837  0.148432  0.203525  1
  Br  Br15  1  0.451091  0.530747  0.833242  1
  Br  Br16  1  0.383444  0.039709  0.159307  1
  Br  Br17  1  0.776693  0.855921  0.502838  1
  Br  Br18  1  0.837822  0.310769  0.153998  1
  Br  Br19  1  0.545771  0.468482  0.164687  1
  Br  Br20  1  0.222175  0.142971  0.498237  1
  Br  Br21  1  0.315104  0.102133  0.830825  1
  Br  Br22  1  0.684841  0.900850  0.170927  1
  Br  Br23  1  0.974324  0.760242  0.172328  1
  Br  Br24  1  0.932637  0.301873  0.500878  1
  Br  Br25  1  0.028900  0.241823  0.829592  1
  Br  Br26  1  0.067604  0.698501  0.499133  1
  Br  Br27  1  0.260972  0.619701  0.183415  1
  Br  Br28  1  0.739928  0.377117  0.813391  1
  Br  Br29  1  0.639187  0.437938  0.502485  1
  Br  Br30  1  0.162141  0.689237  0.845752  1
  Br  Br31  1  0.616728  0.956396  0.838221  1
  Br  Br32  1  0.361607  0.566688  0.500605  1
