# generated using pymatgen
data_Ce2Mn3Al20Tc
_symmetry_space_group_name_H-M   'P 1'
_cell_length_a   6.83500062
_cell_length_b   6.83616559
_cell_length_c   9.07980740
_cell_angle_alpha   90.00765006
_cell_angle_beta   90.23384773
_cell_angle_gamma   97.55408649
_symmetry_Int_Tables_number   1
_chemical_formula_structural   Ce2Mn3Al20Tc
_chemical_formula_sum   'Ce2 Mn3 Al20 Tc1'
_cell_volume   420.57015257
_cell_formula_units_Z   1
loop_
 _symmetry_equiv_pos_site_id
 _symmetry_equiv_pos_as_xyz
  1  'x, y, z'
loop_
 _atom_site_type_symbol
 _atom_site_label
 _atom_site_symmetry_multiplicity
 _atom_site_fract_x
 _atom_site_fract_y
 _atom_site_fract_z
 _atom_site_occupancy
  Ce  Ce0  1  0.875903  0.124541  0.751326  1
  Ce  Ce1  1  0.124097  0.875459  0.248674  1
  Mn  Mn2  1  0.500000  0.000000  0.000000  1
  Mn  Mn3  1  0.000000  0.500000  0.000000  1
  Mn  Mn4  1  0.000000  0.500000  0.500000  1
  Al  Al5  1  0.592738  0.867051  0.246620  1
  Al  Al6  1  0.781504  0.523996  0.249416  1
  Al  Al7  1  0.159925  0.839572  0.901988  1
  Al  Al8  1  0.407262  0.132949  0.753380  1
  Al  Al9  1  0.624791  0.376216  0.953053  1
  Al  Al10  1  0.845373  0.161228  0.402051  1
  Al  Al11  1  0.771240  0.770645  0.998711  1
  Al  Al12  1  0.868775  0.590047  0.749780  1
  Al  Al13  1  0.840075  0.160428  0.098012  1
  Al  Al14  1  0.218496  0.476004  0.750584  1
  Al  Al15  1  0.154627  0.838772  0.597949  1
  Al  Al16  1  0.774686  0.768801  0.498147  1
  Al  Al17  1  0.475156  0.220319  0.248341  1
  Al  Al18  1  0.626605  0.378635  0.546235  1
  Al  Al19  1  0.225314  0.231199  0.501853  1
  Al  Al20  1  0.373395  0.621365  0.453765  1
  Al  Al21  1  0.131225  0.409953  0.250220  1
  Al  Al22  1  0.524844  0.779681  0.751659  1
  Al  Al23  1  0.375209  0.623784  0.046947  1
  Al  Al24  1  0.228760  0.229355  0.001289  1
  Tc  Tc25  1  0.500000  0.000000  0.500000  1
