# generated using pymatgen
data_Zr3Ta(GaRh5)2
_symmetry_space_group_name_H-M   'P 1'
_cell_length_a   5.56445379
_cell_length_b   5.56445396
_cell_length_c   8.09896100
_cell_angle_alpha   90.00234716
_cell_angle_beta   90.00234535
_cell_angle_gamma   96.97655369
_symmetry_Int_Tables_number   1
_chemical_formula_structural   Zr3Ta(GaRh5)2
_chemical_formula_sum   'Zr3 Ta1 Ga2 Rh10'
_cell_volume   248.91260779
_cell_formula_units_Z   1
loop_
 _symmetry_equiv_pos_site_id
 _symmetry_equiv_pos_as_xyz
  1  'x, y, z'
loop_
 _atom_site_type_symbol
 _atom_site_label
 _atom_site_symmetry_multiplicity
 _atom_site_fract_x
 _atom_site_fract_y
 _atom_site_fract_z
 _atom_site_occupancy
  Zr  Zr0  1  0.224381  0.775619  0.000000  1
  Zr  Zr1  1  0.224533  0.775467  0.500000  1
  Zr  Zr2  1  0.776779  0.223221  0.000000  1
  Ta  Ta3  1  0.780351  0.219649  0.500000  1
  Ga  Ga4  1  0.502388  0.500687  0.749408  1
  Ga  Ga5  1  0.499313  0.497612  0.250592  1
  Rh  Rh6  1  0.721547  0.722559  0.000689  1
  Rh  Rh7  1  0.720218  0.719518  0.499385  1
  Rh  Rh8  1  0.277441  0.278453  0.999311  1
  Rh  Rh9  1  0.280482  0.279782  0.500615  1
  Rh  Rh10  1  0.503283  0.005362  0.745409  1
  Rh  Rh11  1  0.503217  0.004995  0.254571  1
  Rh  Rh12  1  0.998367  0.001943  0.255270  1
  Rh  Rh13  1  0.998057  0.001633  0.744730  1
  Rh  Rh14  1  0.995005  0.496783  0.745429  1
  Rh  Rh15  1  0.994638  0.496717  0.254591  1
