# generated using pymatgen
data_Dy5Er5IrRu3
_symmetry_space_group_name_H-M   'P 1'
_cell_length_a   6.32905450
_cell_length_b   7.28562209
_cell_length_c   8.42625709
_cell_angle_alpha   96.84328813
_cell_angle_beta   111.82613006
_cell_angle_gamma   90.09410796
_symmetry_Int_Tables_number   1
_chemical_formula_structural   Dy5Er5IrRu3
_chemical_formula_sum   'Dy5 Er5 Ir1 Ru3'
_cell_volume   357.67691019
_cell_formula_units_Z   1
loop_
 _symmetry_equiv_pos_site_id
 _symmetry_equiv_pos_as_xyz
  1  'x, y, z'
loop_
 _atom_site_type_symbol
 _atom_site_label
 _atom_site_symmetry_multiplicity
 _atom_site_fract_x
 _atom_site_fract_y
 _atom_site_fract_z
 _atom_site_occupancy
  Dy  Dy0  1  0.792420  0.581667  0.813995  1
  Dy  Dy1  1  0.978418  0.915188  0.187789  1
  Dy  Dy2  1  0.209060  0.415430  0.186821  1
  Dy  Dy3  1  0.023945  0.085664  0.814271  1
  Dy  Dy4  1  0.204945  0.684220  0.564561  1
  Er  Er5  1  0.641992  0.816559  0.434202  1
  Er  Er6  1  0.793104  0.314521  0.434019  1
  Er  Er7  1  0.357149  0.185238  0.564236  1
  Er  Er8  1  0.421929  0.750348  0.000654  1
  Er  Er9  1  0.578824  0.251073  0.000725  1
  Ir  Ir10  1  0.600434  0.924207  0.778239  1
  Ru  Ru11  1  0.822223  0.576165  0.219705  1
  Ru  Ru12  1  0.397080  0.075708  0.221538  1
  Ru  Ru13  1  0.178476  0.424011  0.779243  1
