# generated using pymatgen
data_Tb2Y5CoI12
_symmetry_space_group_name_H-M   'P 1'
_cell_length_a   9.76508512
_cell_length_b   9.76379467
_cell_length_c   9.76642516
_cell_angle_alpha   106.85831590
_cell_angle_beta   106.87051788
_cell_angle_gamma   106.87799744
_symmetry_Int_Tables_number   1
_chemical_formula_structural   Tb2Y5CoI12
_chemical_formula_sum   'Tb2 Y5 Co1 I12'
_cell_volume   778.24541382
_cell_formula_units_Z   1
loop_
 _symmetry_equiv_pos_site_id
 _symmetry_equiv_pos_as_xyz
  1  'x, y, z'
loop_
 _atom_site_type_symbol
 _atom_site_label
 _atom_site_symmetry_multiplicity
 _atom_site_fract_x
 _atom_site_fract_y
 _atom_site_fract_z
 _atom_site_occupancy
  Tb  Tb0  1  0.907640  0.711257  0.977694  1
  Tb  Tb1  1  0.711255  0.977791  0.907603  1
  Y  Y2  1  0.500054  0.500057  0.500056  1
  Y  Y3  1  0.022450  0.092430  0.288835  1
  Y  Y4  1  0.092355  0.288671  0.022342  1
  Y  Y5  1  0.288705  0.022420  0.092223  1
  Y  Y6  1  0.977871  0.907764  0.711231  1
  Co  Co7  1  0.999694  0.999752  0.999970  1
  I  I8  1  0.160853  0.463755  0.386676  1
  I  I9  1  0.463751  0.386680  0.160851  1
  I  I10  1  0.386681  0.160839  0.463743  1
  I  I11  1  0.839119  0.536225  0.613188  1
  I  I12  1  0.536054  0.613160  0.838949  1
  I  I13  1  0.613314  0.839052  0.536072  1
  I  I14  1  0.678080  0.071976  0.225376  1
  I  I15  1  0.071897  0.225127  0.678028  1
  I  I16  1  0.225384  0.678060  0.071978  1
  I  I17  1  0.321706  0.928106  0.774888  1
  I  I18  1  0.928176  0.774988  0.322159  1
  I  I19  1  0.774962  0.321890  0.928139  1
