# generated using pymatgen
data_U8Nb12Si15As
_symmetry_space_group_name_H-M   'P 1'
_cell_length_a   7.05522966
_cell_length_b   7.06555758
_cell_length_c   13.01044367
_cell_angle_alpha   89.92645189
_cell_angle_beta   89.95538567
_cell_angle_gamma   89.91113347
_symmetry_Int_Tables_number   1
_chemical_formula_structural   U8Nb12Si15As
_chemical_formula_sum   'U8 Nb12 Si15 As1'
_cell_volume   648.55780513
_cell_formula_units_Z   1
loop_
 _symmetry_equiv_pos_site_id
 _symmetry_equiv_pos_as_xyz
  1  'x, y, z'
loop_
 _atom_site_type_symbol
 _atom_site_label
 _atom_site_symmetry_multiplicity
 _atom_site_fract_x
 _atom_site_fract_y
 _atom_site_fract_z
 _atom_site_occupancy
  U  U0  1  0.995571  0.332774  0.219405  1
  U  U1  1  0.005585  0.667962  0.718697  1
  U  U2  1  0.166688  0.496374  0.469640  1
  U  U3  1  0.507243  0.829580  0.029568  1
  U  U4  1  0.831650  0.504945  0.968955  1
  U  U5  1  0.494912  0.167621  0.531132  1
  U  U6  1  0.331791  0.994629  0.781264  1
  U  U7  1  0.668475  0.006202  0.281158  1
  Nb  Nb8  1  0.167605  0.168686  0.998502  1
  Nb  Nb9  1  0.832092  0.831883  0.499775  1
  Nb  Nb10  1  0.330621  0.665419  0.250203  1
  Nb  Nb11  1  0.668149  0.331304  0.749854  1
  Nb  Nb12  1  0.156289  0.001539  0.375436  1
  Nb  Nb13  1  0.843673  0.001052  0.874418  1
  Nb  Nb14  1  0.500997  0.656028  0.624710  1
  Nb  Nb15  1  0.344048  0.498837  0.875145  1
  Nb  Nb16  1  0.500127  0.344119  0.125481  1
  Nb  Nb17  1  0.658506  0.502706  0.376103  1
  Nb  Nb18  1  0.999878  0.156056  0.625346  1
  Nb  Nb19  1  0.995596  0.840421  0.123782  1
  Si  Si20  1  0.703561  0.959845  0.684836  1
  Si  Si21  1  0.459870  0.796408  0.435058  1
  Si  Si22  1  0.203538  0.539499  0.064502  1
  Si  Si23  1  0.540225  0.203390  0.934971  1
  Si  Si24  1  0.796218  0.459427  0.565427  1
  Si  Si25  1  0.039845  0.296660  0.814692  1
  Si  Si26  1  0.960069  0.704278  0.314989  1
  Si  Si27  1  0.373961  0.299816  0.320093  1
  Si  Si28  1  0.629574  0.706772  0.815894  1
  Si  Si29  1  0.207137  0.871085  0.565910  1
  Si  Si30  1  0.128712  0.792302  0.933601  1
  Si  Si31  1  0.793332  0.129966  0.065868  1
  Si  Si32  1  0.870856  0.207378  0.434336  1
  Si  Si33  1  0.293336  0.370515  0.683810  1
  Si  Si34  1  0.705999  0.628766  0.184175  1
  As  As35  1  0.294273  0.035755  0.183262  1
