# generated using pymatgen
data_Sr2Fe2PdN3
_symmetry_space_group_name_H-M   'P 1'
_cell_length_a   6.54202989
_cell_length_b   6.54203140
_cell_length_c   6.52690745
_cell_angle_alpha   89.92365299
_cell_angle_beta   89.92365485
_cell_angle_gamma   117.13016613
_symmetry_Int_Tables_number   1
_chemical_formula_structural   Sr2Fe2PdN3
_chemical_formula_sum   'Sr4 Fe4 Pd2 N6'
_cell_volume   248.60389990
_cell_formula_units_Z   2
loop_
 _symmetry_equiv_pos_site_id
 _symmetry_equiv_pos_as_xyz
  1  'x, y, z'
loop_
 _atom_site_type_symbol
 _atom_site_label
 _atom_site_symmetry_multiplicity
 _atom_site_fract_x
 _atom_site_fract_y
 _atom_site_fract_z
 _atom_site_occupancy
  Sr  Sr0  1  0.827607  0.676538  0.897555  1
  Sr  Sr1  1  0.323462  0.172393  0.602445  1
  Sr  Sr2  1  0.172393  0.323462  0.102445  1
  Sr  Sr3  1  0.676538  0.827607  0.397555  1
  Fe  Fe4  1  0.567486  0.167228  0.100204  1
  Fe  Fe5  1  0.432514  0.832772  0.899796  1
  Fe  Fe6  1  0.832772  0.432514  0.399796  1
  Fe  Fe7  1  0.167228  0.567486  0.600204  1
  Pd  Pd8  1  0.809347  0.190653  0.750000  1
  Pd  Pd9  1  0.190653  0.809347  0.250000  1
  N  N10  1  0.410534  0.589466  0.750000  1
  N  N11  1  0.589466  0.410534  0.250000  1
  N  N12  1  0.997234  0.716185  0.520649  1
  N  N13  1  0.716185  0.997234  0.020649  1
  N  N14  1  0.002766  0.283815  0.479351  1
  N  N15  1  0.283815  0.002766  0.979351  1
