# generated using pymatgen
data_Hf8Fe3Co13
_symmetry_space_group_name_H-M   'P 1'
_cell_length_a   4.92942500
_cell_length_b   4.92951855
_cell_length_c   15.57505202
_cell_angle_alpha   90.00481335
_cell_angle_beta   90.00000000
_cell_angle_gamma   119.99937897
_symmetry_Int_Tables_number   1
_chemical_formula_structural   Hf8Fe3Co13
_chemical_formula_sum   'Hf8 Fe3 Co13'
_cell_volume   327.76578893
_cell_formula_units_Z   1
loop_
 _symmetry_equiv_pos_site_id
 _symmetry_equiv_pos_as_xyz
  1  'x, y, z'
loop_
 _atom_site_type_symbol
 _atom_site_label
 _atom_site_symmetry_multiplicity
 _atom_site_fract_x
 _atom_site_fract_y
 _atom_site_fract_z
 _atom_site_occupancy
  Hf  Hf0  1  0.999955  0.999910  0.094269  1
  Hf  Hf1  1  0.666657  0.333316  0.154989  1
  Hf  Hf2  1  0.666633  0.333267  0.344563  1
  Hf  Hf3  1  0.999959  0.999919  0.406081  1
  Hf  Hf4  1  0.000009  0.000018  0.594491  1
  Hf  Hf5  1  0.333352  0.666703  0.655490  1
  Hf  Hf6  1  0.333325  0.666650  0.844664  1
  Hf  Hf7  1  0.000006  0.000012  0.905741  1
  Fe  Fe8  1  0.333350  0.666698  0.374955  1
  Fe  Fe9  1  0.666653  0.333309  0.625224  1
  Fe  Fe10  1  0.666665  0.333332  0.874707  1
  Co  Co11  1  0.499634  0.999271  0.999542  1
  Co  Co12  1  0.000757  0.500375  0.999545  1
  Co  Co13  1  0.499618  0.500375  0.999545  1
  Co  Co14  1  0.333342  0.666684  0.125674  1
  Co  Co15  1  0.164576  0.329151  0.250398  1
  Co  Co16  1  0.164578  0.835519  0.250398  1
  Co  Co17  1  0.670941  0.835519  0.250398  1
  Co  Co18  1  0.500008  0.000019  0.499904  1
  Co  Co19  1  0.999999  0.499998  0.499905  1
  Co  Co20  1  0.499999  0.499998  0.499905  1
  Co  Co21  1  0.329677  0.164829  0.749870  1
  Co  Co22  1  0.835149  0.164829  0.749870  1
  Co  Co23  1  0.835149  0.670300  0.749871  1
