# generated using pymatgen
data_Zr8Bi4IrOs
_symmetry_space_group_name_H-M   'P 1'
_cell_length_a   8.39292016
_cell_length_b   8.39292099
_cell_length_c   8.39292000
_cell_angle_alpha   95.92209502
_cell_angle_beta   95.92209561
_cell_angle_gamma   142.52771319
_symmetry_Int_Tables_number   1
_chemical_formula_structural   Zr8Bi4IrOs
_chemical_formula_sum   'Zr8 Bi4 Ir1 Os1'
_cell_volume   340.61685153
_cell_formula_units_Z   1
loop_
 _symmetry_equiv_pos_site_id
 _symmetry_equiv_pos_as_xyz
  1  'x, y, z'
loop_
 _atom_site_type_symbol
 _atom_site_label
 _atom_site_symmetry_multiplicity
 _atom_site_fract_x
 _atom_site_fract_y
 _atom_site_fract_z
 _atom_site_occupancy
  Zr  Zr0  1  0.700559  0.583233  0.285864  1
  Zr  Zr1  1  0.297369  0.414695  0.714136  1
  Zr  Zr2  1  0.583233  0.297369  0.882673  1
  Zr  Zr3  1  0.085305  0.202631  0.285864  1
  Zr  Zr4  1  0.799441  0.085305  0.882673  1
  Zr  Zr5  1  0.414695  0.700559  0.117327  1
  Zr  Zr6  1  0.916767  0.799441  0.714136  1
  Zr  Zr7  1  0.202631  0.916767  0.117327  1
  Bi  Bi8  1  0.140200  0.640200  0.780400  1
  Bi  Bi9  1  0.359800  0.140200  0.500000  1
  Bi  Bi10  1  0.859800  0.359800  0.219600  1
  Bi  Bi11  1  0.640200  0.859800  0.500000  1
  Ir  Ir12  1  0.750000  0.750000  0.000000  1
  Os  Os13  1  0.250000  0.250000  0.000000  1
