# generated using pymatgen
data_Dy8Tm12Si15Au
_symmetry_space_group_name_H-M   'P 1'
_cell_length_a   7.34399541
_cell_length_b   7.62408672
_cell_length_c   14.51225573
_cell_angle_alpha   89.84178462
_cell_angle_beta   89.57845020
_cell_angle_gamma   90.13111025
_symmetry_Int_Tables_number   1
_chemical_formula_structural   Dy8Tm12Si15Au
_chemical_formula_sum   'Dy8 Tm12 Si15 Au1'
_cell_volume   812.53219664
_cell_formula_units_Z   1
loop_
 _symmetry_equiv_pos_site_id
 _symmetry_equiv_pos_as_xyz
  1  'x, y, z'
loop_
 _atom_site_type_symbol
 _atom_site_label
 _atom_site_symmetry_multiplicity
 _atom_site_fract_x
 _atom_site_fract_y
 _atom_site_fract_z
 _atom_site_occupancy
  Dy  Dy0  1  0.017382  0.179363  0.098406  1
  Dy  Dy1  1  0.982652  0.821486  0.903302  1
  Dy  Dy2  1  0.482703  0.679818  0.903335  1
  Dy  Dy3  1  0.984724  0.826010  0.598505  1
  Dy  Dy4  1  0.515852  0.319667  0.097022  1
  Dy  Dy5  1  0.013939  0.176326  0.399174  1
  Dy  Dy6  1  0.513827  0.319773  0.399889  1
  Dy  Dy7  1  0.487465  0.680447  0.599392  1
  Tm  Tm8  1  0.163573  0.509420  0.749817  1
  Tm  Tm9  1  0.837733  0.491506  0.251231  1
  Tm  Tm10  1  0.337495  0.006461  0.249668  1
  Tm  Tm11  1  0.664043  0.989627  0.750238  1
  Tm  Tm12  1  0.335323  0.177627  0.623109  1
  Tm  Tm13  1  0.666919  0.822450  0.375700  1
  Tm  Tm14  1  0.170658  0.672678  0.375549  1
  Tm  Tm15  1  0.671934  0.822637  0.123603  1
  Tm  Tm16  1  0.829714  0.325424  0.623171  1
  Tm  Tm17  1  0.328034  0.178075  0.877453  1
  Tm  Tm18  1  0.828153  0.320438  0.877844  1
  Tm  Tm19  1  0.170752  0.677990  0.123402  1
  Si  Si20  1  0.036051  0.111638  0.751275  1
  Si  Si21  1  0.965883  0.890998  0.249729  1
  Si  Si22  1  0.466123  0.607405  0.248262  1
  Si  Si23  1  0.536196  0.391986  0.752043  1
  Si  Si24  1  0.280546  0.874475  0.751136  1
  Si  Si25  1  0.717835  0.128615  0.248564  1
  Si  Si26  1  0.219422  0.368910  0.247670  1
  Si  Si27  1  0.782026  0.627684  0.753335  1
  Si  Si28  1  0.834606  0.532383  0.459124  1
  Si  Si29  1  0.338834  0.966618  0.460049  1
  Si  Si30  1  0.843681  0.532596  0.038603  1
  Si  Si31  1  0.659598  0.033558  0.537841  1
  Si  Si32  1  0.154714  0.467373  0.962058  1
  Si  Si33  1  0.655743  0.030702  0.960940  1
  Si  Si34  1  0.344038  0.967663  0.039219  1
  Au  Au35  1  0.161827  0.470177  0.540340  1
