# generated using pymatgen
data_Tb20Si12Cl
_symmetry_space_group_name_H-M   'P 1'
_cell_length_a   14.83247500
_cell_length_b   6.40901100
_cell_length_c   8.51262900
_cell_angle_alpha   89.99893786
_cell_angle_beta   90.00000000
_cell_angle_gamma   90.00000000
_symmetry_Int_Tables_number   1
_chemical_formula_structural   Tb20Si12Cl
_chemical_formula_sum   'Tb20 Si12 Cl1'
_cell_volume   809.22324333
_cell_formula_units_Z   1
loop_
 _symmetry_equiv_pos_site_id
 _symmetry_equiv_pos_as_xyz
  1  'x, y, z'
loop_
 _atom_site_type_symbol
 _atom_site_label
 _atom_site_symmetry_multiplicity
 _atom_site_fract_x
 _atom_site_fract_y
 _atom_site_fract_z
 _atom_site_occupancy
  Tb  Tb0  1  0.668226  0.500000  0.500000  1
  Tb  Tb1  1  0.167134  0.500000  0.000000  1
  Tb  Tb2  1  0.832866  0.500000  0.000000  1
  Tb  Tb3  1  0.331774  0.500000  0.500000  1
  Tb  Tb4  1  0.829677  0.000000  0.000000  1
  Tb  Tb5  1  0.337423  0.000000  0.500000  1
  Tb  Tb6  1  0.662577  0.000000  0.500000  1
  Tb  Tb7  1  0.170323  0.000000  0.000000  1
  Tb  Tb8  1  0.500000  0.253851  0.756449  1
  Tb  Tb9  1  0.000000  0.235632  0.243514  1
  Tb  Tb10  1  0.620146  0.250226  0.123114  1
  Tb  Tb11  1  0.127520  0.234649  0.628151  1
  Tb  Tb12  1  0.872480  0.234649  0.628151  1
  Tb  Tb13  1  0.379854  0.250226  0.123114  1
  Tb  Tb14  1  0.000000  0.764368  0.756486  1
  Tb  Tb15  1  0.500000  0.746149  0.243551  1
  Tb  Tb16  1  0.872480  0.765351  0.371849  1
  Tb  Tb17  1  0.379854  0.749774  0.876886  1
  Tb  Tb18  1  0.620146  0.749774  0.876886  1
  Tb  Tb19  1  0.127520  0.765351  0.371849  1
  Si  Si20  1  0.000000  0.243163  0.892107  1
  Si  Si21  1  0.500000  0.256882  0.394382  1
  Si  Si22  1  0.802356  0.244466  0.303505  1
  Si  Si23  1  0.304068  0.249862  0.803783  1
  Si  Si24  1  0.695932  0.249862  0.803783  1
  Si  Si25  1  0.197644  0.244466  0.303505  1
  Si  Si26  1  0.500000  0.743118  0.605618  1
  Si  Si27  1  0.000000  0.756837  0.107893  1
  Si  Si28  1  0.695932  0.750138  0.196217  1
  Si  Si29  1  0.197644  0.755534  0.696495  1
  Si  Si30  1  0.802356  0.755534  0.696495  1
  Si  Si31  1  0.304068  0.750138  0.196217  1
  Cl  Cl32  1  0.000000  0.500000  0.500000  1
