# generated using pymatgen
data_TbHo3Co6(Ni4B3)2
_symmetry_space_group_name_H-M   'P 1'
_cell_length_a   4.97989102
_cell_length_b   4.97972247
_cell_length_c   12.89738700
_cell_angle_alpha   90.00007970
_cell_angle_beta   90.00015925
_cell_angle_gamma   119.98234601
_symmetry_Int_Tables_number   1
_chemical_formula_structural   TbHo3Co6(Ni4B3)2
_chemical_formula_sum   'Tb1 Ho3 Co6 Ni8 B6'
_cell_volume   277.03495607
_cell_formula_units_Z   1
loop_
 _symmetry_equiv_pos_site_id
 _symmetry_equiv_pos_as_xyz
  1  'x, y, z'
loop_
 _atom_site_type_symbol
 _atom_site_label
 _atom_site_symmetry_multiplicity
 _atom_site_fract_x
 _atom_site_fract_y
 _atom_site_fract_z
 _atom_site_occupancy
  Tb  Tb0  1  0.999987  0.000000  0.999991  1
  Ho  Ho1  1  0.999992  0.000000  0.499991  1
  Ho  Ho2  1  0.999986  0.000000  0.262953  1
  Ho  Ho3  1  0.999999  0.000000  0.737050  1
  Co  Co4  1  0.499989  0.000000  0.383798  1
  Co  Co5  1  0.499989  0.500000  0.383801  1
  Co  Co6  1  0.999988  0.500000  0.383805  1
  Co  Co7  1  0.499997  0.000000  0.616199  1
  Co  Co8  1  0.499997  0.500000  0.616203  1
  Co  Co9  1  0.999996  0.500000  0.616193  1
  Ni  Ni10  1  0.333322  0.666717  0.000000  1
  Ni  Ni11  1  0.666652  0.333282  0.000003  1
  Ni  Ni12  1  0.499986  0.000001  0.157497  1
  Ni  Ni13  1  0.499984  0.499999  0.157500  1
  Ni  Ni14  1  0.999988  0.500002  0.157501  1
  Ni  Ni15  1  0.500000  0.000003  0.842514  1
  Ni  Ni16  1  0.499999  0.500000  0.842498  1
  Ni  Ni17  1  0.999995  0.499998  0.842501  1
  B  B18  1  0.333372  0.666681  0.499994  1
  B  B19  1  0.666612  0.333318  0.499994  1
  B  B20  1  0.333333  0.666669  0.270629  1
  B  B21  1  0.666639  0.333330  0.270629  1
  B  B22  1  0.666680  0.333326  0.729376  1
  B  B23  1  0.333315  0.666674  0.729376  1
