# generated using pymatgen
data_Ce3Pr8ZrSe20
_symmetry_space_group_name_H-M   'P 1'
_cell_length_a   7.88696810
_cell_length_b   8.46454600
_cell_length_c   12.55904407
_cell_angle_alpha   90.00000000
_cell_angle_beta   90.31082873
_cell_angle_gamma   90.00000000
_symmetry_Int_Tables_number   1
_chemical_formula_structural   Ce3Pr8ZrSe20
_chemical_formula_sum   'Ce3 Pr8 Zr1 Se20'
_cell_volume   838.42447429
_cell_formula_units_Z   1
loop_
 _symmetry_equiv_pos_site_id
 _symmetry_equiv_pos_as_xyz
  1  'x, y, z'
loop_
 _atom_site_type_symbol
 _atom_site_label
 _atom_site_symmetry_multiplicity
 _atom_site_fract_x
 _atom_site_fract_y
 _atom_site_fract_z
 _atom_site_occupancy
  Ce  Ce0  1  0.428468  0.750000  0.991699  1
  Ce  Ce1  1  0.926683  0.250000  0.509525  1
  Ce  Ce2  1  0.573294  0.250000  0.008668  1
  Pr  Pr3  1  0.523836  0.499389  0.322644  1
  Pr  Pr4  1  0.976700  0.001051  0.820083  1
  Pr  Pr5  1  0.477330  0.998174  0.675590  1
  Pr  Pr6  1  0.023309  0.502552  0.180606  1
  Pr  Pr7  1  0.477330  0.501826  0.675590  1
  Pr  Pr8  1  0.023309  0.997448  0.180606  1
  Pr  Pr9  1  0.523836  0.000611  0.322644  1
  Pr  Pr10  1  0.976700  0.498949  0.820083  1
  Zr  Zr11  1  0.075886  0.750000  0.495229  1
  Se  Se12  1  0.838575  0.951933  0.592730  1
  Se  Se13  1  0.665281  0.544126  0.098632  1
  Se  Se14  1  0.160973  0.470272  0.408748  1
  Se  Se15  1  0.337395  0.042742  0.901097  1
  Se  Se16  1  0.160973  0.029728  0.408748  1
  Se  Se17  1  0.337395  0.457258  0.901097  1
  Se  Se18  1  0.838575  0.548067  0.592730  1
  Se  Se19  1  0.665281  0.955874  0.098632  1
  Se  Se20  1  0.835725  0.750000  0.323712  1
  Se  Se21  1  0.671252  0.750000  0.813437  1
  Se  Se22  1  0.173417  0.250000  0.685575  1
  Se  Se23  1  0.326248  0.250000  0.188932  1
  Se  Se24  1  0.441686  0.750000  0.496615  1
  Se  Se25  1  0.043734  0.750000  0.997278  1
  Se  Se26  1  0.541713  0.250000  0.500430  1
  Se  Se27  1  0.956665  0.250000  0.001265  1
  Se  Se28  1  0.189662  0.750000  0.705758  1
  Se  Se29  1  0.306998  0.750000  0.211728  1
  Se  Se30  1  0.805074  0.250000  0.286614  1
  Se  Se31  1  0.696697  0.250000  0.783276  1
