# generated using pymatgen
data_Y3Tm7Ag3Ru
_symmetry_space_group_name_H-M   'P 1'
_cell_length_a   9.40121700
_cell_length_b   9.40121660
_cell_length_c   9.57551800
_cell_angle_alpha   90.00000000
_cell_angle_beta   90.00000000
_cell_angle_gamma   120.00000492
_symmetry_Int_Tables_number   1
_chemical_formula_structural   Y3Tm7Ag3Ru
_chemical_formula_sum   'Y6 Tm14 Ag6 Ru2'
_cell_volume   732.92751042
_cell_formula_units_Z   2
loop_
 _symmetry_equiv_pos_site_id
 _symmetry_equiv_pos_as_xyz
  1  'x, y, z'
loop_
 _atom_site_type_symbol
 _atom_site_label
 _atom_site_symmetry_multiplicity
 _atom_site_fract_x
 _atom_site_fract_y
 _atom_site_fract_z
 _atom_site_occupancy
  Y  Y0  1  0.540903  0.459097  0.250000  1
  Y  Y1  1  0.540903  0.081806  0.250000  1
  Y  Y2  1  0.918194  0.459097  0.250000  1
  Y  Y3  1  0.459097  0.540903  0.750000  1
  Y  Y4  1  0.459097  0.918194  0.750000  1
  Y  Y5  1  0.081806  0.540903  0.750000  1
  Tm  Tm6  1  0.000000  0.000000  0.500000  1
  Tm  Tm7  1  0.000000  0.000000  0.000000  1
  Tm  Tm8  1  0.209192  0.790808  0.441079  1
  Tm  Tm9  1  0.209192  0.418385  0.441079  1
  Tm  Tm10  1  0.581615  0.790808  0.441079  1
  Tm  Tm11  1  0.790808  0.209192  0.558921  1
  Tm  Tm12  1  0.790808  0.581615  0.558921  1
  Tm  Tm13  1  0.418385  0.209192  0.558921  1
  Tm  Tm14  1  0.790808  0.209192  0.941079  1
  Tm  Tm15  1  0.790808  0.581615  0.941079  1
  Tm  Tm16  1  0.418385  0.209192  0.941079  1
  Tm  Tm17  1  0.209192  0.790808  0.058921  1
  Tm  Tm18  1  0.209192  0.418385  0.058921  1
  Tm  Tm19  1  0.581615  0.790808  0.058921  1
  Ag  Ag20  1  0.885748  0.114252  0.250000  1
  Ag  Ag21  1  0.885748  0.771497  0.250000  1
  Ag  Ag22  1  0.228503  0.114252  0.250000  1
  Ag  Ag23  1  0.114252  0.885748  0.750000  1
  Ag  Ag24  1  0.114252  0.228503  0.750000  1
  Ag  Ag25  1  0.771497  0.885748  0.750000  1
  Ru  Ru26  1  0.333333  0.666667  0.250000  1
  Ru  Ru27  1  0.666667  0.333333  0.750000  1
