# generated using pymatgen
data_Ca6HfS8
_symmetry_space_group_name_H-M   'P 1'
_cell_length_a   8.00492440
_cell_length_b   8.00492408
_cell_length_c   8.00492400
_cell_angle_alpha   60.00000032
_cell_angle_beta   60.00000165
_cell_angle_gamma   59.99999739
_symmetry_Int_Tables_number   1
_chemical_formula_structural   Ca6HfS8
_chemical_formula_sum   'Ca6 Hf1 S8'
_cell_volume   362.70760777
_cell_formula_units_Z   1
loop_
 _symmetry_equiv_pos_site_id
 _symmetry_equiv_pos_as_xyz
  1  'x, y, z'
loop_
 _atom_site_type_symbol
 _atom_site_label
 _atom_site_symmetry_multiplicity
 _atom_site_fract_x
 _atom_site_fract_y
 _atom_site_fract_z
 _atom_site_occupancy
  Ca  Ca0  1  0.500000  0.000000  0.000000  1
  Ca  Ca1  1  0.500000  0.000000  0.500000  1
  Ca  Ca2  1  0.000000  0.000000  0.500000  1
  Ca  Ca3  1  0.500000  0.500000  0.000000  1
  Ca  Ca4  1  0.000000  0.500000  0.000000  1
  Ca  Ca5  1  0.000000  0.500000  0.500000  1
  Hf  Hf6  1  0.000000  0.000000  0.000000  1
  S  S7  1  0.771245  0.228755  0.228755  1
  S  S8  1  0.250000  0.250000  0.250000  1
  S  S9  1  0.228755  0.771245  0.228755  1
  S  S10  1  0.228755  0.228755  0.771245  1
  S  S11  1  0.771245  0.228755  0.771245  1
  S  S12  1  0.771245  0.771245  0.228755  1
  S  S13  1  0.750000  0.750000  0.750000  1
  S  S14  1  0.228755  0.771245  0.771245  1
