# generated using pymatgen
data_LaNdAl20(IrOs)2
_symmetry_space_group_name_H-M   'P 1'
_cell_length_a   6.88955029
_cell_length_b   6.90394078
_cell_length_c   9.21711000
_cell_angle_alpha   90.00000000
_cell_angle_beta   90.00000000
_cell_angle_gamma   97.07394044
_symmetry_Int_Tables_number   1
_chemical_formula_structural   LaNdAl20(IrOs)2
_chemical_formula_sum   'La1 Nd1 Al20 Ir2 Os2'
_cell_volume   435.07510077
_cell_formula_units_Z   1
loop_
 _symmetry_equiv_pos_site_id
 _symmetry_equiv_pos_as_xyz
  1  'x, y, z'
loop_
 _atom_site_type_symbol
 _atom_site_label
 _atom_site_symmetry_multiplicity
 _atom_site_fract_x
 _atom_site_fract_y
 _atom_site_fract_z
 _atom_site_occupancy
  La  La0  1  0.872128  0.123585  0.750000  1
  Nd  Nd1  1  0.129070  0.875331  0.250000  1
  Al  Al2  1  0.619913  0.376416  0.549865  1
  Al  Al3  1  0.379450  0.624173  0.449848  1
  Al  Al4  1  0.379450  0.624173  0.050152  1
  Al  Al5  1  0.619913  0.376416  0.950135  1
  Al  Al6  1  0.225046  0.222851  0.498634  1
  Al  Al7  1  0.775277  0.776872  0.500597  1
  Al  Al8  1  0.775277  0.776872  0.999403  1
  Al  Al9  1  0.225046  0.222851  0.001366  1
  Al  Al10  1  0.840928  0.157898  0.103925  1
  Al  Al11  1  0.159713  0.841363  0.896791  1
  Al  Al12  1  0.159713  0.841363  0.603209  1
  Al  Al13  1  0.840928  0.157898  0.396075  1
  Al  Al14  1  0.854423  0.590130  0.750000  1
  Al  Al15  1  0.145361  0.411085  0.250000  1
  Al  Al16  1  0.410538  0.144038  0.750000  1
  Al  Al17  1  0.588327  0.856195  0.250000  1
  Al  Al18  1  0.224293  0.483947  0.750000  1
  Al  Al19  1  0.776564  0.516834  0.250000  1
  Al  Al20  1  0.515450  0.778819  0.750000  1
  Al  Al21  1  0.483727  0.220289  0.250000  1
  Ir  Ir22  1  0.999830  0.500093  0.499522  1
  Ir  Ir23  1  0.999830  0.500093  0.000478  1
  Os  Os24  1  0.499903  0.000207  0.000534  1
  Os  Os25  1  0.499903  0.000207  0.499466  1
