# generated using pymatgen
data_Nd5Zr3(As3Pd4)4
_symmetry_space_group_name_H-M   'P 1'
_cell_length_a   13.60494300
_cell_length_b   13.60494216
_cell_length_c   4.16589000
_cell_angle_alpha   90.00000000
_cell_angle_beta   90.00000000
_cell_angle_gamma   120.00000447
_symmetry_Int_Tables_number   1
_chemical_formula_structural   Nd5Zr3(As3Pd4)4
_chemical_formula_sum   'Nd5 Zr3 As12 Pd16'
_cell_volume   667.77758446
_cell_formula_units_Z   1
loop_
 _symmetry_equiv_pos_site_id
 _symmetry_equiv_pos_as_xyz
  1  'x, y, z'
loop_
 _atom_site_type_symbol
 _atom_site_label
 _atom_site_symmetry_multiplicity
 _atom_site_fract_x
 _atom_site_fract_y
 _atom_site_fract_z
 _atom_site_occupancy
  Nd  Nd0  1  0.190553  0.190553  0.500000  1
  Nd  Nd1  1  0.809447  0.000000  0.500000  1
  Nd  Nd2  1  0.000000  0.809447  0.500000  1
  Nd  Nd3  1  0.333333  0.666667  0.000000  1
  Nd  Nd4  1  0.666667  0.333333  0.000000  1
  Zr  Zr5  1  0.558864  0.558864  0.000000  1
  Zr  Zr6  1  0.441136  0.000000  0.000000  1
  Zr  Zr7  1  0.000000  0.441136  0.000000  1
  As  As8  1  0.824577  0.824577  0.000000  1
  As  As9  1  0.175423  0.000000  0.000000  1
  As  As10  1  0.000000  0.175423  0.000000  1
  As  As11  1  0.166182  0.481737  0.500000  1
  As  As12  1  0.518263  0.684445  0.500000  1
  As  As13  1  0.315555  0.833818  0.500000  1
  As  As14  1  0.684445  0.518263  0.500000  1
  As  As15  1  0.833818  0.315555  0.500000  1
  As  As16  1  0.481737  0.166182  0.500000  1
  As  As17  1  0.361216  0.361216  0.000000  1
  As  As18  1  0.638784  0.000000  0.000000  1
  As  As19  1  0.000000  0.638784  0.000000  1
  Pd  Pd20  1  0.722135  0.722135  0.500000  1
  Pd  Pd21  1  0.277865  0.000000  0.500000  1
  Pd  Pd22  1  0.000000  0.277865  0.500000  1
  Pd  Pd23  1  0.181808  0.374763  0.000000  1
  Pd  Pd24  1  0.625237  0.807045  0.000000  1
  Pd  Pd25  1  0.192955  0.818192  0.000000  1
  Pd  Pd26  1  0.807045  0.625237  0.000000  1
  Pd  Pd27  1  0.818192  0.192955  0.000000  1
  Pd  Pd28  1  0.374763  0.181808  0.000000  1
  Pd  Pd29  1  0.358379  0.483968  0.500000  1
  Pd  Pd30  1  0.516032  0.874410  0.500000  1
  Pd  Pd31  1  0.125590  0.641621  0.500000  1
  Pd  Pd32  1  0.874410  0.516032  0.500000  1
  Pd  Pd33  1  0.641621  0.125590  0.500000  1
  Pd  Pd34  1  0.483968  0.358379  0.500000  1
  Pd  Pd35  1  0.000000  0.000000  0.000000  1
