# generated using pymatgen
data_Nd2DyPa3(Ni3Bi4)2
_symmetry_space_group_name_H-M   'P 1'
_cell_length_a   8.40082650
_cell_length_b   8.41944405
_cell_length_c   8.40082549
_cell_angle_alpha   109.74516047
_cell_angle_beta   109.19840091
_cell_angle_gamma   109.38039255
_symmetry_Int_Tables_number   1
_chemical_formula_structural   Nd2DyPa3(Ni3Bi4)2
_chemical_formula_sum   'Nd2 Dy1 Pa3 Ni6 Bi8'
_cell_volume   457.90742740
_cell_formula_units_Z   1
loop_
 _symmetry_equiv_pos_site_id
 _symmetry_equiv_pos_as_xyz
  1  'x, y, z'
loop_
 _atom_site_type_symbol
 _atom_site_label
 _atom_site_symmetry_multiplicity
 _atom_site_fract_x
 _atom_site_fract_y
 _atom_site_fract_z
 _atom_site_occupancy
  Nd  Nd0  1  0.251715  0.126595  0.876733  1
  Nd  Nd1  1  0.750138  0.373405  0.625119  1
  Dy  Dy2  1  0.627700  0.750000  0.377700  1
  Pa  Pa3  1  0.125958  0.879263  0.249660  1
  Pa  Pa4  1  0.370397  0.620737  0.746695  1
  Pa  Pa5  1  0.871554  0.250000  0.121554  1
  Ni  Ni6  1  0.642254  0.363835  0.239601  1
  Ni  Ni7  1  0.875766  0.136165  0.778419  1
  Ni  Ni8  1  0.366218  0.250000  0.616218  1
  Ni  Ni9  1  0.130914  0.750000  0.880914  1
  Ni  Ni10  1  0.235650  0.615309  0.371653  1
  Ni  Ni11  1  0.756343  0.884691  0.120339  1
  Bi  Bi12  1  0.338431  0.337926  0.332905  1
  Bi  Bi13  1  0.169395  0.503679  0.003237  1
  Bi  Bi14  1  0.994981  0.162074  0.500505  1
  Bi  Bi15  1  0.833043  0.831359  0.831169  1
  Bi  Bi16  1  0.499557  0.996321  0.165717  1
  Bi  Bi17  1  0.664522  0.504681  0.000335  1
  Bi  Bi18  1  0.495654  0.995319  0.659841  1
  Bi  Bi19  1  0.999810  0.668641  0.501684  1
