# generated using pymatgen
data_Cu3B4Ir4Pt
_symmetry_space_group_name_H-M   'P 1'
_cell_length_a   6.68727186
_cell_length_b   5.99870182
_cell_length_c   5.51855811
_cell_angle_alpha   70.49588472
_cell_angle_beta   58.52771786
_cell_angle_gamma   50.64737516
_symmetry_Int_Tables_number   1
_chemical_formula_structural   Cu3B4Ir4Pt
_chemical_formula_sum   'Cu3 B4 Ir4 Pt1'
_cell_volume   145.99798292
_cell_formula_units_Z   1
loop_
 _symmetry_equiv_pos_site_id
 _symmetry_equiv_pos_as_xyz
  1  'x, y, z'
loop_
 _atom_site_type_symbol
 _atom_site_label
 _atom_site_symmetry_multiplicity
 _atom_site_fract_x
 _atom_site_fract_y
 _atom_site_fract_z
 _atom_site_occupancy
  Cu  Cu0  1  0.465032  0.304966  0.368441  1
  Cu  Cu1  1  0.864241  0.366377  0.306019  1
  Cu  Cu2  1  0.884119  0.386329  0.786861  1
  B  B3  1  0.053430  0.982132  0.560217  1
  B  B4  1  0.683332  0.857706  0.200571  1
  B  B5  1  0.380985  0.572898  0.998672  1
  B  B6  1  0.275803  0.191827  0.844696  1
  Ir  Ir7  1  0.091344  0.631096  0.864935  1
  Ir  Ir8  1  0.386229  0.852105  0.149872  1
  Ir  Ir9  1  0.618693  0.161192  0.848972  1
  Ir  Ir10  1  0.399121  0.865135  0.635292  1
  Pt  Pt11  1  0.948070  0.777838  0.385053  1
