# generated using pymatgen
data_Ce3Y3(ScAu5)2
_symmetry_space_group_name_H-M   'P 1'
_cell_length_a   8.02898897
_cell_length_b   8.02898849
_cell_length_c   8.02898800
_cell_angle_alpha   66.29046891
_cell_angle_beta   66.29047041
_cell_angle_gamma   66.29045868
_symmetry_Int_Tables_number   1
_chemical_formula_structural   Ce3Y3(ScAu5)2
_chemical_formula_sum   'Ce3 Y3 Sc2 Au10'
_cell_volume   415.67445087
_cell_formula_units_Z   1
loop_
 _symmetry_equiv_pos_site_id
 _symmetry_equiv_pos_as_xyz
  1  'x, y, z'
loop_
 _atom_site_type_symbol
 _atom_site_label
 _atom_site_symmetry_multiplicity
 _atom_site_fract_x
 _atom_site_fract_y
 _atom_site_fract_z
 _atom_site_occupancy
  Ce  Ce0  1  0.893092  0.185137  0.621922  1
  Ce  Ce1  1  0.621922  0.893092  0.185137  1
  Ce  Ce2  1  0.185137  0.621922  0.893092  1
  Y  Y3  1  0.108594  0.810834  0.376703  1
  Y  Y4  1  0.376703  0.108594  0.810834  1
  Y  Y5  1  0.810834  0.376703  0.108594  1
  Sc  Sc6  1  0.659105  0.659105  0.659105  1
  Sc  Sc7  1  0.342200  0.342200  0.342200  1
  Au  Au8  1  0.003631  0.003631  0.003631  1
  Au  Au9  1  0.500092  0.500092  0.500092  1
  Au  Au10  1  0.804246  0.804246  0.804246  1
  Au  Au11  1  0.194533  0.194533  0.194533  1
  Au  Au12  1  0.937375  0.547025  0.323591  1
  Au  Au13  1  0.323591  0.937375  0.547025  1
  Au  Au14  1  0.547025  0.323591  0.937375  1
  Au  Au15  1  0.063226  0.451175  0.677520  1
  Au  Au16  1  0.677520  0.063226  0.451175  1
  Au  Au17  1  0.451175  0.677520  0.063226  1
