# generated using pymatgen
data_Ce5P12Ru14Rh5
_symmetry_space_group_name_H-M   'P 1'
_cell_length_a   12.63760213
_cell_length_b   12.67468257
_cell_length_c   3.96515500
_cell_angle_alpha   90.00000000
_cell_angle_beta   90.00000000
_cell_angle_gamma   119.88490654
_symmetry_Int_Tables_number   1
_chemical_formula_structural   Ce5P12Ru14Rh5
_chemical_formula_sum   'Ce5 P12 Ru14 Rh5'
_cell_volume   550.67464385
_cell_formula_units_Z   1
loop_
 _symmetry_equiv_pos_site_id
 _symmetry_equiv_pos_as_xyz
  1  'x, y, z'
loop_
 _atom_site_type_symbol
 _atom_site_label
 _atom_site_symmetry_multiplicity
 _atom_site_fract_x
 _atom_site_fract_y
 _atom_site_fract_z
 _atom_site_occupancy
  Ce  Ce0  1  0.184837  0.183111  0.500000  1
  Ce  Ce1  1  0.815775  0.000105  0.500000  1
  Ce  Ce2  1  0.000966  0.814338  0.500000  1
  Ce  Ce3  1  0.332356  0.667277  0.000000  1
  Ce  Ce4  1  0.667212  0.333825  0.000000  1
  P  P5  1  0.816713  0.813909  0.000000  1
  P  P6  1  0.186384  0.000003  0.000000  1
  P  P7  1  0.998242  0.183578  0.000000  1
  P  P8  1  0.171970  0.480676  0.500000  1
  P  P9  1  0.518309  0.691226  0.500000  1
  P  P10  1  0.304456  0.825972  0.500000  1
  P  P11  1  0.696459  0.521655  0.500000  1
  P  P12  1  0.825238  0.303706  0.500000  1
  P  P13  1  0.479293  0.175660  0.500000  1
  P  P14  1  0.373203  0.369747  0.000000  1
  P  P15  1  0.630036  0.003740  0.000000  1
  P  P16  1  0.999418  0.629297  0.000000  1
  Ru  Ru17  1  0.712558  0.714261  0.500000  1
  Ru  Ru18  1  0.287396  0.000456  0.500000  1
  Ru  Ru19  1  0.001632  0.287186  0.500000  1
  Ru  Ru20  1  0.193926  0.816285  0.000000  1
  Ru  Ru21  1  0.804212  0.621590  0.000000  1
  Ru  Ru22  1  0.817607  0.195395  0.000000  1
  Ru  Ru23  1  0.378778  0.183875  0.000000  1
  Ru  Ru24  1  0.363008  0.489605  0.500000  1
  Ru  Ru25  1  0.508673  0.873358  0.500000  1
  Ru  Ru26  1  0.124453  0.634047  0.500000  1
  Ru  Ru27  1  0.875062  0.507257  0.500000  1
  Ru  Ru28  1  0.632493  0.124060  0.500000  1
  Ru  Ru29  1  0.492612  0.368696  0.500000  1
  Ru  Ru30  1  0.000254  0.000134  0.000000  1
  Rh  Rh31  1  0.550329  0.555418  0.000000  1
  Rh  Rh32  1  0.445893  0.998138  0.000000  1
  Rh  Rh33  1  0.002242  0.447995  0.000000  1
  Rh  Rh34  1  0.184376  0.375889  0.000000  1
  Rh  Rh35  1  0.623631  0.808524  0.000000  1
