# generated using pymatgen
data_Ho2ThSn3Ir2Ru
_symmetry_space_group_name_H-M   'P 1'
_cell_length_a   7.54385234
_cell_length_b   7.54385290
_cell_length_c   3.95349000
_cell_angle_alpha   90.00000000
_cell_angle_beta   90.00000000
_cell_angle_gamma   119.36008369
_symmetry_Int_Tables_number   1
_chemical_formula_structural   Ho2ThSn3Ir2Ru
_chemical_formula_sum   'Ho2 Th1 Sn3 Ir2 Ru1'
_cell_volume   196.09301831
_cell_formula_units_Z   1
loop_
 _symmetry_equiv_pos_site_id
 _symmetry_equiv_pos_as_xyz
  1  'x, y, z'
loop_
 _atom_site_type_symbol
 _atom_site_label
 _atom_site_symmetry_multiplicity
 _atom_site_fract_x
 _atom_site_fract_y
 _atom_site_fract_z
 _atom_site_occupancy
  Ho  Ho0  1  0.593008  0.999184  0.500000  1
  Ho  Ho1  1  0.999184  0.593008  0.500000  1
  Th  Th2  1  0.412892  0.412892  0.500000  1
  Sn  Sn3  1  0.755651  0.755651  0.000000  1
  Sn  Sn4  1  0.255322  0.988301  0.000000  1
  Sn  Sn5  1  0.988301  0.255322  0.000000  1
  Ir  Ir6  1  0.655080  0.333824  0.000000  1
  Ir  Ir7  1  0.333824  0.655080  0.000000  1
  Ru  Ru8  1  0.006737  0.006737  0.500000  1
