# generated using pymatgen
data_Tb2Sc3Tl4
_symmetry_space_group_name_H-M   'P 1'
_cell_length_a   7.73571600
_cell_length_b   7.99622600
_cell_length_c   15.20108300
_cell_angle_alpha   90.00000000
_cell_angle_beta   90.00000000
_cell_angle_gamma   90.00000000
_symmetry_Int_Tables_number   1
_chemical_formula_structural   Tb2Sc3Tl4
_chemical_formula_sum   'Tb8 Sc12 Tl16'
_cell_volume   940.28629842
_cell_formula_units_Z   4
loop_
 _symmetry_equiv_pos_site_id
 _symmetry_equiv_pos_as_xyz
  1  'x, y, z'
loop_
 _atom_site_type_symbol
 _atom_site_label
 _atom_site_symmetry_multiplicity
 _atom_site_fract_x
 _atom_site_fract_y
 _atom_site_fract_z
 _atom_site_occupancy
  Tb  Tb0  1  0.995732  0.180614  0.093085  1
  Tb  Tb1  1  0.004268  0.819386  0.906915  1
  Tb  Tb2  1  0.504268  0.680614  0.906915  1
  Tb  Tb3  1  0.004268  0.819386  0.593085  1
  Tb  Tb4  1  0.495732  0.319386  0.093085  1
  Tb  Tb5  1  0.995732  0.180614  0.406915  1
  Tb  Tb6  1  0.495732  0.319386  0.406915  1
  Tb  Tb7  1  0.504268  0.680614  0.593085  1
  Sc  Sc8  1  0.166766  0.495668  0.750000  1
  Sc  Sc9  1  0.833234  0.504332  0.250000  1
  Sc  Sc10  1  0.333234  0.995668  0.250000  1
  Sc  Sc11  1  0.666766  0.004332  0.750000  1
  Sc  Sc12  1  0.336247  0.159527  0.626411  1
  Sc  Sc13  1  0.663753  0.840473  0.373589  1
  Sc  Sc14  1  0.163753  0.659527  0.373589  1
  Sc  Sc15  1  0.663753  0.840473  0.126411  1
  Sc  Sc16  1  0.836247  0.340473  0.626411  1
  Sc  Sc17  1  0.336247  0.159527  0.873589  1
  Sc  Sc18  1  0.836247  0.340473  0.873589  1
  Sc  Sc19  1  0.163753  0.659527  0.126411  1
  Tl  Tl20  1  0.028081  0.122344  0.750000  1
  Tl  Tl21  1  0.971919  0.877656  0.250000  1
  Tl  Tl22  1  0.471919  0.622344  0.250000  1
  Tl  Tl23  1  0.528081  0.377656  0.750000  1
  Tl  Tl24  1  0.303398  0.853008  0.750000  1
  Tl  Tl25  1  0.696602  0.146992  0.250000  1
  Tl  Tl26  1  0.196602  0.353008  0.250000  1
  Tl  Tl27  1  0.803398  0.646992  0.750000  1
  Tl  Tl28  1  0.181145  0.457923  0.541711  1
  Tl  Tl29  1  0.818855  0.542077  0.458289  1
  Tl  Tl30  1  0.318855  0.957923  0.458289  1
  Tl  Tl31  1  0.818855  0.542077  0.041711  1
  Tl  Tl32  1  0.681145  0.042077  0.541711  1
  Tl  Tl33  1  0.181145  0.457923  0.958289  1
  Tl  Tl34  1  0.681145  0.042077  0.958289  1
  Tl  Tl35  1  0.318855  0.957923  0.041711  1
