# generated using pymatgen
data_Yb2Si7(Ni5Ru)2
_symmetry_space_group_name_H-M   'P 1'
_cell_length_a   9.32766600
_cell_length_b   9.39641344
_cell_length_c   3.74895600
_cell_angle_alpha   90.00000000
_cell_angle_beta   90.00000000
_cell_angle_gamma   119.92779535
_symmetry_Int_Tables_number   1
_chemical_formula_structural   Yb2Si7(Ni5Ru)2
_chemical_formula_sum   'Yb2 Si7 Ni10 Ru2'
_cell_volume   284.76827483
_cell_formula_units_Z   1
loop_
 _symmetry_equiv_pos_site_id
 _symmetry_equiv_pos_as_xyz
  1  'x, y, z'
loop_
 _atom_site_type_symbol
 _atom_site_label
 _atom_site_symmetry_multiplicity
 _atom_site_fract_x
 _atom_site_fract_y
 _atom_site_fract_z
 _atom_site_occupancy
  Yb  Yb0  1  0.995510  0.999159  0.000000  1
  Yb  Yb1  1  0.333100  0.665669  0.500000  1
  Si  Si2  1  0.667368  0.336984  0.000000  1
  Si  Si3  1  0.062559  0.442749  0.000000  1
  Si  Si4  1  0.264073  0.224330  0.500000  1
  Si  Si5  1  0.765334  0.036594  0.500000  1
  Si  Si6  1  0.965297  0.736219  0.500000  1
  Si  Si7  1  0.553984  0.619290  0.000000  1
  Si  Si8  1  0.386690  0.936441  0.000000  1
  Ni  Ni9  1  0.283904  0.388195  0.000000  1
  Ni  Ni10  1  0.108948  0.718357  0.000000  1
  Ni  Ni11  1  0.384766  0.178209  0.000000  1
  Ni  Ni12  1  0.798880  0.620242  0.000000  1
  Ni  Ni13  1  0.814119  0.200637  0.000000  1
  Ni  Ni14  1  0.239301  0.954625  0.500000  1
  Ni  Ni15  1  0.044354  0.276670  0.500000  1
  Ni  Ni16  1  0.724450  0.769051  0.500000  1
  Ni  Ni17  1  0.568859  0.124203  0.500000  1
  Ni  Ni18  1  0.608318  0.889228  0.000000  1
  Ru  Ru19  1  0.879979  0.448443  0.500000  1
  Ru  Ru20  1  0.550208  0.434705  0.500000  1
