# generated using pymatgen
data_Y2Si4Sn(PRh6)2
_symmetry_space_group_name_H-M   'P 1'
_cell_length_a   9.84857811
_cell_length_b   9.81862361
_cell_length_c   3.85123332
_cell_angle_alpha   89.96713297
_cell_angle_beta   89.98645146
_cell_angle_gamma   119.71595184
_symmetry_Int_Tables_number   1
_chemical_formula_structural   Y2Si4Sn(PRh6)2
_chemical_formula_sum   'Y2 Si4 Sn1 P2 Rh12'
_cell_volume   323.43753431
_cell_formula_units_Z   1
loop_
 _symmetry_equiv_pos_site_id
 _symmetry_equiv_pos_as_xyz
  1  'x, y, z'
loop_
 _atom_site_type_symbol
 _atom_site_label
 _atom_site_symmetry_multiplicity
 _atom_site_fract_x
 _atom_site_fract_y
 _atom_site_fract_z
 _atom_site_occupancy
  Y  Y0  1  0.334110  0.665934  0.740099  1
  Y  Y1  1  0.665291  0.334676  0.239329  1
  Si  Si2  1  0.400545  0.290869  0.738764  1
  Si  Si3  1  0.709686  0.112585  0.739154  1
  Si  Si4  1  0.888351  0.599637  0.738250  1
  Si  Si5  1  0.597630  0.705636  0.240103  1
  Sn  Sn6  1  0.000154  0.998315  0.715436  1
  P  P7  1  0.293409  0.888728  0.239079  1
  P  P8  1  0.109807  0.401959  0.240203  1
  Rh  Rh9  1  0.449167  0.072720  0.739061  1
  Rh  Rh10  1  0.929129  0.379073  0.739373  1
  Rh  Rh11  1  0.621342  0.553372  0.739283  1
  Rh  Rh12  1  0.549821  0.940851  0.239810  1
  Rh  Rh13  1  0.060563  0.609517  0.239004  1
  Rh  Rh14  1  0.384510  0.443960  0.239638  1
  Rh  Rh15  1  0.157613  0.295684  0.740621  1
  Rh  Rh16  1  0.705831  0.866708  0.740009  1
  Rh  Rh17  1  0.138928  0.838144  0.739332  1
  Rh  Rh18  1  0.860815  0.740701  0.237308  1
  Rh  Rh19  1  0.259880  0.113485  0.237714  1
  Rh  Rh20  1  0.883417  0.147444  0.238430  1
