# generated using pymatgen
data_Tb18Ho2Sn11Bi5
_symmetry_space_group_name_H-M   'P 1'
_cell_length_a   8.22531542
_cell_length_b   8.23125636
_cell_length_c   15.62882600
_cell_angle_alpha   90.11057866
_cell_angle_beta   90.37098637
_cell_angle_gamma   89.89350354
_symmetry_Int_Tables_number   1
_chemical_formula_structural   Tb18Ho2Sn11Bi5
_chemical_formula_sum   'Tb18 Ho2 Sn11 Bi5'
_cell_volume   1058.11870582
_cell_formula_units_Z   1
loop_
 _symmetry_equiv_pos_site_id
 _symmetry_equiv_pos_as_xyz
  1  'x, y, z'
loop_
 _atom_site_type_symbol
 _atom_site_label
 _atom_site_symmetry_multiplicity
 _atom_site_fract_x
 _atom_site_fract_y
 _atom_site_fract_z
 _atom_site_occupancy
  Tb  Tb0  1  0.391746  0.838302  0.877731  1
  Tb  Tb1  1  0.892065  0.661051  0.621565  1
  Tb  Tb2  1  0.608145  0.159601  0.377655  1
  Tb  Tb3  1  0.105141  0.338099  0.121811  1
  Tb  Tb4  1  0.610715  0.164940  0.122426  1
  Tb  Tb5  1  0.114785  0.336230  0.380173  1
  Tb  Tb6  1  0.383647  0.837773  0.620491  1
  Tb  Tb7  1  0.888275  0.658404  0.879135  1
  Tb  Tb8  1  0.562426  0.335697  0.889436  1
  Tb  Tb9  1  0.060425  0.172556  0.608408  1
  Tb  Tb10  1  0.440332  0.672472  0.391970  1
  Tb  Tb11  1  0.940628  0.824750  0.111949  1
  Tb  Tb12  1  0.449364  0.664229  0.110782  1
  Tb  Tb13  1  0.958110  0.829257  0.393032  1
  Tb  Tb14  1  0.541143  0.330241  0.606174  1
  Tb  Tb15  1  0.053585  0.173561  0.889213  1
  Tb  Tb16  1  0.221685  0.501251  0.745805  1
  Tb  Tb17  1  0.721899  0.001041  0.748729  1
  Ho  Ho18  1  0.778140  0.498634  0.248126  1
  Ho  Ho19  1  0.278307  0.999251  0.253792  1
  Sn  Sn20  1  0.225437  0.525762  0.543981  1
  Sn  Sn21  1  0.274590  0.024462  0.455545  1
  Sn  Sn22  1  0.770238  0.479352  0.045309  1
  Sn  Sn23  1  0.587445  0.628656  0.748754  1
  Sn  Sn24  1  0.086176  0.873631  0.751928  1
  Sn  Sn25  1  0.411750  0.371774  0.249906  1
  Sn  Sn26  1  0.913475  0.126466  0.250944  1
  Sn  Sn27  1  0.359514  0.143662  0.751178  1
  Sn  Sn28  1  0.857495  0.357131  0.748162  1
  Sn  Sn29  1  0.641773  0.855312  0.251092  1
  Sn  Sn30  1  0.141841  0.641690  0.250248  1
  Bi  Bi31  1  0.266554  0.015045  0.045765  1
  Bi  Bi32  1  0.768993  0.479322  0.454946  1
  Bi  Bi33  1  0.730473  0.980155  0.544086  1
  Bi  Bi34  1  0.232166  0.518158  0.954733  1
  Bi  Bi35  1  0.731516  0.982083  0.955015  1
