# generated using pymatgen
data_Sm3Ho2Lu(Si3Ru)8
_symmetry_space_group_name_H-M   'P 1'
_cell_length_a   10.12515765
_cell_length_b   10.12582492
_cell_length_c   8.16624990
_cell_angle_alpha   90.09776798
_cell_angle_beta   89.94378065
_cell_angle_gamma   132.44483654
_symmetry_Int_Tables_number   1
_chemical_formula_structural   Sm3Ho2Lu(Si3Ru)8
_chemical_formula_sum   'Sm3 Ho2 Lu1 Si24 Ru8'
_cell_volume   617.82843343
_cell_formula_units_Z   1
loop_
 _symmetry_equiv_pos_site_id
 _symmetry_equiv_pos_as_xyz
  1  'x, y, z'
loop_
 _atom_site_type_symbol
 _atom_site_label
 _atom_site_symmetry_multiplicity
 _atom_site_fract_x
 _atom_site_fract_y
 _atom_site_fract_z
 _atom_site_occupancy
  Sm  Sm0  1  0.502317  0.002048  0.749402  1
  Sm  Sm1  1  0.997450  0.497427  0.250335  1
  Sm  Sm2  1  0.497113  0.997020  0.250473  1
  Ho  Ho3  1  0.000043  0.000013  0.000028  1
  Ho  Ho4  1  0.002347  0.502691  0.749384  1
  Lu  Lu5  1  0.499887  0.499907  0.500109  1
  Si  Si6  1  0.794866  0.206417  0.501382  1
  Si  Si7  1  0.294090  0.704219  0.998621  1
  Si  Si8  1  0.204715  0.793234  0.500842  1
  Si  Si9  1  0.705748  0.295596  0.998417  1
  Si  Si10  1  0.332222  0.331280  0.832783  1
  Si  Si11  1  0.668332  0.668320  0.167542  1
  Si  Si12  1  0.167713  0.167849  0.332605  1
  Si  Si13  1  0.831778  0.832742  0.667317  1
  Si  Si14  1  0.118751  0.885484  0.727385  1
  Si  Si15  1  0.114639  0.880809  0.271690  1
  Si  Si16  1  0.609966  0.376824  0.229022  1
  Si  Si17  1  0.622748  0.390167  0.771092  1
  Si  Si18  1  0.878804  0.112699  0.271748  1
  Si  Si19  1  0.887162  0.120694  0.727973  1
  Si  Si20  1  0.388624  0.621142  0.771810  1
  Si  Si21  1  0.379247  0.612062  0.229104  1
  Si  Si22  1  0.345660  0.112357  0.504406  1
  Si  Si23  1  0.888779  0.657126  0.497867  1
  Si  Si24  1  0.386525  0.153400  0.005604  1
  Si  Si25  1  0.844057  0.612111  0.994409  1
  Si  Si26  1  0.654037  0.887264  0.495104  1
  Si  Si27  1  0.111292  0.343431  0.505417  1
  Si  Si28  1  0.613281  0.846469  0.995588  1
  Si  Si29  1  0.156747  0.388209  0.002785  1
  Ru  Ru30  1  0.669935  0.335730  0.500951  1
  Ru  Ru31  1  0.165794  0.829022  0.998089  1
  Ru  Ru32  1  0.330024  0.664218  0.501641  1
  Ru  Ru33  1  0.834725  0.171561  0.998991  1
  Ru  Ru34  1  0.126710  0.126235  0.625185  1
  Ru  Ru35  1  0.873763  0.873767  0.374443  1
  Ru  Ru36  1  0.375062  0.374863  0.128172  1
  Ru  Ru37  1  0.625047  0.625593  0.872285  1
