# generated using pymatgen
data_Tb8Tm2(TlSb)3
_symmetry_space_group_name_H-M   'P 1'
_cell_length_a   9.00168400
_cell_length_b   8.98084197
_cell_length_c   6.55999900
_cell_angle_alpha   90.06153297
_cell_angle_beta   90.00000000
_cell_angle_gamma   120.07679119
_symmetry_Int_Tables_number   1
_chemical_formula_structural   Tb8Tm2(TlSb)3
_chemical_formula_sum   'Tb8 Tm2 Tl3 Sb3'
_cell_volume   458.92140152
_cell_formula_units_Z   1
loop_
 _symmetry_equiv_pos_site_id
 _symmetry_equiv_pos_as_xyz
  1  'x, y, z'
loop_
 _atom_site_type_symbol
 _atom_site_label
 _atom_site_symmetry_multiplicity
 _atom_site_fract_x
 _atom_site_fract_y
 _atom_site_fract_z
 _atom_site_occupancy
  Tb  Tb0  1  0.002243  0.762263  0.749966  1
  Tb  Tb1  1  0.003219  0.240229  0.249967  1
  Tb  Tb2  1  0.762992  0.759771  0.250033  1
  Tb  Tb3  1  0.761010  0.000000  0.750000  1
  Tb  Tb4  1  0.239980  0.237737  0.750034  1
  Tb  Tb5  1  0.238395  0.000000  0.250000  1
  Tb  Tb6  1  0.665030  0.334022  0.499751  1
  Tb  Tb7  1  0.331008  0.665978  0.000249  1
  Tm  Tm8  1  0.330705  0.666270  0.499113  1
  Tm  Tm9  1  0.664436  0.333730  0.000887  1
  Tl  Tl10  1  0.397412  0.000000  0.750000  1
  Tl  Tl11  1  0.396039  0.397924  0.249986  1
  Tl  Tl12  1  0.998113  0.602076  0.250014  1
  Sb  Sb13  1  0.997427  0.392205  0.750169  1
  Sb  Sb14  1  0.605222  0.607795  0.749831  1
  Sb  Sb15  1  0.606767  0.000000  0.250000  1
