# generated using pymatgen
data_Ho16In4Co3Pt
_symmetry_space_group_name_H-M   'P 1'
_cell_length_a   9.55650331
_cell_length_b   9.52445021
_cell_length_c   9.52445100
_cell_angle_alpha   60.00000072
_cell_angle_beta   60.11089030
_cell_angle_gamma   60.11088904
_symmetry_Int_Tables_number   1
_chemical_formula_structural   Ho16In4Co3Pt
_chemical_formula_sum   'Ho16 In4 Co3 Pt1'
_cell_volume   614.03026321
_cell_formula_units_Z   1
loop_
 _symmetry_equiv_pos_site_id
 _symmetry_equiv_pos_as_xyz
  1  'x, y, z'
loop_
 _atom_site_type_symbol
 _atom_site_label
 _atom_site_symmetry_multiplicity
 _atom_site_fract_x
 _atom_site_fract_y
 _atom_site_fract_z
 _atom_site_occupancy
  Ho  Ho0  1  0.441731  0.438868  0.059701  1
  Ho  Ho1  1  0.661006  0.647298  0.044400  1
  Ho  Ho2  1  0.179523  0.811417  0.197644  1
  Ho  Ho3  1  0.064813  0.437105  0.060978  1
  Ho  Ho4  1  0.179523  0.811417  0.811417  1
  Ho  Ho5  1  0.064813  0.437105  0.437105  1
  Ho  Ho6  1  0.810643  0.188633  0.188633  1
  Ho  Ho7  1  0.661006  0.647298  0.647298  1
  Ho  Ho8  1  0.810643  0.188633  0.812092  1
  Ho  Ho9  1  0.179523  0.197644  0.811417  1
  Ho  Ho10  1  0.036360  0.654547  0.654547  1
  Ho  Ho11  1  0.441731  0.059701  0.059701  1
  Ho  Ho12  1  0.064813  0.060978  0.437105  1
  Ho  Ho13  1  0.661006  0.044400  0.647298  1
  Ho  Ho14  1  0.810643  0.812092  0.188633  1
  Ho  Ho15  1  0.441731  0.059701  0.438868  1
  In  In16  1  0.415107  0.418338  0.418338  1
  In  In17  1  0.415107  0.418338  0.748219  1
  In  In18  1  0.415107  0.748219  0.418338  1
  In  In19  1  0.750502  0.416500  0.416500  1
  Co  Co20  1  0.856463  0.860372  0.860372  1
  Co  Co21  1  0.856463  0.422793  0.860372  1
  Co  Co22  1  0.856463  0.860372  0.422793  1
  Pt  Pt23  1  0.425281  0.858239  0.858239  1
