# generated using pymatgen
data_BaP5Pd9
_symmetry_space_group_name_H-M   'P 1'
_cell_length_a   6.99728000
_cell_length_b   6.99727929
_cell_length_c   12.35912400
_cell_angle_alpha   90.00000000
_cell_angle_beta   90.00000000
_cell_angle_gamma   119.99999388
_symmetry_Int_Tables_number   1
_chemical_formula_structural   BaP5Pd9
_chemical_formula_sum   'Ba2 P10 Pd18'
_cell_volume   524.05492868
_cell_formula_units_Z   2
loop_
 _symmetry_equiv_pos_site_id
 _symmetry_equiv_pos_as_xyz
  1  'x, y, z'
loop_
 _atom_site_type_symbol
 _atom_site_label
 _atom_site_symmetry_multiplicity
 _atom_site_fract_x
 _atom_site_fract_y
 _atom_site_fract_z
 _atom_site_occupancy
  Ba  Ba0  1  0.000000  0.000000  0.500000  1
  Ba  Ba1  1  0.000000  0.000000  0.000000  1
  P  P2  1  0.181564  0.363127  0.750000  1
  P  P3  1  0.818436  0.181564  0.250000  1
  P  P4  1  0.181564  0.818436  0.750000  1
  P  P5  1  0.818436  0.636873  0.250000  1
  P  P6  1  0.333333  0.666667  0.445860  1
  P  P7  1  0.666667  0.333333  0.945860  1
  P  P8  1  0.666667  0.333333  0.554140  1
  P  P9  1  0.333333  0.666667  0.054140  1
  P  P10  1  0.363127  0.181564  0.250000  1
  P  P11  1  0.636873  0.818436  0.750000  1
  Pd  Pd12  1  0.468157  0.936314  0.893743  1
  Pd  Pd13  1  0.936314  0.468157  0.106257  1
  Pd  Pd14  1  0.531843  0.063686  0.106257  1
  Pd  Pd15  1  0.063686  0.531843  0.606257  1
  Pd  Pd16  1  0.194704  0.389408  0.250000  1
  Pd  Pd17  1  0.805296  0.194704  0.750000  1
  Pd  Pd18  1  0.389408  0.194704  0.750000  1
  Pd  Pd19  1  0.610592  0.805296  0.250000  1
  Pd  Pd20  1  0.194704  0.805296  0.250000  1
  Pd  Pd21  1  0.805296  0.610592  0.750000  1
  Pd  Pd22  1  0.468157  0.936314  0.606257  1
  Pd  Pd23  1  0.531843  0.468157  0.393743  1
  Pd  Pd24  1  0.936314  0.468157  0.393743  1
  Pd  Pd25  1  0.063686  0.531843  0.893743  1
  Pd  Pd26  1  0.468157  0.531843  0.893743  1
  Pd  Pd27  1  0.531843  0.063686  0.393743  1
  Pd  Pd28  1  0.531843  0.468157  0.106257  1
  Pd  Pd29  1  0.468157  0.531843  0.606257  1
