# generated using pymatgen
data_LaTb12Nd7Sn16
_symmetry_space_group_name_H-M   'P 1'
_cell_length_a   8.15635086
_cell_length_b   8.30690075
_cell_length_c   15.67373500
_cell_angle_alpha   90.01978166
_cell_angle_beta   90.02633554
_cell_angle_gamma   89.98583061
_symmetry_Int_Tables_number   1
_chemical_formula_structural   LaTb12Nd7Sn16
_chemical_formula_sum   'La1 Tb12 Nd7 Sn16'
_cell_volume   1061.95798751
_cell_formula_units_Z   1
loop_
 _symmetry_equiv_pos_site_id
 _symmetry_equiv_pos_as_xyz
  1  'x, y, z'
loop_
 _atom_site_type_symbol
 _atom_site_label
 _atom_site_symmetry_multiplicity
 _atom_site_fract_x
 _atom_site_fract_y
 _atom_site_fract_z
 _atom_site_occupancy
  La  La0  1  0.013778  0.179740  0.903144  1
  Tb  Tb1  1  0.362267  0.834900  0.877636  1
  Tb  Tb2  1  0.861581  0.664946  0.622627  1
  Tb  Tb3  1  0.638553  0.164149  0.377311  1
  Tb  Tb4  1  0.138560  0.336246  0.122905  1
  Tb  Tb5  1  0.638003  0.163291  0.122689  1
  Tb  Tb6  1  0.139113  0.335923  0.377422  1
  Tb  Tb7  1  0.360615  0.836237  0.622865  1
  Tb  Tb8  1  0.860676  0.663936  0.877727  1
  Tb  Tb9  1  0.194498  0.502340  0.749643  1
  Tb  Tb10  1  0.694097  0.997504  0.749391  1
  Tb  Tb11  1  0.805267  0.497599  0.250183  1
  Tb  Tb12  1  0.305259  0.002168  0.249474  1
  Nd  Nd13  1  0.515604  0.320668  0.902788  1
  Nd  Nd14  1  0.014814  0.179234  0.597594  1
  Nd  Nd15  1  0.485814  0.679226  0.402792  1
  Nd  Nd16  1  0.985458  0.820740  0.097496  1
  Nd  Nd17  1  0.485876  0.678790  0.097161  1
  Nd  Nd18  1  0.985947  0.820713  0.402864  1
  Nd  Nd19  1  0.514176  0.321752  0.596843  1
  Sn  Sn20  1  0.301789  0.039507  0.041905  1
  Sn  Sn21  1  0.801857  0.460319  0.458221  1
  Sn  Sn22  1  0.698305  0.960863  0.541895  1
  Sn  Sn23  1  0.199579  0.538919  0.957793  1
  Sn  Sn24  1  0.698056  0.959760  0.958353  1
  Sn  Sn25  1  0.198190  0.540479  0.541633  1
  Sn  Sn26  1  0.302000  0.039732  0.458117  1
  Sn  Sn27  1  0.801267  0.459578  0.041941  1
  Sn  Sn28  1  0.560336  0.621407  0.749929  1
  Sn  Sn29  1  0.060449  0.878352  0.750811  1
  Sn  Sn30  1  0.439299  0.378178  0.249887  1
  Sn  Sn31  1  0.939189  0.121585  0.250174  1
  Sn  Sn32  1  0.323666  0.143156  0.749748  1
  Sn  Sn33  1  0.821353  0.358215  0.749001  1
  Sn  Sn34  1  0.677282  0.856868  0.250023  1
  Sn  Sn35  1  0.177429  0.642982  0.250017  1
