# generated using pymatgen
data_TaTi5Cr2(Si3Ru2)2
_symmetry_space_group_name_H-M   'P 1'
_cell_length_a   7.40776145
_cell_length_b   7.39919832
_cell_length_c   7.40776070
_cell_angle_alpha   127.33062236
_cell_angle_beta   125.06420438
_cell_angle_gamma   79.60606236
_symmetry_Int_Tables_number   1
_chemical_formula_structural   TaTi5Cr2(Si3Ru2)2
_chemical_formula_sum   'Ta1 Ti5 Cr2 Si6 Ru4'
_cell_volume   255.30763344
_cell_formula_units_Z   1
loop_
 _symmetry_equiv_pos_site_id
 _symmetry_equiv_pos_as_xyz
  1  'x, y, z'
loop_
 _atom_site_type_symbol
 _atom_site_label
 _atom_site_symmetry_multiplicity
 _atom_site_fract_x
 _atom_site_fract_y
 _atom_site_fract_z
 _atom_site_occupancy
  Ta  Ta0  1  0.254977  0.084162  0.329185  1
  Ti  Ti1  1  0.941077  0.893765  0.452689  1
  Ti  Ti2  1  0.059791  0.516876  0.957084  1
  Ti  Ti3  1  0.538107  0.507777  0.469669  1
  Ti  Ti4  1  0.461652  0.935928  0.974278  1
  Ti  Ti5  1  0.745454  0.076623  0.831169  1
  Cr  Cr6  1  0.499441  0.758473  0.257792  1
  Cr  Cr7  1  0.000681  0.758473  0.759032  1
  Si  Si8  1  0.726258  0.473220  0.246963  1
  Si  Si9  1  0.273653  0.522242  0.748589  1
  Si  Si10  1  0.679186  0.173866  0.515684  1
  Si  Si11  1  0.327476  0.836182  0.501250  1
  Si  Si12  1  0.158182  0.173866  0.994680  1
  Si  Si13  1  0.834933  0.836182  0.008707  1
  Ru  Ru14  1  0.902957  0.250859  0.408644  1
  Ru  Ru15  1  0.096649  0.504221  0.346912  1
  Ru  Ru16  1  0.342216  0.250859  0.847902  1
  Ru  Ru17  1  0.657310  0.504221  0.907573  1
