# generated using pymatgen
data_Rb5Sm2InI12
_symmetry_space_group_name_H-M   'P 1'
_cell_length_a   9.41474994
_cell_length_b   8.84232142
_cell_length_c   15.42193000
_cell_angle_alpha   55.58624675
_cell_angle_beta   89.92559564
_cell_angle_gamma   90.17710003
_symmetry_Int_Tables_number   1
_chemical_formula_structural   Rb5Sm2InI12
_chemical_formula_sum   'Rb5 Sm2 In1 I12'
_cell_volume   1059.13440035
_cell_formula_units_Z   1
loop_
 _symmetry_equiv_pos_site_id
 _symmetry_equiv_pos_as_xyz
  1  'x, y, z'
loop_
 _atom_site_type_symbol
 _atom_site_label
 _atom_site_symmetry_multiplicity
 _atom_site_fract_x
 _atom_site_fract_y
 _atom_site_fract_z
 _atom_site_occupancy
  Rb  Rb0  1  0.500000  0.500000  0.000000  1
  Rb  Rb1  1  0.073791  0.720555  0.752867  1
  Rb  Rb2  1  0.926209  0.279445  0.247133  1
  Rb  Rb3  1  0.576299  0.285060  0.740856  1
  Rb  Rb4  1  0.423701  0.714940  0.259144  1
  Sm  Sm5  1  0.500000  0.000000  0.500000  1
  Sm  Sm6  1  0.000000  0.000000  0.000000  1
  In  In7  1  0.000000  0.500000  0.500000  1
  I  I8  1  0.776110  0.758394  0.567837  1
  I  I9  1  0.223890  0.241606  0.432163  1
  I  I10  1  0.276988  0.235582  0.929068  1
  I  I11  1  0.723012  0.764418  0.070932  1
  I  I12  1  0.448587  0.891179  0.726871  1
  I  I13  1  0.551413  0.108821  0.273129  1
  I  I14  1  0.951620  0.118880  0.767621  1
  I  I15  1  0.048380  0.881120  0.232379  1
  I  I16  1  0.317993  0.663612  0.549531  1
  I  I17  1  0.682007  0.336388  0.450469  1
  I  I18  1  0.827713  0.338661  0.948667  1
  I  I19  1  0.172287  0.661339  0.051333  1
