# generated using pymatgen
data_HoEr2Tm5(CdIr)2
_symmetry_space_group_name_H-M   'P 1'
_cell_length_a   9.52992016
_cell_length_b   9.53126556
_cell_length_c   9.53126709
_cell_angle_alpha   59.99066512
_cell_angle_beta   60.00466558
_cell_angle_gamma   60.00467248
_symmetry_Int_Tables_number   1
_chemical_formula_structural   HoEr2Tm5(CdIr)2
_chemical_formula_sum   'Ho2 Er4 Tm10 Cd4 Ir4'
_cell_volume   612.17482758
_cell_formula_units_Z   2
loop_
 _symmetry_equiv_pos_site_id
 _symmetry_equiv_pos_as_xyz
  1  'x, y, z'
loop_
 _atom_site_type_symbol
 _atom_site_label
 _atom_site_symmetry_multiplicity
 _atom_site_fract_x
 _atom_site_fract_y
 _atom_site_fract_z
 _atom_site_occupancy
  Ho  Ho0  1  0.187723  0.812277  0.812277  1
  Ho  Ho1  1  0.812277  0.187723  0.187723  1
  Er  Er2  1  0.812103  0.187897  0.812103  1
  Er  Er3  1  0.187897  0.812103  0.187897  1
  Er  Er4  1  0.812103  0.812103  0.187897  1
  Er  Er5  1  0.187897  0.187897  0.812103  1
  Tm  Tm6  1  0.599124  0.599071  0.599071  1
  Tm  Tm7  1  0.599071  0.599124  0.202733  1
  Tm  Tm8  1  0.599071  0.202733  0.599124  1
  Tm  Tm9  1  0.202733  0.599071  0.599071  1
  Tm  Tm10  1  0.060758  0.439242  0.439242  1
  Tm  Tm11  1  0.439242  0.060758  0.060758  1
  Tm  Tm12  1  0.439240  0.060760  0.439240  1
  Tm  Tm13  1  0.060760  0.439240  0.060760  1
  Tm  Tm14  1  0.439240  0.439240  0.060760  1
  Tm  Tm15  1  0.060760  0.060760  0.439240  1
  Cd  Cd16  1  0.830986  0.831114  0.831114  1
  Cd  Cd17  1  0.831114  0.830986  0.506784  1
  Cd  Cd18  1  0.831114  0.506784  0.830986  1
  Cd  Cd19  1  0.506784  0.831114  0.831114  1
  Ir  Ir20  1  0.391710  0.391853  0.391853  1
  Ir  Ir21  1  0.391853  0.391710  0.824583  1
  Ir  Ir22  1  0.391853  0.824583  0.391710  1
  Ir  Ir23  1  0.824583  0.391853  0.391853  1
