# generated using pymatgen
data_Ce2ErCo(CuSb2)2
_symmetry_space_group_name_H-M   'P 1'
_cell_length_a   8.29030663
_cell_length_b   8.29059083
_cell_length_c   8.29030637
_cell_angle_alpha   110.06010397
_cell_angle_beta   108.30337553
_cell_angle_gamma   110.06010160
_symmetry_Int_Tables_number   1
_chemical_formula_structural   Ce2ErCo(CuSb2)2
_chemical_formula_sum   'Ce4 Er2 Co2 Cu4 Sb8'
_cell_volume   438.48021706
_cell_formula_units_Z   2
loop_
 _symmetry_equiv_pos_site_id
 _symmetry_equiv_pos_as_xyz
  1  'x, y, z'
loop_
 _atom_site_type_symbol
 _atom_site_label
 _atom_site_symmetry_multiplicity
 _atom_site_fract_x
 _atom_site_fract_y
 _atom_site_fract_z
 _atom_site_occupancy
  Ce  Ce0  1  0.250000  0.117879  0.867869  1
  Ce  Ce1  1  0.750015  0.382119  0.632108  1
  Ce  Ce2  1  0.132108  0.882119  0.250015  1
  Ce  Ce3  1  0.367869  0.617879  0.750000  1
  Er  Er4  1  0.874980  0.249998  0.125004  1
  Er  Er5  1  0.625004  0.749998  0.374980  1
  Co  Co6  1  0.374981  0.250013  0.625033  1
  Co  Co7  1  0.125033  0.750013  0.874981  1
  Cu  Cu8  1  0.250013  0.623272  0.373315  1
  Cu  Cu9  1  0.749953  0.876715  0.126704  1
  Cu  Cu10  1  0.626704  0.376715  0.249953  1
  Cu  Cu11  1  0.873315  0.123272  0.750013  1
  Sb  Sb12  1  0.657109  0.495869  0.996592  1
  Sb  Sb13  1  0.500706  0.004110  0.661267  1
  Sb  Sb14  1  0.999308  0.660550  0.503426  1
  Sb  Sb15  1  0.842868  0.839475  0.838750  1
  Sb  Sb16  1  0.496592  0.995869  0.157109  1
  Sb  Sb17  1  0.161267  0.504110  0.000706  1
  Sb  Sb18  1  0.003426  0.160550  0.499308  1
  Sb  Sb19  1  0.338750  0.339475  0.342868  1
