# generated using pymatgen
data_V3Co7Ni13B6
_symmetry_space_group_name_H-M   'P 1'
_cell_length_a   7.37971215
_cell_length_b   7.37971234
_cell_length_c   7.37971207
_cell_angle_alpha   59.98698034
_cell_angle_beta   59.98697756
_cell_angle_gamma   59.98697845
_symmetry_Int_Tables_number   1
_chemical_formula_structural   V3Co7Ni13B6
_chemical_formula_sum   'V3 Co7 Ni13 B6'
_cell_volume   284.10248493
_cell_formula_units_Z   1
loop_
 _symmetry_equiv_pos_site_id
 _symmetry_equiv_pos_as_xyz
  1  'x, y, z'
loop_
 _atom_site_type_symbol
 _atom_site_label
 _atom_site_symmetry_multiplicity
 _atom_site_fract_x
 _atom_site_fract_y
 _atom_site_fract_z
 _atom_site_occupancy
  V  V0  1  0.999870  0.999870  0.999870  1
  V  V1  1  0.749853  0.749853  0.749853  1
  V  V2  1  0.246599  0.246599  0.246599  1
  Co  Co3  1  0.620295  0.620295  0.139854  1
  Co  Co4  1  0.620295  0.139854  0.620295  1
  Co  Co5  1  0.139854  0.620295  0.620295  1
  Co  Co6  1  0.620220  0.620220  0.620220  1
  Co  Co7  1  0.379672  0.379672  0.860714  1
  Co  Co8  1  0.379672  0.860714  0.379672  1
  Co  Co9  1  0.860714  0.379672  0.379672  1
  Ni  Ni10  1  0.381314  0.381314  0.381314  1
  Ni  Ni11  1  0.999838  0.999838  0.338634  1
  Ni  Ni12  1  0.661600  0.000358  0.338097  1
  Ni  Ni13  1  0.000358  0.661600  0.338097  1
  Ni  Ni14  1  0.661600  0.338097  0.000358  1
  Ni  Ni15  1  0.999838  0.338634  0.999838  1
  Ni  Ni16  1  0.000358  0.338097  0.661600  1
  Ni  Ni17  1  0.338097  0.661600  0.000358  1
  Ni  Ni18  1  0.338097  0.000358  0.661600  1
  Ni  Ni19  1  0.338634  0.999838  0.999838  1
  Ni  Ni20  1  0.000351  0.000351  0.662118  1
  Ni  Ni21  1  0.000351  0.662118  0.000351  1
  Ni  Ni22  1  0.662118  0.000351  0.000351  1
  B  B23  1  0.724392  0.724392  0.275810  1
  B  B24  1  0.274415  0.726978  0.274415  1
  B  B25  1  0.726978  0.274415  0.274415  1
  B  B26  1  0.274415  0.274415  0.726978  1
  B  B27  1  0.724392  0.275810  0.724392  1
  B  B28  1  0.275810  0.724392  0.724392  1
