# generated using pymatgen
data_Cs5K(SbTe3)2
_symmetry_space_group_name_H-M   'P 1'
_cell_length_a   11.31850121
_cell_length_b   11.29976890
_cell_length_c   11.31547900
_cell_angle_alpha   90.00000000
_cell_angle_beta   90.00000000
_cell_angle_gamma   89.56749583
_symmetry_Int_Tables_number   1
_chemical_formula_structural   Cs5K(SbTe3)2
_chemical_formula_sum   'Cs10 K2 Sb4 Te12'
_cell_volume   1447.16833830
_cell_formula_units_Z   2
loop_
 _symmetry_equiv_pos_site_id
 _symmetry_equiv_pos_as_xyz
  1  'x, y, z'
loop_
 _atom_site_type_symbol
 _atom_site_label
 _atom_site_symmetry_multiplicity
 _atom_site_fract_x
 _atom_site_fract_y
 _atom_site_fract_z
 _atom_site_occupancy
  Cs  Cs0  1  0.571694  0.577511  0.578898  1
  Cs  Cs1  1  0.928306  0.422489  0.078898  1
  Cs  Cs2  1  0.080600  0.923484  0.425192  1
  Cs  Cs3  1  0.419400  0.076516  0.925192  1
  Cs  Cs4  1  0.314675  0.310921  0.309525  1
  Cs  Cs5  1  0.185325  0.689079  0.809525  1
  Cs  Cs6  1  0.810309  0.183337  0.683981  1
  Cs  Cs7  1  0.689691  0.816663  0.183981  1
  Cs  Cs8  1  0.817235  0.813065  0.817465  1
  Cs  Cs9  1  0.682765  0.186935  0.317465  1
  K  K10  1  0.315426  0.685865  0.185433  1
  K  K11  1  0.184574  0.314135  0.685433  1
  Sb  Sb12  1  0.029987  0.029921  0.024994  1
  Sb  Sb13  1  0.470013  0.970079  0.524994  1
  Sb  Sb14  1  0.518937  0.479751  0.976130  1
  Sb  Sb15  1  0.981063  0.520249  0.476130  1
  Te  Te16  1  0.218067  0.596472  0.484493  1
  Te  Te17  1  0.478768  0.209081  0.600202  1
  Te  Te18  1  0.588339  0.499448  0.214797  1
  Te  Te19  1  0.911661  0.500552  0.714797  1
  Te  Te20  1  0.998034  0.281803  0.404190  1
  Te  Te21  1  0.397135  0.980854  0.286220  1
  Te  Te22  1  0.021232  0.790919  0.100202  1
  Te  Te23  1  0.501966  0.718197  0.904190  1
  Te  Te24  1  0.102865  0.019146  0.786220  1
  Te  Te25  1  0.709302  0.899269  0.508479  1
  Te  Te26  1  0.790698  0.100731  0.008479  1
  Te  Te27  1  0.281933  0.403528  0.984493  1
