# generated using pymatgen
data_Hf5(PaNi5)2
_symmetry_space_group_name_H-M   'P 1'
_cell_length_a   7.75027501
_cell_length_b   7.75027421
_cell_length_c   9.18669931
_cell_angle_alpha   90.08636948
_cell_angle_beta   90.08636952
_cell_angle_gamma   106.79656737
_symmetry_Int_Tables_number   1
_chemical_formula_structural   Hf5(PaNi5)2
_chemical_formula_sum   'Hf10 Pa4 Ni20'
_cell_volume   528.27134602
_cell_formula_units_Z   2
loop_
 _symmetry_equiv_pos_site_id
 _symmetry_equiv_pos_as_xyz
  1  'x, y, z'
loop_
 _atom_site_type_symbol
 _atom_site_label
 _atom_site_symmetry_multiplicity
 _atom_site_fract_x
 _atom_site_fract_y
 _atom_site_fract_z
 _atom_site_occupancy
  Hf  Hf0  1  0.812412  0.187588  0.500000  1
  Hf  Hf1  1  0.187588  0.812412  0.500000  1
  Hf  Hf2  1  0.003718  0.503257  0.257459  1
  Hf  Hf3  1  0.996282  0.496743  0.742541  1
  Hf  Hf4  1  0.496743  0.996282  0.742541  1
  Hf  Hf5  1  0.503257  0.003718  0.257459  1
  Hf  Hf6  1  0.307242  0.307242  0.193815  1
  Hf  Hf7  1  0.692758  0.692758  0.806185  1
  Hf  Hf8  1  0.181695  0.181695  0.682462  1
  Hf  Hf9  1  0.818305  0.818305  0.317538  1
  Pa  Pa10  1  0.688048  0.311952  0.000000  1
  Pa  Pa11  1  0.311952  0.688048  0.000000  1
  Pa  Pa12  1  0.000000  0.000000  0.000000  1
  Pa  Pa13  1  0.500000  0.500000  0.500000  1
  Ni  Ni14  1  0.862155  0.152864  0.206872  1
  Ni  Ni15  1  0.137845  0.847136  0.793128  1
  Ni  Ni16  1  0.637858  0.348092  0.706351  1
  Ni  Ni17  1  0.651908  0.362142  0.293649  1
  Ni  Ni18  1  0.362142  0.651908  0.293649  1
  Ni  Ni19  1  0.348092  0.637858  0.706351  1
  Ni  Ni20  1  0.847136  0.137845  0.793128  1
  Ni  Ni21  1  0.152864  0.862155  0.206872  1
  Ni  Ni22  1  0.939009  0.648068  0.006222  1
  Ni  Ni23  1  0.060991  0.351932  0.993778  1
  Ni  Ni24  1  0.560756  0.850609  0.505267  1
  Ni  Ni25  1  0.149391  0.439244  0.494733  1
  Ni  Ni26  1  0.439244  0.149391  0.494733  1
  Ni  Ni27  1  0.850609  0.560756  0.505267  1
  Ni  Ni28  1  0.351932  0.060991  0.993778  1
  Ni  Ni29  1  0.648068  0.939009  0.006222  1
  Ni  Ni30  1  0.105085  0.105085  0.397275  1
  Ni  Ni31  1  0.894915  0.894915  0.602725  1
  Ni  Ni32  1  0.393677  0.393677  0.893492  1
  Ni  Ni33  1  0.606323  0.606323  0.106508  1
