# generated using pymatgen
data_Nd5Dy(SiIr)4
_symmetry_space_group_name_H-M   'P 1'
_cell_length_a   5.77704763
_cell_length_b   5.77704792
_cell_length_c   13.39131700
_cell_angle_alpha   90.00000000
_cell_angle_beta   90.00000000
_cell_angle_gamma   137.94960659
_symmetry_Int_Tables_number   1
_chemical_formula_structural   Nd5Dy(SiIr)4
_chemical_formula_sum   'Nd5 Dy1 Si4 Ir4'
_cell_volume   299.34358509
_cell_formula_units_Z   1
loop_
 _symmetry_equiv_pos_site_id
 _symmetry_equiv_pos_as_xyz
  1  'x, y, z'
loop_
 _atom_site_type_symbol
 _atom_site_label
 _atom_site_symmetry_multiplicity
 _atom_site_fract_x
 _atom_site_fract_y
 _atom_site_fract_z
 _atom_site_occupancy
  Nd  Nd0  1  0.772644  0.227356  0.602521  1
  Nd  Nd1  1  0.227044  0.772956  0.395742  1
  Nd  Nd2  1  0.772644  0.227356  0.897479  1
  Nd  Nd3  1  0.481039  0.518961  0.750000  1
  Nd  Nd4  1  0.227044  0.772956  0.104258  1
  Dy  Dy5  1  0.514731  0.485269  0.250000  1
  Si  Si6  1  0.059741  0.940259  0.587671  1
  Si  Si7  1  0.059741  0.940259  0.912329  1
  Si  Si8  1  0.940761  0.059239  0.409415  1
  Si  Si9  1  0.940761  0.059239  0.090585  1
  Ir  Ir10  1  0.818433  0.181567  0.250000  1
  Ir  Ir11  1  0.183460  0.816540  0.750000  1
  Ir  Ir12  1  0.500977  0.499023  0.002634  1
  Ir  Ir13  1  0.500977  0.499023  0.497366  1
