# generated using pymatgen
data_Ba3Ga(SiRh3)2
_symmetry_space_group_name_H-M   'P 1'
_cell_length_a   5.94180400
_cell_length_b   5.94180195
_cell_length_c   15.58469000
_cell_angle_alpha   90.00000000
_cell_angle_beta   90.00000000
_cell_angle_gamma   119.99998912
_symmetry_Int_Tables_number   1
_chemical_formula_structural   Ba3Ga(SiRh3)2
_chemical_formula_sum   'Ba6 Ga2 Si4 Rh12'
_cell_volume   476.50267313
_cell_formula_units_Z   2
loop_
 _symmetry_equiv_pos_site_id
 _symmetry_equiv_pos_as_xyz
  1  'x, y, z'
loop_
 _atom_site_type_symbol
 _atom_site_label
 _atom_site_symmetry_multiplicity
 _atom_site_fract_x
 _atom_site_fract_y
 _atom_site_fract_z
 _atom_site_occupancy
  Ba  Ba0  1  0.333333  0.666667  0.538493  1
  Ba  Ba1  1  0.666667  0.333333  0.461507  1
  Ba  Ba2  1  0.666667  0.333333  0.038493  1
  Ba  Ba3  1  0.333333  0.666667  0.961507  1
  Ba  Ba4  1  0.333333  0.666667  0.750000  1
  Ba  Ba5  1  0.666667  0.333333  0.250000  1
  Ga  Ga6  1  0.000000  0.000000  0.000000  1
  Ga  Ga7  1  0.000000  0.000000  0.500000  1
  Si  Si8  1  0.000000  0.000000  0.250000  1
  Si  Si9  1  0.000000  0.000000  0.750000  1
  Si  Si10  1  0.333333  0.666667  0.250000  1
  Si  Si11  1  0.666667  0.333333  0.750000  1
  Rh  Rh12  1  0.163407  0.326814  0.142716  1
  Rh  Rh13  1  0.836593  0.673186  0.857284  1
  Rh  Rh14  1  0.673186  0.836593  0.142716  1
  Rh  Rh15  1  0.836593  0.673186  0.642716  1
  Rh  Rh16  1  0.326814  0.163407  0.857284  1
  Rh  Rh17  1  0.163407  0.326814  0.357284  1
  Rh  Rh18  1  0.163407  0.836593  0.142716  1
  Rh  Rh19  1  0.326814  0.163407  0.642716  1
  Rh  Rh20  1  0.836593  0.163407  0.857284  1
  Rh  Rh21  1  0.673186  0.836593  0.357284  1
  Rh  Rh22  1  0.836593  0.163407  0.642716  1
  Rh  Rh23  1  0.163407  0.836593  0.357284  1
