# generated using pymatgen
data_BaLa8Cd(Si3O13)2
_symmetry_space_group_name_H-M   'P 1'
_cell_length_a   9.79710000
_cell_length_b   9.79709995
_cell_length_c   7.25761000
_cell_angle_alpha   90.00000000
_cell_angle_beta   90.00000000
_cell_angle_gamma   119.99999342
_symmetry_Int_Tables_number   1
_chemical_formula_structural   BaLa8Cd(Si3O13)2
_chemical_formula_sum   'Ba1 La8 Cd1 Si6 O26'
_cell_volume   603.28061012
_cell_formula_units_Z   1
loop_
 _symmetry_equiv_pos_site_id
 _symmetry_equiv_pos_as_xyz
  1  'x, y, z'
loop_
 _atom_site_type_symbol
 _atom_site_label
 _atom_site_symmetry_multiplicity
 _atom_site_fract_x
 _atom_site_fract_y
 _atom_site_fract_z
 _atom_site_occupancy
  Ba  Ba0  1  0.333333  0.666667  0.569440  1
  La  La1  1  0.241760  0.231726  0.817821  1
  La  La2  1  0.989965  0.758240  0.817821  1
  La  La3  1  0.768274  0.010035  0.817821  1
  La  La4  1  0.757972  0.768379  0.315124  1
  La  La5  1  0.010406  0.242028  0.315124  1
  La  La6  1  0.231621  0.989594  0.315124  1
  La  La7  1  0.666667  0.333333  0.559076  1
  La  La8  1  0.333333  0.666667  0.067167  1
  Cd  Cd9  1  0.666667  0.333333  0.057143  1
  Si  Si10  1  0.021016  0.395880  0.824743  1
  Si  Si11  1  0.374864  0.978984  0.824743  1
  Si  Si12  1  0.604120  0.625136  0.824743  1
  Si  Si13  1  0.965604  0.598827  0.306028  1
  Si  Si14  1  0.633224  0.034396  0.306028  1
  Si  Si15  1  0.401173  0.366776  0.306028  1
  O  O16  1  0.904962  0.642570  0.499490  1
  O  O17  1  0.737607  0.095038  0.499490  1
  O  O18  1  0.357430  0.262393  0.499490  1
  O  O19  1  0.087201  0.339385  0.001039  1
  O  O20  1  0.252183  0.912799  0.001039  1
  O  O21  1  0.660615  0.747817  0.001039  1
  O  O22  1  0.111829  0.589585  0.836221  1
  O  O23  1  0.477756  0.888171  0.836221  1
  O  O24  1  0.410415  0.522244  0.836221  1
  O  O25  1  0.869259  0.404681  0.294587  1
  O  O26  1  0.535422  0.130741  0.294587  1
  O  O27  1  0.595319  0.464578  0.294587  1
  O  O28  1  0.828253  0.314358  0.821116  1
  O  O29  1  0.486105  0.171747  0.821116  1
  O  O30  1  0.685642  0.513895  0.821116  1
  O  O31  1  0.156956  0.674376  0.299738  1
  O  O32  1  0.517421  0.843044  0.299738  1
  O  O33  1  0.325624  0.482579  0.299738  1
  O  O34  1  0.078582  0.336831  0.641152  1
  O  O35  1  0.258249  0.921418  0.641152  1
  O  O36  1  0.663169  0.741751  0.641152  1
  O  O37  1  0.918599  0.683137  0.140795  1
  O  O38  1  0.764539  0.081401  0.140795  1
  O  O39  1  0.316863  0.235461  0.140795  1
  O  O40  1  0.000000  0.000000  0.822539  1
  O  O41  1  0.000000  0.000000  0.337116  1
