# generated using pymatgen
data_Tb3Ho5Tc2(B12Rh)2
_symmetry_space_group_name_H-M   'P 1'
_cell_length_a   3.68085800
_cell_length_b   9.14297138
_cell_length_c   11.53718406
_cell_angle_alpha   90.37239005
_cell_angle_beta   90.00000000
_cell_angle_gamma   90.00000000
_symmetry_Int_Tables_number   1
_chemical_formula_structural   Tb3Ho5Tc2(B12Rh)2
_chemical_formula_sum   'Tb3 Ho5 Tc2 B24 Rh2'
_cell_volume   388.26395353
_cell_formula_units_Z   1
loop_
 _symmetry_equiv_pos_site_id
 _symmetry_equiv_pos_as_xyz
  1  'x, y, z'
loop_
 _atom_site_type_symbol
 _atom_site_label
 _atom_site_symmetry_multiplicity
 _atom_site_fract_x
 _atom_site_fract_y
 _atom_site_fract_z
 _atom_site_occupancy
  Tb  Tb0  1  0.500000  0.319291  0.410892  1
  Tb  Tb1  1  0.500000  0.680695  0.589056  1
  Tb  Tb2  1  0.500000  0.173367  0.917049  1
  Ho  Ho3  1  0.500000  0.826748  0.082669  1
  Ho  Ho4  1  0.500000  0.441837  0.126732  1
  Ho  Ho5  1  0.500000  0.558429  0.873456  1
  Ho  Ho6  1  0.500000  0.053832  0.628647  1
  Ho  Ho7  1  0.500000  0.946013  0.371310  1
  Tc  Tc8  1  0.500000  0.138781  0.179971  1
  Tc  Tc9  1  0.500000  0.860768  0.820165  1
  B  B10  1  0.000000  0.107474  0.471097  1
  B  B11  1  0.000000  0.892477  0.528864  1
  B  B12  1  0.000000  0.393659  0.970412  1
  B  B13  1  0.000000  0.607098  0.029802  1
  B  B14  1  0.000000  0.132046  0.314581  1
  B  B15  1  0.000000  0.867773  0.685385  1
  B  B16  1  0.000000  0.367842  0.816414  1
  B  B17  1  0.000000  0.632686  0.183339  1
  B  B18  1  0.000000  0.053018  0.067730  1
  B  B19  1  0.000000  0.946294  0.932618  1
  B  B20  1  0.000000  0.445338  0.566451  1
  B  B21  1  0.000000  0.554734  0.433478  1
  B  B22  1  0.000000  0.484069  0.287287  1
  B  B23  1  0.000000  0.516115  0.712693  1
  B  B24  1  0.000000  0.016001  0.786937  1
  B  B25  1  0.000000  0.983314  0.212955  1
  B  B26  1  0.000000  0.248058  0.081529  1
  B  B27  1  0.000000  0.751877  0.919035  1
  B  B28  1  0.000000  0.250591  0.579158  1
  B  B29  1  0.000000  0.749363  0.420746  1
  B  B30  1  0.000000  0.292454  0.234339  1
  B  B31  1  0.000000  0.707499  0.765791  1
  B  B32  1  0.000000  0.208696  0.734461  1
  B  B33  1  0.000000  0.791531  0.265140  1
  Rh  Rh34  1  0.500000  0.361852  0.678875  1
  Rh  Rh35  1  0.500000  0.638381  0.320936  1
