# generated using pymatgen
data_K8Li4ErSc3As8
_symmetry_space_group_name_H-M   'P 1'
_cell_length_a   10.13292008
_cell_length_b   10.13291965
_cell_length_c   6.59529732
_cell_angle_alpha   90.02681551
_cell_angle_beta   89.97318352
_cell_angle_gamma   98.97035988
_symmetry_Int_Tables_number   1
_chemical_formula_structural   K8Li4ErSc3As8
_chemical_formula_sum   'K8 Li4 Er1 Sc3 As8'
_cell_volume   668.89656229
_cell_formula_units_Z   1
loop_
 _symmetry_equiv_pos_site_id
 _symmetry_equiv_pos_as_xyz
  1  'x, y, z'
loop_
 _atom_site_type_symbol
 _atom_site_label
 _atom_site_symmetry_multiplicity
 _atom_site_fract_x
 _atom_site_fract_y
 _atom_site_fract_z
 _atom_site_occupancy
  K  K0  1  0.569907  0.930493  0.750542  1
  K  K1  1  0.930493  0.569907  0.249458  1
  K  K2  1  0.431135  0.066646  0.248533  1
  K  K3  1  0.066646  0.431135  0.751467  1
  K  K4  1  0.679342  0.322495  0.784869  1
  K  K5  1  0.822722  0.176917  0.283454  1
  K  K6  1  0.322495  0.679342  0.215131  1
  K  K7  1  0.176917  0.822722  0.716546  1
  Li  Li8  1  0.620108  0.620108  0.000000  1
  Li  Li9  1  0.880640  0.880640  0.500000  1
  Li  Li10  1  0.380920  0.380920  0.000000  1
  Li  Li11  1  0.117107  0.117107  0.500000  1
  Er  Er12  1  0.368001  0.368001  0.500000  1
  Sc  Sc13  1  0.868771  0.868771  0.000000  1
  Sc  Sc14  1  0.632928  0.632928  0.500000  1
  Sc  Sc15  1  0.129810  0.129810  0.000000  1
  As  As16  1  0.342953  0.149971  0.758397  1
  As  As17  1  0.149971  0.342953  0.241603  1
  As  As18  1  0.658066  0.842525  0.250322  1
  As  As19  1  0.842525  0.658066  0.749678  1
  As  As20  1  0.908061  0.090946  0.773755  1
  As  As21  1  0.599296  0.410242  0.267843  1
  As  As22  1  0.090946  0.908061  0.226245  1
  As  As23  1  0.410242  0.599296  0.732157  1
