# generated using pymatgen
data_Hf4Ga3MoN
_symmetry_space_group_name_H-M   'P 1'
_cell_length_a   7.91538000
_cell_length_b   7.91538073
_cell_length_c   5.48363600
_cell_angle_alpha   90.00000000
_cell_angle_beta   90.00000000
_cell_angle_gamma   119.99999696
_symmetry_Int_Tables_number   1
_chemical_formula_structural   Hf4Ga3MoN
_chemical_formula_sum   'Hf8 Ga6 Mo2 N2'
_cell_volume   297.53827596
_cell_formula_units_Z   2
loop_
 _symmetry_equiv_pos_site_id
 _symmetry_equiv_pos_as_xyz
  1  'x, y, z'
loop_
 _atom_site_type_symbol
 _atom_site_label
 _atom_site_symmetry_multiplicity
 _atom_site_fract_x
 _atom_site_fract_y
 _atom_site_fract_z
 _atom_site_occupancy
  Hf  Hf0  1  0.230296  0.000000  0.249331  1
  Hf  Hf1  1  0.769704  0.000000  0.750669  1
  Hf  Hf2  1  0.000000  0.230296  0.249331  1
  Hf  Hf3  1  0.000000  0.769704  0.750669  1
  Hf  Hf4  1  0.769704  0.769704  0.249331  1
  Hf  Hf5  1  0.230296  0.230296  0.750669  1
  Hf  Hf6  1  0.666667  0.333333  0.500000  1
  Hf  Hf7  1  0.333333  0.666667  0.500000  1
  Ga  Ga8  1  0.591859  0.000000  0.232314  1
  Ga  Ga9  1  0.408141  0.000000  0.767686  1
  Ga  Ga10  1  0.000000  0.591859  0.232314  1
  Ga  Ga11  1  0.000000  0.408141  0.767686  1
  Ga  Ga12  1  0.408141  0.408141  0.232314  1
  Ga  Ga13  1  0.591859  0.591859  0.767686  1
  Mo  Mo14  1  0.333333  0.666667  0.000000  1
  Mo  Mo15  1  0.666667  0.333333  0.000000  1
  N  N16  1  0.000000  0.000000  0.000000  1
  N  N17  1  0.000000  0.000000  0.500000  1
