# generated using pymatgen
data_K2Ti(CuSe2)2
_symmetry_space_group_name_H-M   'P 1'
_cell_length_a   5.78692600
_cell_length_b   5.78692600
_cell_length_c   13.52970500
_cell_angle_alpha   90.00000000
_cell_angle_beta   90.00000000
_cell_angle_gamma   90.00000000
_symmetry_Int_Tables_number   1
_chemical_formula_structural   K2Ti(CuSe2)2
_chemical_formula_sum   'K4 Ti2 Cu4 Se8'
_cell_volume   453.08969541
_cell_formula_units_Z   2
loop_
 _symmetry_equiv_pos_site_id
 _symmetry_equiv_pos_as_xyz
  1  'x, y, z'
loop_
 _atom_site_type_symbol
 _atom_site_label
 _atom_site_symmetry_multiplicity
 _atom_site_fract_x
 _atom_site_fract_y
 _atom_site_fract_z
 _atom_site_occupancy
  K  K0  1  0.255157  0.255157  0.000000  1
  K  K1  1  0.744843  0.744843  0.000000  1
  K  K2  1  0.744843  0.255157  0.500000  1
  K  K3  1  0.255157  0.744843  0.500000  1
  Ti  Ti4  1  0.000000  0.000000  0.250000  1
  Ti  Ti5  1  0.000000  0.000000  0.750000  1
  Cu  Cu6  1  0.000000  0.500000  0.250000  1
  Cu  Cu7  1  0.000000  0.500000  0.750000  1
  Cu  Cu8  1  0.500000  0.000000  0.750000  1
  Cu  Cu9  1  0.500000  0.000000  0.250000  1
  Se  Se10  1  0.242084  0.242084  0.352456  1
  Se  Se11  1  0.757916  0.757916  0.647544  1
  Se  Se12  1  0.757916  0.757916  0.352456  1
  Se  Se13  1  0.757916  0.242084  0.852456  1
  Se  Se14  1  0.757916  0.242084  0.147544  1
  Se  Se15  1  0.242084  0.242084  0.647544  1
  Se  Se16  1  0.242084  0.757916  0.147544  1
  Se  Se17  1  0.242084  0.757916  0.852456  1
