# generated using pymatgen
data_Nd2ThSn3PtRh2
_symmetry_space_group_name_H-M   'P 1'
_cell_length_a   7.62074384
_cell_length_b   7.65603699
_cell_length_c   4.09460900
_cell_angle_alpha   90.00000000
_cell_angle_beta   90.00000000
_cell_angle_gamma   120.03672136
_symmetry_Int_Tables_number   1
_chemical_formula_structural   Nd2ThSn3PtRh2
_chemical_formula_sum   'Nd2 Th1 Sn3 Pt1 Rh2'
_cell_volume   206.81576200
_cell_formula_units_Z   1
loop_
 _symmetry_equiv_pos_site_id
 _symmetry_equiv_pos_as_xyz
  1  'x, y, z'
loop_
 _atom_site_type_symbol
 _atom_site_label
 _atom_site_symmetry_multiplicity
 _atom_site_fract_x
 _atom_site_fract_y
 _atom_site_fract_z
 _atom_site_occupancy
  Nd  Nd0  1  0.408543  0.412291  0.000000  1
  Nd  Nd1  1  0.588490  0.998455  0.000000  1
  Th  Th2  1  0.007106  0.590550  0.000000  1
  Sn  Sn3  1  0.740139  0.751016  0.500000  1
  Sn  Sn4  1  0.003736  0.243303  0.500000  1
  Sn  Sn5  1  0.256821  0.005086  0.500000  1
  Pt  Pt6  1  0.682263  0.347586  0.500000  1
  Rh  Rh7  1  0.999158  0.987500  0.000000  1
  Rh  Rh8  1  0.313746  0.664213  0.500000  1
