# generated using pymatgen
data_Ba2LiTc2H17
_symmetry_space_group_name_H-M   'P 1'
_cell_length_a   5.15018758
_cell_length_b   5.15018862
_cell_length_c   9.77409718
_cell_angle_alpha   89.69226644
_cell_angle_beta   90.30773469
_cell_angle_gamma   118.87137472
_symmetry_Int_Tables_number   1
_chemical_formula_structural   Ba2LiTc2H17
_chemical_formula_sum   'Ba2 Li1 Tc2 H17'
_cell_volume   227.02445705
_cell_formula_units_Z   1
loop_
 _symmetry_equiv_pos_site_id
 _symmetry_equiv_pos_as_xyz
  1  'x, y, z'
loop_
 _atom_site_type_symbol
 _atom_site_label
 _atom_site_symmetry_multiplicity
 _atom_site_fract_x
 _atom_site_fract_y
 _atom_site_fract_z
 _atom_site_occupancy
  Ba  Ba0  1  0.993602  0.006398  0.990416  1
  Ba  Ba1  1  0.994494  0.005506  0.492068  1
  Li  Li2  1  0.663667  0.336333  0.241890  1
  Tc  Tc3  1  0.321880  0.678120  0.253561  1
  Tc  Tc4  1  0.645329  0.354671  0.748975  1
  H  H5  1  0.517992  0.482008  0.877963  1
  H  H6  1  0.440860  0.559140  0.390322  1
  H  H7  1  0.515543  0.484457  0.622344  1
  H  H8  1  0.498977  0.979386  0.361477  1
  H  H9  1  0.915794  0.488347  0.629725  1
  H  H10  1  0.477101  0.930042  0.122858  1
  H  H11  1  0.924088  0.487928  0.866362  1
  H  H12  1  0.511653  0.084206  0.629725  1
  H  H13  1  0.020614  0.501023  0.361477  1
  H  H14  1  0.512072  0.075912  0.866362  1
  H  H15  1  0.069958  0.522899  0.122858  1
  H  H16  1  0.669093  0.737546  0.221237  1
  H  H17  1  0.803468  0.722298  0.746085  1
  H  H18  1  0.277702  0.196532  0.746085  1
  H  H19  1  0.262454  0.330907  0.221237  1
  H  H20  1  0.132905  0.867095  0.242322  1
  H  H21  1  0.830755  0.169245  0.744653  1
