# generated using pymatgen
data_Ho4CCl6
_symmetry_space_group_name_H-M   'P 1'
_cell_length_a   3.76087700
_cell_length_b   12.39467300
_cell_length_c   12.91531200
_cell_angle_alpha   90.00000000
_cell_angle_beta   90.00000000
_cell_angle_gamma   90.00000000
_symmetry_Int_Tables_number   1
_chemical_formula_structural   Ho4CCl6
_chemical_formula_sum   'Ho8 C2 Cl12'
_cell_volume   602.04521029
_cell_formula_units_Z   2
loop_
 _symmetry_equiv_pos_site_id
 _symmetry_equiv_pos_as_xyz
  1  'x, y, z'
loop_
 _atom_site_type_symbol
 _atom_site_label
 _atom_site_symmetry_multiplicity
 _atom_site_fract_x
 _atom_site_fract_y
 _atom_site_fract_z
 _atom_site_occupancy
  Ho  Ho0  1  0.000000  0.104471  0.080035  1
  Ho  Ho1  1  0.000000  0.895529  0.919965  1
  Ho  Ho2  1  0.000000  0.604471  0.419965  1
  Ho  Ho3  1  0.000000  0.395529  0.580035  1
  Ho  Ho4  1  0.500000  0.122564  0.852738  1
  Ho  Ho5  1  0.500000  0.877436  0.147262  1
  Ho  Ho6  1  0.500000  0.622564  0.647262  1
  Ho  Ho7  1  0.500000  0.377436  0.352738  1
  C  C8  1  0.500000  0.000000  0.000000  1
  C  C9  1  0.500000  0.500000  0.500000  1
  Cl  Cl10  1  0.500000  0.264518  0.678340  1
  Cl  Cl11  1  0.500000  0.735482  0.321660  1
  Cl  Cl12  1  0.500000  0.764518  0.821660  1
  Cl  Cl13  1  0.500000  0.235482  0.178340  1
  Cl  Cl14  1  0.000000  0.258213  0.928326  1
  Cl  Cl15  1  0.000000  0.741787  0.071674  1
  Cl  Cl16  1  0.000000  0.484166  0.242608  1
  Cl  Cl17  1  0.000000  0.515834  0.757392  1
  Cl  Cl18  1  0.000000  0.984166  0.257392  1
  Cl  Cl19  1  0.000000  0.015834  0.742608  1
  Cl  Cl20  1  0.000000  0.241787  0.428326  1
  Cl  Cl21  1  0.000000  0.758213  0.571674  1
