# generated using pymatgen
data_CsSb12PdRu3
_symmetry_space_group_name_H-M   'P 1'
_cell_length_a   8.22392978
_cell_length_b   8.22393020
_cell_length_c   8.22392838
_cell_angle_alpha   109.54222317
_cell_angle_beta   109.54222451
_cell_angle_gamma   109.54223349
_symmetry_Int_Tables_number   1
_chemical_formula_structural   CsSb12PdRu3
_chemical_formula_sum   'Cs1 Sb12 Pd1 Ru3'
_cell_volume   427.04065940
_cell_formula_units_Z   1
loop_
 _symmetry_equiv_pos_site_id
 _symmetry_equiv_pos_as_xyz
  1  'x, y, z'
loop_
 _atom_site_type_symbol
 _atom_site_label
 _atom_site_symmetry_multiplicity
 _atom_site_fract_x
 _atom_site_fract_y
 _atom_site_fract_z
 _atom_site_occupancy
  Cs  Cs0  1  0.000000  0.000000  0.000000  1
  Sb  Sb1  1  0.657505  0.848724  0.495299  1
  Sb  Sb2  1  0.342495  0.151276  0.504701  1
  Sb  Sb3  1  0.839737  0.181775  0.342326  1
  Sb  Sb4  1  0.818225  0.657674  0.160263  1
  Sb  Sb5  1  0.848724  0.495299  0.657505  1
  Sb  Sb6  1  0.181775  0.342326  0.839737  1
  Sb  Sb7  1  0.160263  0.818225  0.657674  1
  Sb  Sb8  1  0.495299  0.657505  0.848724  1
  Sb  Sb9  1  0.504701  0.342495  0.151276  1
  Sb  Sb10  1  0.151276  0.504701  0.342495  1
  Sb  Sb11  1  0.342326  0.839737  0.181775  1
  Sb  Sb12  1  0.657674  0.160263  0.818225  1
  Pd  Pd13  1  0.500000  0.500000  0.500000  1
  Ru  Ru14  1  0.000000  0.000000  0.500000  1
  Ru  Ru15  1  0.500000  0.000000  0.000000  1
  Ru  Ru16  1  0.000000  0.500000  0.000000  1
