# generated using pymatgen
data_Hf11Nb9Si16
_symmetry_space_group_name_H-M   'P 1'
_cell_length_a   6.89453322
_cell_length_b   6.91611220
_cell_length_c   12.75815185
_cell_angle_alpha   90.19581049
_cell_angle_beta   90.13993201
_cell_angle_gamma   90.00591957
_symmetry_Int_Tables_number   1
_chemical_formula_structural   Hf11Nb9Si16
_chemical_formula_sum   'Hf11 Nb9 Si16'
_cell_volume   608.34624428
_cell_formula_units_Z   1
loop_
 _symmetry_equiv_pos_site_id
 _symmetry_equiv_pos_as_xyz
  1  'x, y, z'
loop_
 _atom_site_type_symbol
 _atom_site_label
 _atom_site_symmetry_multiplicity
 _atom_site_fract_x
 _atom_site_fract_y
 _atom_site_fract_z
 _atom_site_occupancy
  Hf  Hf0  1  0.149611  0.998383  0.376276  1
  Hf  Hf1  1  0.649574  0.501700  0.373580  1
  Hf  Hf2  1  0.350930  0.498424  0.873776  1
  Hf  Hf3  1  0.999891  0.344218  0.216433  1
  Hf  Hf4  1  0.000850  0.655908  0.719387  1
  Hf  Hf5  1  0.500936  0.155314  0.533091  1
  Hf  Hf6  1  0.500924  0.843740  0.030643  1
  Hf  Hf7  1  0.656477  0.999858  0.280986  1
  Hf  Hf8  1  0.343244  0.999305  0.781591  1
  Hf  Hf9  1  0.842229  0.499773  0.968948  1
  Hf  Hf10  1  0.156246  0.500290  0.469269  1
  Nb  Nb11  1  0.170176  0.171689  0.000456  1
  Nb  Nb12  1  0.829872  0.827111  0.501677  1
  Nb  Nb13  1  0.671379  0.328391  0.749293  1
  Nb  Nb14  1  0.328885  0.672412  0.248843  1
  Nb  Nb15  1  0.996811  0.147497  0.623725  1
  Nb  Nb16  1  0.002987  0.852511  0.123756  1
  Nb  Nb17  1  0.496940  0.349485  0.125355  1
  Nb  Nb18  1  0.505950  0.648583  0.626935  1
  Nb  Nb19  1  0.849997  0.004298  0.875830  1
  Si  Si20  1  0.291766  0.361403  0.675674  1
  Si  Si21  1  0.706926  0.640040  0.174988  1
  Si  Si22  1  0.792457  0.138145  0.072881  1
  Si  Si23  1  0.207921  0.859185  0.575030  1
  Si  Si24  1  0.643579  0.708755  0.823048  1
  Si  Si25  1  0.355598  0.295959  0.320048  1
  Si  Si26  1  0.855666  0.203584  0.429724  1
  Si  Si27  1  0.137620  0.797183  0.927978  1
  Si  Si28  1  0.043868  0.298078  0.813267  1
  Si  Si29  1  0.955131  0.698633  0.312950  1
  Si  Si30  1  0.547573  0.198408  0.936056  1
  Si  Si31  1  0.454812  0.800985  0.437279  1
  Si  Si32  1  0.700702  0.955022  0.686666  1
  Si  Si33  1  0.301449  0.045839  0.184758  1
  Si  Si34  1  0.801774  0.453148  0.565322  1
  Si  Si35  1  0.199242  0.546740  0.064485  1
