# generated using pymatgen
data_Dy8Sc11Si16Tc
_symmetry_space_group_name_H-M   'P 1'
_cell_length_a   7.02753127
_cell_length_b   7.36173564
_cell_length_c   13.90887500
_cell_angle_alpha   90.00000000
_cell_angle_beta   90.00000000
_cell_angle_gamma   90.17570603
_symmetry_Int_Tables_number   1
_chemical_formula_structural   Dy8Sc11Si16Tc
_chemical_formula_sum   'Dy8 Sc11 Si16 Tc1'
_cell_volume   719.56986453
_cell_formula_units_Z   1
loop_
 _symmetry_equiv_pos_site_id
 _symmetry_equiv_pos_as_xyz
  1  'x, y, z'
loop_
 _atom_site_type_symbol
 _atom_site_label
 _atom_site_symmetry_multiplicity
 _atom_site_fract_x
 _atom_site_fract_y
 _atom_site_fract_z
 _atom_site_occupancy
  Dy  Dy0  1  0.011354  0.177150  0.093823  1
  Dy  Dy1  1  0.993065  0.818568  0.900658  1
  Dy  Dy2  1  0.487998  0.672367  0.901327  1
  Dy  Dy3  1  0.993065  0.818568  0.599342  1
  Dy  Dy4  1  0.510956  0.323908  0.095694  1
  Dy  Dy5  1  0.011354  0.177150  0.406177  1
  Dy  Dy6  1  0.510956  0.323908  0.404306  1
  Dy  Dy7  1  0.487998  0.672367  0.598673  1
  Sc  Sc8  1  0.840693  0.496470  0.250000  1
  Sc  Sc9  1  0.341188  0.003651  0.250000  1
  Sc  Sc10  1  0.658054  0.996138  0.750000  1
  Sc  Sc11  1  0.326575  0.178776  0.627431  1
  Sc  Sc12  1  0.671558  0.823760  0.374763  1
  Sc  Sc13  1  0.171579  0.674857  0.376406  1
  Sc  Sc14  1  0.671558  0.823760  0.125237  1
  Sc  Sc15  1  0.828996  0.330786  0.628337  1
  Sc  Sc16  1  0.326575  0.178776  0.872569  1
  Sc  Sc17  1  0.828996  0.330786  0.871663  1
  Sc  Sc18  1  0.171579  0.674857  0.123594  1
  Si  Si19  1  0.029974  0.120633  0.750000  1
  Si  Si20  1  0.971544  0.885279  0.250000  1
  Si  Si21  1  0.467939  0.616818  0.250000  1
  Si  Si22  1  0.520685  0.393600  0.750000  1
  Si  Si23  1  0.285748  0.864181  0.750000  1
  Si  Si24  1  0.715450  0.128711  0.250000  1
  Si  Si25  1  0.213649  0.371738  0.250000  1
  Si  Si26  1  0.795499  0.628361  0.750000  1
  Si  Si27  1  0.156438  0.465745  0.546868  1
  Si  Si28  1  0.842713  0.535443  0.463115  1
  Si  Si29  1  0.345532  0.964855  0.463505  1
  Si  Si30  1  0.842713  0.535443  0.036885  1
  Si  Si31  1  0.657647  0.034520  0.540112  1
  Si  Si32  1  0.156438  0.465745  0.953132  1
  Si  Si33  1  0.657647  0.034520  0.959888  1
  Si  Si34  1  0.345532  0.964855  0.036495  1
  Tc  Tc35  1  0.150756  0.492950  0.750000  1
