# generated using pymatgen
data_Sr5HgPd2
_symmetry_space_group_name_H-M   'P 1'
_cell_length_a   9.78784407
_cell_length_b   9.78784240
_cell_length_c   9.78784241
_cell_angle_alpha   129.52165751
_cell_angle_beta   129.52165436
_cell_angle_gamma   74.17264093
_symmetry_Int_Tables_number   1
_chemical_formula_structural   Sr5HgPd2
_chemical_formula_sum   'Sr10 Hg2 Pd4'
_cell_volume   544.00849903
_cell_formula_units_Z   2
loop_
 _symmetry_equiv_pos_site_id
 _symmetry_equiv_pos_as_xyz
  1  'x, y, z'
loop_
 _atom_site_type_symbol
 _atom_site_label
 _atom_site_symmetry_multiplicity
 _atom_site_fract_x
 _atom_site_fract_y
 _atom_site_fract_z
 _atom_site_occupancy
  Sr  Sr0  1  0.531979  0.031979  0.833725  1
  Sr  Sr1  1  0.198254  0.698254  0.166275  1
  Sr  Sr2  1  0.031979  0.198254  0.500000  1
  Sr  Sr3  1  0.698254  0.531979  0.500000  1
  Sr  Sr4  1  0.468021  0.968021  0.166275  1
  Sr  Sr5  1  0.801746  0.301746  0.833725  1
  Sr  Sr6  1  0.968021  0.801746  0.500000  1
  Sr  Sr7  1  0.301746  0.468021  0.500000  1
  Sr  Sr8  1  0.500000  0.500000  0.000000  1
  Sr  Sr9  1  0.000000  0.000000  0.000000  1
  Hg  Hg10  1  0.250000  0.250000  0.000000  1
  Hg  Hg11  1  0.750000  0.750000  0.000000  1
  Pd  Pd12  1  0.625585  0.874415  0.500000  1
  Pd  Pd13  1  0.374415  0.125585  0.500000  1
  Pd  Pd14  1  0.125585  0.625585  0.751171  1
  Pd  Pd15  1  0.874415  0.374415  0.248829  1
