# generated using pymatgen
data_TlCd2Ag(Ru2O7)2
_symmetry_space_group_name_H-M   'P 1'
_cell_length_a   7.27577996
_cell_length_b   7.28689087
_cell_length_c   7.24560704
_cell_angle_alpha   59.87369942
_cell_angle_beta   59.86214241
_cell_angle_gamma   60.05042433
_symmetry_Int_Tables_number   1
_chemical_formula_structural   TlCd2Ag(Ru2O7)2
_chemical_formula_sum   'Tl1 Cd2 Ag1 Ru4 O14'
_cell_volume   271.19161050
_cell_formula_units_Z   1
loop_
 _symmetry_equiv_pos_site_id
 _symmetry_equiv_pos_as_xyz
  1  'x, y, z'
loop_
 _atom_site_type_symbol
 _atom_site_label
 _atom_site_symmetry_multiplicity
 _atom_site_fract_x
 _atom_site_fract_y
 _atom_site_fract_z
 _atom_site_occupancy
  Tl  Tl0  1  0.125000  0.625000  0.125000  1
  Cd  Cd1  1  0.625000  0.125000  0.125000  1
  Cd  Cd2  1  0.125000  0.125000  0.125000  1
  Ag  Ag3  1  0.125000  0.125000  0.625000  1
  Ru  Ru4  1  0.625000  0.125000  0.625000  1
  Ru  Ru5  1  0.625000  0.625000  0.125000  1
  Ru  Ru6  1  0.125000  0.625000  0.625000  1
  Ru  Ru7  1  0.625000  0.625000  0.625000  1
  O  O8  1  0.696374  0.694902  0.303886  1
  O  O9  1  0.945085  0.558004  0.551826  1
  O  O10  1  0.557022  0.942068  0.943887  1
  O  O11  1  0.942675  0.941421  0.556104  1
  O  O12  1  0.945161  0.555098  0.946114  1
  O  O13  1  0.559799  0.941421  0.556104  1
  O  O14  1  0.304839  0.694902  0.303886  1
  O  O15  1  0.304915  0.691996  0.698174  1
  O  O16  1  0.692978  0.307932  0.306113  1
  O  O17  1  0.690201  0.308579  0.693896  1
  O  O18  1  0.553626  0.555098  0.946114  1
  O  O19  1  0.307325  0.308579  0.693896  1
  O  O20  1  0.253070  0.234207  0.259653  1
  O  O21  1  0.996930  0.015793  0.990347  1
