# generated using pymatgen
data_La4Nd6CoRh3
_symmetry_space_group_name_H-M   'P 1'
_cell_length_a   9.13017010
_cell_length_b   9.17808470
_cell_length_c   7.25999312
_cell_angle_alpha   84.12311862
_cell_angle_beta   84.23572259
_cell_angle_gamma   42.54513491
_symmetry_Int_Tables_number   1
_chemical_formula_structural   La4Nd6CoRh3
_chemical_formula_sum   'La4 Nd6 Co1 Rh3'
_cell_volume   408.91663535
_cell_formula_units_Z   1
loop_
 _symmetry_equiv_pos_site_id
 _symmetry_equiv_pos_as_xyz
  1  'x, y, z'
loop_
 _atom_site_type_symbol
 _atom_site_label
 _atom_site_symmetry_multiplicity
 _atom_site_fract_x
 _atom_site_fract_y
 _atom_site_fract_z
 _atom_site_occupancy
  La  La0  1  0.004297  0.805868  0.913386  1
  La  La1  1  0.202328  0.985597  0.586775  1
  La  La2  1  0.987128  0.204569  0.084436  1
  La  La3  1  0.788257  0.019963  0.396903  1
  Nd  Nd4  1  0.362603  0.212934  0.827720  1
  Nd  Nd5  1  0.789307  0.643800  0.679990  1
  Nd  Nd6  1  0.644742  0.786862  0.180352  1
  Nd  Nd7  1  0.217598  0.351906  0.319620  1
  Nd  Nd8  1  0.572618  0.423293  0.754476  1
  Nd  Nd9  1  0.427162  0.570579  0.247692  1
  Co  Co10  1  0.601649  0.177058  0.089667  1
  Rh  Rh11  1  0.178496  0.601251  0.579837  1
  Rh  Rh12  1  0.403971  0.815963  0.918508  1
  Rh  Rh13  1  0.819843  0.400357  0.420638  1
