# generated using pymatgen
data_CaHoTm4(Si3Ru)8
_symmetry_space_group_name_H-M   'P 1'
_cell_length_a   10.11290209
_cell_length_b   10.11290213
_cell_length_c   8.11797200
_cell_angle_alpha   89.91065533
_cell_angle_beta   90.08933830
_cell_angle_gamma   132.65492731
_symmetry_Int_Tables_number   1
_chemical_formula_structural   CaHoTm4(Si3Ru)8
_chemical_formula_sum   'Ca1 Ho1 Tm4 Si24 Ru8'
_cell_volume   610.59101768
_cell_formula_units_Z   1
loop_
 _symmetry_equiv_pos_site_id
 _symmetry_equiv_pos_as_xyz
  1  'x, y, z'
loop_
 _atom_site_type_symbol
 _atom_site_label
 _atom_site_symmetry_multiplicity
 _atom_site_fract_x
 _atom_site_fract_y
 _atom_site_fract_z
 _atom_site_occupancy
  Ca  Ca0  1  0.501735  0.001735  0.750000  1
  Ho  Ho1  1  0.002745  0.502745  0.750000  1
  Tm  Tm2  1  0.500218  0.500389  0.500529  1
  Tm  Tm3  1  0.000389  0.000218  0.999471  1
  Tm  Tm4  1  0.998874  0.498874  0.250000  1
  Tm  Tm5  1  0.497030  0.997030  0.250000  1
  Si  Si6  1  0.794082  0.204555  0.499709  1
  Si  Si7  1  0.295045  0.705957  0.999348  1
  Si  Si8  1  0.205957  0.795045  0.500652  1
  Si  Si9  1  0.704555  0.294082  0.000291  1
  Si  Si10  1  0.332435  0.333901  0.832793  1
  Si  Si11  1  0.666574  0.669021  0.167172  1
  Si  Si12  1  0.169021  0.166574  0.332828  1
  Si  Si13  1  0.833901  0.832435  0.667207  1
  Si  Si14  1  0.119674  0.885393  0.728277  1
  Si  Si15  1  0.111650  0.877941  0.272371  1
  Si  Si16  1  0.611401  0.378131  0.228472  1
  Si  Si17  1  0.624624  0.390881  0.771567  1
  Si  Si18  1  0.878131  0.111401  0.271528  1
  Si  Si19  1  0.890881  0.124624  0.728433  1
  Si  Si20  1  0.385393  0.619674  0.771723  1
  Si  Si21  1  0.377941  0.611650  0.227629  1
  Si  Si22  1  0.345020  0.111511  0.501755  1
  Si  Si23  1  0.888503  0.655404  0.495286  1
  Si  Si24  1  0.387939  0.154197  0.007257  1
  Si  Si25  1  0.844188  0.611772  0.995319  1
  Si  Si26  1  0.654197  0.887939  0.492743  1
  Si  Si27  1  0.111772  0.344188  0.504681  1
  Si  Si28  1  0.611511  0.845020  0.998245  1
  Si  Si29  1  0.155404  0.388503  0.004714  1
  Ru  Ru30  1  0.670899  0.331745  0.498562  1
  Ru  Ru31  1  0.166931  0.828596  0.002457  1
  Ru  Ru32  1  0.328596  0.666931  0.497543  1
  Ru  Ru33  1  0.831745  0.170899  0.001438  1
  Ru  Ru34  1  0.127307  0.126722  0.627220  1
  Ru  Ru35  1  0.873294  0.873711  0.373071  1
  Ru  Ru36  1  0.373711  0.373294  0.126929  1
  Ru  Ru37  1  0.626722  0.627307  0.872780  1
