# generated using pymatgen
data_Cs12Sc2GaFeSe12
_symmetry_space_group_name_H-M   'P 1'
_cell_length_a   11.17115471
_cell_length_b   11.17115544
_cell_length_c   14.32067163
_cell_angle_alpha   90.01252422
_cell_angle_beta   90.01251940
_cell_angle_gamma   139.64049014
_symmetry_Int_Tables_number   1
_chemical_formula_structural   Cs12Sc2GaFeSe12
_chemical_formula_sum   'Cs12 Sc2 Ga1 Fe1 Se12'
_cell_volume   1157.32128774
_cell_formula_units_Z   1
loop_
 _symmetry_equiv_pos_site_id
 _symmetry_equiv_pos_as_xyz
  1  'x, y, z'
loop_
 _atom_site_type_symbol
 _atom_site_label
 _atom_site_symmetry_multiplicity
 _atom_site_fract_x
 _atom_site_fract_y
 _atom_site_fract_z
 _atom_site_occupancy
  Cs  Cs0  1  0.866258  0.862625  0.675432  1
  Cs  Cs1  1  0.137375  0.133742  0.324568  1
  Cs  Cs2  1  0.634323  0.637405  0.177141  1
  Cs  Cs3  1  0.362595  0.365677  0.822859  1
  Cs  Cs4  1  0.167519  0.520500  0.126199  1
  Cs  Cs5  1  0.479500  0.832481  0.873801  1
  Cs  Cs6  1  0.969109  0.327924  0.629960  1
  Cs  Cs7  1  0.672076  0.030891  0.370040  1
  Cs  Cs8  1  0.825128  0.466355  0.870216  1
  Cs  Cs9  1  0.533645  0.174872  0.129784  1
  Cs  Cs10  1  0.018864  0.664317  0.374341  1
  Cs  Cs11  1  0.335683  0.981136  0.625659  1
  Sc  Sc12  1  0.420984  0.579016  0.500000  1
  Sc  Sc13  1  0.078929  0.921071  0.000000  1
  Ga  Ga14  1  0.917603  0.082397  0.000000  1
  Fe  Fe15  1  0.581236  0.418764  0.500000  1
  Se  Se16  1  0.296321  0.284972  0.571230  1
  Se  Se17  1  0.715028  0.703679  0.428770  1
  Se  Se18  1  0.206586  0.216718  0.071924  1
  Se  Se19  1  0.783282  0.793414  0.928076  1
  Se  Se20  1  0.708627  0.001760  0.117035  1
  Se  Se21  1  0.998240  0.291373  0.882965  1
  Se  Se22  1  0.506856  0.804085  0.619503  1
  Se  Se23  1  0.195915  0.493144  0.380497  1
  Se  Se24  1  0.301218  0.004393  0.879644  1
  Se  Se25  1  0.995607  0.698782  0.120356  1
  Se  Se26  1  0.506009  0.214515  0.385018  1
  Se  Se27  1  0.785485  0.493991  0.614982  1
