# generated using pymatgen
data_Dy6SbAuO14
_symmetry_space_group_name_H-M   'P 1'
_cell_length_a   6.49285316
_cell_length_b   6.49285370
_cell_length_c   7.49045037
_cell_angle_alpha   89.88787439
_cell_angle_beta   90.11212566
_cell_angle_gamma   109.20277149
_symmetry_Int_Tables_number   1
_chemical_formula_structural   Dy6SbAuO14
_chemical_formula_sum   'Dy6 Sb1 Au1 O14'
_cell_volume   298.20551688
_cell_formula_units_Z   1
loop_
 _symmetry_equiv_pos_site_id
 _symmetry_equiv_pos_as_xyz
  1  'x, y, z'
loop_
 _atom_site_type_symbol
 _atom_site_label
 _atom_site_symmetry_multiplicity
 _atom_site_fract_x
 _atom_site_fract_y
 _atom_site_fract_z
 _atom_site_occupancy
  Dy  Dy0  1  0.000008  0.469226  0.747356  1
  Dy  Dy1  1  0.998973  0.531035  0.248202  1
  Dy  Dy2  1  0.531035  0.998973  0.751798  1
  Dy  Dy3  1  0.469226  0.000008  0.252644  1
  Dy  Dy4  1  0.504755  0.504755  0.500000  1
  Dy  Dy5  1  0.486552  0.486552  0.000000  1
  Sb  Sb6  1  0.000312  0.000312  0.000000  1
  Au  Au7  1  0.999355  0.999355  0.500000  1
  O  O8  1  0.637055  0.362448  0.752726  1
  O  O9  1  0.362448  0.637055  0.247274  1
  O  O10  1  0.924358  0.075390  0.747748  1
  O  O11  1  0.075390  0.924358  0.252252  1
  O  O12  1  0.914726  0.666523  0.523028  1
  O  O13  1  0.076112  0.322418  0.027035  1
  O  O14  1  0.322418  0.076112  0.972965  1
  O  O15  1  0.666523  0.914726  0.476972  1
  O  O16  1  0.368288  0.631192  0.752864  1
  O  O17  1  0.631192  0.368288  0.247136  1
  O  O18  1  0.935993  0.683134  0.968944  1
  O  O19  1  0.081650  0.330495  0.473613  1
  O  O20  1  0.330495  0.081650  0.526387  1
  O  O21  1  0.683134  0.935993  0.031056  1
