# generated using pymatgen
data_Zr6Zn15Cu8Sn
_symmetry_space_group_name_H-M   'P 1'
_cell_length_a   8.66235383
_cell_length_b   8.66235338
_cell_length_c   8.66235400
_cell_angle_alpha   60.00000528
_cell_angle_beta   60.00000698
_cell_angle_gamma   59.99999854
_symmetry_Int_Tables_number   1
_chemical_formula_structural   Zr6Zn15Cu8Sn
_chemical_formula_sum   'Zr6 Zn15 Cu8 Sn1'
_cell_volume   459.61350543
_cell_formula_units_Z   1
loop_
 _symmetry_equiv_pos_site_id
 _symmetry_equiv_pos_as_xyz
  1  'x, y, z'
loop_
 _atom_site_type_symbol
 _atom_site_label
 _atom_site_symmetry_multiplicity
 _atom_site_fract_x
 _atom_site_fract_y
 _atom_site_fract_z
 _atom_site_occupancy
  Zr  Zr0  1  0.729316  0.270684  0.270684  1
  Zr  Zr1  1  0.270684  0.729316  0.729316  1
  Zr  Zr2  1  0.270684  0.729316  0.270684  1
  Zr  Zr3  1  0.729316  0.270684  0.729316  1
  Zr  Zr4  1  0.270684  0.270684  0.729316  1
  Zr  Zr5  1  0.729316  0.729316  0.270684  1
  Zn  Zn6  1  0.500000  0.000000  0.000000  1
  Zn  Zn7  1  0.000000  0.500000  0.500000  1
  Zn  Zn8  1  0.000000  0.500000  0.000000  1
  Zn  Zn9  1  0.500000  0.000000  0.500000  1
  Zn  Zn10  1  0.000000  0.000000  0.500000  1
  Zn  Zn11  1  0.500000  0.500000  0.000000  1
  Zn  Zn12  1  0.333644  0.333644  0.333644  1
  Zn  Zn13  1  0.666356  0.666356  0.666356  1
  Zn  Zn14  1  0.333644  0.333644  0.999070  1
  Zn  Zn15  1  0.333644  0.999070  0.333644  1
  Zn  Zn16  1  0.666356  0.666356  0.000930  1
  Zn  Zn17  1  0.666356  0.000930  0.666356  1
  Zn  Zn18  1  0.999070  0.333644  0.333644  1
  Zn  Zn19  1  0.000930  0.666356  0.666356  1
  Zn  Zn20  1  0.000000  0.000000  0.000000  1
  Cu  Cu21  1  0.121406  0.121406  0.121406  1
  Cu  Cu22  1  0.878594  0.878594  0.878594  1
  Cu  Cu23  1  0.121406  0.121406  0.635781  1
  Cu  Cu24  1  0.121406  0.635781  0.121406  1
  Cu  Cu25  1  0.878594  0.878594  0.364219  1
  Cu  Cu26  1  0.878594  0.364219  0.878594  1
  Cu  Cu27  1  0.635781  0.121406  0.121406  1
  Cu  Cu28  1  0.364219  0.878594  0.878594  1
  Sn  Sn29  1  0.500000  0.500000  0.500000  1
