# generated using pymatgen
data_Th2Sn5Rh3
_symmetry_space_group_name_H-M   'P 1'
_cell_length_a   13.64426702
_cell_length_b   13.64426798
_cell_length_c   7.39995300
_cell_angle_alpha   90.00000000
_cell_angle_beta   90.00000000
_cell_angle_gamma   160.95268432
_symmetry_Int_Tables_number   1
_chemical_formula_structural   Th2Sn5Rh3
_chemical_formula_sum   'Th4 Sn10 Rh6'
_cell_volume   449.58469713
_cell_formula_units_Z   2
loop_
 _symmetry_equiv_pos_site_id
 _symmetry_equiv_pos_as_xyz
  1  'x, y, z'
loop_
 _atom_site_type_symbol
 _atom_site_label
 _atom_site_symmetry_multiplicity
 _atom_site_fract_x
 _atom_site_fract_y
 _atom_site_fract_z
 _atom_site_occupancy
  Th  Th0  1  0.473805  0.526195  0.235269  1
  Th  Th1  1  0.172175  0.827825  0.256953  1
  Th  Th2  1  0.526195  0.473805  0.735269  1
  Th  Th3  1  0.827825  0.172175  0.756953  1
  Sn  Sn4  1  0.704490  0.295510  0.551986  1
  Sn  Sn5  1  0.597128  0.402872  0.111591  1
  Sn  Sn6  1  0.048973  0.951027  0.394280  1
  Sn  Sn7  1  0.951027  0.048973  0.894280  1
  Sn  Sn8  1  0.710918  0.289082  0.976150  1
  Sn  Sn9  1  0.289082  0.710918  0.476150  1
  Sn  Sn10  1  0.295510  0.704490  0.051986  1
  Sn  Sn11  1  0.876999  0.123001  0.234479  1
  Sn  Sn12  1  0.123001  0.876999  0.734479  1
  Sn  Sn13  1  0.402872  0.597128  0.611591  1
  Rh  Rh14  1  0.395978  0.604022  0.987627  1
  Rh  Rh15  1  0.776106  0.223894  0.270864  1
  Rh  Rh16  1  0.223894  0.776106  0.770864  1
  Rh  Rh17  1  0.050848  0.949152  0.012703  1
  Rh  Rh18  1  0.604022  0.395978  0.487627  1
  Rh  Rh19  1  0.949152  0.050848  0.512703  1
