# generated using pymatgen
data_CsK8Y3Si12(O16F)2
_symmetry_space_group_name_H-M   'P 1'
_cell_length_a   6.93545453
_cell_length_b   11.52128611
_cell_length_c   11.53353900
_cell_angle_alpha   92.13656859
_cell_angle_beta   89.74344488
_cell_angle_gamma   99.55296966
_symmetry_Int_Tables_number   1
_chemical_formula_structural   CsK8Y3Si12(O16F)2
_chemical_formula_sum   'Cs1 K8 Y3 Si12 O32 F2'
_cell_volume   908.17828496
_cell_formula_units_Z   1
loop_
 _symmetry_equiv_pos_site_id
 _symmetry_equiv_pos_as_xyz
  1  'x, y, z'
loop_
 _atom_site_type_symbol
 _atom_site_label
 _atom_site_symmetry_multiplicity
 _atom_site_fract_x
 _atom_site_fract_y
 _atom_site_fract_z
 _atom_site_occupancy
  Cs  Cs0  1  0.500000  0.000000  0.000000  1
  K  K1  1  0.268278  0.390621  0.017169  1
  K  K2  1  0.731722  0.609379  0.982831  1
  K  K3  1  0.167524  0.194345  0.775156  1
  K  K4  1  0.832476  0.805655  0.224844  1
  K  K5  1  0.159957  0.156276  0.215142  1
  K  K6  1  0.840043  0.843724  0.784858  1
  K  K7  1  0.019555  0.669161  0.509628  1
  K  K8  1  0.980445  0.330839  0.490372  1
  Y  Y9  1  0.000000  0.000000  0.500000  1
  Y  Y10  1  0.488359  0.510998  0.336996  1
  Y  Y11  1  0.511641  0.489002  0.663004  1
  Si  Si12  1  0.558970  0.767244  0.509259  1
  Si  Si13  1  0.441030  0.232756  0.490741  1
  Si  Si14  1  0.338726  0.865746  0.311430  1
  Si  Si15  1  0.661274  0.134254  0.688570  1
  Si  Si16  1  0.657081  0.092311  0.306493  1
  Si  Si17  1  0.342919  0.907689  0.693507  1
  Si  Si18  1  0.692023  0.306431  0.160074  1
  Si  Si19  1  0.307977  0.693569  0.839926  1
  Si  Si20  1  0.986750  0.513890  0.258128  1
  Si  Si21  1  0.013250  0.486110  0.741872  1
  Si  Si22  1  0.287227  0.668123  0.121004  1
  Si  Si23  1  0.712773  0.331877  0.878996  1
  O  O24  1  0.532413  0.623991  0.513792  1
  O  O25  1  0.467587  0.376009  0.486208  1
  O  O26  1  0.494125  0.793124  0.373521  1
  O  O27  1  0.505875  0.206876  0.626479  1
  O  O28  1  0.388039  0.813435  0.591485  1
  O  O29  1  0.611961  0.186565  0.408515  1
  O  O30  1  0.774590  0.836811  0.539804  1
  O  O31  1  0.225410  0.163189  0.460196  1
  O  O32  1  0.145890  0.876511  0.383888  1
  O  O33  1  0.854110  0.123489  0.616112  1
  O  O34  1  0.282100  0.799043  0.183326  1
  O  O35  1  0.717900  0.200957  0.816674  1
  O  O36  1  0.457549  0.996455  0.275849  1
  O  O37  1  0.542451  0.003545  0.724151  1
  O  O38  1  0.697303  0.166824  0.186169  1
  O  O39  1  0.302697  0.833176  0.813831  1
  O  O40  1  0.842780  0.033108  0.335433  1
  O  O41  1  0.157220  0.966892  0.664567  1
  O  O42  1  0.906747  0.375916  0.208447  1
  O  O43  1  0.093253  0.624084  0.791553  1
  O  O44  1  0.695740  0.312514  0.018541  1
  O  O45  1  0.304260  0.687486  0.981459  1
  O  O46  1  0.505407  0.353670  0.215123  1
  O  O47  1  0.494593  0.646330  0.784877  1
  O  O48  1  0.164245  0.508818  0.346847  1
  O  O49  1  0.835755  0.491182  0.653153  1
  O  O50  1  0.810966  0.572308  0.314488  1
  O  O51  1  0.189034  0.427692  0.685512  1
  O  O52  1  0.067683  0.586911  0.138933  1
  O  O53  1  0.932317  0.413089  0.861067  1
  O  O54  1  0.460157  0.604549  0.165372  1
  O  O55  1  0.539843  0.395451  0.834628  1
  F  F56  1  0.218103  0.168519  0.995474  1
  F  F57  1  0.781897  0.831481  0.004526  1
