# generated using pymatgen
data_PdPt7W
_symmetry_space_group_name_H-M   'P 1'
_cell_length_a   6.31764417
_cell_length_b   6.31764422
_cell_length_c   6.29974567
_cell_angle_alpha   95.50209682
_cell_angle_beta   95.50209778
_cell_angle_gamma   143.97678785
_symmetry_Int_Tables_number   1
_chemical_formula_structural   PdPt7W
_chemical_formula_sum   'Pd1 Pt7 W1'
_cell_volume   140.58571090
_cell_formula_units_Z   1
loop_
 _symmetry_equiv_pos_site_id
 _symmetry_equiv_pos_as_xyz
  1  'x, y, z'
loop_
 _atom_site_type_symbol
 _atom_site_label
 _atom_site_symmetry_multiplicity
 _atom_site_fract_x
 _atom_site_fract_y
 _atom_site_fract_z
 _atom_site_occupancy
  Pd  Pd0  1  0.337293  0.337293  0.674585  1
  Pt  Pt1  1  0.661171  0.661171  0.322344  1
  Pt  Pt2  1  0.658903  0.339600  0.998503  1
  Pt  Pt3  1  0.339600  0.658903  0.998503  1
  Pt  Pt4  1  0.999802  0.329382  0.329183  1
  Pt  Pt5  1  0.000023  0.672453  0.672477  1
  Pt  Pt6  1  0.672453  0.000023  0.672477  1
  Pt  Pt7  1  0.329382  0.999802  0.329183  1
  W  W8  1  0.001372  0.001372  0.002744  1
