# generated using pymatgen
data_Ho10Sn5BiS2
_symmetry_space_group_name_H-M   'P 1'
_cell_length_a   9.03404500
_cell_length_b   9.03404515
_cell_length_c   6.57678700
_cell_angle_alpha   90.00000000
_cell_angle_beta   90.00000000
_cell_angle_gamma   120.16516514
_symmetry_Int_Tables_number   1
_chemical_formula_structural   Ho10Sn5BiS2
_chemical_formula_sum   'Ho10 Sn5 Bi1 S2'
_cell_volume   464.07022414
_cell_formula_units_Z   1
loop_
 _symmetry_equiv_pos_site_id
 _symmetry_equiv_pos_as_xyz
  1  'x, y, z'
loop_
 _atom_site_type_symbol
 _atom_site_label
 _atom_site_symmetry_multiplicity
 _atom_site_fract_x
 _atom_site_fract_y
 _atom_site_fract_z
 _atom_site_occupancy
  Ho  Ho0  1  0.669707  0.332362  0.001540  1
  Ho  Ho1  1  0.332362  0.669707  0.001540  1
  Ho  Ho2  1  0.332362  0.669707  0.498460  1
  Ho  Ho3  1  0.669707  0.332362  0.498460  1
  Ho  Ho4  1  0.757031  0.757031  0.750000  1
  Ho  Ho5  1  0.243489  0.994690  0.750000  1
  Ho  Ho6  1  0.994690  0.243489  0.750000  1
  Ho  Ho7  1  0.244655  0.244655  0.250000  1
  Ho  Ho8  1  0.754073  0.999569  0.250000  1
  Ho  Ho9  1  0.999569  0.754073  0.250000  1
  Sn  Sn10  1  0.602554  0.999704  0.750000  1
  Sn  Sn11  1  0.999704  0.602554  0.750000  1
  Sn  Sn12  1  0.603720  0.603720  0.250000  1
  Sn  Sn13  1  0.397031  0.000973  0.250000  1
  Sn  Sn14  1  0.000973  0.397031  0.250000  1
  Bi  Bi15  1  0.396285  0.396285  0.750000  1
  S  S16  1  0.001045  0.001045  0.999736  1
  S  S17  1  0.001045  0.001045  0.500264  1
