# generated using pymatgen
data_MnNiBi2(TeO6)2
_symmetry_space_group_name_H-M   'P 1'
_cell_length_a   5.22110712
_cell_length_b   9.06880302
_cell_length_c   10.05613963
_cell_angle_alpha   89.99843121
_cell_angle_beta   90.09149105
_cell_angle_gamma   90.00238445
_symmetry_Int_Tables_number   1
_chemical_formula_structural   MnNiBi2(TeO6)2
_chemical_formula_sum   'Mn2 Ni2 Bi4 Te4 O24'
_cell_volume   476.14947899
_cell_formula_units_Z   2
loop_
 _symmetry_equiv_pos_site_id
 _symmetry_equiv_pos_as_xyz
  1  'x, y, z'
loop_
 _atom_site_type_symbol
 _atom_site_label
 _atom_site_symmetry_multiplicity
 _atom_site_fract_x
 _atom_site_fract_y
 _atom_site_fract_z
 _atom_site_occupancy
  Mn  Mn0  1  0.500060  0.835991  0.750013  1
  Mn  Mn1  1  0.499940  0.164009  0.249987  1
  Ni  Ni2  1  0.000008  0.331307  0.750007  1
  Ni  Ni3  1  0.999992  0.668693  0.249993  1
  Bi  Bi4  1  0.000000  0.000000  0.500000  1
  Bi  Bi5  1  0.500000  0.500000  0.500000  1
  Bi  Bi6  1  0.000000  0.000000  0.000000  1
  Bi  Bi7  1  0.500000  0.500000  0.000000  1
  Te  Te8  1  0.500074  0.170294  0.749996  1
  Te  Te9  1  0.000066  0.663914  0.749997  1
  Te  Te10  1  0.999934  0.336086  0.250003  1
  Te  Te11  1  0.499926  0.829706  0.250004  1
  O  O12  1  0.628923  0.996055  0.644365  1
  O  O13  1  0.130634  0.510835  0.638024  1
  O  O14  1  0.672936  0.310123  0.636633  1
  O  O15  1  0.186244  0.816975  0.645871  1
  O  O16  1  0.194898  0.174947  0.640506  1
  O  O17  1  0.685198  0.689620  0.642981  1
  O  O18  1  0.186134  0.183030  0.145866  1
  O  O19  1  0.672817  0.689887  0.136630  1
  O  O20  1  0.130544  0.489180  0.138010  1
  O  O21  1  0.628802  0.003953  0.144353  1
  O  O22  1  0.685093  0.310387  0.142990  1
  O  O23  1  0.194777  0.825050  0.140522  1
  O  O24  1  0.869366  0.489165  0.361976  1
  O  O25  1  0.371077  0.003945  0.355635  1
  O  O26  1  0.813756  0.183025  0.354129  1
  O  O27  1  0.327064  0.689877  0.363367  1
  O  O28  1  0.314802  0.310380  0.357019  1
  O  O29  1  0.805102  0.825053  0.359494  1
  O  O30  1  0.327183  0.310113  0.863370  1
  O  O31  1  0.813866  0.816970  0.854134  1
  O  O32  1  0.371198  0.996047  0.855647  1
  O  O33  1  0.869456  0.510820  0.861990  1
  O  O34  1  0.805223  0.174950  0.859478  1
  O  O35  1  0.314907  0.689613  0.857010  1
