# generated using pymatgen
data_Li6ZrSb5Rh12
_symmetry_space_group_name_H-M   'P 1'
_cell_length_a   4.38338100
_cell_length_b   6.19124800
_cell_length_c   13.22248600
_cell_angle_alpha   90.00000000
_cell_angle_beta   90.00039525
_cell_angle_gamma   90.00000000
_symmetry_Int_Tables_number   1
_chemical_formula_structural   Li6ZrSb5Rh12
_chemical_formula_sum   'Li6 Zr1 Sb5 Rh12'
_cell_volume   358.83974334
_cell_formula_units_Z   1
loop_
 _symmetry_equiv_pos_site_id
 _symmetry_equiv_pos_as_xyz
  1  'x, y, z'
loop_
 _atom_site_type_symbol
 _atom_site_label
 _atom_site_symmetry_multiplicity
 _atom_site_fract_x
 _atom_site_fract_y
 _atom_site_fract_z
 _atom_site_occupancy
  Li  Li0  1  0.000023  0.000000  0.999888  1
  Li  Li1  1  0.499884  0.500000  0.167417  1
  Li  Li2  1  0.999890  0.000000  0.333350  1
  Li  Li3  1  0.499995  0.500000  0.499194  1
  Li  Li4  1  0.000119  0.000000  0.666808  1
  Li  Li5  1  0.500100  0.500000  0.833372  1
  Zr  Zr6  1  0.500105  0.000000  0.833319  1
  Sb  Sb7  1  0.999990  0.500000  0.000300  1
  Sb  Sb8  1  0.499888  0.000000  0.166580  1
  Sb  Sb9  1  0.999927  0.500000  0.333340  1
  Sb  Sb10  1  0.499994  0.000000  0.500099  1
  Sb  Sb11  1  0.000078  0.500000  0.666368  1
  Rh  Rh12  1  0.499992  0.250855  0.003137  1
  Rh  Rh13  1  0.499992  0.749146  0.003137  1
  Rh  Rh14  1  0.999910  0.250159  0.168218  1
  Rh  Rh15  1  0.999910  0.749840  0.168218  1
  Rh  Rh16  1  0.499949  0.249056  0.333328  1
  Rh  Rh17  1  0.499949  0.750944  0.333328  1
  Rh  Rh18  1  0.999996  0.250200  0.498442  1
  Rh  Rh19  1  0.999996  0.749801  0.498442  1
  Rh  Rh20  1  0.500065  0.250854  0.663536  1
  Rh  Rh21  1  0.500065  0.749146  0.663536  1
  Rh  Rh22  1  0.000091  0.256526  0.833320  1
  Rh  Rh23  1  0.000091  0.743473  0.833320  1
