# generated using pymatgen
data_Sr10Re3TcN14
_symmetry_space_group_name_H-M   'P 1'
_cell_length_a   6.46095555
_cell_length_b   9.30961815
_cell_length_c   9.36634654
_cell_angle_alpha   114.86690159
_cell_angle_beta   98.42660931
_cell_angle_gamma   89.89773505
_symmetry_Int_Tables_number   1
_chemical_formula_structural   Sr10Re3TcN14
_chemical_formula_sum   'Sr10 Re3 Tc1 N14'
_cell_volume   504.50118141
_cell_formula_units_Z   1
loop_
 _symmetry_equiv_pos_site_id
 _symmetry_equiv_pos_as_xyz
  1  'x, y, z'
loop_
 _atom_site_type_symbol
 _atom_site_label
 _atom_site_symmetry_multiplicity
 _atom_site_fract_x
 _atom_site_fract_y
 _atom_site_fract_z
 _atom_site_occupancy
  Sr  Sr0  1  0.855274  0.596342  0.329469  1
  Sr  Sr1  1  0.268305  0.986209  0.561767  1
  Sr  Sr2  1  0.694493  0.410480  0.846001  1
  Sr  Sr3  1  0.298847  0.588005  0.145067  1
  Sr  Sr4  1  0.400921  0.790814  0.912359  1
  Sr  Sr5  1  0.601372  0.209467  0.091344  1
  Sr  Sr6  1  0.148884  0.401601  0.666756  1
  Sr  Sr7  1  0.888973  0.847432  0.758571  1
  Sr  Sr8  1  0.122001  0.150804  0.246105  1
  Sr  Sr9  1  0.730252  0.019791  0.437730  1
  Re  Re10  1  0.421795  0.640180  0.522332  1
  Re  Re11  1  0.119537  0.218493  0.917816  1
  Re  Re12  1  0.878559  0.780265  0.082715  1
  Tc  Tc13  1  0.585266  0.360685  0.473350  1
  N  N14  1  0.520582  0.552698  0.674825  1
  N  N15  1  0.466235  0.452872  0.326532  1
  N  N16  1  0.160178  0.713078  0.569948  1
  N  N17  1  0.840265  0.281464  0.421719  1
  N  N18  1  0.419699  0.199865  0.493247  1
  N  N19  1  0.585190  0.804511  0.521831  1
  N  N20  1  0.953833  0.142295  0.718155  1
  N  N21  1  0.045963  0.855292  0.281618  1
  N  N22  1  0.223550  0.053348  0.962227  1
  N  N23  1  0.774563  0.945838  0.038584  1
  N  N24  1  0.352783  0.328918  0.909499  1
  N  N25  1  0.974085  0.349701  0.075979  1
  N  N26  1  0.023500  0.650532  0.923277  1
  N  N27  1  0.645094  0.669019  0.091176  1
