# generated using pymatgen
data_TbTh3Al5Ga13Ir6
_symmetry_space_group_name_H-M   'P 1'
_cell_length_a   7.66660904
_cell_length_b   7.67809636
_cell_length_c   9.50655817
_cell_angle_alpha   90.07655890
_cell_angle_beta   89.95419194
_cell_angle_gamma   119.72060209
_symmetry_Int_Tables_number   1
_chemical_formula_structural   TbTh3Al5Ga13Ir6
_chemical_formula_sum   'Tb1 Th3 Al5 Ga13 Ir6'
_cell_volume   485.98880323
_cell_formula_units_Z   1
loop_
 _symmetry_equiv_pos_site_id
 _symmetry_equiv_pos_as_xyz
  1  'x, y, z'
loop_
 _atom_site_type_symbol
 _atom_site_label
 _atom_site_symmetry_multiplicity
 _atom_site_fract_x
 _atom_site_fract_y
 _atom_site_fract_z
 _atom_site_occupancy
  Tb  Tb0  1  0.329191  0.002028  0.746351  1
  Th  Th1  1  0.996949  0.668564  0.251535  1
  Th  Th2  1  0.999588  0.330106  0.749609  1
  Th  Th3  1  0.671184  0.997710  0.251722  1
  Al  Al4  1  0.334928  0.004823  0.067855  1
  Al  Al5  1  0.334970  0.331453  0.554789  1
  Al  Al6  1  0.663779  0.663691  0.451140  1
  Al  Al7  1  0.664703  0.664538  0.049508  1
  Al  Al8  1  0.334755  0.332014  0.943966  1
  Ga  Ga9  1  0.136529  0.131473  0.249940  1
  Ga  Ga10  1  0.871461  0.869990  0.750659  1
  Ga  Ga11  1  0.004799  0.335032  0.078481  1
  Ga  Ga12  1  0.003081  0.671870  0.919931  1
  Ga  Ga13  1  0.000883  0.670209  0.581571  1
  Ga  Ga14  1  0.335091  0.003277  0.424640  1
  Ga  Ga15  1  0.005880  0.335241  0.421433  1
  Ga  Ga16  1  0.659437  0.995817  0.581678  1
  Ga  Ga17  1  0.658052  0.996217  0.919937  1
  Ga  Ga18  1  0.348824  0.546703  0.250349  1
  Ga  Ga19  1  0.649954  0.448473  0.750462  1
  Ga  Ga20  1  0.544238  0.343190  0.249816  1
  Ga  Ga21  1  0.452136  0.655398  0.750934  1
  Ir  Ir22  1  0.670296  0.329644  0.000893  1
  Ir  Ir23  1  0.329454  0.671458  0.002228  1
  Ir  Ir24  1  0.329270  0.668176  0.500260  1
  Ir  Ir25  1  0.673221  0.332200  0.499663  1
  Ir  Ir26  1  0.000258  0.000751  0.001419  1
  Ir  Ir27  1  0.997091  0.999957  0.499230  1
