# generated using pymatgen
data_Nd5Sc3(Ni4P3)4
_symmetry_space_group_name_H-M   'P 1'
_cell_length_a   12.44421100
_cell_length_b   12.44421101
_cell_length_c   3.86871400
_cell_angle_alpha   90.00000000
_cell_angle_beta   90.00000000
_cell_angle_gamma   120.00000795
_symmetry_Int_Tables_number   1
_chemical_formula_structural   Nd5Sc3(Ni4P3)4
_chemical_formula_sum   'Nd5 Sc3 Ni16 P12'
_cell_volume   518.83821294
_cell_formula_units_Z   1
loop_
 _symmetry_equiv_pos_site_id
 _symmetry_equiv_pos_as_xyz
  1  'x, y, z'
loop_
 _atom_site_type_symbol
 _atom_site_label
 _atom_site_symmetry_multiplicity
 _atom_site_fract_x
 _atom_site_fract_y
 _atom_site_fract_z
 _atom_site_occupancy
  Nd  Nd0  1  0.666667  0.333333  0.000000  1
  Nd  Nd1  1  0.333333  0.666667  0.000000  1
  Nd  Nd2  1  0.813522  0.813522  0.500000  1
  Nd  Nd3  1  0.186478  0.000000  0.500000  1
  Nd  Nd4  1  0.000000  0.186478  0.500000  1
  Sc  Sc5  1  0.432999  0.432999  0.000000  1
  Sc  Sc6  1  0.567001  0.000000  0.000000  1
  Sc  Sc7  1  0.000000  0.567001  0.000000  1
  Ni  Ni8  1  0.878971  0.362118  0.500000  1
  Ni  Ni9  1  0.637882  0.516853  0.500000  1
  Ni  Ni10  1  0.483147  0.121029  0.500000  1
  Ni  Ni11  1  0.362118  0.878971  0.500000  1
  Ni  Ni12  1  0.516853  0.637882  0.500000  1
  Ni  Ni13  1  0.121029  0.483147  0.500000  1
  Ni  Ni14  1  0.807497  0.188049  0.000000  1
  Ni  Ni15  1  0.811951  0.619448  0.000000  1
  Ni  Ni16  1  0.380552  0.192503  0.000000  1
  Ni  Ni17  1  0.188049  0.807497  0.000000  1
  Ni  Ni18  1  0.619448  0.811951  0.000000  1
  Ni  Ni19  1  0.192503  0.380552  0.000000  1
  Ni  Ni20  1  0.277727  0.277727  0.500000  1
  Ni  Ni21  1  0.722273  0.000000  0.500000  1
  Ni  Ni22  1  0.000000  0.722273  0.500000  1
  Ni  Ni23  1  0.000000  0.000000  0.000000  1
  P  P24  1  0.696932  0.169396  0.500000  1
  P  P25  1  0.830604  0.527536  0.500000  1
  P  P26  1  0.472464  0.303068  0.500000  1
  P  P27  1  0.169396  0.696932  0.500000  1
  P  P28  1  0.527536  0.830604  0.500000  1
  P  P29  1  0.303068  0.472464  0.500000  1
  P  P30  1  0.180807  0.180807  0.000000  1
  P  P31  1  0.819193  0.000000  0.000000  1
  P  P32  1  0.000000  0.819193  0.000000  1
  P  P33  1  0.638626  0.638626  0.000000  1
  P  P34  1  0.361374  0.000000  0.000000  1
  P  P35  1  0.000000  0.361374  0.000000  1
