# generated using pymatgen
data_Sc12Co4RePb
_symmetry_space_group_name_H-M   'P 1'
_cell_length_a   7.75505029
_cell_length_b   7.75504993
_cell_length_c   7.75504971
_cell_angle_alpha   111.45389715
_cell_angle_beta   110.86213996
_cell_angle_gamma   106.14844667
_symmetry_Int_Tables_number   1
_chemical_formula_structural   Sc12Co4RePb
_chemical_formula_sum   'Sc12 Co4 Re1 Pb1'
_cell_volume   358.12189586
_cell_formula_units_Z   1
loop_
 _symmetry_equiv_pos_site_id
 _symmetry_equiv_pos_as_xyz
  1  'x, y, z'
loop_
 _atom_site_type_symbol
 _atom_site_label
 _atom_site_symmetry_multiplicity
 _atom_site_fract_x
 _atom_site_fract_y
 _atom_site_fract_z
 _atom_site_occupancy
  Sc  Sc0  1  0.427023  0.225060  0.201963  1
  Sc  Sc1  1  0.572977  0.774940  0.798037  1
  Sc  Sc2  1  0.023096  0.225060  0.798037  1
  Sc  Sc3  1  0.976904  0.774940  0.201963  1
  Sc  Sc4  1  0.309550  0.609632  0.300082  1
  Sc  Sc5  1  0.690450  0.390368  0.699918  1
  Sc  Sc6  1  0.309550  0.009466  0.699918  1
  Sc  Sc7  1  0.690450  0.990534  0.300082  1
  Sc  Sc8  1  0.182834  0.271689  0.454524  1
  Sc  Sc9  1  0.817166  0.728310  0.545476  1
  Sc  Sc10  1  0.182834  0.728310  0.911145  1
  Sc  Sc11  1  0.817166  0.271689  0.088855  1
  Co  Co12  1  0.371438  0.000000  0.371438  1
  Co  Co13  1  0.628562  0.000000  0.628562  1
  Co  Co14  1  0.117607  0.617607  0.500000  1
  Co  Co15  1  0.882393  0.382393  0.500000  1
  Re  Re16  1  0.000000  0.000000  0.000000  1
  Pb  Pb17  1  0.500000  0.500000  0.000000  1
