# generated using pymatgen
data_Dy3Ho9(ThSn2)8
_symmetry_space_group_name_H-M   'P 1'
_cell_length_a   8.12082303
_cell_length_b   8.22192403
_cell_length_c   15.53878101
_cell_angle_alpha   89.99729866
_cell_angle_beta   90.00272218
_cell_angle_gamma   89.98985401
_symmetry_Int_Tables_number   1
_chemical_formula_structural   Dy3Ho9(ThSn2)8
_chemical_formula_sum   'Dy3 Ho9 Th8 Sn16'
_cell_volume   1037.50558874
_cell_formula_units_Z   1
loop_
 _symmetry_equiv_pos_site_id
 _symmetry_equiv_pos_as_xyz
  1  'x, y, z'
loop_
 _atom_site_type_symbol
 _atom_site_label
 _atom_site_symmetry_multiplicity
 _atom_site_fract_x
 _atom_site_fract_y
 _atom_site_fract_z
 _atom_site_occupancy
  Dy  Dy0  1  0.363441  0.836445  0.876452  1
  Dy  Dy1  1  0.863440  0.663566  0.623585  1
  Dy  Dy2  1  0.636560  0.163591  0.376385  1
  Ho  Ho3  1  0.136595  0.336475  0.123672  1
  Ho  Ho4  1  0.636606  0.163494  0.123587  1
  Ho  Ho5  1  0.136605  0.336482  0.376364  1
  Ho  Ho6  1  0.363369  0.836510  0.623592  1
  Ho  Ho7  1  0.863343  0.663533  0.876387  1
  Ho  Ho8  1  0.191978  0.497763  0.750007  1
  Ho  Ho9  1  0.691972  0.002229  0.750012  1
  Ho  Ho10  1  0.808148  0.502145  0.249927  1
  Ho  Ho11  1  0.307990  0.997888  0.249956  1
  Th  Th12  1  0.519284  0.320477  0.903468  1
  Th  Th13  1  0.019241  0.179510  0.596517  1
  Th  Th14  1  0.480719  0.679465  0.403463  1
  Th  Th15  1  0.980755  0.820477  0.096536  1
  Th  Th16  1  0.480694  0.679456  0.096630  1
  Th  Th17  1  0.980784  0.820486  0.403371  1
  Th  Th18  1  0.519265  0.320483  0.596604  1
  Th  Th19  1  0.019285  0.179568  0.903476  1
  Sn  Sn20  1  0.297126  0.039041  0.042524  1
  Sn  Sn21  1  0.797332  0.461354  0.457554  1
  Sn  Sn22  1  0.702649  0.961344  0.542447  1
  Sn  Sn23  1  0.202548  0.538401  0.957751  1
  Sn  Sn24  1  0.703209  0.961343  0.957739  1
  Sn  Sn25  1  0.203175  0.538661  0.542268  1
  Sn  Sn26  1  0.296812  0.038684  0.457743  1
  Sn  Sn27  1  0.797183  0.461192  0.042332  1
  Sn  Sn28  1  0.558926  0.621744  0.749965  1
  Sn  Sn29  1  0.058927  0.878242  0.750052  1
  Sn  Sn30  1  0.440853  0.378178  0.249836  1
  Sn  Sn31  1  0.941270  0.122021  0.249895  1
  Sn  Sn32  1  0.325562  0.142306  0.749916  1
  Sn  Sn33  1  0.825547  0.357658  0.750082  1
  Sn  Sn34  1  0.674396  0.857657  0.249914  1
  Sn  Sn35  1  0.174408  0.642130  0.249994  1
