# generated using pymatgen
data_TmSi4Pt5Rh
_symmetry_space_group_name_H-M   'P 1'
_cell_length_a   7.19858867
_cell_length_b   7.13124720
_cell_length_c   3.83641800
_cell_angle_alpha   90.00000000
_cell_angle_beta   90.00000000
_cell_angle_gamma   119.69102988
_symmetry_Int_Tables_number   1
_chemical_formula_structural   TmSi4Pt5Rh
_chemical_formula_sum   'Tm1 Si4 Pt5 Rh1'
_cell_volume   171.08546961
_cell_formula_units_Z   1
loop_
 _symmetry_equiv_pos_site_id
 _symmetry_equiv_pos_as_xyz
  1  'x, y, z'
loop_
 _atom_site_type_symbol
 _atom_site_label
 _atom_site_symmetry_multiplicity
 _atom_site_fract_x
 _atom_site_fract_y
 _atom_site_fract_z
 _atom_site_occupancy
  Tm  Tm0  1  0.997083  0.998542  0.000000  1
  Si  Si1  1  0.325491  0.662746  0.000000  1
  Si  Si2  1  0.386463  0.193232  0.500000  1
  Si  Si3  1  0.809583  0.200728  0.500000  1
  Si  Si4  1  0.809582  0.608856  0.500000  1
  Pt  Pt5  1  0.533130  0.064758  0.000000  1
  Pt  Pt6  1  0.533132  0.468372  0.000000  1
  Pt  Pt7  1  0.192091  0.383789  0.500000  1
  Pt  Pt8  1  0.192092  0.808304  0.500000  1
  Pt  Pt9  1  0.623501  0.811751  0.500000  1
  Rh  Rh10  1  0.931183  0.465591  0.000000  1
