# generated using pymatgen
data_Sc8Mn3B24Rh
_symmetry_space_group_name_H-M   'P 1'
_cell_length_a   3.39468600
_cell_length_b   8.83939949
_cell_length_c   11.14987500
_cell_angle_alpha   90.06304473
_cell_angle_beta   90.00000000
_cell_angle_gamma   90.00000000
_symmetry_Int_Tables_number   1
_chemical_formula_structural   Sc8Mn3B24Rh
_chemical_formula_sum   'Sc8 Mn3 B24 Rh1'
_cell_volume   334.57393707
_cell_formula_units_Z   1
loop_
 _symmetry_equiv_pos_site_id
 _symmetry_equiv_pos_as_xyz
  1  'x, y, z'
loop_
 _atom_site_type_symbol
 _atom_site_label
 _atom_site_symmetry_multiplicity
 _atom_site_fract_x
 _atom_site_fract_y
 _atom_site_fract_z
 _atom_site_occupancy
  Sc  Sc0  1  0.000000  0.947397  0.369988  1
  Sc  Sc1  1  0.000000  0.056861  0.631062  1
  Sc  Sc2  1  0.000000  0.556756  0.869315  1
  Sc  Sc3  1  0.000000  0.177263  0.912758  1
  Sc  Sc4  1  0.000000  0.827175  0.079228  1
  Sc  Sc5  1  0.000000  0.679519  0.592590  1
  Sc  Sc6  1  0.000000  0.315264  0.416985  1
  Sc  Sc7  1  0.000000  0.438973  0.127203  1
  Mn  Mn8  1  0.000000  0.139248  0.180633  1
  Mn  Mn9  1  0.000000  0.360661  0.679579  1
  Mn  Mn10  1  0.000000  0.860641  0.819778  1
  B  B11  1  0.500000  0.369593  0.815666  1
  B  B12  1  0.500000  0.982925  0.211097  1
  B  B13  1  0.500000  0.552826  0.436897  1
  B  B14  1  0.500000  0.292348  0.235849  1
  B  B15  1  0.500000  0.206837  0.735910  1
  B  B16  1  0.500000  0.100610  0.473013  1
  B  B17  1  0.500000  0.795711  0.262225  1
  B  B18  1  0.500000  0.445166  0.567210  1
  B  B19  1  0.500000  0.249405  0.581473  1
  B  B20  1  0.500000  0.478389  0.287595  1
  B  B21  1  0.500000  0.706866  0.764534  1
  B  B22  1  0.500000  0.752735  0.422915  1
  B  B23  1  0.500000  0.518067  0.712078  1
  B  B24  1  0.500000  0.899703  0.528091  1
  B  B25  1  0.500000  0.053934  0.065728  1
  B  B26  1  0.500000  0.600617  0.026746  1
  B  B27  1  0.500000  0.750060  0.918751  1
  B  B28  1  0.500000  0.018324  0.788267  1
  B  B29  1  0.500000  0.399002  0.972062  1
  B  B30  1  0.500000  0.946275  0.933096  1
  B  B31  1  0.500000  0.631032  0.180380  1
  B  B32  1  0.500000  0.249465  0.080110  1
  B  B33  1  0.500000  0.869868  0.684663  1
  B  B34  1  0.500000  0.130953  0.316249  1
  Rh  Rh35  1  0.000000  0.639528  0.320274  1
