# generated using pymatgen
data_Sr3Ge2Pd7
_symmetry_space_group_name_H-M   'P 1'
_cell_length_a   9.06904971
_cell_length_b   9.06905071
_cell_length_c   9.06905000
_cell_angle_alpha   36.85499124
_cell_angle_beta   36.85498276
_cell_angle_gamma   36.85498448
_symmetry_Int_Tables_number   1
_chemical_formula_structural   Sr3Ge2Pd7
_chemical_formula_sum   'Sr3 Ge2 Pd7'
_cell_volume   240.37483592
_cell_formula_units_Z   1
loop_
 _symmetry_equiv_pos_site_id
 _symmetry_equiv_pos_as_xyz
  1  'x, y, z'
loop_
 _atom_site_type_symbol
 _atom_site_label
 _atom_site_symmetry_multiplicity
 _atom_site_fract_x
 _atom_site_fract_y
 _atom_site_fract_z
 _atom_site_occupancy
  Sr  Sr0  1  0.358859  0.358859  0.358859  1
  Sr  Sr1  1  0.500000  0.500000  0.500000  1
  Sr  Sr2  1  0.641141  0.641141  0.641141  1
  Ge  Ge3  1  0.167597  0.167597  0.167597  1
  Ge  Ge4  1  0.832403  0.832403  0.832403  1
  Pd  Pd5  1  0.000000  0.000000  0.000000  1
  Pd  Pd6  1  0.576983  0.074607  0.074607  1
  Pd  Pd7  1  0.074607  0.576983  0.074607  1
  Pd  Pd8  1  0.925393  0.925393  0.423017  1
  Pd  Pd9  1  0.074607  0.074607  0.576983  1
  Pd  Pd10  1  0.925393  0.423017  0.925393  1
  Pd  Pd11  1  0.423017  0.925393  0.925393  1
