# generated using pymatgen
data_Nb6VRe5Si5B
_symmetry_space_group_name_H-M   'P 1'
_cell_length_a   7.52708123
_cell_length_b   7.52418497
_cell_length_c   7.52546660
_cell_angle_alpha   126.51583283
_cell_angle_beta   127.19147669
_cell_angle_gamma   78.46236087
_symmetry_Int_Tables_number   1
_chemical_formula_structural   Nb6VRe5Si5B
_chemical_formula_sum   'Nb6 V1 Re5 Si5 B1'
_cell_volume   264.24964592
_cell_formula_units_Z   1
loop_
 _symmetry_equiv_pos_site_id
 _symmetry_equiv_pos_as_xyz
  1  'x, y, z'
loop_
 _atom_site_type_symbol
 _atom_site_label
 _atom_site_symmetry_multiplicity
 _atom_site_fract_x
 _atom_site_fract_y
 _atom_site_fract_z
 _atom_site_occupancy
  Nb  Nb0  1  0.551494  0.091348  0.036387  1
  Nb  Nb1  1  0.447830  0.494104  0.550014  1
  Nb  Nb2  1  0.945191  0.485577  0.036773  1
  Nb  Nb3  1  0.055122  0.100426  0.549045  1
  Nb  Nb4  1  0.748985  0.905882  0.653859  1
  Nb  Nb5  1  0.252302  0.903758  0.156134  1
  V  V6  1  0.506238  0.250074  0.756395  1
  Re  Re7  1  0.991154  0.252435  0.243651  1
  Re  Re8  1  0.100665  0.744831  0.598459  1
  Re  Re9  1  0.851487  0.497848  0.596328  1
  Re  Re10  1  0.647082  0.744095  0.143374  1
  Re  Re11  1  0.401450  0.496475  0.145685  1
  Si  Si12  1  0.250512  0.507022  0.760001  1
  Si  Si13  1  0.330341  0.826109  0.491383  1
  Si  Si14  1  0.664971  0.162083  0.491335  1
  Si  Si15  1  0.835498  0.827088  0.997103  1
  Si  Si16  1  0.171067  0.162681  0.998325  1
  B  B17  1  0.748613  0.490363  0.237948  1
