# generated using pymatgen
data_NaNd(AlSe2)4
_symmetry_space_group_name_H-M   'P 1'
_cell_length_a   12.43692458
_cell_length_b   12.43692432
_cell_length_c   12.43364800
_cell_angle_alpha   105.44105914
_cell_angle_beta   105.44105880
_cell_angle_gamma   117.88162729
_symmetry_Int_Tables_number   1
_chemical_formula_structural   NaNd(AlSe2)4
_chemical_formula_sum   'Na4 Nd4 Al16 Se32'
_cell_volume   1456.09455691
_cell_formula_units_Z   4
loop_
 _symmetry_equiv_pos_site_id
 _symmetry_equiv_pos_as_xyz
  1  'x, y, z'
loop_
 _atom_site_type_symbol
 _atom_site_label
 _atom_site_symmetry_multiplicity
 _atom_site_fract_x
 _atom_site_fract_y
 _atom_site_fract_z
 _atom_site_occupancy
  Na  Na0  1  0.621468  0.378531  0.250000  1
  Na  Na1  1  0.128531  0.871468  0.250000  1
  Na  Na2  1  0.871469  0.128532  0.750000  1
  Na  Na3  1  0.378532  0.621469  0.750000  1
  Nd  Nd4  1  0.875000  0.125000  0.250000  1
  Nd  Nd5  1  0.375000  0.624999  0.250000  1
  Nd  Nd6  1  0.625000  0.375000  0.750000  1
  Nd  Nd7  1  0.125000  0.875000  0.750000  1
  Al  Al8  1  0.130160  0.135328  0.020861  1
  Al  Al9  1  0.390702  0.885534  0.020861  1
  Al  Al10  1  0.971432  0.469786  0.107938  1
  Al  Al11  1  0.636506  0.638152  0.107938  1
  Al  Al12  1  0.530214  0.028568  0.392062  1
  Al  Al13  1  0.361848  0.363494  0.392062  1
  Al  Al14  1  0.114466  0.609298  0.479138  1
  Al  Al15  1  0.864672  0.869840  0.479138  1
  Al  Al16  1  0.135328  0.130160  0.520862  1
  Al  Al17  1  0.885534  0.390701  0.520862  1
  Al  Al18  1  0.638152  0.636507  0.607938  1
  Al  Al19  1  0.469786  0.971432  0.607938  1
  Al  Al20  1  0.363494  0.361848  0.892062  1
  Al  Al21  1  0.028568  0.530214  0.892062  1
  Al  Al22  1  0.609298  0.114466  0.979139  1
  Al  Al23  1  0.869840  0.864672  0.979139  1
  Se  Se24  1  0.093165  0.419942  0.004477  1
  Se  Se25  1  0.411313  0.584536  0.004477  1
  Se  Se26  1  0.910923  0.083185  0.005420  1
  Se  Se27  1  0.594498  0.922236  0.005420  1
  Se  Se28  1  0.816283  0.316725  0.163375  1
  Se  Se29  1  0.847093  0.846650  0.163375  1
  Se  Se30  1  0.338355  0.345941  0.187021  1
  Se  Se31  1  0.348666  0.841080  0.187021  1
  Se  Se32  1  0.158919  0.651333  0.312979  1
  Se  Se33  1  0.654058  0.661644  0.312979  1
  Se  Se34  1  0.153350  0.152907  0.336626  1
  Se  Se35  1  0.683275  0.183717  0.336626  1
  Se  Se36  1  0.916815  0.089078  0.494580  1
  Se  Se37  1  0.077764  0.405502  0.494580  1
  Se  Se38  1  0.415465  0.588688  0.495523  1
  Se  Se39  1  0.580059  0.906835  0.495523  1
  Se  Se40  1  0.419941  0.093165  0.504477  1
  Se  Se41  1  0.584535  0.411312  0.504477  1
  Se  Se42  1  0.922236  0.594498  0.505420  1
  Se  Se43  1  0.083184  0.910922  0.505420  1
  Se  Se44  1  0.316724  0.816283  0.663374  1
  Se  Se45  1  0.846650  0.847093  0.663374  1
  Se  Se46  1  0.345942  0.338356  0.687021  1
  Se  Se47  1  0.841081  0.348667  0.687021  1
  Se  Se48  1  0.651334  0.158920  0.812979  1
  Se  Se49  1  0.661645  0.654059  0.812979  1
  Se  Se50  1  0.152907  0.153350  0.836625  1
  Se  Se51  1  0.183717  0.683276  0.836625  1
  Se  Se52  1  0.405502  0.077764  0.994579  1
  Se  Se53  1  0.089078  0.916816  0.994579  1
  Se  Se54  1  0.588687  0.415464  0.995522  1
  Se  Se55  1  0.906834  0.580058  0.995522  1
