# generated using pymatgen
data_Tb16TcNi3Ag4
_symmetry_space_group_name_H-M   'P 1'
_cell_length_a   9.52834297
_cell_length_b   9.52834226
_cell_length_c   9.52834300
_cell_angle_alpha   59.54336562
_cell_angle_beta   59.54336910
_cell_angle_gamma   59.54336766
_symmetry_Int_Tables_number   1
_chemical_formula_structural   Tb16TcNi3Ag4
_chemical_formula_sum   'Tb16 Tc1 Ni3 Ag4'
_cell_volume   605.34723539
_cell_formula_units_Z   1
loop_
 _symmetry_equiv_pos_site_id
 _symmetry_equiv_pos_as_xyz
  1  'x, y, z'
loop_
 _atom_site_type_symbol
 _atom_site_label
 _atom_site_symmetry_multiplicity
 _atom_site_fract_x
 _atom_site_fract_y
 _atom_site_fract_z
 _atom_site_occupancy
  Tb  Tb0  1  0.348590  0.348590  0.348590  1
  Tb  Tb1  1  0.352864  0.352864  0.951222  1
  Tb  Tb2  1  0.352864  0.951222  0.352864  1
  Tb  Tb3  1  0.951222  0.352864  0.352864  1
  Tb  Tb4  1  0.810192  0.187782  0.187782  1
  Tb  Tb5  1  0.188038  0.809758  0.809758  1
  Tb  Tb6  1  0.187782  0.810192  0.187782  1
  Tb  Tb7  1  0.809758  0.188038  0.809758  1
  Tb  Tb8  1  0.187782  0.187782  0.810192  1
  Tb  Tb9  1  0.809758  0.809758  0.188038  1
  Tb  Tb10  1  0.934222  0.563947  0.563947  1
  Tb  Tb11  1  0.556190  0.938719  0.938719  1
  Tb  Tb12  1  0.563947  0.934222  0.563947  1
  Tb  Tb13  1  0.938719  0.556190  0.938719  1
  Tb  Tb14  1  0.563947  0.563947  0.934222  1
  Tb  Tb15  1  0.938719  0.938719  0.556190  1
  Tc  Tc16  1  0.142590  0.142590  0.142590  1
  Ni  Ni17  1  0.143798  0.143798  0.573615  1
  Ni  Ni18  1  0.143798  0.573615  0.143798  1
  Ni  Ni19  1  0.573615  0.143798  0.143798  1
  Ag  Ag20  1  0.582882  0.582882  0.582882  1
  Ag  Ag21  1  0.580494  0.580494  0.257738  1
  Ag  Ag22  1  0.580494  0.257738  0.580494  1
  Ag  Ag23  1  0.257738  0.580494  0.580494  1
