# generated using pymatgen
data_LaPr(IrO3)6
_symmetry_space_group_name_H-M   'P 1'
_cell_length_a   5.44155105
_cell_length_b   5.44155013
_cell_length_c   11.91151800
_cell_angle_alpha   90.00000000
_cell_angle_beta   90.00000000
_cell_angle_gamma   107.15570847
_symmetry_Int_Tables_number   1
_chemical_formula_structural   LaPr(IrO3)6
_chemical_formula_sum   'La1 Pr1 Ir6 O18'
_cell_volume   337.01262905
_cell_formula_units_Z   1
loop_
 _symmetry_equiv_pos_site_id
 _symmetry_equiv_pos_as_xyz
  1  'x, y, z'
loop_
 _atom_site_type_symbol
 _atom_site_label
 _atom_site_symmetry_multiplicity
 _atom_site_fract_x
 _atom_site_fract_y
 _atom_site_fract_z
 _atom_site_occupancy
  La  La0  1  0.250999  0.749001  0.250000  1
  Pr  Pr1  1  0.750659  0.249341  0.750000  1
  Ir  Ir2  1  0.116463  0.883537  0.904564  1
  Ir  Ir3  1  0.883533  0.116467  0.405880  1
  Ir  Ir4  1  0.883533  0.116467  0.094120  1
  Ir  Ir5  1  0.116463  0.883537  0.595436  1
  Ir  Ir6  1  0.500619  0.499381  0.998803  1
  Ir  Ir7  1  0.500619  0.499381  0.501197  1
  O  O8  1  0.953319  0.046681  0.250000  1
  O  O9  1  0.041564  0.958436  0.750000  1
  O  O10  1  0.106026  0.893974  0.068899  1
  O  O11  1  0.894027  0.105973  0.570125  1
  O  O12  1  0.894027  0.105973  0.929875  1
  O  O13  1  0.106026  0.893974  0.431101  1
  O  O14  1  0.336272  0.663728  0.890002  1
  O  O15  1  0.663172  0.336828  0.390905  1
  O  O16  1  0.419162  0.188661  0.601457  1
  O  O17  1  0.581661  0.810544  0.099080  1
  O  O18  1  0.189456  0.418339  0.400920  1
  O  O19  1  0.811339  0.580838  0.898543  1
  O  O20  1  0.581661  0.810544  0.400920  1
  O  O21  1  0.419162  0.188661  0.898543  1
  O  O22  1  0.811339  0.580838  0.601457  1
  O  O23  1  0.189456  0.418339  0.099080  1
  O  O24  1  0.336272  0.663728  0.609998  1
  O  O25  1  0.663172  0.336828  0.109095  1
