# generated using pymatgen
data_Ho6GaTc15O
_symmetry_space_group_name_H-M   'P 1'
_cell_length_a   8.06508551
_cell_length_b   8.06508552
_cell_length_c   8.03148923
_cell_angle_alpha   109.82321533
_cell_angle_beta   109.82321957
_cell_angle_gamma   108.94056343
_symmetry_Int_Tables_number   1
_chemical_formula_structural   Ho6GaTc15O
_chemical_formula_sum   'Ho6 Ga1 Tc15 O1'
_cell_volume   401.26744124
_cell_formula_units_Z   1
loop_
 _symmetry_equiv_pos_site_id
 _symmetry_equiv_pos_as_xyz
  1  'x, y, z'
loop_
 _atom_site_type_symbol
 _atom_site_label
 _atom_site_symmetry_multiplicity
 _atom_site_fract_x
 _atom_site_fract_y
 _atom_site_fract_z
 _atom_site_occupancy
  Ho  Ho0  1  0.739946  0.739946  0.000870  1
  Ho  Ho1  1  0.266725  0.002377  0.269103  1
  Ho  Ho2  1  0.736512  0.999445  0.735957  1
  Ho  Ho3  1  0.999445  0.736512  0.735958  1
  Ho  Ho4  1  0.002377  0.266725  0.269103  1
  Ho  Ho5  1  0.260923  0.260923  0.000870  1
  Ga  Ga6  1  0.344373  0.344373  0.688746  1
  Tc  Tc7  1  0.001070  0.501070  0.002141  1
  Tc  Tc8  1  0.501070  0.001070  0.002141  1
  Tc  Tc9  1  0.998879  0.998879  0.506306  1
  Tc  Tc10  1  0.507427  0.507427  0.506306  1
  Tc  Tc11  1  0.654435  0.654435  0.308870  1
  Tc  Tc12  1  0.998011  0.338289  0.656814  1
  Tc  Tc13  1  0.318525  0.658803  0.656814  1
  Tc  Tc14  1  0.658803  0.318525  0.656814  1
  Tc  Tc15  1  0.338289  0.998011  0.656814  1
  Tc  Tc16  1  0.658472  0.336621  0.995093  1
  Tc  Tc17  1  0.336621  0.658472  0.995093  1
  Tc  Tc18  1  0.341431  0.682298  0.338468  1
  Tc  Tc19  1  0.997037  0.656170  0.338468  1
  Tc  Tc20  1  0.656170  0.997037  0.338468  1
  Tc  Tc21  1  0.682298  0.341431  0.338468  1
  O  O22  1  0.001158  0.001158  0.002317  1
