# generated using pymatgen
data_Pr8Sc12Ga11Si5
_symmetry_space_group_name_H-M   'P 1'
_cell_length_a   7.36984569
_cell_length_b   7.68672966
_cell_length_c   14.50578678
_cell_angle_alpha   89.98307111
_cell_angle_beta   90.09143879
_cell_angle_gamma   90.18168387
_symmetry_Int_Tables_number   1
_chemical_formula_structural   Pr8Sc12Ga11Si5
_chemical_formula_sum   'Pr8 Sc12 Ga11 Si5'
_cell_volume   821.74777423
_cell_formula_units_Z   1
loop_
 _symmetry_equiv_pos_site_id
 _symmetry_equiv_pos_as_xyz
  1  'x, y, z'
loop_
 _atom_site_type_symbol
 _atom_site_label
 _atom_site_symmetry_multiplicity
 _atom_site_fract_x
 _atom_site_fract_y
 _atom_site_fract_z
 _atom_site_occupancy
  Pr  Pr0  1  0.014828  0.175776  0.404050  1
  Pr  Pr1  1  0.512795  0.325967  0.405222  1
  Pr  Pr2  1  0.489851  0.676026  0.904276  1
  Pr  Pr3  1  0.489747  0.676617  0.593643  1
  Pr  Pr4  1  0.987935  0.821218  0.594557  1
  Pr  Pr5  1  0.985147  0.825511  0.903719  1
  Pr  Pr6  1  0.510647  0.324336  0.095364  1
  Pr  Pr7  1  0.010937  0.176872  0.096171  1
  Sc  Sc8  1  0.328368  0.171705  0.622259  1
  Sc  Sc9  1  0.670295  0.823980  0.377511  1
  Sc  Sc10  1  0.664693  0.995766  0.752206  1
  Sc  Sc11  1  0.172093  0.674396  0.376565  1
  Sc  Sc12  1  0.824539  0.325705  0.876363  1
  Sc  Sc13  1  0.826684  0.329597  0.623210  1
  Sc  Sc14  1  0.840059  0.498535  0.251981  1
  Sc  Sc15  1  0.336636  0.003538  0.252368  1
  Sc  Sc16  1  0.333040  0.173942  0.875695  1
  Sc  Sc17  1  0.171204  0.670989  0.125154  1
  Sc  Sc18  1  0.671529  0.827333  0.123022  1
  Sc  Sc19  1  0.159156  0.501481  0.750589  1
  Ga  Ga20  1  0.287180  0.881687  0.749603  1
  Ga  Ga21  1  0.467157  0.621260  0.250862  1
  Ga  Ga22  1  0.032259  0.125080  0.749404  1
  Ga  Ga23  1  0.532368  0.379988  0.749363  1
  Ga  Ga24  1  0.153221  0.463432  0.540944  1
  Ga  Ga25  1  0.967309  0.875574  0.250170  1
  Ga  Ga26  1  0.712227  0.118565  0.250557  1
  Ga  Ga27  1  0.845221  0.537424  0.042080  1
  Ga  Ga28  1  0.344668  0.961304  0.040945  1
  Ga  Ga29  1  0.155048  0.462286  0.957855  1
  Ga  Ga30  1  0.654800  0.038154  0.540740  1
  Si  Si31  1  0.346300  0.962404  0.457741  1
  Si  Si32  1  0.848452  0.535917  0.457032  1
  Si  Si33  1  0.785942  0.615282  0.749407  1
  Si  Si34  1  0.214599  0.384425  0.250719  1
  Si  Si35  1  0.653067  0.037928  0.958652  1
