# generated using pymatgen
data_Nd2MoWC3
_symmetry_space_group_name_H-M   'P 1'
_cell_length_a   6.35789803
_cell_length_b   6.35789750
_cell_length_c   5.91376547
_cell_angle_alpha   65.79250708
_cell_angle_beta   65.79250996
_cell_angle_gamma   31.33907881
_symmetry_Int_Tables_number   1
_chemical_formula_structural   Nd2MoWC3
_chemical_formula_sum   'Nd2 Mo1 W1 C3'
_cell_volume   112.49279505
_cell_formula_units_Z   1
loop_
 _symmetry_equiv_pos_site_id
 _symmetry_equiv_pos_as_xyz
  1  'x, y, z'
loop_
 _atom_site_type_symbol
 _atom_site_label
 _atom_site_symmetry_multiplicity
 _atom_site_fract_x
 _atom_site_fract_y
 _atom_site_fract_z
 _atom_site_occupancy
  Nd  Nd0  1  0.392715  0.392715  0.816715  1
  Nd  Nd1  1  0.606867  0.606867  0.187419  1
  Mo  Mo2  1  0.841206  0.841206  0.320973  1
  W  W3  1  0.160145  0.160145  0.676303  1
  C  C4  1  0.000879  0.000879  0.997058  1
  C  C5  1  0.251151  0.251151  0.275879  1
  C  C6  1  0.747038  0.747038  0.725655  1
