# generated using pymatgen
data_Gd2CdPtRh
_symmetry_space_group_name_H-M   'P 1'
_cell_length_a   7.67743100
_cell_length_b   7.70014200
_cell_length_c   3.82168500
_cell_angle_alpha   90.00000000
_cell_angle_beta   90.00000000
_cell_angle_gamma   90.00000000
_symmetry_Int_Tables_number   1
_chemical_formula_structural   Gd2CdPtRh
_chemical_formula_sum   'Gd4 Cd2 Pt2 Rh2'
_cell_volume   225.92773265
_cell_formula_units_Z   2
loop_
 _symmetry_equiv_pos_site_id
 _symmetry_equiv_pos_as_xyz
  1  'x, y, z'
loop_
 _atom_site_type_symbol
 _atom_site_label
 _atom_site_symmetry_multiplicity
 _atom_site_fract_x
 _atom_site_fract_y
 _atom_site_fract_z
 _atom_site_occupancy
  Gd  Gd0  1  0.829802  0.673963  0.500000  1
  Gd  Gd1  1  0.329802  0.826037  0.500000  1
  Gd  Gd2  1  0.669229  0.163478  0.500000  1
  Gd  Gd3  1  0.169229  0.336522  0.500000  1
  Cd  Cd4  1  0.998306  0.996851  0.000000  1
  Cd  Cd5  1  0.498306  0.503149  0.000000  1
  Pt  Pt6  1  0.868314  0.370349  0.000000  1
  Pt  Pt7  1  0.368314  0.129651  0.000000  1
  Rh  Rh8  1  0.634349  0.865021  0.000000  1
  Rh  Rh9  1  0.134349  0.634979  0.000000  1
