# generated using pymatgen
data_Dy2Er10In2FeTc2
_symmetry_space_group_name_H-M   'P 1'
_cell_length_a   8.35236900
_cell_length_b   8.35237167
_cell_length_c   8.38357065
_cell_angle_alpha   108.74553679
_cell_angle_beta   108.74553442
_cell_angle_gamma   110.78533184
_symmetry_Int_Tables_number   1
_chemical_formula_structural   Dy2Er10In2FeTc2
_chemical_formula_sum   'Dy2 Er10 In2 Fe1 Tc2'
_cell_volume   450.83916816
_cell_formula_units_Z   1
loop_
 _symmetry_equiv_pos_site_id
 _symmetry_equiv_pos_as_xyz
  1  'x, y, z'
loop_
 _atom_site_type_symbol
 _atom_site_label
 _atom_site_symmetry_multiplicity
 _atom_site_fract_x
 _atom_site_fract_y
 _atom_site_fract_z
 _atom_site_occupancy
  Dy  Dy0  1  0.303244  0.303244  0.609542  1
  Dy  Dy1  1  0.693703  0.693703  0.390458  1
  Er  Er2  1  0.693128  0.304089  0.000000  1
  Er  Er3  1  0.304089  0.693128  0.000000  1
  Er  Er4  1  0.189361  0.430236  0.239513  1
  Er  Er5  1  0.807555  0.569525  0.763143  1
  Er  Er6  1  0.190724  0.949847  0.760487  1
  Er  Er7  1  0.949847  0.190724  0.760487  1
  Er  Er8  1  0.806381  0.044413  0.236857  1
  Er  Er9  1  0.044413  0.806381  0.236857  1
  Er  Er10  1  0.430236  0.189361  0.239513  1
  Er  Er11  1  0.569525  0.807555  0.763143  1
  In  In12  1  0.998493  0.498493  0.500000  1
  In  In13  1  0.498493  0.998493  0.500000  1
  Fe  Fe14  1  0.631129  0.631129  0.000000  1
  Tc  Tc15  1  0.389009  0.389009  0.000000  1
  Tc  Tc16  1  0.000671  0.000671  0.000000  1
