# generated using pymatgen
data_Y16In4Ir3Pt
_symmetry_space_group_name_H-M   'P 1'
_cell_length_a   9.73411846
_cell_length_b   9.73411881
_cell_length_c   9.72093247
_cell_angle_alpha   59.95512047
_cell_angle_beta   59.95511745
_cell_angle_gamma   60.00000225
_symmetry_Int_Tables_number   1
_chemical_formula_structural   Y16In4Ir3Pt
_chemical_formula_sum   'Y16 In4 Ir3 Pt1'
_cell_volume   650.86550819
_cell_formula_units_Z   1
loop_
 _symmetry_equiv_pos_site_id
 _symmetry_equiv_pos_as_xyz
  1  'x, y, z'
loop_
 _atom_site_type_symbol
 _atom_site_label
 _atom_site_symmetry_multiplicity
 _atom_site_fract_x
 _atom_site_fract_y
 _atom_site_fract_z
 _atom_site_occupancy
  Y  Y0  1  0.805102  0.191420  0.812058  1
  Y  Y1  1  0.939182  0.561847  0.559789  1
  Y  Y2  1  0.561847  0.939182  0.559789  1
  Y  Y3  1  0.809174  0.190896  0.190757  1
  Y  Y4  1  0.190896  0.809174  0.190757  1
  Y  Y5  1  0.350884  0.951758  0.346475  1
  Y  Y6  1  0.939182  0.939182  0.559789  1
  Y  Y7  1  0.559898  0.940329  0.939875  1
  Y  Y8  1  0.191420  0.805102  0.812058  1
  Y  Y9  1  0.348811  0.348811  0.953568  1
  Y  Y10  1  0.559898  0.559898  0.939875  1
  Y  Y11  1  0.350884  0.350884  0.346475  1
  Y  Y12  1  0.191420  0.191420  0.812058  1
  Y  Y13  1  0.809174  0.809174  0.190757  1
  Y  Y14  1  0.940329  0.559898  0.939875  1
  Y  Y15  1  0.951758  0.350884  0.346475  1
  In  In16  1  0.583538  0.583538  0.583068  1
  In  In17  1  0.583538  0.249858  0.583068  1
  In  In18  1  0.583188  0.583188  0.250438  1
  In  In19  1  0.249858  0.583538  0.583068  1
  Ir  Ir20  1  0.575630  0.141341  0.141689  1
  Ir  Ir21  1  0.141341  0.575630  0.141689  1
  Ir  Ir22  1  0.141341  0.141341  0.141689  1
  Pt  Pt23  1  0.141711  0.141711  0.574868  1
