# generated using pymatgen
data_YHo2IrRh8
_symmetry_space_group_name_H-M   'P 1'
_cell_length_a   5.26102633
_cell_length_b   5.26102599
_cell_length_c   17.53882046
_cell_angle_alpha   90.07073746
_cell_angle_beta   89.92926163
_cell_angle_gamma   119.95959769
_symmetry_Int_Tables_number   1
_chemical_formula_structural   YHo2IrRh8
_chemical_formula_sum   'Y2 Ho4 Ir2 Rh16'
_cell_volume   420.57955903
_cell_formula_units_Z   2
loop_
 _symmetry_equiv_pos_site_id
 _symmetry_equiv_pos_as_xyz
  1  'x, y, z'
loop_
 _atom_site_type_symbol
 _atom_site_label
 _atom_site_symmetry_multiplicity
 _atom_site_fract_x
 _atom_site_fract_y
 _atom_site_fract_z
 _atom_site_occupancy
  Y  Y0  1  0.333254  0.666746  0.749900  1
  Y  Y1  1  0.666773  0.333227  0.250508  1
  Ho  Ho2  1  0.333297  0.666703  0.958188  1
  Ho  Ho3  1  0.666707  0.333293  0.041837  1
  Ho  Ho4  1  0.667525  0.332475  0.458606  1
  Ho  Ho5  1  0.333218  0.666782  0.541129  1
  Ir  Ir6  1  0.166448  0.833552  0.374143  1
  Ir  Ir7  1  0.001777  0.998223  0.500073  1
  Rh  Rh8  1  0.166128  0.335915  0.374978  1
  Rh  Rh9  1  0.664085  0.833872  0.374978  1
  Rh  Rh10  1  0.832887  0.167113  0.625470  1
  Rh  Rh11  1  0.832604  0.665728  0.625215  1
  Rh  Rh12  1  0.334272  0.167396  0.625215  1
  Rh  Rh13  1  0.832704  0.167296  0.874533  1
  Rh  Rh14  1  0.832791  0.665427  0.874496  1
  Rh  Rh15  1  0.334573  0.167209  0.874496  1
  Rh  Rh16  1  0.167509  0.832491  0.125049  1
  Rh  Rh17  1  0.166972  0.334400  0.125435  1
  Rh  Rh18  1  0.665600  0.833028  0.125435  1
  Rh  Rh19  1  0.333149  0.666851  0.249875  1
  Rh  Rh20  1  0.666635  0.333365  0.750302  1
  Rh  Rh21  1  0.000883  0.999117  0.250036  1
  Rh  Rh22  1  0.000287  0.999713  0.750082  1
  Rh  Rh23  1  0.999925  0.000075  0.000023  1
