# generated using pymatgen
data_Dy5Fe3(P3Ir4)4
_symmetry_space_group_name_H-M   'P 1'
_cell_length_a   12.59465800
_cell_length_b   12.59465732
_cell_length_c   3.93894300
_cell_angle_alpha   90.00000000
_cell_angle_beta   90.00000000
_cell_angle_gamma   120.00000177
_symmetry_Int_Tables_number   1
_chemical_formula_structural   Dy5Fe3(P3Ir4)4
_chemical_formula_sum   'Dy5 Fe3 P12 Ir16'
_cell_volume   541.10687874
_cell_formula_units_Z   1
loop_
 _symmetry_equiv_pos_site_id
 _symmetry_equiv_pos_as_xyz
  1  'x, y, z'
loop_
 _atom_site_type_symbol
 _atom_site_label
 _atom_site_symmetry_multiplicity
 _atom_site_fract_x
 _atom_site_fract_y
 _atom_site_fract_z
 _atom_site_occupancy
  Dy  Dy0  1  0.666667  0.333333  0.000000  1
  Dy  Dy1  1  0.333333  0.666667  0.000000  1
  Dy  Dy2  1  0.818131  0.818131  0.500000  1
  Dy  Dy3  1  0.181869  0.000000  0.500000  1
  Dy  Dy4  1  0.000000  0.181869  0.500000  1
  Fe  Fe5  1  0.285434  0.285434  0.500000  1
  Fe  Fe6  1  0.714566  0.000000  0.500000  1
  Fe  Fe7  1  0.000000  0.714566  0.500000  1
  P  P8  1  0.686627  0.162409  0.500000  1
  P  P9  1  0.837591  0.524218  0.500000  1
  P  P10  1  0.475782  0.313373  0.500000  1
  P  P11  1  0.162409  0.686627  0.500000  1
  P  P12  1  0.524218  0.837591  0.500000  1
  P  P13  1  0.313373  0.475782  0.500000  1
  P  P14  1  0.643031  0.643031  0.000000  1
  P  P15  1  0.356969  0.000000  0.000000  1
  P  P16  1  0.000000  0.356969  0.000000  1
  P  P17  1  0.182876  0.182876  0.000000  1
  P  P18  1  0.817124  0.000000  0.000000  1
  P  P19  1  0.000000  0.817124  0.000000  1
  Ir  Ir20  1  0.802757  0.177811  0.000000  1
  Ir  Ir21  1  0.822189  0.624946  0.000000  1
  Ir  Ir22  1  0.375054  0.197243  0.000000  1
  Ir  Ir23  1  0.177811  0.802757  0.000000  1
  Ir  Ir24  1  0.624946  0.822189  0.000000  1
  Ir  Ir25  1  0.197243  0.375054  0.000000  1
  Ir  Ir26  1  0.459344  0.459344  0.000000  1
  Ir  Ir27  1  0.540656  0.000000  0.000000  1
  Ir  Ir28  1  0.000000  0.540656  0.000000  1
  Ir  Ir29  1  0.867926  0.359930  0.500000  1
  Ir  Ir30  1  0.640070  0.507996  0.500000  1
  Ir  Ir31  1  0.492004  0.132074  0.500000  1
  Ir  Ir32  1  0.359930  0.867926  0.500000  1
  Ir  Ir33  1  0.507996  0.640070  0.500000  1
  Ir  Ir34  1  0.132074  0.492004  0.500000  1
  Ir  Ir35  1  0.000000  0.000000  0.000000  1
