# generated using pymatgen
data_HoEr4Tc2C7
_symmetry_space_group_name_H-M   'P 1'
_cell_length_a   8.24757720
_cell_length_b   8.23875926
_cell_length_c   3.42150400
_cell_angle_alpha   90.00000000
_cell_angle_beta   90.00000000
_cell_angle_gamma   122.25249674
_symmetry_Int_Tables_number   1
_chemical_formula_structural   HoEr4Tc2C7
_chemical_formula_sum   'Ho1 Er4 Tc2 C7'
_cell_volume   196.61829710
_cell_formula_units_Z   1
loop_
 _symmetry_equiv_pos_site_id
 _symmetry_equiv_pos_as_xyz
  1  'x, y, z'
loop_
 _atom_site_type_symbol
 _atom_site_label
 _atom_site_symmetry_multiplicity
 _atom_site_fract_x
 _atom_site_fract_y
 _atom_site_fract_z
 _atom_site_occupancy
  Ho  Ho0  1  0.076358  0.336126  0.500000  1
  Er  Er1  1  0.500163  0.500272  0.000000  1
  Er  Er2  1  0.922680  0.663120  0.500000  1
  Er  Er3  1  0.662213  0.922960  0.500000  1
  Er  Er4  1  0.337893  0.076972  0.500000  1
  Tc  Tc5  1  0.713768  0.286823  0.000000  1
  Tc  Tc6  1  0.286502  0.713968  0.000000  1
  C  C7  1  0.624917  0.375554  0.500000  1
  C  C8  1  0.375012  0.624795  0.500000  1
  C  C9  1  0.000167  0.999517  0.000000  1
  C  C10  1  0.171057  0.169186  0.000000  1
  C  C11  1  0.829073  0.829585  0.000000  1
  C  C12  1  0.999906  0.500803  0.000000  1
  C  C13  1  0.500291  0.000321  0.000000  1
