# generated using pymatgen
data_NaFe2(NiSb6)2
_symmetry_space_group_name_H-M   'P 1'
_cell_length_a   7.96522856
_cell_length_b   7.96522957
_cell_length_c   7.95102194
_cell_angle_alpha   109.46704585
_cell_angle_beta   109.48255957
_cell_angle_gamma   109.53634161
_symmetry_Int_Tables_number   1
_chemical_formula_structural   NaFe2(NiSb6)2
_chemical_formula_sum   'Na1 Fe2 Ni2 Sb12'
_cell_volume   387.98008309
_cell_formula_units_Z   1
loop_
 _symmetry_equiv_pos_site_id
 _symmetry_equiv_pos_as_xyz
  1  'x, y, z'
loop_
 _atom_site_type_symbol
 _atom_site_label
 _atom_site_symmetry_multiplicity
 _atom_site_fract_x
 _atom_site_fract_y
 _atom_site_fract_z
 _atom_site_occupancy
  Na  Na0  1  0.000000  0.000000  0.000000  1
  Fe  Fe1  1  0.000000  0.500000  0.000000  1
  Fe  Fe2  1  0.500000  0.000000  0.000000  1
  Ni  Ni3  1  0.000000  0.000000  0.500000  1
  Ni  Ni4  1  0.500000  0.500000  0.500000  1
  Sb  Sb5  1  0.660449  0.824408  0.156836  1
  Sb  Sb6  1  0.838339  0.332695  0.171034  1
  Sb  Sb7  1  0.503524  0.843537  0.667907  1
  Sb  Sb8  1  0.841278  0.660993  0.502271  1
  Sb  Sb9  1  0.496476  0.156463  0.332093  1
  Sb  Sb10  1  0.161661  0.667305  0.828966  1
  Sb  Sb11  1  0.824370  0.164383  0.667907  1
  Sb  Sb12  1  0.175630  0.835617  0.332093  1
  Sb  Sb13  1  0.158722  0.339007  0.497729  1
  Sb  Sb14  1  0.667573  0.503613  0.843164  1
  Sb  Sb15  1  0.332427  0.496387  0.156836  1
  Sb  Sb16  1  0.339551  0.175592  0.843164  1
