# generated using pymatgen
data_Yb2Pr2SmRu2
_symmetry_space_group_name_H-M   'P 1'
_cell_length_a   8.65366007
_cell_length_b   8.65366095
_cell_length_c   7.54459005
_cell_angle_alpha   83.29783069
_cell_angle_beta   83.29783034
_cell_angle_gamma   44.18170377
_symmetry_Int_Tables_number   1
_chemical_formula_structural   Yb2Pr2SmRu2
_chemical_formula_sum   'Yb4 Pr4 Sm2 Ru4'
_cell_volume   390.62115390
_cell_formula_units_Z   2
loop_
 _symmetry_equiv_pos_site_id
 _symmetry_equiv_pos_as_xyz
  1  'x, y, z'
loop_
 _atom_site_type_symbol
 _atom_site_label
 _atom_site_symmetry_multiplicity
 _atom_site_fract_x
 _atom_site_fract_y
 _atom_site_fract_z
 _atom_site_occupancy
  Yb  Yb0  1  0.371378  0.198653  0.818629  1
  Yb  Yb1  1  0.801347  0.628622  0.681371  1
  Yb  Yb2  1  0.628622  0.801347  0.181371  1
  Yb  Yb3  1  0.198653  0.371378  0.318629  1
  Pr  Pr4  1  0.024624  0.792803  0.918240  1
  Pr  Pr5  1  0.207197  0.975376  0.581760  1
  Pr  Pr6  1  0.975376  0.207197  0.081760  1
  Pr  Pr7  1  0.792803  0.024624  0.418240  1
  Sm  Sm8  1  0.575984  0.424016  0.750000  1
  Sm  Sm9  1  0.424016  0.575984  0.250000  1
  Ru  Ru10  1  0.177525  0.613698  0.579056  1
  Ru  Ru11  1  0.386302  0.822475  0.920944  1
  Ru  Ru12  1  0.822475  0.386302  0.420944  1
  Ru  Ru13  1  0.613698  0.177525  0.079056  1
