# generated using pymatgen
data_Rb2BaNpO6
_symmetry_space_group_name_H-M   'P 1'
_cell_length_a   6.55059979
_cell_length_b   6.55059925
_cell_length_c   6.55031100
_cell_angle_alpha   60.00027322
_cell_angle_beta   60.00028287
_cell_angle_gamma   90.00299795
_symmetry_Int_Tables_number   1
_chemical_formula_structural   Rb2BaNpO6
_chemical_formula_sum   'Rb2 Ba1 Np1 O6'
_cell_volume   198.74733218
_cell_formula_units_Z   1
loop_
 _symmetry_equiv_pos_site_id
 _symmetry_equiv_pos_as_xyz
  1  'x, y, z'
loop_
 _atom_site_type_symbol
 _atom_site_label
 _atom_site_symmetry_multiplicity
 _atom_site_fract_x
 _atom_site_fract_y
 _atom_site_fract_z
 _atom_site_occupancy
  Rb  Rb0  1  0.250003  0.750001  0.499998  1
  Rb  Rb1  1  0.750000  0.250000  0.500000  1
  Ba  Ba2  1  0.500000  0.500000  0.000000  1
  Np  Np3  1  0.000000  0.000000  0.000000  1
  O  O4  1  0.783892  0.216108  0.000000  1
  O  O5  1  0.216110  0.216110  0.000000  1
  O  O6  1  0.216109  0.783891  0.000000  1
  O  O7  1  0.783890  0.783890  0.000000  1
  O  O8  1  0.783889  0.783889  0.432222  1
  O  O9  1  0.216111  0.216111  0.567777  1
