# generated using pymatgen
data_La10Al(CdRu2)3
_symmetry_space_group_name_H-M   'P 1'
_cell_length_a   8.71665975
_cell_length_b   8.71665909
_cell_length_c   8.81454400
_cell_angle_alpha   109.69885885
_cell_angle_beta   109.69885730
_cell_angle_gamma   109.24262608
_symmetry_Int_Tables_number   1
_chemical_formula_structural   La10Al(CdRu2)3
_chemical_formula_sum   'La10 Al1 Cd3 Ru6'
_cell_volume   514.10320788
_cell_formula_units_Z   1
loop_
 _symmetry_equiv_pos_site_id
 _symmetry_equiv_pos_as_xyz
  1  'x, y, z'
loop_
 _atom_site_type_symbol
 _atom_site_label
 _atom_site_symmetry_multiplicity
 _atom_site_fract_x
 _atom_site_fract_y
 _atom_site_fract_z
 _atom_site_occupancy
  La  La0  1  0.252112  0.691258  0.439007  1
  La  La1  1  0.748587  0.817278  0.063192  1
  La  La2  1  0.439148  0.247888  0.686894  1
  La  La3  1  0.682722  0.431309  0.245914  1
  La  La4  1  0.068692  0.751413  0.814605  1
  La  La5  1  0.808742  0.060853  0.747747  1
  La  La6  1  0.208705  0.206841  0.210169  1
  La  La7  1  0.500001  0.000000  0.285637  1
  La  La8  1  0.293159  0.501866  0.003328  1
  La  La9  1  0.998135  0.291295  0.501465  1
  Al  Al10  1  0.500001  0.000000  0.913340  1
  Cd  Cd11  1  0.588697  0.588884  0.589429  1
  Cd  Cd12  1  0.911116  0.499813  0.000545  1
  Cd  Cd13  1  0.000188  0.911303  0.500734  1
  Ru  Ru14  1  0.268701  0.129233  0.892059  1
  Ru  Ru15  1  0.755100  0.359866  0.611572  1
  Ru  Ru16  1  0.860533  0.231301  0.123359  1
  Ru  Ru17  1  0.140133  0.895234  0.251707  1
  Ru  Ru18  1  0.604765  0.744900  0.356471  1
  Ru  Ru19  1  0.370766  0.639466  0.762826  1
