# generated using pymatgen
data_Ca3Zr2Si12Ir19
_symmetry_space_group_name_H-M   'P 1'
_cell_length_a   12.78925300
_cell_length_b   12.82560674
_cell_length_c   3.96656400
_cell_angle_alpha   90.00000000
_cell_angle_beta   90.00000000
_cell_angle_gamma   119.90628858
_symmetry_Int_Tables_number   1
_chemical_formula_structural   Ca3Zr2Si12Ir19
_chemical_formula_sum   'Ca3 Zr2 Si12 Ir19'
_cell_volume   563.99794987
_cell_formula_units_Z   1
loop_
 _symmetry_equiv_pos_site_id
 _symmetry_equiv_pos_as_xyz
  1  'x, y, z'
loop_
 _atom_site_type_symbol
 _atom_site_label
 _atom_site_symmetry_multiplicity
 _atom_site_fract_x
 _atom_site_fract_y
 _atom_site_fract_z
 _atom_site_occupancy
  Ca  Ca0  1  0.184944  0.000000  0.500000  1
  Ca  Ca1  1  0.667635  0.333771  0.000000  1
  Ca  Ca2  1  0.333863  0.666229  0.000000  1
  Zr  Zr3  1  0.001046  0.183672  0.500000  1
  Zr  Zr4  1  0.817374  0.816328  0.500000  1
  Si  Si5  1  0.480040  0.313460  0.500000  1
  Si  Si6  1  0.820527  0.000000  0.000000  1
  Si  Si7  1  0.178982  0.179863  0.000000  1
  Si  Si8  1  0.999119  0.820137  0.000000  1
  Si  Si9  1  0.369644  0.000000  0.000000  1
  Si  Si10  1  0.686912  0.166875  0.500000  1
  Si  Si11  1  0.832955  0.518171  0.500000  1
  Si  Si12  1  0.520037  0.833125  0.500000  1
  Si  Si13  1  0.166581  0.686540  0.500000  1
  Si  Si14  1  0.314785  0.481829  0.500000  1
  Si  Si15  1  0.999270  0.367625  0.000000  1
  Si  Si16  1  0.631644  0.632375  0.000000  1
  Ir  Ir17  1  0.810721  0.181051  0.000000  1
  Ir  Ir18  1  0.377472  0.195359  0.000000  1
  Ir  Ir19  1  0.640092  0.514217  0.500000  1
  Ir  Ir20  1  0.873822  0.357721  0.500000  1
  Ir  Ir21  1  0.360486  0.874134  0.500000  1
  Ir  Ir22  1  0.516101  0.642279  0.500000  1
  Ir  Ir23  1  0.125876  0.485783  0.500000  1
  Ir  Ir24  1  0.816667  0.628083  0.000000  1
  Ir  Ir25  1  0.629671  0.818949  0.000000  1
  Ir  Ir26  1  0.182114  0.804641  0.000000  1
  Ir  Ir27  1  0.188585  0.371917  0.000000  1
  Ir  Ir28  1  0.996725  0.717700  0.500000  1
  Ir  Ir29  1  0.279026  0.282300  0.500000  1
  Ir  Ir30  1  0.720733  0.000000  0.500000  1
  Ir  Ir31  1  0.994177  0.550629  0.000000  1
  Ir  Ir32  1  0.443548  0.449371  0.000000  1
  Ir  Ir33  1  0.555586  0.000000  0.000000  1
  Ir  Ir34  1  0.996889  0.000000  0.000000  1
  Ir  Ir35  1  0.486352  0.125866  0.500000  1
