# generated using pymatgen
data_Nd8Dy12Si15Se
_symmetry_space_group_name_H-M   'P 1'
_cell_length_a   7.61493958
_cell_length_b   7.76525533
_cell_length_c   14.80290158
_cell_angle_alpha   89.75929183
_cell_angle_beta   86.92137358
_cell_angle_gamma   89.97237751
_symmetry_Int_Tables_number   1
_chemical_formula_structural   Nd8Dy12Si15Se
_chemical_formula_sum   'Nd8 Dy12 Si15 Se1'
_cell_volume   874.05340543
_cell_formula_units_Z   1
loop_
 _symmetry_equiv_pos_site_id
 _symmetry_equiv_pos_as_xyz
  1  'x, y, z'
loop_
 _atom_site_type_symbol
 _atom_site_label
 _atom_site_symmetry_multiplicity
 _atom_site_fract_x
 _atom_site_fract_y
 _atom_site_fract_z
 _atom_site_occupancy
  Nd  Nd0  1  0.999321  0.824603  0.100273  1
  Nd  Nd1  1  0.474627  0.681859  0.398932  1
  Nd  Nd2  1  0.497384  0.315630  0.900234  1
  Nd  Nd3  1  0.024568  0.180643  0.601009  1
  Nd  Nd4  1  0.004398  0.178567  0.901326  1
  Nd  Nd5  1  0.524511  0.317144  0.600556  1
  Nd  Nd6  1  0.494100  0.685907  0.100681  1
  Nd  Nd7  1  0.974983  0.816977  0.399502  1
  Dy  Dy8  1  0.666332  0.993673  0.246170  1
  Dy  Dy9  1  0.164403  0.506310  0.245008  1
  Dy  Dy10  1  0.836127  0.492732  0.748582  1
  Dy  Dy11  1  0.332739  0.007069  0.752864  1
  Dy  Dy12  1  0.647995  0.836610  0.878134  1
  Dy  Dy13  1  0.176203  0.677236  0.623307  1
  Dy  Dy14  1  0.849856  0.332683  0.119206  1
  Dy  Dy15  1  0.323374  0.177286  0.377696  1
  Dy  Dy16  1  0.349790  0.167686  0.120992  1
  Dy  Dy17  1  0.824683  0.321748  0.377642  1
  Dy  Dy18  1  0.155128  0.667353  0.881552  1
  Dy  Dy19  1  0.676610  0.821837  0.623311  1
  Si  Si20  1  0.780969  0.621656  0.250952  1
  Si  Si21  1  0.280251  0.877303  0.251707  1
  Si  Si22  1  0.717654  0.124439  0.749170  1
  Si  Si23  1  0.217397  0.376807  0.749716  1
  Si  Si24  1  0.040836  0.113468  0.251409  1
  Si  Si25  1  0.542571  0.387313  0.251178  1
  Si  Si26  1  0.459432  0.611682  0.750485  1
  Si  Si27  1  0.958921  0.884986  0.750538  1
  Si  Si28  1  0.358646  0.969072  0.541680  1
  Si  Si29  1  0.693499  0.038467  0.041936  1
  Si  Si30  1  0.143126  0.469160  0.459438  1
  Si  Si31  1  0.201341  0.463172  0.044339  1
  Si  Si32  1  0.642633  0.029016  0.458727  1
  Si  Si33  1  0.308907  0.963540  0.955911  1
  Si  Si34  1  0.858357  0.528662  0.541949  1
  Se  Se35  1  0.798329  0.537701  0.953887  1
