# generated using pymatgen
data_Y4Al18RePd4Rh
_symmetry_space_group_name_H-M   'P 1'
_cell_length_a   7.61843949
_cell_length_b   7.61843949
_cell_length_c   9.51914923
_cell_angle_alpha   89.82766678
_cell_angle_beta   89.82766414
_cell_angle_gamma   119.37959883
_symmetry_Int_Tables_number   1
_chemical_formula_structural   Y4Al18RePd4Rh
_chemical_formula_sum   'Y4 Al18 Re1 Pd4 Rh1'
_cell_volume   481.43129391
_cell_formula_units_Z   1
loop_
 _symmetry_equiv_pos_site_id
 _symmetry_equiv_pos_as_xyz
  1  'x, y, z'
loop_
 _atom_site_type_symbol
 _atom_site_label
 _atom_site_symmetry_multiplicity
 _atom_site_fract_x
 _atom_site_fract_y
 _atom_site_fract_z
 _atom_site_occupancy
  Y  Y0  1  0.994364  0.671291  0.248694  1
  Y  Y1  1  0.005636  0.328709  0.751306  1
  Y  Y2  1  0.671291  0.994364  0.248694  1
  Y  Y3  1  0.328709  0.005636  0.751306  1
  Al  Al4  1  0.126860  0.126860  0.250179  1
  Al  Al5  1  0.873140  0.873140  0.749821  1
  Al  Al6  1  0.000465  0.330518  0.075574  1
  Al  Al7  1  0.999535  0.669482  0.924426  1
  Al  Al8  1  0.999527  0.668096  0.576479  1
  Al  Al9  1  0.331904  0.000473  0.423521  1
  Al  Al10  1  0.000473  0.331904  0.423521  1
  Al  Al11  1  0.668096  0.999527  0.576479  1
  Al  Al12  1  0.669482  0.999535  0.924426  1
  Al  Al13  1  0.330518  0.000465  0.075574  1
  Al  Al14  1  0.330339  0.330339  0.554405  1
  Al  Al15  1  0.669661  0.669661  0.445595  1
  Al  Al16  1  0.669407  0.669407  0.054007  1
  Al  Al17  1  0.330593  0.330593  0.945993  1
  Al  Al18  1  0.341289  0.547387  0.250210  1
  Al  Al19  1  0.658711  0.452613  0.749790  1
  Al  Al20  1  0.547387  0.341289  0.250210  1
  Al  Al21  1  0.452613  0.658711  0.749790  1
  Re  Re22  1  0.000000  0.000000  0.000000  1
  Pd  Pd23  1  0.671971  0.328029  0.000000  1
  Pd  Pd24  1  0.328029  0.671971  0.000000  1
  Pd  Pd25  1  0.327868  0.672132  0.500000  1
  Pd  Pd26  1  0.672132  0.327868  0.500000  1
  Rh  Rh27  1  0.000000  0.000000  0.500000  1
