# generated using pymatgen
data_Rb2LiReP2
_symmetry_space_group_name_H-M   'P 1'
_cell_length_a   11.41285998
_cell_length_b   11.41285900
_cell_length_c   11.41285861
_cell_angle_alpha   150.41248869
_cell_angle_beta   149.86106532
_cell_angle_gamma   42.74236109
_symmetry_Int_Tables_number   1
_chemical_formula_structural   Rb2LiReP2
_chemical_formula_sum   'Rb4 Li2 Re2 P4'
_cell_volume   367.60444047
_cell_formula_units_Z   2
loop_
 _symmetry_equiv_pos_site_id
 _symmetry_equiv_pos_as_xyz
  1  'x, y, z'
loop_
 _atom_site_type_symbol
 _atom_site_label
 _atom_site_symmetry_multiplicity
 _atom_site_fract_x
 _atom_site_fract_y
 _atom_site_fract_z
 _atom_site_occupancy
  Rb  Rb0  1  0.114130  0.848446  0.265684  1
  Rb  Rb1  1  0.885870  0.151554  0.734316  1
  Rb  Rb2  1  0.417237  0.651554  0.765684  1
  Rb  Rb3  1  0.582763  0.348446  0.234316  1
  Li  Li4  1  0.500000  0.250000  0.750000  1
  Li  Li5  1  0.500000  0.750000  0.250000  1
  Re  Re6  1  0.000000  0.250000  0.250000  1
  Re  Re7  1  0.000000  0.750000  0.750000  1
  P  P8  1  0.725230  0.938020  0.787208  1
  P  P9  1  0.150812  0.438020  0.712792  1
  P  P10  1  0.849188  0.561980  0.287208  1
  P  P11  1  0.274770  0.061980  0.212792  1
