# generated using pymatgen
data_Dy10Y6Cd4RuPt3
_symmetry_space_group_name_H-M   'P 1'
_cell_length_a   9.71807808
_cell_length_b   9.71807757
_cell_length_c   9.71807824
_cell_angle_alpha   59.64662540
_cell_angle_beta   59.64663098
_cell_angle_gamma   59.64662605
_symmetry_Int_Tables_number   1
_chemical_formula_structural   Dy10Y6Cd4RuPt3
_chemical_formula_sum   'Dy10 Y6 Cd4 Ru1 Pt3'
_cell_volume   643.76137483
_cell_formula_units_Z   1
loop_
 _symmetry_equiv_pos_site_id
 _symmetry_equiv_pos_as_xyz
  1  'x, y, z'
loop_
 _atom_site_type_symbol
 _atom_site_label
 _atom_site_symmetry_multiplicity
 _atom_site_fract_x
 _atom_site_fract_y
 _atom_site_fract_z
 _atom_site_occupancy
  Dy  Dy0  1  0.351713  0.351713  0.351713  1
  Dy  Dy1  1  0.349549  0.349549  0.948332  1
  Dy  Dy2  1  0.349549  0.948332  0.349549  1
  Dy  Dy3  1  0.948332  0.349549  0.349549  1
  Dy  Dy4  1  0.814773  0.188946  0.188946  1
  Dy  Dy5  1  0.189059  0.809748  0.809748  1
  Dy  Dy6  1  0.188946  0.814773  0.188946  1
  Dy  Dy7  1  0.809748  0.189059  0.809748  1
  Dy  Dy8  1  0.188946  0.188946  0.814773  1
  Dy  Dy9  1  0.809748  0.809748  0.189059  1
  Y  Y10  1  0.936206  0.564880  0.564880  1
  Y  Y11  1  0.560379  0.936783  0.936783  1
  Y  Y12  1  0.564880  0.936206  0.564880  1
  Y  Y13  1  0.936783  0.560379  0.936783  1
  Y  Y14  1  0.564880  0.564880  0.936206  1
  Y  Y15  1  0.936783  0.936783  0.560379  1
  Cd  Cd16  1  0.580300  0.580300  0.580300  1
  Cd  Cd17  1  0.581270  0.581270  0.254445  1
  Cd  Cd18  1  0.581270  0.254445  0.581270  1
  Cd  Cd19  1  0.254445  0.581270  0.581270  1
  Ru  Ru20  1  0.143116  0.143116  0.143116  1
  Pt  Pt21  1  0.143774  0.143774  0.571774  1
  Pt  Pt22  1  0.143774  0.571774  0.143774  1
  Pt  Pt23  1  0.571774  0.143774  0.143774  1
