# generated using pymatgen
data_Nd2NpOs2
_symmetry_space_group_name_H-M   'P 1'
_cell_length_a   6.05823308
_cell_length_b   6.05823366
_cell_length_c   6.05823399
_cell_angle_alpha   138.56289449
_cell_angle_beta   123.64095371
_cell_angle_gamma   72.32187428
_symmetry_Int_Tables_number   1
_chemical_formula_structural   Nd2NpOs2
_chemical_formula_sum   'Nd2 Np1 Os2'
_cell_volume   119.96543292
_cell_formula_units_Z   1
loop_
 _symmetry_equiv_pos_site_id
 _symmetry_equiv_pos_as_xyz
  1  'x, y, z'
loop_
 _atom_site_type_symbol
 _atom_site_label
 _atom_site_symmetry_multiplicity
 _atom_site_fract_x
 _atom_site_fract_y
 _atom_site_fract_z
 _atom_site_occupancy
  Nd  Nd0  1  0.698290  0.198289  0.500001  1
  Nd  Nd1  1  0.301711  0.801710  0.500000  1
  Np  Np2  1  0.000000  0.000000  0.000000  1
  Os  Os3  1  0.740437  0.500000  0.240438  1
  Os  Os4  1  0.259563  0.500000  0.759563  1
