# generated using pymatgen
data_Hf4GaPRh10
_symmetry_space_group_name_H-M   'P 1'
_cell_length_a   4.03683200
_cell_length_b   5.57506045
_cell_length_c   10.90604227
_cell_angle_alpha   90.57134888
_cell_angle_beta   90.00000000
_cell_angle_gamma   90.00000000
_symmetry_Int_Tables_number   1
_chemical_formula_structural   Hf4GaPRh10
_chemical_formula_sum   'Hf4 Ga1 P1 Rh10'
_cell_volume   245.43462967
_cell_formula_units_Z   1
loop_
 _symmetry_equiv_pos_site_id
 _symmetry_equiv_pos_as_xyz
  1  'x, y, z'
loop_
 _atom_site_type_symbol
 _atom_site_label
 _atom_site_symmetry_multiplicity
 _atom_site_fract_x
 _atom_site_fract_y
 _atom_site_fract_z
 _atom_site_occupancy
  Hf  Hf0  1  0.500000  0.176816  0.641833  1
  Hf  Hf1  1  0.500000  0.823184  0.358167  1
  Hf  Hf2  1  0.500000  0.686752  0.861496  1
  Hf  Hf3  1  0.500000  0.313248  0.138504  1
  Ga  Ga4  1  0.000000  0.000000  0.000000  1
  P  P5  1  0.000000  0.500000  0.500000  1
  Rh  Rh6  1  0.500000  0.194853  0.889352  1
  Rh  Rh7  1  0.500000  0.805147  0.110648  1
  Rh  Rh8  1  0.500000  0.679627  0.600338  1
  Rh  Rh9  1  0.500000  0.320373  0.399662  1
  Rh  Rh10  1  0.000000  0.437932  0.739404  1
  Rh  Rh11  1  0.000000  0.562068  0.260596  1
  Rh  Rh12  1  0.000000  0.000000  0.500000  1
  Rh  Rh13  1  0.000000  0.500000  0.000000  1
  Rh  Rh14  1  0.000000  0.064539  0.246876  1
  Rh  Rh15  1  0.000000  0.935461  0.753124  1
