# generated using pymatgen
data_Sc22Os3Ru2Rh3
_symmetry_space_group_name_H-M   'P 1'
_cell_length_a   9.47788440
_cell_length_b   9.47734521
_cell_length_c   9.47137813
_cell_angle_alpha   60.02458413
_cell_angle_beta   60.01894193
_cell_angle_gamma   60.11359577
_symmetry_Int_Tables_number   1
_chemical_formula_structural   Sc22Os3Ru2Rh3
_chemical_formula_sum   'Sc22 Os3 Ru2 Rh3'
_cell_volume   602.29709155
_cell_formula_units_Z   1
loop_
 _symmetry_equiv_pos_site_id
 _symmetry_equiv_pos_as_xyz
  1  'x, y, z'
loop_
 _atom_site_type_symbol
 _atom_site_label
 _atom_site_symmetry_multiplicity
 _atom_site_fract_x
 _atom_site_fract_y
 _atom_site_fract_z
 _atom_site_occupancy
  Sc  Sc0  1  0.802822  0.802822  0.197178  1
  Sc  Sc1  1  0.196830  0.803170  0.197890  1
  Sc  Sc2  1  0.803965  0.196035  0.197199  1
  Sc  Sc3  1  0.197178  0.197178  0.802822  1
  Sc  Sc4  1  0.803170  0.196830  0.802110  1
  Sc  Sc5  1  0.196035  0.803965  0.802801  1
  Sc  Sc6  1  0.615000  0.619014  0.151010  1
  Sc  Sc7  1  0.616910  0.150961  0.617987  1
  Sc  Sc8  1  0.150961  0.616910  0.614144  1
  Sc  Sc9  1  0.619014  0.615000  0.614977  1
  Sc  Sc10  1  0.385000  0.380986  0.848990  1
  Sc  Sc11  1  0.383090  0.849039  0.382013  1
  Sc  Sc12  1  0.849039  0.383090  0.385856  1
  Sc  Sc13  1  0.380986  0.385000  0.385023  1
  Sc  Sc14  1  0.844977  0.842428  0.470613  1
  Sc  Sc15  1  0.844094  0.471003  0.841293  1
  Sc  Sc16  1  0.471003  0.844094  0.843609  1
  Sc  Sc17  1  0.842428  0.844977  0.841980  1
  Sc  Sc18  1  0.155023  0.157572  0.529387  1
  Sc  Sc19  1  0.155906  0.528997  0.158707  1
  Sc  Sc20  1  0.528997  0.155906  0.156391  1
  Sc  Sc21  1  0.157572  0.155023  0.158020  1
  Os  Os22  1  0.500000  0.500000  0.500000  1
  Os  Os23  1  0.000000  0.500000  0.500000  1
  Os  Os24  1  0.500000  0.000000  0.000000  1
  Ru  Ru25  1  0.000000  0.000000  0.000000  1
  Ru  Ru26  1  0.000000  0.000000  0.500000  1
  Rh  Rh27  1  0.500000  0.000000  0.500000  1
  Rh  Rh28  1  0.500000  0.500000  0.000000  1
  Rh  Rh29  1  0.000000  0.500000  0.000000  1
