# generated using pymatgen
data_Ac3Pu3Se8
_symmetry_space_group_name_H-M   'P 1'
_cell_length_a   7.92482647
_cell_length_b   7.91705076
_cell_length_c   7.92534551
_cell_angle_alpha   109.40797678
_cell_angle_beta   109.48478083
_cell_angle_gamma   109.56811407
_symmetry_Int_Tables_number   1
_chemical_formula_structural   Ac3Pu3Se8
_chemical_formula_sum   'Ac3 Pu3 Se8'
_cell_volume   382.55649181
_cell_formula_units_Z   1
loop_
 _symmetry_equiv_pos_site_id
 _symmetry_equiv_pos_as_xyz
  1  'x, y, z'
loop_
 _atom_site_type_symbol
 _atom_site_label
 _atom_site_symmetry_multiplicity
 _atom_site_fract_x
 _atom_site_fract_y
 _atom_site_fract_z
 _atom_site_occupancy
  Ac  Ac0  1  0.126426  0.875728  0.250386  1
  Ac  Ac1  1  0.374865  0.623854  0.750552  1
  Ac  Ac2  1  0.873895  0.250127  0.124036  1
  Pu  Pu3  1  0.628509  0.750122  0.378750  1
  Pu  Pu4  1  0.247986  0.124832  0.873745  1
  Pu  Pu5  1  0.749171  0.375492  0.623731  1
  Se  Se6  1  0.360638  0.355101  0.348005  1
  Se  Se7  1  0.148549  0.493945  0.992665  1
  Se  Se8  1  0.992775  0.145014  0.505365  1
  Se  Se9  1  0.852198  0.845475  0.840055  1
  Se  Se10  1  0.498941  0.006265  0.154868  1
  Se  Se11  1  0.643587  0.493829  0.001777  1
  Se  Se12  1  0.508103  0.006243  0.649565  1
  Se  Se13  1  0.994356  0.653971  0.506501  1
