# generated using pymatgen
data_LaTbSm(Si3Pd10)2
_symmetry_space_group_name_H-M   'P 1'
_cell_length_a   8.76023384
_cell_length_b   8.76023370
_cell_length_c   8.76023500
_cell_angle_alpha   59.99999887
_cell_angle_beta   59.99999939
_cell_angle_gamma   60.00000343
_symmetry_Int_Tables_number   1
_chemical_formula_structural   LaTbSm(Si3Pd10)2
_chemical_formula_sum   'La1 Tb1 Sm1 Si6 Pd20'
_cell_volume   475.37042143
_cell_formula_units_Z   1
loop_
 _symmetry_equiv_pos_site_id
 _symmetry_equiv_pos_as_xyz
  1  'x, y, z'
loop_
 _atom_site_type_symbol
 _atom_site_label
 _atom_site_symmetry_multiplicity
 _atom_site_fract_x
 _atom_site_fract_y
 _atom_site_fract_z
 _atom_site_occupancy
  La  La0  1  0.250000  0.250000  0.250000  1
  Tb  Tb1  1  0.000000  0.000000  0.000000  1
  Sm  Sm2  1  0.750000  0.750000  0.750000  1
  Si  Si3  1  0.733613  0.733613  0.266387  1
  Si  Si4  1  0.266387  0.266387  0.733613  1
  Si  Si5  1  0.733613  0.266387  0.733613  1
  Si  Si6  1  0.266387  0.733613  0.266387  1
  Si  Si7  1  0.266387  0.733613  0.733613  1
  Si  Si8  1  0.733613  0.266387  0.266387  1
  Pd  Pd9  1  0.614962  0.614962  0.614962  1
  Pd  Pd10  1  0.385475  0.385475  0.385475  1
  Pd  Pd11  1  0.155111  0.614962  0.614962  1
  Pd  Pd12  1  0.614962  0.155111  0.614962  1
  Pd  Pd13  1  0.843576  0.385475  0.385475  1
  Pd  Pd14  1  0.385475  0.843576  0.385475  1
  Pd  Pd15  1  0.614962  0.614962  0.155111  1
  Pd  Pd16  1  0.385475  0.385475  0.843576  1
  Pd  Pd17  1  0.999666  0.999666  0.654597  1
  Pd  Pd18  1  0.999666  0.999666  0.346071  1
  Pd  Pd19  1  0.346071  0.654597  0.999666  1
  Pd  Pd20  1  0.654597  0.346071  0.999666  1
  Pd  Pd21  1  0.999666  0.654597  0.999666  1
  Pd  Pd22  1  0.654597  0.999666  0.346071  1
  Pd  Pd23  1  0.999666  0.346071  0.999666  1
  Pd  Pd24  1  0.346071  0.999666  0.654597  1
  Pd  Pd25  1  0.654597  0.999666  0.999666  1
  Pd  Pd26  1  0.346071  0.999666  0.999666  1
  Pd  Pd27  1  0.999666  0.654597  0.346071  1
  Pd  Pd28  1  0.999666  0.346071  0.654597  1
