# generated using pymatgen
data_Y13Th3(CdCo)4
_symmetry_space_group_name_H-M   'P 1'
_cell_length_a   9.58669889
_cell_length_b   9.60992452
_cell_length_c   9.60992400
_cell_angle_alpha   60.00000177
_cell_angle_beta   59.91982734
_cell_angle_gamma   59.91983035
_symmetry_Int_Tables_number   1
_chemical_formula_structural   Y13Th3(CdCo)4
_chemical_formula_sum   'Y13 Th3 Cd4 Co4'
_cell_volume   625.26869797
_cell_formula_units_Z   1
loop_
 _symmetry_equiv_pos_site_id
 _symmetry_equiv_pos_as_xyz
  1  'x, y, z'
loop_
 _atom_site_type_symbol
 _atom_site_label
 _atom_site_symmetry_multiplicity
 _atom_site_fract_x
 _atom_site_fract_y
 _atom_site_fract_z
 _atom_site_occupancy
  Y  Y0  1  0.953482  0.348839  0.348839  1
  Y  Y1  1  0.811952  0.188594  0.188594  1
  Y  Y2  1  0.188685  0.812009  0.812009  1
  Y  Y3  1  0.188685  0.812009  0.187295  1
  Y  Y4  1  0.811952  0.188594  0.810859  1
  Y  Y5  1  0.188685  0.187295  0.812009  1
  Y  Y6  1  0.811952  0.810859  0.188594  1
  Y  Y7  1  0.935915  0.564196  0.564196  1
  Y  Y8  1  0.562357  0.937121  0.937121  1
  Y  Y9  1  0.562357  0.937121  0.563400  1
  Y  Y10  1  0.935915  0.564196  0.935693  1
  Y  Y11  1  0.562357  0.563400  0.937121  1
  Y  Y12  1  0.935915  0.935693  0.564196  1
  Th  Th13  1  0.341721  0.346534  0.346534  1
  Th  Th14  1  0.341721  0.346534  0.965212  1
  Th  Th15  1  0.341721  0.965212  0.346534  1
  Cd  Cd16  1  0.582256  0.580476  0.580476  1
  Cd  Cd17  1  0.582256  0.580476  0.256792  1
  Cd  Cd18  1  0.582256  0.256792  0.580476  1
  Cd  Cd19  1  0.254139  0.581954  0.581954  1
  Co  Co20  1  0.152834  0.139238  0.139238  1
  Co  Co21  1  0.152834  0.139238  0.568689  1
  Co  Co22  1  0.152834  0.568689  0.139238  1
  Co  Co23  1  0.565210  0.144930  0.144930  1
