# generated using pymatgen
data_Yb3MoN4
_symmetry_space_group_name_H-M   'P 1'
_cell_length_a   6.43886209
_cell_length_b   6.43886215
_cell_length_c   6.37776655
_cell_angle_alpha   91.68473929
_cell_angle_beta   91.68473625
_cell_angle_gamma   76.59098564
_symmetry_Int_Tables_number   1
_chemical_formula_structural   Yb3MoN4
_chemical_formula_sum   'Yb6 Mo2 N8'
_cell_volume   257.02682052
_cell_formula_units_Z   2
loop_
 _symmetry_equiv_pos_site_id
 _symmetry_equiv_pos_as_xyz
  1  'x, y, z'
loop_
 _atom_site_type_symbol
 _atom_site_label
 _atom_site_symmetry_multiplicity
 _atom_site_fract_x
 _atom_site_fract_y
 _atom_site_fract_z
 _atom_site_occupancy
  Yb  Yb0  1  0.164575  0.608652  0.185955  1
  Yb  Yb1  1  0.835425  0.391348  0.814045  1
  Yb  Yb2  1  0.391348  0.835425  0.814045  1
  Yb  Yb3  1  0.608652  0.164575  0.185955  1
  Yb  Yb4  1  0.113365  0.113365  0.309422  1
  Yb  Yb5  1  0.886635  0.886635  0.690578  1
  Mo  Mo6  1  0.683324  0.683324  0.318910  1
  Mo  Mo7  1  0.316676  0.316676  0.681090  1
  N  N8  1  0.128124  0.128124  0.685836  1
  N  N9  1  0.871876  0.871876  0.314164  1
  N  N10  1  0.574480  0.164566  0.812599  1
  N  N11  1  0.425520  0.835434  0.187401  1
  N  N12  1  0.835434  0.425520  0.187401  1
  N  N13  1  0.164566  0.574480  0.812599  1
  N  N14  1  0.337753  0.337753  0.395027  1
  N  N15  1  0.662247  0.662247  0.604973  1
