# generated using pymatgen
data_Tm5Sc3Au4
_symmetry_space_group_name_H-M   'P 1'
_cell_length_a   4.77202400
_cell_length_b   6.96104434
_cell_length_c   8.61674050
_cell_angle_alpha   90.03735416
_cell_angle_beta   90.00000000
_cell_angle_gamma   90.00000000
_symmetry_Int_Tables_number   1
_chemical_formula_structural   Tm5Sc3Au4
_chemical_formula_sum   'Tm5 Sc3 Au4'
_cell_volume   286.23315716
_cell_formula_units_Z   1
loop_
 _symmetry_equiv_pos_site_id
 _symmetry_equiv_pos_as_xyz
  1  'x, y, z'
loop_
 _atom_site_type_symbol
 _atom_site_label
 _atom_site_symmetry_multiplicity
 _atom_site_fract_x
 _atom_site_fract_y
 _atom_site_fract_z
 _atom_site_occupancy
  Tm  Tm0  1  0.750000  0.648104  0.422622  1
  Tm  Tm1  1  0.250000  0.479446  0.175418  1
  Tm  Tm2  1  0.250000  0.987644  0.319344  1
  Tm  Tm3  1  0.750000  0.517121  0.822461  1
  Tm  Tm4  1  0.750000  0.020909  0.683507  1
  Sc  Sc5  1  0.250000  0.853478  0.925260  1
  Sc  Sc6  1  0.250000  0.351739  0.578735  1
  Sc  Sc7  1  0.750000  0.147435  0.075104  1
  Au  Au8  1  0.250000  0.246782  0.895955  1
  Au  Au9  1  0.250000  0.751226  0.607873  1
  Au  Au10  1  0.750000  0.752676  0.097416  1
  Au  Au11  1  0.750000  0.243441  0.396307  1
