# generated using pymatgen
data_TbDy2Ho(Al3Ir)6
_symmetry_space_group_name_H-M   'P 1'
_cell_length_a   7.55303011
_cell_length_b   7.55460029
_cell_length_c   9.47767800
_cell_angle_alpha   90.00000000
_cell_angle_beta   90.00000000
_cell_angle_gamma   119.46913088
_symmetry_Int_Tables_number   1
_chemical_formula_structural   TbDy2Ho(Al3Ir)6
_chemical_formula_sum   'Tb1 Dy2 Ho1 Al18 Ir6'
_cell_volume   470.82957032
_cell_formula_units_Z   1
loop_
 _symmetry_equiv_pos_site_id
 _symmetry_equiv_pos_as_xyz
  1  'x, y, z'
loop_
 _atom_site_type_symbol
 _atom_site_label
 _atom_site_symmetry_multiplicity
 _atom_site_fract_x
 _atom_site_fract_y
 _atom_site_fract_z
 _atom_site_occupancy
  Tb  Tb0  1  0.994623  0.671419  0.250000  1
  Dy  Dy1  1  0.005431  0.328437  0.750000  1
  Dy  Dy2  1  0.671471  0.994606  0.250000  1
  Ho  Ho3  1  0.328395  0.005424  0.750000  1
  Al  Al4  1  0.129577  0.129658  0.250000  1
  Al  Al5  1  0.870771  0.870672  0.750000  1
  Al  Al6  1  0.001204  0.335152  0.073826  1
  Al  Al7  1  0.999108  0.664974  0.925449  1
  Al  Al8  1  0.999108  0.664974  0.574551  1
  Al  Al9  1  0.335301  0.001249  0.426435  1
  Al  Al10  1  0.001204  0.335152  0.426174  1
  Al  Al11  1  0.664467  0.998887  0.574338  1
  Al  Al12  1  0.664467  0.998887  0.925662  1
  Al  Al13  1  0.335301  0.001249  0.073565  1
  Al  Al14  1  0.333397  0.333195  0.551473  1
  Al  Al15  1  0.666527  0.666566  0.449483  1
  Al  Al16  1  0.666527  0.666566  0.050517  1
  Al  Al17  1  0.333397  0.333195  0.948527  1
  Al  Al18  1  0.339773  0.548315  0.250000  1
  Al  Al19  1  0.660060  0.451278  0.750000  1
  Al  Al20  1  0.548075  0.339296  0.250000  1
  Al  Al21  1  0.451624  0.660744  0.750000  1
  Ir  Ir22  1  0.671808  0.327951  0.999759  1
  Ir  Ir23  1  0.328051  0.671953  0.999783  1
  Ir  Ir24  1  0.328051  0.671953  0.500217  1
  Ir  Ir25  1  0.671808  0.327951  0.500241  1
  Ir  Ir26  1  0.000239  0.000148  0.999702  1
  Ir  Ir27  1  0.000239  0.000148  0.500298  1
