# generated using pymatgen
data_SF17
_symmetry_space_group_name_H-M   'P 1'
_cell_length_a   8.22302963
_cell_length_b   8.06542623
_cell_length_c   9.58702600
_cell_angle_alpha   82.76118179
_cell_angle_beta   87.24175165
_cell_angle_gamma   68.45490460
_symmetry_Int_Tables_number   1
_chemical_formula_structural   SF17
_chemical_formula_sum   'S2 F34'
_cell_volume   586.69167658
_cell_formula_units_Z   2
loop_
 _symmetry_equiv_pos_site_id
 _symmetry_equiv_pos_as_xyz
  1  'x, y, z'
loop_
 _atom_site_type_symbol
 _atom_site_label
 _atom_site_symmetry_multiplicity
 _atom_site_fract_x
 _atom_site_fract_y
 _atom_site_fract_z
 _atom_site_occupancy
  S  S0  1  0.884963  0.259235  0.753634  1
  S  S1  1  0.115037  0.740765  0.246366  1
  F  F2  1  0.647428  0.200845  0.449649  1
  F  F3  1  0.352572  0.799155  0.550351  1
  F  F4  1  0.787950  0.751344  0.704400  1
  F  F5  1  0.212050  0.248656  0.295600  1
  F  F6  1  0.068725  0.719265  0.879561  1
  F  F7  1  0.931275  0.280735  0.120439  1
  F  F8  1  0.571819  0.103904  0.375699  1
  F  F9  1  0.428181  0.896096  0.624301  1
  F  F10  1  0.692625  0.332887  0.688596  1
  F  F11  1  0.307375  0.667113  0.311404  1
  F  F12  1  0.942590  0.099076  0.657298  1
  F  F13  1  0.057410  0.900924  0.342702  1
  F  F14  1  0.943003  0.380491  0.632193  1
  F  F15  1  0.056997  0.619509  0.367807  1
  F  F16  1  0.857351  0.815227  0.579254  1
  F  F17  1  0.142649  0.184773  0.420746  1
  F  F18  1  0.827383  0.420010  0.849108  1
  F  F19  1  0.172617  0.579990  0.150892  1
  F  F20  1  0.185058  0.761211  0.778870  1
  F  F21  1  0.814942  0.238789  0.221130  1
  F  F22  1  0.922893  0.814815  0.180986  1
  F  F23  1  0.077107  0.185185  0.819014  1
  F  F24  1  0.827360  0.137314  0.875048  1
  F  F25  1  0.172640  0.862686  0.124952  1
  F  F26  1  0.510202  0.579478  0.016555  1
  F  F27  1  0.489798  0.420522  0.983445  1
  F  F28  1  0.421479  0.140467  0.883586  1
  F  F29  1  0.578521  0.859533  0.116414  1
  F  F30  1  0.315753  0.318562  0.593625  1
  F  F31  1  0.684247  0.681438  0.406375  1
  F  F32  1  0.294060  0.477262  0.655693  1
  F  F33  1  0.705940  0.522738  0.344307  1
  F  F34  1  0.560622  0.010633  0.816562  1
  F  F35  1  0.439378  0.989367  0.183438  1
