# generated using pymatgen
data_LaNd5Cd4Pd13
_symmetry_space_group_name_H-M   'P 1'
_cell_length_a   8.57327703
_cell_length_b   8.57327631
_cell_length_c   8.57327627
_cell_angle_alpha   109.46661342
_cell_angle_beta   109.47352412
_cell_angle_gamma   109.47352280
_symmetry_Int_Tables_number   1
_chemical_formula_structural   LaNd5Cd4Pd13
_chemical_formula_sum   'La1 Nd5 Cd4 Pd13'
_cell_volume   485.08585737
_cell_formula_units_Z   1
loop_
 _symmetry_equiv_pos_site_id
 _symmetry_equiv_pos_as_xyz
  1  'x, y, z'
loop_
 _atom_site_type_symbol
 _atom_site_label
 _atom_site_symmetry_multiplicity
 _atom_site_fract_x
 _atom_site_fract_y
 _atom_site_fract_z
 _atom_site_occupancy
  La  La0  1  0.000000  0.301413  0.301413  1
  Nd  Nd1  1  0.000000  0.699215  0.699215  1
  Nd  Nd2  1  0.301661  0.999750  0.301410  1
  Nd  Nd3  1  0.698339  0.698089  0.999750  1
  Nd  Nd4  1  0.698339  0.999750  0.698089  1
  Nd  Nd5  1  0.301661  0.301410  0.999750  1
  Cd  Cd6  1  0.000000  0.999316  0.501681  1
  Cd  Cd7  1  0.497636  0.999316  0.999316  1
  Cd  Cd8  1  0.000000  0.501681  0.999316  1
  Cd  Cd9  1  0.502364  0.501681  0.501681  1
  Pd  Pd10  1  0.342111  0.657847  0.999958  1
  Pd  Pd11  1  0.000000  0.341662  0.657873  1
  Pd  Pd12  1  0.657293  0.999598  0.342305  1
  Pd  Pd13  1  0.316209  0.657873  0.657873  1
  Pd  Pd14  1  0.657889  0.315734  0.657847  1
  Pd  Pd15  1  0.683791  0.341662  0.341662  1
  Pd  Pd16  1  0.342707  0.685013  0.342305  1
  Pd  Pd17  1  0.342707  0.342305  0.685013  1
  Pd  Pd18  1  0.000000  0.657873  0.341662  1
  Pd  Pd19  1  0.657889  0.657847  0.315734  1
  Pd  Pd20  1  0.342111  0.999958  0.657847  1
  Pd  Pd21  1  0.000000  0.998703  0.998703  1
  Pd  Pd22  1  0.657293  0.342305  0.999598  1
