# generated using pymatgen
data_YTiCo4As3
_symmetry_space_group_name_H-M   'P 1'
_cell_length_a   3.79405200
_cell_length_b   10.83272800
_cell_length_c   12.39206100
_cell_angle_alpha   90.00000000
_cell_angle_beta   90.00000000
_cell_angle_gamma   90.00000000
_symmetry_Int_Tables_number   1
_chemical_formula_structural   YTiCo4As3
_chemical_formula_sum   'Y4 Ti4 Co16 As12'
_cell_volume   509.31288097
_cell_formula_units_Z   4
loop_
 _symmetry_equiv_pos_site_id
 _symmetry_equiv_pos_as_xyz
  1  'x, y, z'
loop_
 _atom_site_type_symbol
 _atom_site_label
 _atom_site_symmetry_multiplicity
 _atom_site_fract_x
 _atom_site_fract_y
 _atom_site_fract_z
 _atom_site_occupancy
  Y  Y0  1  0.250000  0.919840  0.205831  1
  Y  Y1  1  0.750000  0.080160  0.794169  1
  Y  Y2  1  0.750000  0.419840  0.294169  1
  Y  Y3  1  0.250000  0.580160  0.705831  1
  Ti  Ti4  1  0.250000  0.800586  0.491301  1
  Ti  Ti5  1  0.750000  0.199414  0.508699  1
  Ti  Ti6  1  0.750000  0.300586  0.008699  1
  Ti  Ti7  1  0.250000  0.699414  0.991301  1
  Co  Co8  1  0.250000  0.095029  0.989380  1
  Co  Co9  1  0.750000  0.904971  0.010620  1
  Co  Co10  1  0.750000  0.595029  0.510620  1
  Co  Co11  1  0.250000  0.404971  0.489380  1
  Co  Co12  1  0.250000  0.282149  0.675422  1
  Co  Co13  1  0.750000  0.717851  0.324578  1
  Co  Co14  1  0.750000  0.782149  0.824578  1
  Co  Co15  1  0.250000  0.217851  0.175422  1
  Co  Co16  1  0.250000  0.615932  0.198439  1
  Co  Co17  1  0.750000  0.384068  0.801561  1
  Co  Co18  1  0.750000  0.115932  0.301561  1
  Co  Co19  1  0.250000  0.884068  0.698439  1
  Co  Co20  1  0.250000  0.035186  0.433875  1
  Co  Co21  1  0.750000  0.964814  0.566125  1
  Co  Co22  1  0.750000  0.535186  0.066125  1
  Co  Co23  1  0.250000  0.464814  0.933875  1
  As  As24  1  0.250000  0.080209  0.617214  1
  As  As25  1  0.750000  0.919791  0.382786  1
  As  As26  1  0.750000  0.580209  0.882786  1
  As  As27  1  0.250000  0.419791  0.117214  1
  As  As28  1  0.250000  0.233607  0.363213  1
  As  As29  1  0.750000  0.766393  0.636787  1
  As  As30  1  0.750000  0.733607  0.136787  1
  As  As31  1  0.250000  0.266393  0.863213  1
  As  As32  1  0.250000  0.906514  0.890224  1
  As  As33  1  0.750000  0.093486  0.109776  1
  As  As34  1  0.750000  0.406514  0.609776  1
  As  As35  1  0.250000  0.593486  0.390224  1
