# generated using pymatgen
data_LiY2ErIn3Pd2
_symmetry_space_group_name_H-M   'P 1'
_cell_length_a   7.82383394
_cell_length_b   7.84940463
_cell_length_c   3.70651300
_cell_angle_alpha   90.00000000
_cell_angle_beta   90.00000000
_cell_angle_gamma   120.10816891
_symmetry_Int_Tables_number   1
_chemical_formula_structural   LiY2ErIn3Pd2
_chemical_formula_sum   'Li1 Y2 Er1 In3 Pd2'
_cell_volume   196.91468055
_cell_formula_units_Z   1
loop_
 _symmetry_equiv_pos_site_id
 _symmetry_equiv_pos_as_xyz
  1  'x, y, z'
loop_
 _atom_site_type_symbol
 _atom_site_label
 _atom_site_symmetry_multiplicity
 _atom_site_fract_x
 _atom_site_fract_y
 _atom_site_fract_z
 _atom_site_occupancy
  Li  Li0  1  0.000000  0.000075  0.500000  1
  Y  Y1  1  0.412540  0.000004  0.500000  1
  Y  Y2  1  0.587460  0.587464  0.500000  1
  Er  Er3  1  0.000000  0.413530  0.500000  1
  In  In4  1  0.257389  0.258127  0.000000  1
  In  In5  1  0.742611  0.000738  0.000000  1
  In  In6  1  0.000000  0.741472  0.000000  1
  Pd  Pd7  1  0.669346  0.333967  0.000000  1
  Pd  Pd8  1  0.330654  0.664622  0.000000  1
