# generated using pymatgen
data_Tm8Lu4AlInCo4
_symmetry_space_group_name_H-M   'P 1'
_cell_length_a   8.20569136
_cell_length_b   8.20556849
_cell_length_c   8.20569162
_cell_angle_alpha   111.67814825
_cell_angle_beta   110.37656679
_cell_angle_gamma   106.40521205
_symmetry_Int_Tables_number   1
_chemical_formula_structural   Tm8Lu4AlInCo4
_chemical_formula_sum   'Tm8 Lu4 Al1 In1 Co4'
_cell_volume   424.35285004
_cell_formula_units_Z   1
loop_
 _symmetry_equiv_pos_site_id
 _symmetry_equiv_pos_as_xyz
  1  'x, y, z'
loop_
 _atom_site_type_symbol
 _atom_site_label
 _atom_site_symmetry_multiplicity
 _atom_site_fract_x
 _atom_site_fract_y
 _atom_site_fract_z
 _atom_site_occupancy
  Tm  Tm0  1  0.436488  0.230208  0.206297  1
  Tm  Tm1  1  0.563512  0.769792  0.793703  1
  Tm  Tm2  1  0.023911  0.230208  0.793720  1
  Tm  Tm3  1  0.976089  0.769792  0.206280  1
  Tm  Tm4  1  0.184873  0.284778  0.469682  1
  Tm  Tm5  1  0.815127  0.715222  0.530318  1
  Tm  Tm6  1  0.184904  0.715222  0.900096  1
  Tm  Tm7  1  0.815096  0.284778  0.099904  1
  Lu  Lu8  1  0.316028  0.620356  0.304327  1
  Lu  Lu9  1  0.683972  0.379644  0.695673  1
  Lu  Lu10  1  0.315990  0.011683  0.695693  1
  Lu  Lu11  1  0.684010  0.988317  0.304307  1
  Al  Al12  1  0.000000  0.000000  0.000000  1
  In  In13  1  0.500000  0.500000  0.000000  1
  Co  Co14  1  0.373866  0.000000  0.373866  1
  Co  Co15  1  0.626134  0.000000  0.626134  1
  Co  Co16  1  0.114088  0.614089  0.500001  1
  Co  Co17  1  0.885912  0.385911  0.499999  1
