# generated using pymatgen
data_Tb3In3NiPdRh
_symmetry_space_group_name_H-M   'P 1'
_cell_length_a   7.72091600
_cell_length_b   7.72091529
_cell_length_c   3.72972800
_cell_angle_alpha   90.00000000
_cell_angle_beta   90.00000000
_cell_angle_gamma   120.00001161
_symmetry_Int_Tables_number   1
_chemical_formula_structural   Tb3In3NiPdRh
_chemical_formula_sum   'Tb3 In3 Ni1 Pd1 Rh1'
_cell_volume   192.55081316
_cell_formula_units_Z   1
loop_
 _symmetry_equiv_pos_site_id
 _symmetry_equiv_pos_as_xyz
  1  'x, y, z'
loop_
 _atom_site_type_symbol
 _atom_site_label
 _atom_site_symmetry_multiplicity
 _atom_site_fract_x
 _atom_site_fract_y
 _atom_site_fract_z
 _atom_site_occupancy
  Tb  Tb0  1  0.988491  0.587584  0.500000  1
  Tb  Tb1  1  0.412416  0.400907  0.500000  1
  Tb  Tb2  1  0.599093  0.011509  0.500000  1
  In  In3  1  0.747410  0.749344  0.000000  1
  In  In4  1  0.001935  0.252590  0.000000  1
  In  In5  1  0.250656  0.998065  0.000000  1
  Ni  Ni6  1  0.000000  0.000000  0.500000  1
  Pd  Pd7  1  0.333333  0.666667  0.000000  1
  Rh  Rh8  1  0.666667  0.333333  0.000000  1
