# generated using pymatgen
data_NaYb2Ge2(PPd5)4
_symmetry_space_group_name_H-M   'P 1'
_cell_length_a   8.65592001
_cell_length_b   8.73400460
_cell_length_c   8.73400585
_cell_angle_alpha   59.40938863
_cell_angle_beta   60.29529738
_cell_angle_gamma   60.29529709
_symmetry_Int_Tables_number   1
_chemical_formula_structural   NaYb2Ge2(PPd5)4
_chemical_formula_sum   'Na1 Yb2 Ge2 P4 Pd20'
_cell_volume   466.82731499
_cell_formula_units_Z   1
loop_
 _symmetry_equiv_pos_site_id
 _symmetry_equiv_pos_as_xyz
  1  'x, y, z'
loop_
 _atom_site_type_symbol
 _atom_site_label
 _atom_site_symmetry_multiplicity
 _atom_site_fract_x
 _atom_site_fract_y
 _atom_site_fract_z
 _atom_site_occupancy
  Na  Na0  1  0.000000  0.000000  0.000000  1
  Yb  Yb1  1  0.250000  0.250000  0.250000  1
  Yb  Yb2  1  0.750000  0.750000  0.750000  1
  Ge  Ge3  1  0.737592  0.262408  0.262408  1
  Ge  Ge4  1  0.262408  0.737592  0.737592  1
  P  P5  1  0.264594  0.735406  0.264594  1
  P  P6  1  0.735406  0.264594  0.735406  1
  P  P7  1  0.264594  0.264594  0.735406  1
  P  P8  1  0.735406  0.735406  0.264594  1
  Pd  Pd9  1  0.378630  0.387734  0.387734  1
  Pd  Pd10  1  0.621370  0.612266  0.612266  1
  Pd  Pd11  1  0.387734  0.378630  0.845903  1
  Pd  Pd12  1  0.387734  0.845903  0.378630  1
  Pd  Pd13  1  0.612266  0.621370  0.154097  1
  Pd  Pd14  1  0.612266  0.154097  0.621370  1
  Pd  Pd15  1  0.845903  0.387734  0.387734  1
  Pd  Pd16  1  0.154097  0.612266  0.612266  1
  Pd  Pd17  1  0.344109  0.000000  0.000000  1
  Pd  Pd18  1  0.655891  0.000000  0.000000  1
  Pd  Pd19  1  0.000000  0.344109  0.655891  1
  Pd  Pd20  1  0.000000  0.655891  0.344109  1
  Pd  Pd21  1  0.009840  0.347460  0.990160  1
  Pd  Pd22  1  0.652540  0.990160  0.347460  1
  Pd  Pd23  1  0.990160  0.652540  0.009840  1
  Pd  Pd24  1  0.347460  0.009840  0.652540  1
  Pd  Pd25  1  0.009840  0.990160  0.347460  1
  Pd  Pd26  1  0.990160  0.009840  0.652540  1
  Pd  Pd27  1  0.652540  0.347460  0.990160  1
  Pd  Pd28  1  0.347460  0.652540  0.009840  1
