# generated using pymatgen
data_Ce12Co7Si8Ru
_symmetry_space_group_name_H-M   'P 1'
_cell_length_a   5.68147007
_cell_length_b   7.97733301
_cell_length_c   12.28658100
_cell_angle_alpha   89.90673750
_cell_angle_beta   89.91622657
_cell_angle_gamma   89.59982699
_symmetry_Int_Tables_number   1
_chemical_formula_structural   Ce12Co7Si8Ru
_chemical_formula_sum   'Ce12 Co7 Si8 Ru1'
_cell_volume   556.84954356
_cell_formula_units_Z   1
loop_
 _symmetry_equiv_pos_site_id
 _symmetry_equiv_pos_as_xyz
  1  'x, y, z'
loop_
 _atom_site_type_symbol
 _atom_site_label
 _atom_site_symmetry_multiplicity
 _atom_site_fract_x
 _atom_site_fract_y
 _atom_site_fract_z
 _atom_site_occupancy
  Ce  Ce0  1  0.158161  0.400819  0.589875  1
  Ce  Ce1  1  0.850234  0.599498  0.090375  1
  Ce  Ce2  1  0.153647  0.092864  0.412802  1
  Ce  Ce3  1  0.844103  0.902510  0.906042  1
  Ce  Ce4  1  0.835250  0.600991  0.413196  1
  Ce  Ce5  1  0.161406  0.400678  0.900654  1
  Ce  Ce6  1  0.833641  0.903886  0.592759  1
  Ce  Ce7  1  0.162519  0.101071  0.091965  1
  Ce  Ce8  1  0.649735  0.258329  0.749332  1
  Ce  Ce9  1  0.351907  0.742275  0.250393  1
  Ce  Ce10  1  0.642371  0.244639  0.250867  1
  Ce  Ce11  1  0.353873  0.754530  0.749618  1
  Co  Co12  1  0.375399  0.041270  0.583986  1
  Co  Co13  1  0.630376  0.959094  0.085259  1
  Co  Co14  1  0.371069  0.455627  0.418566  1
  Co  Co15  1  0.631588  0.544651  0.911483  1
  Co  Co16  1  0.618383  0.953841  0.412335  1
  Co  Co17  1  0.378321  0.042894  0.913250  1
  Co  Co18  1  0.621218  0.543568  0.586087  1
  Si  Si19  1  0.160378  0.104719  0.747760  1
  Si  Si20  1  0.843309  0.894215  0.249900  1
  Si  Si21  1  0.145357  0.391335  0.259709  1
  Si  Si22  1  0.845568  0.606712  0.747474  1
  Si  Si23  1  0.637899  0.248503  0.500247  1
  Si  Si24  1  0.367106  0.756455  0.998175  1
  Si  Si25  1  0.356351  0.749027  0.500309  1
  Si  Si26  1  0.646695  0.246561  0.997997  1
  Ru  Ru27  1  0.374136  0.459437  0.089585  1
