# generated using pymatgen
data_Y3AgIr3RhO14
_symmetry_space_group_name_H-M   'P 1'
_cell_length_a   7.33555890
_cell_length_b   7.33555973
_cell_length_c   7.17703825
_cell_angle_alpha   59.26663637
_cell_angle_beta   59.26663388
_cell_angle_gamma   60.00000186
_symmetry_Int_Tables_number   1
_chemical_formula_structural   Y3AgIr3RhO14
_chemical_formula_sum   'Y3 Ag1 Ir3 Rh1 O14'
_cell_volume   270.01796189
_cell_formula_units_Z   1
loop_
 _symmetry_equiv_pos_site_id
 _symmetry_equiv_pos_as_xyz
  1  'x, y, z'
loop_
 _atom_site_type_symbol
 _atom_site_label
 _atom_site_symmetry_multiplicity
 _atom_site_fract_x
 _atom_site_fract_y
 _atom_site_fract_z
 _atom_site_occupancy
  Y  Y0  1  0.625000  0.125000  0.125000  1
  Y  Y1  1  0.125000  0.625000  0.125000  1
  Y  Y2  1  0.125000  0.125000  0.125000  1
  Ag  Ag3  1  0.125000  0.125000  0.625000  1
  Ir  Ir4  1  0.125000  0.625000  0.625000  1
  Ir  Ir5  1  0.625000  0.125000  0.625000  1
  Ir  Ir6  1  0.625000  0.625000  0.625000  1
  Rh  Rh7  1  0.625000  0.625000  0.125000  1
  O  O8  1  0.712667  0.712667  0.286525  1
  O  O9  1  0.300024  0.300024  0.705799  1
  O  O10  1  0.694153  0.300024  0.705799  1
  O  O11  1  0.288140  0.712667  0.286525  1
  O  O12  1  0.300024  0.694153  0.705799  1
  O  O13  1  0.712667  0.288140  0.286525  1
  O  O14  1  0.537333  0.537333  0.963475  1
  O  O15  1  0.949976  0.949976  0.544201  1
  O  O16  1  0.555847  0.949976  0.544201  1
  O  O17  1  0.961860  0.537333  0.963475  1
  O  O18  1  0.949976  0.555847  0.544201  1
  O  O19  1  0.537333  0.961860  0.963475  1
  O  O20  1  0.250345  0.250345  0.248965  1
  O  O21  1  0.999655  0.999655  0.001035  1
