# generated using pymatgen
data_Li3Pr4LuPt4
_symmetry_space_group_name_H-M   'P 1'
_cell_length_a   4.20275800
_cell_length_b   7.40385925
_cell_length_c   8.85271525
_cell_angle_alpha   89.06945385
_cell_angle_beta   90.00000000
_cell_angle_gamma   90.00000000
_symmetry_Int_Tables_number   1
_chemical_formula_structural   Li3Pr4LuPt4
_chemical_formula_sum   'Li3 Pr4 Lu1 Pt4'
_cell_volume   275.43032403
_cell_formula_units_Z   1
loop_
 _symmetry_equiv_pos_site_id
 _symmetry_equiv_pos_as_xyz
  1  'x, y, z'
loop_
 _atom_site_type_symbol
 _atom_site_label
 _atom_site_symmetry_multiplicity
 _atom_site_fract_x
 _atom_site_fract_y
 _atom_site_fract_z
 _atom_site_occupancy
  Li  Li0  1  0.250000  0.142514  0.067829  1
  Li  Li1  1  0.750000  0.374408  0.553590  1
  Li  Li2  1  0.250000  0.631302  0.444789  1
  Pr  Pr3  1  0.250000  0.517993  0.805602  1
  Pr  Pr4  1  0.250000  0.050423  0.666746  1
  Pr  Pr5  1  0.750000  0.964419  0.323322  1
  Pr  Pr6  1  0.750000  0.454259  0.189139  1
  Lu  Lu7  1  0.750000  0.870598  0.940440  1
  Pt  Pt8  1  0.250000  0.743617  0.113384  1
  Pt  Pt9  1  0.250000  0.256774  0.382189  1
  Pt  Pt10  1  0.750000  0.753954  0.628683  1
  Pt  Pt11  1  0.750000  0.239738  0.884289  1
