# generated using pymatgen
data_ScUCo3
_symmetry_space_group_name_H-M   'P 1'
_cell_length_a   5.08938100
_cell_length_b   7.34862200
_cell_length_c   8.15454900
_cell_angle_alpha   90.00000000
_cell_angle_beta   90.00000000
_cell_angle_gamma   90.00000000
_symmetry_Int_Tables_number   1
_chemical_formula_structural   ScUCo3
_chemical_formula_sum   'Sc4 U4 Co12'
_cell_volume   304.97962036
_cell_formula_units_Z   4
loop_
 _symmetry_equiv_pos_site_id
 _symmetry_equiv_pos_as_xyz
  1  'x, y, z'
loop_
 _atom_site_type_symbol
 _atom_site_label
 _atom_site_symmetry_multiplicity
 _atom_site_fract_x
 _atom_site_fract_y
 _atom_site_fract_z
 _atom_site_occupancy
  Sc  Sc0  1  0.750000  0.933009  0.399525  1
  Sc  Sc1  1  0.750000  0.433009  0.100475  1
  Sc  Sc2  1  0.250000  0.066991  0.600475  1
  Sc  Sc3  1  0.250000  0.566991  0.899525  1
  U  U4  1  0.750000  0.886128  0.842255  1
  U  U5  1  0.750000  0.386128  0.657745  1
  U  U6  1  0.250000  0.113872  0.157745  1
  U  U7  1  0.250000  0.613872  0.342255  1
  Co  Co8  1  0.750000  0.565712  0.406837  1
  Co  Co9  1  0.750000  0.065712  0.093163  1
  Co  Co10  1  0.250000  0.434288  0.593163  1
  Co  Co11  1  0.250000  0.934288  0.906837  1
  Co  Co12  1  0.996857  0.262643  0.361266  1
  Co  Co13  1  0.503143  0.762643  0.138734  1
  Co  Co14  1  0.496857  0.737357  0.638734  1
  Co  Co15  1  0.003143  0.237357  0.861266  1
  Co  Co16  1  0.003143  0.737357  0.638734  1
  Co  Co17  1  0.496857  0.237357  0.861266  1
  Co  Co18  1  0.503143  0.262643  0.361266  1
  Co  Co19  1  0.996857  0.762643  0.138734  1
