# generated using pymatgen
data_Zr10SiPdPb6
_symmetry_space_group_name_H-M   'P 1'
_cell_length_a   8.85798200
_cell_length_b   8.85798199
_cell_length_c   5.95860000
_cell_angle_alpha   90.00000000
_cell_angle_beta   90.00000000
_cell_angle_gamma   119.99999258
_symmetry_Int_Tables_number   1
_chemical_formula_structural   Zr10SiPdPb6
_chemical_formula_sum   'Zr10 Si1 Pd1 Pb6'
_cell_volume   404.89692884
_cell_formula_units_Z   1
loop_
 _symmetry_equiv_pos_site_id
 _symmetry_equiv_pos_as_xyz
  1  'x, y, z'
loop_
 _atom_site_type_symbol
 _atom_site_label
 _atom_site_symmetry_multiplicity
 _atom_site_fract_x
 _atom_site_fract_y
 _atom_site_fract_z
 _atom_site_occupancy
  Zr  Zr0  1  0.666667  0.333333  0.000000  1
  Zr  Zr1  1  0.333333  0.666667  0.000000  1
  Zr  Zr2  1  0.333333  0.666667  0.500000  1
  Zr  Zr3  1  0.666667  0.333333  0.500000  1
  Zr  Zr4  1  0.739605  0.739605  0.740954  1
  Zr  Zr5  1  0.260395  0.000000  0.740954  1
  Zr  Zr6  1  0.000000  0.260395  0.740954  1
  Zr  Zr7  1  0.260395  0.260395  0.259046  1
  Zr  Zr8  1  0.739605  0.000000  0.259046  1
  Zr  Zr9  1  0.000000  0.739605  0.259046  1
  Si  Si10  1  0.000000  0.000000  0.500000  1
  Pd  Pd11  1  0.000000  0.000000  0.000000  1
  Pb  Pb12  1  0.388496  0.388496  0.753686  1
  Pb  Pb13  1  0.611504  0.000000  0.753686  1
  Pb  Pb14  1  0.000000  0.611504  0.753686  1
  Pb  Pb15  1  0.611504  0.611504  0.246314  1
  Pb  Pb16  1  0.388496  0.000000  0.246314  1
  Pb  Pb17  1  0.000000  0.388496  0.246314  1
