# generated using pymatgen
data_Ho19Lu(Bi2Sb)4
_symmetry_space_group_name_H-M   'P 1'
_cell_length_a   8.15739846
_cell_length_b   9.43239207
_cell_length_c   11.94550102
_cell_angle_alpha   89.99404862
_cell_angle_beta   90.05417379
_cell_angle_gamma   90.00276593
_symmetry_Int_Tables_number   1
_chemical_formula_structural   Ho19Lu(Bi2Sb)4
_chemical_formula_sum   'Ho19 Lu1 Bi8 Sb4'
_cell_volume   919.13159227
_cell_formula_units_Z   1
loop_
 _symmetry_equiv_pos_site_id
 _symmetry_equiv_pos_as_xyz
  1  'x, y, z'
loop_
 _atom_site_type_symbol
 _atom_site_label
 _atom_site_symmetry_multiplicity
 _atom_site_fract_x
 _atom_site_fract_y
 _atom_site_fract_z
 _atom_site_occupancy
  Ho  Ho0  1  0.354271  0.749316  0.213968  1
  Ho  Ho1  1  0.852995  0.749244  0.285462  1
  Ho  Ho2  1  0.645966  0.249606  0.785674  1
  Ho  Ho3  1  0.146138  0.249809  0.714304  1
  Ho  Ho4  1  0.188922  0.936636  0.441656  1
  Ho  Ho5  1  0.311526  0.063515  0.942059  1
  Ho  Ho6  1  0.810853  0.436776  0.558211  1
  Ho  Ho7  1  0.310522  0.436935  0.941727  1
  Ho  Ho8  1  0.811015  0.063339  0.558249  1
  Ho  Ho9  1  0.689131  0.936692  0.058034  1
  Ho  Ho10  1  0.189048  0.563325  0.441755  1
  Ho  Ho11  1  0.473181  0.249665  0.487985  1
  Ho  Ho12  1  0.972797  0.249963  0.011868  1
  Ho  Ho13  1  0.526904  0.750037  0.511796  1
  Ho  Ho14  1  0.026182  0.749665  0.988315  1
  Ho  Ho15  1  0.315672  0.249968  0.217653  1
  Ho  Ho16  1  0.815882  0.249940  0.282354  1
  Ho  Ho17  1  0.684114  0.749586  0.782647  1
  Ho  Ho18  1  0.184104  0.749931  0.717765  1
  Lu  Lu19  1  0.689200  0.565437  0.058261  1
  Bi  Bi20  1  0.566342  0.995804  0.325306  1
  Bi  Bi21  1  0.066048  0.503917  0.174315  1
  Bi  Bi22  1  0.433985  0.495872  0.674663  1
  Bi  Bi23  1  0.933593  0.003830  0.825629  1
  Bi  Bi24  1  0.433770  0.003789  0.674547  1
  Bi  Bi25  1  0.933916  0.495673  0.825674  1
  Bi  Bi26  1  0.566539  0.503881  0.325295  1
  Bi  Bi27  1  0.066232  0.995662  0.174364  1
  Sb  Sb28  1  0.406708  0.749425  0.958464  1
  Sb  Sb29  1  0.906467  0.750120  0.541595  1
  Sb  Sb30  1  0.594374  0.252617  0.042179  1
  Sb  Sb31  1  0.093600  0.250028  0.458222  1
