# generated using pymatgen
data_NaIn(SeO4)2
_symmetry_space_group_name_H-M   'P 1'
_cell_length_a   5.13402754
_cell_length_b   5.13402816
_cell_length_c   7.48316141
_cell_angle_alpha   90.70275526
_cell_angle_beta   90.70275463
_cell_angle_gamma   66.76341614
_symmetry_Int_Tables_number   1
_chemical_formula_structural   NaIn(SeO4)2
_chemical_formula_sum   'Na1 In1 Se2 O8'
_cell_volume   181.22378955
_cell_formula_units_Z   1
loop_
 _symmetry_equiv_pos_site_id
 _symmetry_equiv_pos_as_xyz
  1  'x, y, z'
loop_
 _atom_site_type_symbol
 _atom_site_label
 _atom_site_symmetry_multiplicity
 _atom_site_fract_x
 _atom_site_fract_y
 _atom_site_fract_z
 _atom_site_occupancy
  Na  Na0  1  0.000000  0.000000  0.500000  1
  In  In1  1  0.000000  0.000000  0.000000  1
  Se  Se2  1  0.360094  0.360094  0.230172  1
  Se  Se3  1  0.639905  0.639905  0.769828  1
  O  O4  1  0.249210  0.249210  0.042490  1
  O  O5  1  0.719153  0.234504  0.219777  1
  O  O6  1  0.234504  0.719153  0.219777  1
  O  O7  1  0.270399  0.270399  0.420955  1
  O  O8  1  0.729599  0.729599  0.579044  1
  O  O9  1  0.765497  0.280847  0.780224  1
  O  O10  1  0.280847  0.765497  0.780224  1
  O  O11  1  0.750789  0.750789  0.957510  1
