# generated using pymatgen
data_Y20Ir6RuPt5
_symmetry_space_group_name_H-M   'P 1'
_cell_length_a   11.03437234
_cell_length_b   11.04095435
_cell_length_c   6.39573302
_cell_angle_alpha   90.00332219
_cell_angle_beta   89.99138925
_cell_angle_gamma   89.76950177
_symmetry_Int_Tables_number   1
_chemical_formula_structural   Y20Ir6RuPt5
_chemical_formula_sum   'Y20 Ir6 Ru1 Pt5'
_cell_volume   779.18584708
_cell_formula_units_Z   1
loop_
 _symmetry_equiv_pos_site_id
 _symmetry_equiv_pos_as_xyz
  1  'x, y, z'
loop_
 _atom_site_type_symbol
 _atom_site_label
 _atom_site_symmetry_multiplicity
 _atom_site_fract_x
 _atom_site_fract_y
 _atom_site_fract_z
 _atom_site_occupancy
  Y  Y0  1  0.296070  0.089366  0.373567  1
  Y  Y1  1  0.296840  0.910533  0.875441  1
  Y  Y2  1  0.703308  0.085645  0.876043  1
  Y  Y3  1  0.703840  0.910113  0.372975  1
  Y  Y4  1  0.585486  0.791713  0.880375  1
  Y  Y5  1  0.583694  0.205733  0.374475  1
  Y  Y6  1  0.414761  0.792457  0.378050  1
  Y  Y7  1  0.411627  0.206448  0.881563  1
  Y  Y8  1  0.209836  0.413633  0.620772  1
  Y  Y9  1  0.208511  0.586139  0.121340  1
  Y  Y10  1  0.793233  0.415363  0.124582  1
  Y  Y11  1  0.792122  0.589348  0.619460  1
  Y  Y12  1  0.909291  0.704678  0.125123  1
  Y  Y13  1  0.912937  0.295031  0.625647  1
  Y  Y14  1  0.091043  0.704727  0.626065  1
  Y  Y15  1  0.091177  0.295410  0.125714  1
  Y  Y16  1  0.999820  0.999796  0.498784  1
  Y  Y17  1  0.000121  0.000158  0.999890  1
  Y  Y18  1  0.498318  0.501371  0.999710  1
  Y  Y19  1  0.498700  0.501631  0.498103  1
  Ir  Ir20  1  0.654642  0.653250  0.249499  1
  Ir  Ir21  1  0.346085  0.346021  0.249230  1
  Ir  Ir22  1  0.345085  0.654605  0.749383  1
  Ir  Ir23  1  0.500181  0.000380  0.627061  1
  Ir  Ir24  1  0.999537  0.499799  0.874170  1
  Ir  Ir25  1  0.999777  0.499739  0.376095  1
  Ru  Ru26  1  0.500291  0.000370  0.129186  1
  Pt  Pt27  1  0.846000  0.154360  0.249615  1
  Pt  Pt28  1  0.846617  0.847273  0.749967  1
  Pt  Pt29  1  0.152698  0.153371  0.749051  1
  Pt  Pt30  1  0.153439  0.846320  0.249513  1
  Pt  Pt31  1  0.654912  0.345221  0.749547  1
