# generated using pymatgen
data_Tb12In2FeTc2
_symmetry_space_group_name_H-M   'P 1'
_cell_length_a   8.43992656
_cell_length_b   8.43992705
_cell_length_c   8.43992600
_cell_angle_alpha   108.74871932
_cell_angle_beta   108.74872761
_cell_angle_gamma   110.92608123
_symmetry_Int_Tables_number   1
_chemical_formula_structural   Tb12In2FeTc2
_chemical_formula_sum   'Tb12 In2 Fe1 Tc2'
_cell_volume   462.57638472
_cell_formula_units_Z   1
loop_
 _symmetry_equiv_pos_site_id
 _symmetry_equiv_pos_as_xyz
  1  'x, y, z'
loop_
 _atom_site_type_symbol
 _atom_site_label
 _atom_site_symmetry_multiplicity
 _atom_site_fract_x
 _atom_site_fract_y
 _atom_site_fract_z
 _atom_site_occupancy
  Tb  Tb0  1  0.303108  0.303108  0.609996  1
  Tb  Tb1  1  0.693112  0.693112  0.390004  1
  Tb  Tb2  1  0.693112  0.303108  0.000000  1
  Tb  Tb3  1  0.303108  0.693112  0.000000  1
  Tb  Tb4  1  0.190864  0.432234  0.241370  1
  Tb  Tb5  1  0.806297  0.567887  0.761590  1
  Tb  Tb6  1  0.190864  0.949494  0.758630  1
  Tb  Tb7  1  0.949494  0.190864  0.758630  1
  Tb  Tb8  1  0.806297  0.044709  0.238410  1
  Tb  Tb9  1  0.044709  0.806297  0.238410  1
  Tb  Tb10  1  0.432234  0.190864  0.241370  1
  Tb  Tb11  1  0.567887  0.806297  0.761590  1
  In  In12  1  0.998280  0.498280  0.500000  1
  In  In13  1  0.498280  0.998280  0.500000  1
  Fe  Fe14  1  0.630951  0.630951  0.000000  1
  Tc  Tc15  1  0.390902  0.390902  0.000000  1
  Tc  Tc16  1  0.000500  0.000500  0.000000  1
