# generated using pymatgen
data_Dy7Tm13Sn16
_symmetry_space_group_name_H-M   'P 1'
_cell_length_a   7.96711582
_cell_length_b   8.09752809
_cell_length_c   15.30239719
_cell_angle_alpha   90.00551622
_cell_angle_beta   90.19686468
_cell_angle_gamma   89.91512897
_symmetry_Int_Tables_number   1
_chemical_formula_structural   Dy7Tm13Sn16
_chemical_formula_sum   'Dy7 Tm13 Sn16'
_cell_volume   987.21108353
_cell_formula_units_Z   1
loop_
 _symmetry_equiv_pos_site_id
 _symmetry_equiv_pos_as_xyz
  1  'x, y, z'
loop_
 _atom_site_type_symbol
 _atom_site_label
 _atom_site_symmetry_multiplicity
 _atom_site_fract_x
 _atom_site_fract_y
 _atom_site_fract_z
 _atom_site_occupancy
  Dy  Dy0  1  0.019260  0.179143  0.596501  1
  Dy  Dy1  1  0.480925  0.678913  0.404369  1
  Dy  Dy2  1  0.979661  0.820856  0.096002  1
  Dy  Dy3  1  0.479603  0.678090  0.095942  1
  Dy  Dy4  1  0.980786  0.821286  0.404356  1
  Dy  Dy5  1  0.518324  0.321752  0.595539  1
  Dy  Dy6  1  0.020139  0.179122  0.903700  1
  Tm  Tm7  1  0.364875  0.838339  0.876547  1
  Tm  Tm8  1  0.863380  0.662223  0.623815  1
  Tm  Tm9  1  0.635836  0.162188  0.376180  1
  Tm  Tm10  1  0.134178  0.338303  0.123066  1
  Tm  Tm11  1  0.634317  0.161766  0.123087  1
  Tm  Tm12  1  0.136011  0.338016  0.376434  1
  Tm  Tm13  1  0.364172  0.838462  0.624312  1
  Tm  Tm14  1  0.865935  0.661338  0.876794  1
  Tm  Tm15  1  0.522523  0.321264  0.903131  1
  Tm  Tm16  1  0.195928  0.504475  0.750412  1
  Tm  Tm17  1  0.695561  0.995569  0.750455  1
  Tm  Tm18  1  0.804180  0.495222  0.249736  1
  Tm  Tm19  1  0.304256  0.004668  0.249817  1
  Sn  Sn20  1  0.295871  0.039158  0.041555  1
  Sn  Sn21  1  0.797464  0.459673  0.458746  1
  Sn  Sn22  1  0.701874  0.960663  0.541368  1
  Sn  Sn23  1  0.207052  0.537259  0.957865  1
  Sn  Sn24  1  0.703188  0.960935  0.958247  1
  Sn  Sn25  1  0.201911  0.540956  0.541427  1
  Sn  Sn26  1  0.297730  0.040021  0.458751  1
  Sn  Sn27  1  0.794920  0.459184  0.040543  1
  Sn  Sn28  1  0.561574  0.619233  0.750441  1
  Sn  Sn29  1  0.061284  0.880139  0.750259  1
  Sn  Sn30  1  0.438437  0.380615  0.249612  1
  Sn  Sn31  1  0.938474  0.119569  0.249812  1
  Sn  Sn32  1  0.331111  0.151251  0.750770  1
  Sn  Sn33  1  0.828946  0.350282  0.750123  1
  Sn  Sn34  1  0.670139  0.850149  0.250131  1
  Sn  Sn35  1  0.170172  0.649920  0.250152  1
