# generated using pymatgen
data_KHoCr2O8
_symmetry_space_group_name_H-M   'P 1'
_cell_length_a   5.79530900
_cell_length_b   5.79530891
_cell_length_c   7.73199000
_cell_angle_alpha   90.00000000
_cell_angle_beta   90.00000000
_cell_angle_gamma   119.99999481
_symmetry_Int_Tables_number   1
_chemical_formula_structural   KHoCr2O8
_chemical_formula_sum   'K1 Ho1 Cr2 O8'
_cell_volume   224.89257926
_cell_formula_units_Z   1
loop_
 _symmetry_equiv_pos_site_id
 _symmetry_equiv_pos_as_xyz
  1  'x, y, z'
loop_
 _atom_site_type_symbol
 _atom_site_label
 _atom_site_symmetry_multiplicity
 _atom_site_fract_x
 _atom_site_fract_y
 _atom_site_fract_z
 _atom_site_occupancy
  K  K0  1  0.000000  0.000000  0.500000  1
  Ho  Ho1  1  0.000000  0.000000  0.000000  1
  Cr  Cr2  1  0.666667  0.333332  0.249355  1
  Cr  Cr3  1  0.333333  0.666667  0.750645  1
  O  O4  1  0.350053  0.175025  0.178918  1
  O  O5  1  0.824974  0.175025  0.178918  1
  O  O6  1  0.824975  0.649948  0.178918  1
  O  O7  1  0.666667  0.333332  0.458839  1
  O  O8  1  0.333333  0.666667  0.541161  1
  O  O9  1  0.175026  0.350054  0.821082  1
  O  O10  1  0.175026  0.824974  0.821082  1
  O  O11  1  0.649947  0.824974  0.821082  1
