# generated using pymatgen
data_Pr12CoPt(RhBr6)2
_symmetry_space_group_name_H-M   'P 1'
_cell_length_a   10.44333649
_cell_length_b   10.54311177
_cell_length_c   10.54311255
_cell_angle_alpha   109.79836880
_cell_angle_beta   109.17569630
_cell_angle_gamma   109.17570089
_symmetry_Int_Tables_number   1
_chemical_formula_structural   Pr12CoPt(RhBr6)2
_chemical_formula_sum   'Pr12 Co1 Pt1 Rh2 Br12'
_cell_volume   896.49645913
_cell_formula_units_Z   1
loop_
 _symmetry_equiv_pos_site_id
 _symmetry_equiv_pos_as_xyz
  1  'x, y, z'
loop_
 _atom_site_type_symbol
 _atom_site_label
 _atom_site_symmetry_multiplicity
 _atom_site_fract_x
 _atom_site_fract_y
 _atom_site_fract_z
 _atom_site_occupancy
  Pr  Pr0  1  0.465374  0.476093  0.238357  1
  Pr  Pr1  1  0.750000  0.235721  0.264279  1
  Pr  Pr2  1  0.750000  0.015406  0.484594  1
  Pr  Pr3  1  0.237256  0.465022  0.478162  1
  Pr  Pr4  1  0.265445  0.753858  0.237124  1
  Pr  Pr5  1  0.034626  0.261643  0.023907  1
  Pr  Pr6  1  0.020304  0.033198  0.263194  1
  Pr  Pr7  1  0.487903  0.755315  0.017898  1
  Pr  Pr8  1  0.479696  0.236806  0.466802  1
  Pr  Pr9  1  0.012097  0.482102  0.744685  1
  Pr  Pr10  1  0.262744  0.021838  0.034978  1
  Pr  Pr11  1  0.234555  0.262876  0.746142  1
  Co  Co12  1  0.250000  0.248907  0.251093  1
  Pt  Pt13  1  0.250000  0.500352  0.999648  1
  Rh  Rh14  1  0.500841  0.001792  0.251075  1
  Rh  Rh15  1  0.999159  0.248925  0.498208  1
  Br  Br16  1  0.250000  0.753411  0.746589  1
  Br  Br17  1  0.510649  0.505162  0.754843  1
  Br  Br18  1  0.989351  0.745157  0.994838  1
  Br  Br19  1  0.746929  0.250045  0.754522  1
  Br  Br20  1  0.995705  0.990357  0.745421  1
  Br  Br21  1  0.250000  0.994106  0.505894  1
  Br  Br22  1  0.754570  0.511254  0.504806  1
  Br  Br23  1  0.504955  0.249406  0.994002  1
  Br  Br24  1  0.753071  0.745478  0.249955  1
  Br  Br25  1  0.745430  0.995194  0.988746  1
  Br  Br26  1  0.995045  0.505998  0.250594  1
  Br  Br27  1  0.504295  0.754579  0.509643  1
