# generated using pymatgen
data_TaTi2Re3Si2Ge
_symmetry_space_group_name_H-M   'P 1'
_cell_length_a   6.87320483
_cell_length_b   6.85650572
_cell_length_c   3.27682500
_cell_angle_alpha   90.00000000
_cell_angle_beta   90.00000000
_cell_angle_gamma   119.69454231
_symmetry_Int_Tables_number   1
_chemical_formula_structural   TaTi2Re3Si2Ge
_chemical_formula_sum   'Ta1 Ti2 Re3 Si2 Ge1'
_cell_volume   134.14501948
_cell_formula_units_Z   1
loop_
 _symmetry_equiv_pos_site_id
 _symmetry_equiv_pos_as_xyz
  1  'x, y, z'
loop_
 _atom_site_type_symbol
 _atom_site_label
 _atom_site_symmetry_multiplicity
 _atom_site_fract_x
 _atom_site_fract_y
 _atom_site_fract_z
 _atom_site_occupancy
  Ta  Ta0  1  0.396185  0.403931  0.500000  1
  Ti  Ti1  1  0.594530  0.989913  0.500000  1
  Ti  Ti2  1  0.006584  0.603074  0.500000  1
  Re  Re3  1  0.738690  0.745108  0.000000  1
  Re  Re4  1  0.255345  0.995938  0.000000  1
  Re  Re5  1  0.007214  0.261559  0.000000  1
  Si  Si6  1  0.331600  0.671108  0.000000  1
  Si  Si7  1  0.997829  0.997665  0.500000  1
  Ge  Ge8  1  0.672023  0.331703  0.000000  1
