# generated using pymatgen
data_Dy12Tc2OsPt
_symmetry_space_group_name_H-M   'P 1'
_cell_length_a   6.34454357
_cell_length_b   7.36587767
_cell_length_c   9.18912600
_cell_angle_alpha   90.00000000
_cell_angle_beta   90.00000000
_cell_angle_gamma   89.87605683
_symmetry_Int_Tables_number   1
_chemical_formula_structural   Dy12Tc2OsPt
_chemical_formula_sum   'Dy12 Tc2 Os1 Pt1'
_cell_volume   429.43563178
_cell_formula_units_Z   1
loop_
 _symmetry_equiv_pos_site_id
 _symmetry_equiv_pos_as_xyz
  1  'x, y, z'
loop_
 _atom_site_type_symbol
 _atom_site_label
 _atom_site_symmetry_multiplicity
 _atom_site_fract_x
 _atom_site_fract_y
 _atom_site_fract_z
 _atom_site_occupancy
  Dy  Dy0  1  0.327946  0.676295  0.067726  1
  Dy  Dy1  1  0.168176  0.178100  0.435497  1
  Dy  Dy2  1  0.669939  0.317949  0.559341  1
  Dy  Dy3  1  0.836350  0.827412  0.939562  1
  Dy  Dy4  1  0.669939  0.317949  0.940659  1
  Dy  Dy5  1  0.836350  0.827412  0.560438  1
  Dy  Dy6  1  0.327946  0.676295  0.432274  1
  Dy  Dy7  1  0.168176  0.178100  0.064503  1
  Dy  Dy8  1  0.869973  0.540264  0.250000  1
  Dy  Dy9  1  0.624765  0.038063  0.250000  1
  Dy  Dy10  1  0.129362  0.455924  0.750000  1
  Dy  Dy11  1  0.367927  0.964990  0.750000  1
  Tc  Tc12  1  0.036865  0.887045  0.250000  1
  Tc  Tc13  1  0.464112  0.386887  0.250000  1
  Os  Os14  1  0.954908  0.114544  0.750000  1
  Pt  Pt15  1  0.547264  0.612769  0.750000  1
