# generated using pymatgen
data_DyEr7Tl3Co
_symmetry_space_group_name_H-M   'P 1'
_cell_length_a   10.18563100
_cell_length_b   10.18563244
_cell_length_c   7.04649500
_cell_angle_alpha   90.00000000
_cell_angle_beta   90.00000000
_cell_angle_gamma   120.00000506
_symmetry_Int_Tables_number   1
_chemical_formula_structural   DyEr7Tl3Co
_chemical_formula_sum   'Dy2 Er14 Tl6 Co2'
_cell_volume   633.11076296
_cell_formula_units_Z   2
loop_
 _symmetry_equiv_pos_site_id
 _symmetry_equiv_pos_as_xyz
  1  'x, y, z'
loop_
 _atom_site_type_symbol
 _atom_site_label
 _atom_site_symmetry_multiplicity
 _atom_site_fract_x
 _atom_site_fract_y
 _atom_site_fract_z
 _atom_site_occupancy
  Dy  Dy0  1  0.000000  0.000000  0.271978  1
  Dy  Dy1  1  0.000000  0.000000  0.771978  1
  Er  Er2  1  0.178005  0.821995  0.991490  1
  Er  Er3  1  0.821995  0.178005  0.491490  1
  Er  Er4  1  0.178005  0.356012  0.991490  1
  Er  Er5  1  0.643988  0.821995  0.991490  1
  Er  Er6  1  0.356012  0.178005  0.491490  1
  Er  Er7  1  0.821995  0.643988  0.491490  1
  Er  Er8  1  0.333333  0.666667  0.680194  1
  Er  Er9  1  0.666667  0.333333  0.180194  1
  Er  Er10  1  0.462719  0.537281  0.288647  1
  Er  Er11  1  0.537281  0.462719  0.788647  1
  Er  Er12  1  0.462719  0.925438  0.288647  1
  Er  Er13  1  0.074562  0.537281  0.288647  1
  Er  Er14  1  0.925438  0.462719  0.788647  1
  Er  Er15  1  0.537281  0.074562  0.788647  1
  Tl  Tl16  1  0.163956  0.836044  0.540512  1
  Tl  Tl17  1  0.836044  0.163956  0.040512  1
  Tl  Tl18  1  0.163956  0.327912  0.540512  1
  Tl  Tl19  1  0.672088  0.836044  0.540512  1
  Tl  Tl20  1  0.327912  0.163956  0.040512  1
  Tl  Tl21  1  0.836044  0.672088  0.040512  1
  Co  Co22  1  0.333333  0.666667  0.058938  1
  Co  Co23  1  0.666667  0.333333  0.558938  1
