# generated using pymatgen
data_Ta12Al7V(ReC)4
_symmetry_space_group_name_H-M   'P 1'
_cell_length_a   8.37093178
_cell_length_b   8.37093077
_cell_length_c   8.37093026
_cell_angle_alpha   59.64187530
_cell_angle_beta   59.64187844
_cell_angle_gamma   59.64187999
_symmetry_Int_Tables_number   1
_chemical_formula_structural   Ta12Al7V(ReC)4
_chemical_formula_sum   'Ta12 Al7 V1 Re4 C4'
_cell_volume   411.39376115
_cell_formula_units_Z   1
loop_
 _symmetry_equiv_pos_site_id
 _symmetry_equiv_pos_as_xyz
  1  'x, y, z'
loop_
 _atom_site_type_symbol
 _atom_site_label
 _atom_site_symmetry_multiplicity
 _atom_site_fract_x
 _atom_site_fract_y
 _atom_site_fract_z
 _atom_site_occupancy
  Ta  Ta0  1  0.558185  0.940454  0.558185  1
  Ta  Ta1  1  0.310168  0.689469  0.689469  1
  Ta  Ta2  1  0.695101  0.307635  0.307635  1
  Ta  Ta3  1  0.307635  0.695101  0.307635  1
  Ta  Ta4  1  0.689469  0.689469  0.310168  1
  Ta  Ta5  1  0.307635  0.307635  0.695101  1
  Ta  Ta6  1  0.558185  0.558185  0.940454  1
  Ta  Ta7  1  0.940454  0.558185  0.558185  1
  Ta  Ta8  1  0.561655  0.939690  0.939690  1
  Ta  Ta9  1  0.939690  0.939690  0.561655  1
  Ta  Ta10  1  0.689469  0.310168  0.689469  1
  Ta  Ta11  1  0.939690  0.561655  0.939690  1
  Al  Al12  1  0.995141  0.333940  0.333940  1
  Al  Al13  1  0.333940  0.995141  0.333940  1
  Al  Al14  1  0.333940  0.333940  0.995141  1
  Al  Al15  1  0.915719  0.256445  0.915719  1
  Al  Al16  1  0.915719  0.915719  0.256445  1
  Al  Al17  1  0.256445  0.915719  0.915719  1
  Al  Al18  1  0.335605  0.335605  0.335605  1
  V  V19  1  0.923644  0.923644  0.923644  1
  Re  Re20  1  0.125169  0.125169  0.125169  1
  Re  Re21  1  0.628506  0.120490  0.120490  1
  Re  Re22  1  0.120490  0.628506  0.120490  1
  Re  Re23  1  0.120490  0.120490  0.628506  1
  C  C24  1  0.624451  0.624451  0.624451  1
  C  C25  1  0.124546  0.624429  0.624429  1
  C  C26  1  0.624429  0.124546  0.624429  1
  C  C27  1  0.624429  0.624429  0.124546  1
