# generated using pymatgen
data_CaSi2NiRh2
_symmetry_space_group_name_H-M   'P 1'
_cell_length_a   6.48674354
_cell_length_b   6.68077584
_cell_length_c   6.48674431
_cell_angle_alpha   130.94309932
_cell_angle_beta   114.34889878
_cell_angle_gamma   85.14292771
_symmetry_Int_Tables_number   1
_chemical_formula_structural   CaSi2NiRh2
_chemical_formula_sum   'Ca2 Si4 Ni2 Rh4'
_cell_volume   186.29273559
_cell_formula_units_Z   2
loop_
 _symmetry_equiv_pos_site_id
 _symmetry_equiv_pos_as_xyz
  1  'x, y, z'
loop_
 _atom_site_type_symbol
 _atom_site_label
 _atom_site_symmetry_multiplicity
 _atom_site_fract_x
 _atom_site_fract_y
 _atom_site_fract_z
 _atom_site_occupancy
  Ca  Ca0  1  0.753205  0.034719  0.281516  1
  Ca  Ca1  1  0.246795  0.965281  0.718484  1
  Si  Si2  1  0.576756  0.382032  0.805276  1
  Si  Si3  1  0.924922  0.723200  0.798277  1
  Si  Si4  1  0.423244  0.617968  0.194724  1
  Si  Si5  1  0.075078  0.276800  0.201723  1
  Ni  Ni6  1  0.215890  0.500000  0.715890  1
  Ni  Ni7  1  0.784110  0.500000  0.284110  1
  Rh  Rh8  1  0.500000  0.500000  0.500000  1
  Rh  Rh9  1  0.000000  0.500000  0.000000  1
  Rh  Rh10  1  0.714776  0.000000  0.714776  1
  Rh  Rh11  1  0.285224  0.000000  0.285224  1
