# generated using pymatgen
data_Tb4Ho6Sn5Bi3
_symmetry_space_group_name_H-M   'P 1'
_cell_length_a   8.16561500
_cell_length_b   8.18740275
_cell_length_c   15.49214883
_cell_angle_alpha   90.20963645
_cell_angle_beta   90.00000000
_cell_angle_gamma   90.00000000
_symmetry_Int_Tables_number   1
_chemical_formula_structural   Tb4Ho6Sn5Bi3
_chemical_formula_sum   'Tb8 Ho12 Sn10 Bi6'
_cell_volume   1035.72344594
_cell_formula_units_Z   2
loop_
 _symmetry_equiv_pos_site_id
 _symmetry_equiv_pos_as_xyz
  1  'x, y, z'
loop_
 _atom_site_type_symbol
 _atom_site_label
 _atom_site_symmetry_multiplicity
 _atom_site_fract_x
 _atom_site_fract_y
 _atom_site_fract_z
 _atom_site_occupancy
  Tb  Tb0  1  0.540136  0.329438  0.895837  1
  Tb  Tb1  1  0.040136  0.170562  0.604163  1
  Tb  Tb2  1  0.463679  0.680419  0.394631  1
  Tb  Tb3  1  0.963679  0.819581  0.105369  1
  Tb  Tb4  1  0.472420  0.670479  0.104091  1
  Tb  Tb5  1  0.972420  0.829521  0.395909  1
  Tb  Tb6  1  0.530856  0.320574  0.603814  1
  Tb  Tb7  1  0.030856  0.179426  0.896186  1
  Ho  Ho8  1  0.370473  0.840410  0.874313  1
  Ho  Ho9  1  0.870473  0.659590  0.625687  1
  Ho  Ho10  1  0.624366  0.159730  0.374432  1
  Ho  Ho11  1  0.124366  0.340270  0.125568  1
  Ho  Ho12  1  0.631170  0.164956  0.124878  1
  Ho  Ho13  1  0.131170  0.335044  0.375122  1
  Ho  Ho14  1  0.368079  0.843134  0.624790  1
  Ho  Ho15  1  0.868079  0.656866  0.875210  1
  Ho  Ho16  1  0.201045  0.500066  0.749838  1
  Ho  Ho17  1  0.701045  0.999934  0.750162  1
  Ho  Ho18  1  0.799018  0.499711  0.247013  1
  Ho  Ho19  1  0.299018  0.000289  0.252987  1
  Sn  Sn20  1  0.286083  0.033283  0.457935  1
  Sn  Sn21  1  0.786083  0.466717  0.042065  1
  Sn  Sn22  1  0.564518  0.623786  0.748850  1
  Sn  Sn23  1  0.064518  0.876214  0.751150  1
  Sn  Sn24  1  0.433089  0.377416  0.249680  1
  Sn  Sn25  1  0.933089  0.122584  0.250320  1
  Sn  Sn26  1  0.339490  0.148825  0.751527  1
  Sn  Sn27  1  0.839490  0.351175  0.748473  1
  Sn  Sn28  1  0.662470  0.853484  0.249683  1
  Sn  Sn29  1  0.162470  0.646516  0.250317  1
  Bi  Bi30  1  0.281903  0.030539  0.043384  1
  Bi  Bi31  1  0.781903  0.469461  0.456616  1
  Bi  Bi32  1  0.715277  0.967270  0.542136  1
  Bi  Bi33  1  0.215277  0.532730  0.957864  1
  Bi  Bi34  1  0.715929  0.967853  0.957412  1
  Bi  Bi35  1  0.215929  0.532147  0.542588  1
