# generated using pymatgen
data_HoTm2Th5(ReC2)4
_symmetry_space_group_name_H-M   'P 1'
_cell_length_a   5.28633900
_cell_length_b   6.66434262
_cell_length_c   9.90919148
_cell_angle_alpha   90.34790051
_cell_angle_beta   90.00000000
_cell_angle_gamma   90.00000000
_symmetry_Int_Tables_number   1
_chemical_formula_structural   HoTm2Th5(ReC2)4
_chemical_formula_sum   'Ho1 Tm2 Th5 Re4 C8'
_cell_volume   349.09412552
_cell_formula_units_Z   1
loop_
 _symmetry_equiv_pos_site_id
 _symmetry_equiv_pos_as_xyz
  1  'x, y, z'
loop_
 _atom_site_type_symbol
 _atom_site_label
 _atom_site_symmetry_multiplicity
 _atom_site_fract_x
 _atom_site_fract_y
 _atom_site_fract_z
 _atom_site_occupancy
  Ho  Ho0  1  0.750000  0.179224  0.946094  1
  Tm  Tm1  1  0.750000  0.672977  0.552498  1
  Tm  Tm2  1  0.250000  0.326168  0.447586  1
  Th  Th3  1  0.250000  0.469114  0.781166  1
  Th  Th4  1  0.750000  0.029884  0.285844  1
  Th  Th5  1  0.250000  0.972467  0.711605  1
  Th  Th6  1  0.750000  0.526293  0.221485  1
  Th  Th7  1  0.250000  0.814795  0.047613  1
  Re  Re8  1  0.250000  0.273617  0.137798  1
  Re  Re9  1  0.750000  0.228343  0.634737  1
  Re  Re10  1  0.250000  0.772690  0.367621  1
  Re  Re11  1  0.750000  0.729098  0.860160  1
  C  C12  1  0.250000  0.170674  0.947675  1
  C  C13  1  0.750000  0.833578  0.052079  1
  C  C14  1  0.250000  0.666969  0.553591  1
  C  C15  1  0.750000  0.333983  0.447758  1
  C  C16  1  0.250000  0.041878  0.264714  1
  C  C17  1  0.750000  0.461841  0.758334  1
  C  C18  1  0.250000  0.535496  0.245338  1
  C  C19  1  0.750000  0.960910  0.736305  1
