# generated using pymatgen
data_TbTmFe4(PRh)6
_symmetry_space_group_name_H-M   'P 1'
_cell_length_a   3.80059500
_cell_length_b   10.54013000
_cell_length_c   12.26696700
_cell_angle_alpha   90.00000000
_cell_angle_beta   90.00000000
_cell_angle_gamma   90.00000000
_symmetry_Int_Tables_number   1
_chemical_formula_structural   TbTmFe4(PRh)6
_chemical_formula_sum   'Tb2 Tm2 Fe8 P12 Rh12'
_cell_volume   491.39955294
_cell_formula_units_Z   2
loop_
 _symmetry_equiv_pos_site_id
 _symmetry_equiv_pos_as_xyz
  1  'x, y, z'
loop_
 _atom_site_type_symbol
 _atom_site_label
 _atom_site_symmetry_multiplicity
 _atom_site_fract_x
 _atom_site_fract_y
 _atom_site_fract_z
 _atom_site_occupancy
  Tb  Tb0  1  0.750000  0.421478  0.289661  1
  Tb  Tb1  1  0.750000  0.078522  0.789661  1
  Tm  Tm2  1  0.250000  0.578534  0.710357  1
  Tm  Tm3  1  0.250000  0.921466  0.210357  1
  Fe  Fe4  1  0.250000  0.874995  0.698102  1
  Fe  Fe5  1  0.250000  0.625005  0.198102  1
  Fe  Fe6  1  0.750000  0.123250  0.301225  1
  Fe  Fe7  1  0.750000  0.376750  0.801225  1
  Fe  Fe8  1  0.250000  0.459700  0.933875  1
  Fe  Fe9  1  0.250000  0.040300  0.433875  1
  Fe  Fe10  1  0.750000  0.541653  0.064875  1
  Fe  Fe11  1  0.750000  0.958347  0.564875  1
  P  P12  1  0.250000  0.441400  0.110989  1
  P  P13  1  0.250000  0.058600  0.610989  1
  P  P14  1  0.750000  0.559406  0.887457  1
  P  P15  1  0.750000  0.940594  0.387457  1
  P  P16  1  0.250000  0.272643  0.864206  1
  P  P17  1  0.250000  0.227357  0.364206  1
  P  P18  1  0.750000  0.728262  0.136472  1
  P  P19  1  0.750000  0.771738  0.636472  1
  P  P20  1  0.250000  0.602281  0.380950  1
  P  P21  1  0.250000  0.897719  0.880950  1
  P  P22  1  0.750000  0.398917  0.619654  1
  P  P23  1  0.750000  0.101083  0.119654  1
  Rh  Rh24  1  0.250000  0.714070  0.991039  1
  Rh  Rh25  1  0.250000  0.785930  0.491039  1
  Rh  Rh26  1  0.750000  0.286250  0.009087  1
  Rh  Rh27  1  0.750000  0.213750  0.509087  1
  Rh  Rh28  1  0.250000  0.408417  0.479647  1
  Rh  Rh29  1  0.250000  0.091583  0.979647  1
  Rh  Rh30  1  0.750000  0.592195  0.522573  1
  Rh  Rh31  1  0.750000  0.907805  0.022573  1
  Rh  Rh32  1  0.250000  0.232141  0.173891  1
  Rh  Rh33  1  0.250000  0.267859  0.673891  1
  Rh  Rh34  1  0.750000  0.767110  0.825941  1
  Rh  Rh35  1  0.750000  0.732890  0.325941  1
