# generated using pymatgen
data_Hf2Be9Tc
_symmetry_space_group_name_H-M   'P 1'
_cell_length_a   7.57727432
_cell_length_b   7.57727431
_cell_length_c   7.57727285
_cell_angle_alpha   35.02529974
_cell_angle_beta   35.02530138
_cell_angle_gamma   35.02528311
_symmetry_Int_Tables_number   1
_chemical_formula_structural   Hf2Be9Tc
_chemical_formula_sum   'Hf2 Be9 Tc1'
_cell_volume   127.96203379
_cell_formula_units_Z   1
loop_
 _symmetry_equiv_pos_site_id
 _symmetry_equiv_pos_as_xyz
  1  'x, y, z'
loop_
 _atom_site_type_symbol
 _atom_site_label
 _atom_site_symmetry_multiplicity
 _atom_site_fract_x
 _atom_site_fract_y
 _atom_site_fract_z
 _atom_site_occupancy
  Hf  Hf0  1  0.143358  0.143358  0.143358  1
  Hf  Hf1  1  0.995563  0.995563  0.995563  1
  Be  Be2  1  0.417394  0.917297  0.417394  1
  Be  Be3  1  0.417394  0.417394  0.917297  1
  Be  Be4  1  0.917297  0.417394  0.417394  1
  Be  Be5  1  0.586358  0.074379  0.586358  1
  Be  Be6  1  0.586358  0.586358  0.074379  1
  Be  Be7  1  0.074379  0.586358  0.586358  1
  Be  Be8  1  0.667208  0.667208  0.667208  1
  Be  Be9  1  0.335892  0.335892  0.335892  1
  Be  Be10  1  0.500676  0.500676  0.500676  1
  Tc  Tc11  1  0.858122  0.858122  0.858122  1
