# generated using pymatgen
data_Er2Tm6Tc(B8Os)3
_symmetry_space_group_name_H-M   'P 1'
_cell_length_a   3.62721200
_cell_length_b   9.08346331
_cell_length_c   11.46162700
_cell_angle_alpha   89.95266735
_cell_angle_beta   90.00000000
_cell_angle_gamma   90.00000000
_symmetry_Int_Tables_number   1
_chemical_formula_structural   Er2Tm6Tc(B8Os)3
_chemical_formula_sum   'Er2 Tm6 Tc1 B24 Os3'
_cell_volume   377.63351300
_cell_formula_units_Z   1
loop_
 _symmetry_equiv_pos_site_id
 _symmetry_equiv_pos_as_xyz
  1  'x, y, z'
loop_
 _atom_site_type_symbol
 _atom_site_label
 _atom_site_symmetry_multiplicity
 _atom_site_fract_x
 _atom_site_fract_y
 _atom_site_fract_z
 _atom_site_occupancy
  Er  Er0  1  0.000000  0.323402  0.412959  1
  Er  Er1  1  0.000000  0.677747  0.583581  1
  Tm  Tm2  1  0.000000  0.819729  0.088273  1
  Tm  Tm3  1  0.000000  0.178193  0.914881  1
  Tm  Tm4  1  0.000000  0.942785  0.372726  1
  Tm  Tm5  1  0.000000  0.056729  0.627306  1
  Tm  Tm6  1  0.000000  0.444748  0.127914  1
  Tm  Tm7  1  0.000000  0.556527  0.872556  1
  Tc  Tc8  1  0.000000  0.637798  0.320994  1
  B  B9  1  0.500000  0.552877  0.433238  1
  B  B10  1  0.500000  0.446586  0.567030  1
  B  B11  1  0.500000  0.053409  0.066655  1
  B  B12  1  0.500000  0.946559  0.933549  1
  B  B13  1  0.500000  0.748679  0.419682  1
  B  B14  1  0.500000  0.251460  0.580194  1
  B  B15  1  0.500000  0.248798  0.079956  1
  B  B16  1  0.500000  0.751305  0.920040  1
  B  B17  1  0.500000  0.791909  0.265922  1
  B  B18  1  0.500000  0.208403  0.733992  1
  B  B19  1  0.500000  0.291495  0.233267  1
  B  B20  1  0.500000  0.708881  0.766156  1
  B  B21  1  0.500000  0.631413  0.185265  1
  B  B22  1  0.500000  0.368442  0.815168  1
  B  B23  1  0.500000  0.131165  0.314413  1
  B  B24  1  0.500000  0.869030  0.685139  1
  B  B25  1  0.500000  0.982031  0.212765  1
  B  B26  1  0.500000  0.017918  0.787504  1
  B  B27  1  0.500000  0.481798  0.287049  1
  B  B28  1  0.500000  0.517488  0.713018  1
  B  B29  1  0.500000  0.606378  0.029051  1
  B  B30  1  0.500000  0.393471  0.970372  1
  B  B31  1  0.500000  0.106477  0.470646  1
  B  B32  1  0.500000  0.894495  0.529651  1
  Os  Os33  1  0.000000  0.361795  0.679591  1
  Os  Os34  1  0.000000  0.137425  0.178064  1
  Os  Os35  1  0.000000  0.862654  0.821433  1
