# generated using pymatgen
data_LiSm2Ho(B6Os)2
_symmetry_space_group_name_H-M   'P 1'
_cell_length_a   3.62882800
_cell_length_b   9.04025735
_cell_length_c   11.48081501
_cell_angle_alpha   89.72428089
_cell_angle_beta   90.00000000
_cell_angle_gamma   90.00000000
_symmetry_Int_Tables_number   1
_chemical_formula_structural   LiSm2Ho(B6Os)2
_chemical_formula_sum   'Li2 Sm4 Ho2 B24 Os4'
_cell_volume   376.62996342
_cell_formula_units_Z   2
loop_
 _symmetry_equiv_pos_site_id
 _symmetry_equiv_pos_as_xyz
  1  'x, y, z'
loop_
 _atom_site_type_symbol
 _atom_site_label
 _atom_site_symmetry_multiplicity
 _atom_site_fract_x
 _atom_site_fract_y
 _atom_site_fract_z
 _atom_site_occupancy
  Li  Li0  1  0.000000  0.945139  0.375051  1
  Li  Li1  1  0.000000  0.054861  0.624949  1
  Sm  Sm2  1  0.000000  0.315298  0.416125  1
  Sm  Sm3  1  0.000000  0.684702  0.583875  1
  Sm  Sm4  1  0.000000  0.824675  0.087924  1
  Sm  Sm5  1  0.000000  0.175325  0.912076  1
  Ho  Ho6  1  0.000000  0.441961  0.132339  1
  Ho  Ho7  1  0.000000  0.558039  0.867661  1
  B  B8  1  0.500000  0.555826  0.432257  1
  B  B9  1  0.500000  0.444174  0.567743  1
  B  B10  1  0.500000  0.054180  0.069810  1
  B  B11  1  0.500000  0.945820  0.930190  1
  B  B12  1  0.500000  0.760039  0.416623  1
  B  B13  1  0.500000  0.239961  0.583377  1
  B  B14  1  0.500000  0.248057  0.084133  1
  B  B15  1  0.500000  0.751943  0.915867  1
  B  B16  1  0.500000  0.796013  0.266338  1
  B  B17  1  0.500000  0.203987  0.733662  1
  B  B18  1  0.500000  0.286897  0.236687  1
  B  B19  1  0.500000  0.713103  0.763313  1
  B  B20  1  0.500000  0.631919  0.187555  1
  B  B21  1  0.500000  0.368081  0.812445  1
  B  B22  1  0.500000  0.121782  0.319244  1
  B  B23  1  0.500000  0.878218  0.680756  1
  B  B24  1  0.500000  0.979825  0.215928  1
  B  B25  1  0.500000  0.020175  0.784072  1
  B  B26  1  0.500000  0.483965  0.289391  1
  B  B27  1  0.500000  0.516035  0.710609  1
  B  B28  1  0.500000  0.599942  0.027054  1
  B  B29  1  0.500000  0.400058  0.972946  1
  B  B30  1  0.500000  0.090211  0.474923  1
  B  B31  1  0.500000  0.909789  0.525077  1
  Os  Os32  1  0.000000  0.643597  0.322485  1
  Os  Os33  1  0.000000  0.356403  0.677515  1
  Os  Os34  1  0.000000  0.135009  0.184829  1
  Os  Os35  1  0.000000  0.864991  0.815171  1
