# generated using pymatgen
data_Er6Sc4InBi5
_symmetry_space_group_name_H-M   'P 1'
_cell_length_a   8.91813252
_cell_length_b   8.89676928
_cell_length_c   6.21154900
_cell_angle_alpha   90.00000000
_cell_angle_beta   90.00000000
_cell_angle_gamma   119.92079328
_symmetry_Int_Tables_number   1
_chemical_formula_structural   Er6Sc4InBi5
_chemical_formula_sum   'Er6 Sc4 In1 Bi5'
_cell_volume   427.15242032
_cell_formula_units_Z   1
loop_
 _symmetry_equiv_pos_site_id
 _symmetry_equiv_pos_as_xyz
  1  'x, y, z'
loop_
 _atom_site_type_symbol
 _atom_site_label
 _atom_site_symmetry_multiplicity
 _atom_site_fract_x
 _atom_site_fract_y
 _atom_site_fract_z
 _atom_site_occupancy
  Er  Er0  1  0.761610  0.759076  0.750000  1
  Er  Er1  1  0.238390  0.997466  0.750000  1
  Er  Er2  1  0.000000  0.237264  0.750000  1
  Er  Er3  1  0.233927  0.241851  0.250000  1
  Er  Er4  1  0.766073  0.007924  0.250000  1
  Er  Er5  1  0.000000  0.757801  0.250000  1
  Sc  Sc6  1  0.670090  0.334261  0.001700  1
  Sc  Sc7  1  0.329910  0.664171  0.001700  1
  Sc  Sc8  1  0.329910  0.664171  0.498300  1
  Sc  Sc9  1  0.670090  0.334261  0.498300  1
  In  In10  1  0.000000  0.401367  0.250000  1
  Bi  Bi11  1  0.396732  0.395079  0.750000  1
  Bi  Bi12  1  0.603268  0.998347  0.750000  1
  Bi  Bi13  1  0.000000  0.599739  0.750000  1
  Bi  Bi14  1  0.604652  0.605937  0.250000  1
  Bi  Bi15  1  0.395348  0.001284  0.250000  1
