# generated using pymatgen
data_Ac3RuI3
_symmetry_space_group_name_H-M   'P 1'
_cell_length_a   4.52741500
_cell_length_b   9.98220657
_cell_length_c   12.95367884
_cell_angle_alpha   86.17533950
_cell_angle_beta   90.00000000
_cell_angle_gamma   90.00000000
_symmetry_Int_Tables_number   1
_chemical_formula_structural   Ac3RuI3
_chemical_formula_sum   'Ac6 Ru2 I6'
_cell_volume   584.11944853
_cell_formula_units_Z   2
loop_
 _symmetry_equiv_pos_site_id
 _symmetry_equiv_pos_as_xyz
  1  'x, y, z'
loop_
 _atom_site_type_symbol
 _atom_site_label
 _atom_site_symmetry_multiplicity
 _atom_site_fract_x
 _atom_site_fract_y
 _atom_site_fract_z
 _atom_site_occupancy
  Ac  Ac0  1  0.250000  0.314718  0.880267  1
  Ac  Ac1  1  0.750000  0.685282  0.119733  1
  Ac  Ac2  1  0.750000  0.118577  0.666385  1
  Ac  Ac3  1  0.250000  0.881423  0.333615  1
  Ac  Ac4  1  0.750000  0.097001  0.103222  1
  Ac  Ac5  1  0.250000  0.902999  0.896778  1
  Ru  Ru6  1  0.750000  0.113785  0.875599  1
  Ru  Ru7  1  0.250000  0.886215  0.124401  1
  I  I8  1  0.750000  0.130459  0.380232  1
  I  I9  1  0.250000  0.869541  0.619768  1
  I  I10  1  0.250000  0.366849  0.617823  1
  I  I11  1  0.750000  0.633151  0.382177  1
  I  I12  1  0.750000  0.607357  0.863760  1
  I  I13  1  0.250000  0.392643  0.136240  1
