# generated using pymatgen
data_RbSb3O5
_symmetry_space_group_name_H-M   'P 1'
_cell_length_a   14.39138000
_cell_length_b   7.35765539
_cell_length_c   8.42907684
_cell_angle_alpha   58.55080443
_cell_angle_beta   90.00000000
_cell_angle_gamma   90.00000000
_symmetry_Int_Tables_number   1
_chemical_formula_structural   RbSb3O5
_chemical_formula_sum   'Rb4 Sb12 O20'
_cell_volume   761.41851413
_cell_formula_units_Z   4
loop_
 _symmetry_equiv_pos_site_id
 _symmetry_equiv_pos_as_xyz
  1  'x, y, z'
loop_
 _atom_site_type_symbol
 _atom_site_label
 _atom_site_symmetry_multiplicity
 _atom_site_fract_x
 _atom_site_fract_y
 _atom_site_fract_z
 _atom_site_occupancy
  Rb  Rb0  1  0.243732  0.949263  0.952264  1
  Rb  Rb1  1  0.743732  0.050737  0.547736  1
  Rb  Rb2  1  0.756268  0.050737  0.047736  1
  Rb  Rb3  1  0.256268  0.949263  0.452264  1
  Sb  Sb4  1  0.604410  0.546170  0.635745  1
  Sb  Sb5  1  0.104410  0.453830  0.864255  1
  Sb  Sb6  1  0.395590  0.453830  0.364255  1
  Sb  Sb7  1  0.895590  0.546170  0.135745  1
  Sb  Sb8  1  0.014235  0.983460  0.202261  1
  Sb  Sb9  1  0.514235  0.016540  0.297739  1
  Sb  Sb10  1  0.985765  0.016540  0.797739  1
  Sb  Sb11  1  0.485765  0.983460  0.702261  1
  Sb  Sb12  1  0.641508  0.508366  0.070093  1
  Sb  Sb13  1  0.141508  0.491634  0.429907  1
  Sb  Sb14  1  0.358492  0.491634  0.929907  1
  Sb  Sb15  1  0.858492  0.508366  0.570093  1
  O  O16  1  0.129356  0.174850  0.102030  1
  O  O17  1  0.629356  0.825150  0.397970  1
  O  O18  1  0.870644  0.825150  0.897970  1
  O  O19  1  0.370644  0.174850  0.602030  1
  O  O20  1  0.154064  0.341342  0.708951  1
  O  O21  1  0.654064  0.658658  0.791049  1
  O  O22  1  0.845936  0.658658  0.291049  1
  O  O23  1  0.345936  0.341342  0.208951  1
  O  O24  1  0.096667  0.747980  0.423893  1
  O  O25  1  0.596667  0.252020  0.076107  1
  O  O26  1  0.903333  0.252020  0.576107  1
  O  O27  1  0.403333  0.747980  0.923893  1
  O  O28  1  0.462647  0.805921  0.589075  1
  O  O29  1  0.962647  0.194079  0.910925  1
  O  O30  1  0.537353  0.194079  0.410925  1
  O  O31  1  0.037353  0.805921  0.089075  1
  O  O32  1  0.273381  0.594192  0.367008  1
  O  O33  1  0.773381  0.405808  0.132992  1
  O  O34  1  0.726619  0.405808  0.632992  1
  O  O35  1  0.226619  0.594192  0.867008  1
