# generated using pymatgen
data_Cu6PbClO8
_symmetry_space_group_name_H-M   'P 1'
_cell_length_a   6.56474344
_cell_length_b   6.56474284
_cell_length_c   6.56474400
_cell_angle_alpha   60.00000425
_cell_angle_beta   60.00000724
_cell_angle_gamma   59.99999602
_symmetry_Int_Tables_number   1
_chemical_formula_structural   Cu6PbClO8
_chemical_formula_sum   'Cu6 Pb1 Cl1 O8'
_cell_volume   200.04988121
_cell_formula_units_Z   1
loop_
 _symmetry_equiv_pos_site_id
 _symmetry_equiv_pos_as_xyz
  1  'x, y, z'
loop_
 _atom_site_type_symbol
 _atom_site_label
 _atom_site_symmetry_multiplicity
 _atom_site_fract_x
 _atom_site_fract_y
 _atom_site_fract_z
 _atom_site_occupancy
  Cu  Cu0  1  0.000000  0.000000  0.500000  1
  Cu  Cu1  1  0.500000  0.000000  0.500000  1
  Cu  Cu2  1  0.000000  0.500000  0.500000  1
  Cu  Cu3  1  0.500000  0.500000  0.000000  1
  Cu  Cu4  1  0.000000  0.500000  0.000000  1
  Cu  Cu5  1  0.500000  0.000000  0.000000  1
  Pb  Pb6  1  0.000000  0.000000  0.000000  1
  Cl  Cl7  1  0.500000  0.500000  0.500000  1
  O  O8  1  0.855686  0.855686  0.432942  1
  O  O9  1  0.855686  0.432942  0.855686  1
  O  O10  1  0.432942  0.855686  0.855686  1
  O  O11  1  0.855686  0.855686  0.855686  1
  O  O12  1  0.144314  0.144314  0.567058  1
  O  O13  1  0.144314  0.567058  0.144314  1
  O  O14  1  0.567058  0.144314  0.144314  1
  O  O15  1  0.144314  0.144314  0.144314  1
