# generated using pymatgen
data_Sc22Fe2(IrRu)3
_symmetry_space_group_name_H-M   'P 1'
_cell_length_a   9.41060972
_cell_length_b   9.41061006
_cell_length_c   9.43457320
_cell_angle_alpha   60.08398785
_cell_angle_beta   60.08398760
_cell_angle_gamma   60.00000054
_symmetry_Int_Tables_number   1
_chemical_formula_structural   Sc22Fe2(IrRu)3
_chemical_formula_sum   'Sc22 Fe2 Ir3 Ru3'
_cell_volume   591.55204982
_cell_formula_units_Z   1
loop_
 _symmetry_equiv_pos_site_id
 _symmetry_equiv_pos_as_xyz
  1  'x, y, z'
loop_
 _atom_site_type_symbol
 _atom_site_label
 _atom_site_symmetry_multiplicity
 _atom_site_fract_x
 _atom_site_fract_y
 _atom_site_fract_z
 _atom_site_occupancy
  Sc  Sc0  1  0.807874  0.807874  0.192497  1
  Sc  Sc1  1  0.191756  0.807874  0.192497  1
  Sc  Sc2  1  0.807874  0.191756  0.192497  1
  Sc  Sc3  1  0.192126  0.192126  0.807503  1
  Sc  Sc4  1  0.808244  0.192126  0.807503  1
  Sc  Sc5  1  0.192126  0.808244  0.807503  1
  Sc  Sc6  1  0.614126  0.614126  0.157622  1
  Sc  Sc7  1  0.614222  0.156249  0.615307  1
  Sc  Sc8  1  0.156249  0.614222  0.615307  1
  Sc  Sc9  1  0.614222  0.614222  0.615307  1
  Sc  Sc10  1  0.385874  0.385874  0.842378  1
  Sc  Sc11  1  0.385778  0.843751  0.384693  1
  Sc  Sc12  1  0.843751  0.385778  0.384693  1
  Sc  Sc13  1  0.385778  0.385778  0.384693  1
  Sc  Sc14  1  0.841395  0.841395  0.475815  1
  Sc  Sc15  1  0.840899  0.473521  0.844681  1
  Sc  Sc16  1  0.473521  0.840899  0.844681  1
  Sc  Sc17  1  0.840899  0.840899  0.844681  1
  Sc  Sc18  1  0.158605  0.158605  0.524185  1
  Sc  Sc19  1  0.159101  0.526479  0.155319  1
  Sc  Sc20  1  0.526479  0.159101  0.155319  1
  Sc  Sc21  1  0.159101  0.159101  0.155319  1
  Fe  Fe22  1  0.000000  0.000000  0.000000  1
  Fe  Fe23  1  0.500000  0.500000  0.500000  1
  Ir  Ir24  1  0.000000  0.000000  0.500000  1
  Ir  Ir25  1  0.500000  0.000000  0.500000  1
  Ir  Ir26  1  0.000000  0.500000  0.500000  1
  Ru  Ru27  1  0.500000  0.500000  0.000000  1
  Ru  Ru28  1  0.000000  0.500000  0.000000  1
  Ru  Ru29  1  0.500000  0.000000  0.000000  1
