# generated using pymatgen
data_Ac5TbPd6
_symmetry_space_group_name_H-M   'P 1'
_cell_length_a   6.07294485
_cell_length_b   4.72684000
_cell_length_c   23.19097974
_cell_angle_alpha   90.00000000
_cell_angle_beta   97.48872882
_cell_angle_gamma   90.00000000
_symmetry_Int_Tables_number   1
_chemical_formula_structural   Ac5TbPd6
_chemical_formula_sum   'Ac10 Tb2 Pd12'
_cell_volume   660.03830570
_cell_formula_units_Z   2
loop_
 _symmetry_equiv_pos_site_id
 _symmetry_equiv_pos_as_xyz
  1  'x, y, z'
loop_
 _atom_site_type_symbol
 _atom_site_label
 _atom_site_symmetry_multiplicity
 _atom_site_fract_x
 _atom_site_fract_y
 _atom_site_fract_z
 _atom_site_occupancy
  Ac  Ac0  1  0.511080  0.250001  0.217291  1
  Ac  Ac1  1  0.031931  0.750000  0.264833  1
  Ac  Ac2  1  0.800496  0.250001  0.390070  1
  Ac  Ac3  1  0.324084  0.750000  0.435391  1
  Ac  Ac4  1  0.672036  0.250001  0.560696  1
  Ac  Ac5  1  0.195557  0.750000  0.606364  1
  Ac  Ac6  1  0.968156  0.250001  0.730651  1
  Ac  Ac7  1  0.488855  0.750000  0.776989  1
  Ac  Ac8  1  0.832391  0.250001  0.901866  1
  Ac  Ac9  1  0.332336  0.750000  0.949137  1
  Tb  Tb10  1  0.675306  0.250001  0.063020  1
  Tb  Tb11  1  0.167761  0.750000  0.103541  1
  Pd  Pd12  1  0.160655  0.250001  0.026441  1
  Pd  Pd13  1  0.683421  0.750000  0.139577  1
  Pd  Pd14  1  0.002905  0.250001  0.168521  1
  Pd  Pd15  1  0.557558  0.750000  0.312755  1
  Pd  Pd16  1  0.273533  0.250001  0.342411  1
  Pd  Pd17  1  0.843246  0.750000  0.483587  1
  Pd  Pd18  1  0.153906  0.250001  0.513259  1
  Pd  Pd19  1  0.723942  0.750000  0.653383  1
  Pd  Pd20  1  0.439716  0.250001  0.683706  1
  Pd  Pd21  1  0.002850  0.750000  0.824145  1
  Pd  Pd22  1  0.322022  0.250001  0.854192  1
  Pd  Pd23  1  0.836258  0.750000  0.998174  1
