# generated using pymatgen
data_Dy4TmBiAu2
_symmetry_space_group_name_H-M   'P 1'
_cell_length_a   8.70852621
_cell_length_b   8.70852594
_cell_length_c   8.70852618
_cell_angle_alpha   124.26964056
_cell_angle_beta   124.26963933
_cell_angle_gamma   82.75129821
_symmetry_Int_Tables_number   1
_chemical_formula_structural   Dy4TmBiAu2
_chemical_formula_sum   'Dy8 Tm2 Bi2 Au4'
_cell_volume   433.05787581
_cell_formula_units_Z   2
loop_
 _symmetry_equiv_pos_site_id
 _symmetry_equiv_pos_as_xyz
  1  'x, y, z'
loop_
 _atom_site_type_symbol
 _atom_site_label
 _atom_site_symmetry_multiplicity
 _atom_site_fract_x
 _atom_site_fract_y
 _atom_site_fract_z
 _atom_site_occupancy
  Dy  Dy0  1  0.515901  0.015901  0.811605  1
  Dy  Dy1  1  0.204297  0.704297  0.188395  1
  Dy  Dy2  1  0.015901  0.204297  0.500000  1
  Dy  Dy3  1  0.704297  0.515901  0.500000  1
  Dy  Dy4  1  0.484099  0.984099  0.188395  1
  Dy  Dy5  1  0.795703  0.295703  0.811605  1
  Dy  Dy6  1  0.984099  0.795703  0.500000  1
  Dy  Dy7  1  0.295703  0.484099  0.500000  1
  Tm  Tm8  1  0.500000  0.500000  0.000000  1
  Tm  Tm9  1  0.000000  0.000000  0.000000  1
  Bi  Bi10  1  0.250000  0.250000  0.000000  1
  Bi  Bi11  1  0.750000  0.750000  0.000000  1
  Au  Au12  1  0.137590  0.637590  0.775181  1
  Au  Au13  1  0.862410  0.362410  0.224819  1
  Au  Au14  1  0.637590  0.862410  0.500000  1
  Au  Au15  1  0.362410  0.137590  0.500000  1
