# generated using pymatgen
data_Ho6LuCo17P12
_symmetry_space_group_name_H-M   'P 1'
_cell_length_a   3.72089100
_cell_length_b   10.61859400
_cell_length_c   12.33272900
_cell_angle_alpha   90.00000000
_cell_angle_beta   90.00000000
_cell_angle_gamma   90.00000000
_symmetry_Int_Tables_number   1
_chemical_formula_structural   Ho6LuCo17P12
_chemical_formula_sum   'Ho6 Lu1 Co17 P12'
_cell_volume   487.27390286
_cell_formula_units_Z   1
loop_
 _symmetry_equiv_pos_site_id
 _symmetry_equiv_pos_as_xyz
  1  'x, y, z'
loop_
 _atom_site_type_symbol
 _atom_site_label
 _atom_site_symmetry_multiplicity
 _atom_site_fract_x
 _atom_site_fract_y
 _atom_site_fract_z
 _atom_site_occupancy
  Ho  Ho0  1  0.000000  0.500000  0.530486  1
  Ho  Ho1  1  0.500000  0.000000  0.477956  1
  Ho  Ho2  1  0.500000  0.822843  0.207836  1
  Ho  Ho3  1  0.500000  0.177157  0.207836  1
  Ho  Ho4  1  0.000000  0.682899  0.795405  1
  Ho  Ho5  1  0.000000  0.317101  0.795405  1
  Lu  Lu6  1  0.500000  0.500000  0.154159  1
  Co  Co7  1  0.000000  0.500000  0.982302  1
  Co  Co8  1  0.500000  0.000000  0.013181  1
  Co  Co9  1  0.500000  0.293420  0.435828  1
  Co  Co10  1  0.500000  0.706580  0.435828  1
  Co  Co11  1  0.000000  0.201311  0.570833  1
  Co  Co12  1  0.000000  0.798689  0.570833  1
  Co  Co13  1  0.500000  0.880498  0.707299  1
  Co  Co14  1  0.500000  0.119502  0.707299  1
  Co  Co15  1  0.000000  0.623246  0.301026  1
  Co  Co16  1  0.000000  0.376754  0.301026  1
  Co  Co17  1  0.500000  0.324811  0.987335  1
  Co  Co18  1  0.500000  0.675189  0.987335  1
  Co  Co19  1  0.000000  0.160133  0.999669  1
  Co  Co20  1  0.000000  0.839867  0.999669  1
  Co  Co21  1  0.000000  0.000000  0.835479  1
  Co  Co22  1  0.500000  0.500000  0.703153  1
  Co  Co23  1  0.000000  0.000000  0.295613  1
  P  P24  1  0.500000  0.308653  0.618490  1
  P  P25  1  0.500000  0.691347  0.618490  1
  P  P26  1  0.000000  0.187793  0.386958  1
  P  P27  1  0.000000  0.812207  0.386958  1
  P  P28  1  0.500000  0.500000  0.881949  1
  P  P29  1  0.000000  0.000000  0.116023  1
  P  P30  1  0.500000  0.853071  0.887478  1
  P  P31  1  0.500000  0.146929  0.887478  1
  P  P32  1  0.000000  0.667711  0.097822  1
  P  P33  1  0.000000  0.332289  0.097822  1
  P  P34  1  0.500000  0.500000  0.363544  1
  P  P35  1  0.000000  0.000000  0.654197  1
