# generated using pymatgen
data_Sc17Si16Tc2W
_symmetry_space_group_name_H-M   'P 1'
_cell_length_a   6.75442782
_cell_length_b   7.08356324
_cell_length_c   13.38317100
_cell_angle_alpha   90.00000000
_cell_angle_beta   90.00000000
_cell_angle_gamma   89.78597439
_symmetry_Int_Tables_number   1
_chemical_formula_structural   Sc17Si16Tc2W
_chemical_formula_sum   'Sc17 Si16 Tc2 W1'
_cell_volume   640.31892444
_cell_formula_units_Z   1
loop_
 _symmetry_equiv_pos_site_id
 _symmetry_equiv_pos_as_xyz
  1  'x, y, z'
loop_
 _atom_site_type_symbol
 _atom_site_label
 _atom_site_symmetry_multiplicity
 _atom_site_fract_x
 _atom_site_fract_y
 _atom_site_fract_z
 _atom_site_occupancy
  Sc  Sc0  1  0.349857  0.493134  0.250000  1
  Sc  Sc1  1  0.991474  0.679572  0.594874  1
  Sc  Sc2  1  0.010536  0.317197  0.405996  1
  Sc  Sc3  1  0.512425  0.179695  0.408619  1
  Sc  Sc4  1  0.010536  0.317197  0.094004  1
  Sc  Sc5  1  0.487879  0.819902  0.597847  1
  Sc  Sc6  1  0.991474  0.679572  0.905126  1
  Sc  Sc7  1  0.487879  0.819902  0.902153  1
  Sc  Sc8  1  0.512425  0.179695  0.091381  1
  Sc  Sc9  1  0.326290  0.325520  0.629072  1
  Sc  Sc10  1  0.675507  0.674182  0.376890  1
  Sc  Sc11  1  0.176096  0.833514  0.373563  1
  Sc  Sc12  1  0.675507  0.674182  0.123110  1
  Sc  Sc13  1  0.821983  0.169774  0.626120  1
  Sc  Sc14  1  0.326290  0.325520  0.870928  1
  Sc  Sc15  1  0.821983  0.169774  0.873880  1
  Sc  Sc16  1  0.176096  0.833514  0.126437  1
  Si  Si17  1  0.014303  0.403332  0.750000  1
  Si  Si18  1  0.973788  0.609216  0.250000  1
  Si  Si19  1  0.489133  0.909620  0.250000  1
  Si  Si20  1  0.518257  0.089899  0.750000  1
  Si  Si21  1  0.285496  0.643120  0.750000  1
  Si  Si22  1  0.722293  0.347798  0.250000  1
  Si  Si23  1  0.209992  0.141321  0.250000  1
  Si  Si24  1  0.787005  0.850584  0.750000  1
  Si  Si25  1  0.160475  0.027286  0.546951  1
  Si  Si26  1  0.840749  0.971775  0.455079  1
  Si  Si27  1  0.335297  0.535541  0.464804  1
  Si  Si28  1  0.840749  0.971775  0.044921  1
  Si  Si29  1  0.658542  0.473390  0.549171  1
  Si  Si30  1  0.160475  0.027286  0.953049  1
  Si  Si31  1  0.658542  0.473390  0.950829  1
  Si  Si32  1  0.335297  0.535541  0.035196  1
  Tc  Tc33  1  0.853815  0.002010  0.250000  1
  Tc  Tc34  1  0.650809  0.502824  0.750000  1
  W  W35  1  0.150744  0.992446  0.750000  1
