# generated using pymatgen
data_Mg4B8Ir3Ru7
_symmetry_space_group_name_H-M   'P 1'
_cell_length_a   2.94932500
_cell_length_b   8.49730685
_cell_length_c   10.12317210
_cell_angle_alpha   89.41351737
_cell_angle_beta   90.00000000
_cell_angle_gamma   90.00000000
_symmetry_Int_Tables_number   1
_chemical_formula_structural   Mg4B8Ir3Ru7
_chemical_formula_sum   'Mg4 B8 Ir3 Ru7'
_cell_volume   253.68676001
_cell_formula_units_Z   1
loop_
 _symmetry_equiv_pos_site_id
 _symmetry_equiv_pos_as_xyz
  1  'x, y, z'
loop_
 _atom_site_type_symbol
 _atom_site_label
 _atom_site_symmetry_multiplicity
 _atom_site_fract_x
 _atom_site_fract_y
 _atom_site_fract_z
 _atom_site_occupancy
  Mg  Mg0  1  0.500000  0.652674  0.819272  1
  Mg  Mg1  1  0.500000  0.347326  0.180728  1
  Mg  Mg2  1  0.500000  0.147174  0.686738  1
  Mg  Mg3  1  0.500000  0.852826  0.313262  1
  B  B4  1  0.500000  0.849853  0.607622  1
  B  B5  1  0.500000  0.150147  0.392378  1
  B  B6  1  0.500000  0.350048  0.904477  1
  B  B7  1  0.500000  0.649952  0.095523  1
  B  B8  1  0.500000  0.961892  0.910529  1
  B  B9  1  0.500000  0.038108  0.089471  1
  B  B10  1  0.500000  0.462841  0.587800  1
  B  B11  1  0.500000  0.537159  0.412200  1
  Ir  Ir12  1  0.000000  0.397958  0.737890  1
  Ir  Ir13  1  0.000000  0.602042  0.262110  1
  Ir  Ir14  1  0.000000  0.000000  0.500000  1
  Ru  Ru15  1  0.000000  0.896656  0.762786  1
  Ru  Ru16  1  0.000000  0.103344  0.237214  1
  Ru  Ru17  1  0.000000  0.500000  0.000000  1
  Ru  Ru18  1  0.000000  0.658866  0.545740  1
  Ru  Ru19  1  0.000000  0.341134  0.454260  1
  Ru  Ru20  1  0.000000  0.156493  0.951907  1
  Ru  Ru21  1  0.000000  0.843507  0.048093  1
