# generated using pymatgen
data_AcNd(GeAu)2
_symmetry_space_group_name_H-M   'P 1'
_cell_length_a   4.53695300
_cell_length_b   4.53695364
_cell_length_c   8.25475500
_cell_angle_alpha   90.00000000
_cell_angle_beta   90.00000000
_cell_angle_gamma   120.00000265
_symmetry_Int_Tables_number   1
_chemical_formula_structural   AcNd(GeAu)2
_chemical_formula_sum   'Ac1 Nd1 Ge2 Au2'
_cell_volume   147.15107175
_cell_formula_units_Z   1
loop_
 _symmetry_equiv_pos_site_id
 _symmetry_equiv_pos_as_xyz
  1  'x, y, z'
loop_
 _atom_site_type_symbol
 _atom_site_label
 _atom_site_symmetry_multiplicity
 _atom_site_fract_x
 _atom_site_fract_y
 _atom_site_fract_z
 _atom_site_occupancy
  Ac  Ac0  1  0.000000  0.000000  0.751945  1
  Nd  Nd1  1  0.000000  0.000000  0.249097  1
  Ge  Ge2  1  0.666667  0.333333  0.987795  1
  Ge  Ge3  1  0.333333  0.666667  0.459888  1
  Au  Au4  1  0.666667  0.333333  0.496155  1
  Au  Au5  1  0.333333  0.666667  0.035120  1
