# generated using pymatgen
data_Tm3ScAl2Ru3
_symmetry_space_group_name_H-M   'P 1'
_cell_length_a   7.01732000
_cell_length_b   7.02615894
_cell_length_c   4.07881700
_cell_angle_alpha   90.00000000
_cell_angle_beta   90.00000000
_cell_angle_gamma   119.95840367
_symmetry_Int_Tables_number   1
_chemical_formula_structural   Tm3ScAl2Ru3
_chemical_formula_sum   'Tm3 Sc1 Al2 Ru3'
_cell_volume   174.23523546
_cell_formula_units_Z   1
loop_
 _symmetry_equiv_pos_site_id
 _symmetry_equiv_pos_as_xyz
  1  'x, y, z'
loop_
 _atom_site_type_symbol
 _atom_site_label
 _atom_site_symmetry_multiplicity
 _atom_site_fract_x
 _atom_site_fract_y
 _atom_site_fract_z
 _atom_site_occupancy
  Tm  Tm0  1  0.402509  0.000000  0.500000  1
  Tm  Tm1  1  0.007927  0.428647  0.500000  1
  Tm  Tm2  1  0.579280  0.571354  0.500000  1
  Sc  Sc3  1  0.758782  0.000000  0.000000  1
  Al  Al4  1  0.246669  0.245620  0.000000  1
  Al  Al5  1  0.001049  0.754379  0.000000  1
  Ru  Ru6  1  0.667302  0.340325  0.000000  1
  Ru  Ru7  1  0.326978  0.659675  0.000000  1
  Ru  Ru8  1  0.009501  0.000000  0.500000  1
