# generated using pymatgen
data_Cs4Ti3Se14
_symmetry_space_group_name_H-M   'P 1'
_cell_length_a   12.14539827
_cell_length_b   12.14539816
_cell_length_c   14.66960500
_cell_angle_alpha   68.53543867
_cell_angle_beta   68.53543887
_cell_angle_gamma   43.07943913
_symmetry_Int_Tables_number   1
_chemical_formula_structural   Cs4Ti3Se14
_chemical_formula_sum   'Cs8 Ti6 Se28'
_cell_volume   1358.81181048
_cell_formula_units_Z   2
loop_
 _symmetry_equiv_pos_site_id
 _symmetry_equiv_pos_as_xyz
  1  'x, y, z'
loop_
 _atom_site_type_symbol
 _atom_site_label
 _atom_site_symmetry_multiplicity
 _atom_site_fract_x
 _atom_site_fract_y
 _atom_site_fract_z
 _atom_site_occupancy
  Cs  Cs0  1  0.978601  0.621335  0.609112  1
  Cs  Cs1  1  0.378665  0.021399  0.890888  1
  Cs  Cs2  1  0.021399  0.378665  0.390888  1
  Cs  Cs3  1  0.621335  0.978601  0.109112  1
  Cs  Cs4  1  0.810714  0.317735  0.847234  1
  Cs  Cs5  1  0.682265  0.189286  0.652766  1
  Cs  Cs6  1  0.189286  0.682265  0.152766  1
  Cs  Cs7  1  0.317735  0.810714  0.347234  1
  Ti  Ti8  1  0.074919  0.591980  0.916245  1
  Ti  Ti9  1  0.408020  0.925081  0.583755  1
  Ti  Ti10  1  0.925081  0.408020  0.083755  1
  Ti  Ti11  1  0.591980  0.074919  0.416245  1
  Ti  Ti12  1  0.240442  0.759558  0.750000  1
  Ti  Ti13  1  0.759558  0.240442  0.250000  1
  Se  Se14  1  0.127523  0.804115  0.605791  1
  Se  Se15  1  0.195885  0.872477  0.894209  1
  Se  Se16  1  0.872477  0.195885  0.394209  1
  Se  Se17  1  0.804115  0.127523  0.105791  1
  Se  Se18  1  0.326479  0.546506  0.918079  1
  Se  Se19  1  0.453494  0.673521  0.581921  1
  Se  Se20  1  0.673521  0.453494  0.081921  1
  Se  Se21  1  0.546506  0.326479  0.418079  1
  Se  Se22  1  0.943389  0.895239  0.865900  1
  Se  Se23  1  0.104761  0.056611  0.634100  1
  Se  Se24  1  0.056611  0.104761  0.134100  1
  Se  Se25  1  0.895239  0.943389  0.365900  1
  Se  Se26  1  0.251934  0.548736  0.726999  1
  Se  Se27  1  0.451264  0.748066  0.773001  1
  Se  Se28  1  0.748066  0.451264  0.273001  1
  Se  Se29  1  0.548736  0.251934  0.226999  1
  Se  Se30  1  0.999617  0.438976  0.904440  1
  Se  Se31  1  0.561024  0.000383  0.595560  1
  Se  Se32  1  0.000383  0.561024  0.095560  1
  Se  Se33  1  0.438976  0.999617  0.404440  1
  Se  Se34  1  0.173600  0.183598  0.659766  1
  Se  Se35  1  0.816402  0.826400  0.840234  1
  Se  Se36  1  0.826400  0.816402  0.340234  1
  Se  Se37  1  0.183598  0.173600  0.159766  1
  Se  Se38  1  0.682057  0.617460  0.603818  1
  Se  Se39  1  0.382540  0.317943  0.896182  1
  Se  Se40  1  0.317943  0.382540  0.396182  1
  Se  Se41  1  0.617460  0.682057  0.103818  1
