# generated using pymatgen
data_ErMgZn3Ru
_symmetry_space_group_name_H-M   'P 1'
_cell_length_a   5.33802445
_cell_length_b   5.33802533
_cell_length_c   5.33802700
_cell_angle_alpha   57.57185020
_cell_angle_beta   57.57184418
_cell_angle_gamma   57.57184999
_symmetry_Int_Tables_number   1
_chemical_formula_structural   ErMgZn3Ru
_chemical_formula_sum   'Er1 Mg1 Zn3 Ru1'
_cell_volume   101.54984487
_cell_formula_units_Z   1
loop_
 _symmetry_equiv_pos_site_id
 _symmetry_equiv_pos_as_xyz
  1  'x, y, z'
loop_
 _atom_site_type_symbol
 _atom_site_label
 _atom_site_symmetry_multiplicity
 _atom_site_fract_x
 _atom_site_fract_y
 _atom_site_fract_z
 _atom_site_occupancy
  Er  Er0  1  0.253368  0.253368  0.253368  1
  Mg  Mg1  1  0.998308  0.998308  0.998308  1
  Zn  Zn2  1  0.625353  0.625353  0.122660  1
  Zn  Zn3  1  0.625353  0.122660  0.625353  1
  Zn  Zn4  1  0.122660  0.625353  0.625353  1
  Ru  Ru5  1  0.624957  0.624957  0.624957  1
