# generated using pymatgen
data_CrPb4SeO10
_symmetry_space_group_name_H-M   'P 1'
_cell_length_a   7.65598610
_cell_length_b   7.65598602
_cell_length_c   7.30858654
_cell_angle_alpha   68.84079853
_cell_angle_beta   68.84080074
_cell_angle_gamma   44.94713385
_symmetry_Int_Tables_number   1
_chemical_formula_structural   CrPb4SeO10
_chemical_formula_sum   'Cr1 Pb4 Se1 O10'
_cell_volume   278.59071984
_cell_formula_units_Z   1
loop_
 _symmetry_equiv_pos_site_id
 _symmetry_equiv_pos_as_xyz
  1  'x, y, z'
loop_
 _atom_site_type_symbol
 _atom_site_label
 _atom_site_symmetry_multiplicity
 _atom_site_fract_x
 _atom_site_fract_y
 _atom_site_fract_z
 _atom_site_occupancy
  Cr  Cr0  1  0.826378  0.826378  0.156741  1
  Pb  Pb1  1  0.484642  0.484642  0.758851  1
  Pb  Pb2  1  0.515291  0.515291  0.241402  1
  Pb  Pb3  1  0.143100  0.143100  0.394509  1
  Pb  Pb4  1  0.860588  0.860588  0.604351  1
  Se  Se5  1  0.172263  0.172263  0.843953  1
  O  O6  1  0.255014  0.748708  0.499233  1
  O  O7  1  0.748708  0.255014  0.499233  1
  O  O8  1  0.079230  0.620582  0.268196  1
  O  O9  1  0.381288  0.917937  0.731111  1
  O  O10  1  0.917937  0.381288  0.731111  1
  O  O11  1  0.620582  0.079230  0.268196  1
  O  O12  1  0.899811  0.899811  0.912482  1
  O  O13  1  0.096637  0.096637  0.087245  1
  O  O14  1  0.296442  0.296442  0.810394  1
  O  O15  1  0.702089  0.702089  0.192991  1
