# generated using pymatgen
data_Ho3Er3Sc2(Co4P3)4
_symmetry_space_group_name_H-M   'P 1'
_cell_length_a   3.71241200
_cell_length_b   10.63629412
_cell_length_c   12.32407013
_cell_angle_alpha   89.98305751
_cell_angle_beta   90.00000000
_cell_angle_gamma   90.00000000
_symmetry_Int_Tables_number   1
_chemical_formula_structural   Ho3Er3Sc2(Co4P3)4
_chemical_formula_sum   'Ho3 Er3 Sc2 Co16 P12'
_cell_volume   486.63198216
_cell_formula_units_Z   1
loop_
 _symmetry_equiv_pos_site_id
 _symmetry_equiv_pos_as_xyz
  1  'x, y, z'
loop_
 _atom_site_type_symbol
 _atom_site_label
 _atom_site_symmetry_multiplicity
 _atom_site_fract_x
 _atom_site_fract_y
 _atom_site_fract_z
 _atom_site_occupancy
  Ho  Ho0  1  0.000000  0.500208  0.527953  1
  Ho  Ho1  1  0.500000  0.000006  0.471957  1
  Ho  Ho2  1  0.000000  0.322729  0.794256  1
  Er  Er3  1  0.500000  0.822717  0.205749  1
  Er  Er4  1  0.500000  0.177087  0.205571  1
  Er  Er5  1  0.000000  0.677175  0.794398  1
  Sc  Sc6  1  0.500000  0.500031  0.157490  1
  Sc  Sc7  1  0.000000  0.999875  0.842536  1
  Co  Co8  1  0.000000  0.500034  0.987851  1
  Co  Co9  1  0.500000  0.999897  0.012462  1
  Co  Co10  1  0.500000  0.295336  0.432722  1
  Co  Co11  1  0.500000  0.704688  0.432941  1
  Co  Co12  1  0.000000  0.204663  0.566657  1
  Co  Co13  1  0.000000  0.795444  0.567013  1
  Co  Co14  1  0.500000  0.877481  0.702800  1
  Co  Co15  1  0.500000  0.122422  0.702565  1
  Co  Co16  1  0.000000  0.622591  0.297208  1
  Co  Co17  1  0.000000  0.377478  0.297172  1
  Co  Co18  1  0.500000  0.331257  0.994966  1
  Co  Co19  1  0.500000  0.668997  0.994765  1
  Co  Co20  1  0.000000  0.168538  0.005553  1
  Co  Co21  1  0.000000  0.831078  0.005376  1
  Co  Co22  1  0.500000  0.500436  0.705387  1
  Co  Co23  1  0.000000  0.999878  0.294490  1
  P  P24  1  0.500000  0.310098  0.615526  1
  P  P25  1  0.500000  0.690023  0.615973  1
  P  P26  1  0.000000  0.189768  0.383866  1
  P  P27  1  0.000000  0.810099  0.384022  1
  P  P28  1  0.500000  0.500214  0.885667  1
  P  P29  1  0.000000  0.999867  0.114625  1
  P  P30  1  0.500000  0.838851  0.892031  1
  P  P31  1  0.500000  0.160798  0.892398  1
  P  P32  1  0.000000  0.661161  0.108053  1
  P  P33  1  0.000000  0.338905  0.108076  1
  P  P34  1  0.500000  0.500005  0.360634  1
  P  P35  1  0.000000  0.000165  0.639293  1
