# generated using pymatgen
data_Tm2LuPa(ReB6)2
_symmetry_space_group_name_H-M   'P 1'
_cell_length_a   3.66822000
_cell_length_b   9.10162637
_cell_length_c   11.46588773
_cell_angle_alpha   90.32352048
_cell_angle_beta   90.00000000
_cell_angle_gamma   90.00000000
_symmetry_Int_Tables_number   1
_chemical_formula_structural   Tm2LuPa(ReB6)2
_chemical_formula_sum   'Tm4 Lu2 Pa2 Re4 B24'
_cell_volume   382.80282956
_cell_formula_units_Z   2
loop_
 _symmetry_equiv_pos_site_id
 _symmetry_equiv_pos_as_xyz
  1  'x, y, z'
loop_
 _atom_site_type_symbol
 _atom_site_label
 _atom_site_symmetry_multiplicity
 _atom_site_fract_x
 _atom_site_fract_y
 _atom_site_fract_z
 _atom_site_occupancy
  Tm  Tm0  1  0.000000  0.823129  0.085411  1
  Tm  Tm1  1  0.000000  0.176871  0.914589  1
  Tm  Tm2  1  0.000000  0.944933  0.371891  1
  Tm  Tm3  1  0.000000  0.055067  0.628109  1
  Lu  Lu4  1  0.000000  0.444004  0.125969  1
  Lu  Lu5  1  0.000000  0.555996  0.874031  1
  Pa  Pa6  1  0.000000  0.321285  0.413134  1
  Pa  Pa7  1  0.000000  0.678715  0.586866  1
  Re  Re8  1  0.000000  0.635324  0.323488  1
  Re  Re9  1  0.000000  0.364676  0.676512  1
  Re  Re10  1  0.000000  0.141366  0.181222  1
  Re  Re11  1  0.000000  0.858634  0.818778  1
  B  B12  1  0.500000  0.553995  0.432670  1
  B  B13  1  0.500000  0.446005  0.567330  1
  B  B14  1  0.500000  0.053642  0.066635  1
  B  B15  1  0.500000  0.946358  0.933365  1
  B  B16  1  0.500000  0.749653  0.419056  1
  B  B17  1  0.500000  0.250347  0.580944  1
  B  B18  1  0.500000  0.249448  0.079602  1
  B  B19  1  0.500000  0.750552  0.920398  1
  B  B20  1  0.500000  0.792187  0.264204  1
  B  B21  1  0.500000  0.207813  0.735796  1
  B  B22  1  0.500000  0.293044  0.233463  1
  B  B23  1  0.500000  0.706956  0.766537  1
  B  B24  1  0.500000  0.630875  0.184023  1
  B  B25  1  0.500000  0.369125  0.815977  1
  B  B26  1  0.500000  0.131604  0.314130  1
  B  B27  1  0.500000  0.868396  0.685870  1
  B  B28  1  0.500000  0.981710  0.211522  1
  B  B29  1  0.500000  0.018290  0.788478  1
  B  B30  1  0.500000  0.482655  0.285535  1
  B  B31  1  0.500000  0.517345  0.714465  1
  B  B32  1  0.500000  0.602472  0.028571  1
  B  B33  1  0.500000  0.397528  0.971429  1
  B  B34  1  0.500000  0.106930  0.470467  1
  B  B35  1  0.500000  0.893070  0.529533  1
