# generated using pymatgen
data_La12Ir3AuBr12
_symmetry_space_group_name_H-M   'P 1'
_cell_length_a   10.72941457
_cell_length_b   10.72941359
_cell_length_c   10.53228900
_cell_angle_alpha   109.09947347
_cell_angle_beta   109.09947166
_cell_angle_gamma   109.84039679
_symmetry_Int_Tables_number   1
_chemical_formula_structural   La12Ir3AuBr12
_chemical_formula_sum   'La12 Ir3 Au1 Br12'
_cell_volume   937.61563064
_cell_formula_units_Z   1
loop_
 _symmetry_equiv_pos_site_id
 _symmetry_equiv_pos_as_xyz
  1  'x, y, z'
loop_
 _atom_site_type_symbol
 _atom_site_label
 _atom_site_symmetry_multiplicity
 _atom_site_fract_x
 _atom_site_fract_y
 _atom_site_fract_z
 _atom_site_occupancy
  La  La0  1  0.257578  0.737962  0.231655  1
  La  La1  1  0.480384  0.737962  0.006307  1
  La  La2  1  0.234823  0.469645  0.484823  1
  La  La3  1  0.015563  0.031127  0.265563  1
  La  La4  1  0.234823  0.265177  0.750000  1
  La  La5  1  0.015563  0.484437  0.750000  1
  La  La6  1  0.480384  0.242422  0.474077  1
  La  La7  1  0.257578  0.019616  0.025923  1
  La  La8  1  0.762038  0.242422  0.268345  1
  La  La9  1  0.762038  0.019616  0.493693  1
  La  La10  1  0.468873  0.484437  0.234437  1
  La  La11  1  0.030355  0.265177  0.015177  1
  Ir  Ir12  1  0.249827  0.499655  0.999827  1
  Ir  Ir13  1  0.000345  0.250173  0.500173  1
  Ir  Ir14  1  0.249827  0.250173  0.250000  1
  Au  Au15  1  0.500000  0.000000  0.250000  1
  Br  Br16  1  0.250401  0.994443  0.504597  1
  Br  Br17  1  0.511924  0.505962  0.755962  1
  Br  Br18  1  0.250401  0.755958  0.745804  1
  Br  Br19  1  0.990393  0.745196  0.995196  1
  Br  Br20  1  0.994038  0.505962  0.250000  1
  Br  Br21  1  0.744042  0.994443  0.989847  1
  Br  Br22  1  0.754804  0.745196  0.250000  1
  Br  Br23  1  0.505557  0.755958  0.510153  1
  Br  Br24  1  0.505557  0.249599  0.995403  1
  Br  Br25  1  0.754804  0.509607  0.504804  1
  Br  Br26  1  0.744042  0.249599  0.754196  1
  Br  Br27  1  0.994038  0.988076  0.744038  1
