# generated using pymatgen
data_Li3Ni9As7Rh2
_symmetry_space_group_name_H-M   'P 1'
_cell_length_a   9.45183282
_cell_length_b   9.47780486
_cell_length_c   3.72467600
_cell_angle_alpha   90.00000000
_cell_angle_beta   90.00000000
_cell_angle_gamma   120.31055196
_symmetry_Int_Tables_number   1
_chemical_formula_structural   Li3Ni9As7Rh2
_chemical_formula_sum   'Li3 Ni9 As7 Rh2'
_cell_volume   288.05495709
_cell_formula_units_Z   1
loop_
 _symmetry_equiv_pos_site_id
 _symmetry_equiv_pos_as_xyz
  1  'x, y, z'
loop_
 _atom_site_type_symbol
 _atom_site_label
 _atom_site_symmetry_multiplicity
 _atom_site_fract_x
 _atom_site_fract_y
 _atom_site_fract_z
 _atom_site_occupancy
  Li  Li0  1  0.788473  0.232796  0.500000  1
  Li  Li1  1  0.331313  0.666511  0.000000  1
  Li  Li2  1  0.995572  0.998128  0.500000  1
  Ni  Ni3  1  0.281812  0.381888  0.500000  1
  Ni  Ni4  1  0.622495  0.903724  0.500000  1
  Ni  Ni5  1  0.101814  0.719631  0.500000  1
  Ni  Ni6  1  0.498395  0.453986  0.000000  1
  Ni  Ni7  1  0.551954  0.051729  0.000000  1
  Ni  Ni8  1  0.951486  0.497033  0.000000  1
  Ni  Ni9  1  0.721907  0.763946  0.000000  1
  Ni  Ni10  1  0.234825  0.956036  0.000000  1
  Ni  Ni11  1  0.047469  0.284224  0.000000  1
  As  As12  1  0.959942  0.753543  0.000000  1
  As  As13  1  0.244092  0.205088  0.000000  1
  As  As14  1  0.796175  0.037046  0.000000  1
  As  As15  1  0.663347  0.335171  0.000000  1
  As  As16  1  0.539623  0.627032  0.500000  1
  As  As17  1  0.376567  0.915296  0.500000  1
  As  As18  1  0.088478  0.462841  0.500000  1
  Rh  Rh19  1  0.757235  0.547961  0.500000  1
  Rh  Rh20  1  0.447029  0.206388  0.500000  1
