# generated using pymatgen
data_TbNp2(SnRh)3
_symmetry_space_group_name_H-M   'P 1'
_cell_length_a   7.47401901
_cell_length_b   7.47401788
_cell_length_c   3.99341600
_cell_angle_alpha   90.00000000
_cell_angle_beta   90.00000000
_cell_angle_gamma   121.56947380
_symmetry_Int_Tables_number   1
_chemical_formula_structural   TbNp2(SnRh)3
_chemical_formula_sum   'Tb1 Np2 Sn3 Rh3'
_cell_volume   190.06210247
_cell_formula_units_Z   1
loop_
 _symmetry_equiv_pos_site_id
 _symmetry_equiv_pos_as_xyz
  1  'x, y, z'
loop_
 _atom_site_type_symbol
 _atom_site_label
 _atom_site_symmetry_multiplicity
 _atom_site_fract_x
 _atom_site_fract_y
 _atom_site_fract_z
 _atom_site_occupancy
  Tb  Tb0  1  0.589235  0.589235  0.500000  1
  Np  Np1  1  0.418944  0.002809  0.500000  1
  Np  Np2  1  0.002809  0.418944  0.500000  1
  Sn  Sn3  1  0.745183  0.994133  0.000000  1
  Sn  Sn4  1  0.994133  0.745183  0.000000  1
  Sn  Sn5  1  0.259949  0.259949  0.000000  1
  Rh  Rh6  1  0.315610  0.666872  0.000000  1
  Rh  Rh7  1  0.666872  0.315610  0.000000  1
  Rh  Rh8  1  0.007266  0.007266  0.500000  1
