# generated using pymatgen
data_Tb4Lu8Tc3Ru
_symmetry_space_group_name_H-M   'P 1'
_cell_length_a   6.22485037
_cell_length_b   7.36458434
_cell_length_c   8.91158500
_cell_angle_alpha   90.00000000
_cell_angle_beta   90.00000000
_cell_angle_gamma   89.96290175
_symmetry_Int_Tables_number   1
_chemical_formula_structural   Tb4Lu8Tc3Ru
_chemical_formula_sum   'Tb4 Lu8 Tc3 Ru1'
_cell_volume   408.53758686
_cell_formula_units_Z   1
loop_
 _symmetry_equiv_pos_site_id
 _symmetry_equiv_pos_as_xyz
  1  'x, y, z'
loop_
 _atom_site_type_symbol
 _atom_site_label
 _atom_site_symmetry_multiplicity
 _atom_site_fract_x
 _atom_site_fract_y
 _atom_site_fract_z
 _atom_site_occupancy
  Tb  Tb0  1  0.876053  0.540183  0.250000  1
  Tb  Tb1  1  0.623732  0.038881  0.250000  1
  Tb  Tb2  1  0.127573  0.458352  0.750000  1
  Tb  Tb3  1  0.376935  0.959337  0.750000  1
  Lu  Lu4  1  0.340021  0.675600  0.063411  1
  Lu  Lu5  1  0.157125  0.175284  0.436965  1
  Lu  Lu6  1  0.657931  0.325665  0.563328  1
  Lu  Lu7  1  0.841968  0.824523  0.936923  1
  Lu  Lu8  1  0.657931  0.325665  0.936672  1
  Lu  Lu9  1  0.841968  0.824523  0.563077  1
  Lu  Lu10  1  0.340021  0.675600  0.436589  1
  Lu  Lu11  1  0.157125  0.175284  0.063035  1
  Tc  Tc12  1  0.043664  0.882748  0.250000  1
  Tc  Tc13  1  0.457582  0.384511  0.250000  1
  Tc  Tc14  1  0.957195  0.116725  0.750000  1
  Ru  Ru15  1  0.543176  0.617118  0.750000  1
