# generated using pymatgen
data_Ta2Si8Pt5Rh
_symmetry_space_group_name_H-M   'P 1'
_cell_length_a   3.55469000
_cell_length_b   5.54318400
_cell_length_c   24.90242600
_cell_angle_alpha   90.00000000
_cell_angle_beta   90.00000000
_cell_angle_gamma   90.00000000
_symmetry_Int_Tables_number   1
_chemical_formula_structural   Ta2Si8Pt5Rh
_chemical_formula_sum   'Ta4 Si16 Pt10 Rh2'
_cell_volume   490.68489088
_cell_formula_units_Z   2
loop_
 _symmetry_equiv_pos_site_id
 _symmetry_equiv_pos_as_xyz
  1  'x, y, z'
loop_
 _atom_site_type_symbol
 _atom_site_label
 _atom_site_symmetry_multiplicity
 _atom_site_fract_x
 _atom_site_fract_y
 _atom_site_fract_z
 _atom_site_occupancy
  Ta  Ta0  1  0.250000  0.502617  0.710257  1
  Ta  Ta1  1  0.750000  0.997383  0.210257  1
  Ta  Ta2  1  0.250000  0.001629  0.789453  1
  Ta  Ta3  1  0.750000  0.498371  0.289453  1
  Si  Si4  1  0.250000  0.177322  0.521307  1
  Si  Si5  1  0.750000  0.322678  0.021307  1
  Si  Si6  1  0.250000  0.674039  0.982488  1
  Si  Si7  1  0.750000  0.825961  0.482488  1
  Si  Si8  1  0.750000  0.317550  0.642553  1
  Si  Si9  1  0.250000  0.182450  0.142553  1
  Si  Si10  1  0.750000  0.818029  0.856098  1
  Si  Si11  1  0.250000  0.681971  0.356098  1
  Si  Si12  1  0.250000  0.664811  0.607988  1
  Si  Si13  1  0.750000  0.835189  0.107988  1
  Si  Si14  1  0.250000  0.157711  0.891443  1
  Si  Si15  1  0.750000  0.342289  0.391443  1
  Si  Si16  1  0.750000  0.837557  0.723723  1
  Si  Si17  1  0.250000  0.662443  0.223723  1
  Si  Si18  1  0.750000  0.335760  0.775184  1
  Si  Si19  1  0.250000  0.164240  0.275184  1
  Pt  Pt20  1  0.750000  0.503516  0.926994  1
  Pt  Pt21  1  0.250000  0.996484  0.426994  1
  Pt  Pt22  1  0.250000  0.008751  0.667741  1
  Pt  Pt23  1  0.750000  0.491249  0.167741  1
  Pt  Pt24  1  0.250000  0.505390  0.832017  1
  Pt  Pt25  1  0.750000  0.994610  0.332017  1
  Pt  Pt26  1  0.750000  0.501955  0.548432  1
  Pt  Pt27  1  0.250000  0.998045  0.048432  1
  Pt  Pt28  1  0.750000  0.005998  0.952158  1
  Pt  Pt29  1  0.250000  0.494002  0.452158  1
  Rh  Rh30  1  0.750000  0.000886  0.572165  1
  Rh  Rh31  1  0.250000  0.499114  0.072165  1
