# generated using pymatgen
data_Li8Y8Sn7Bi
_symmetry_space_group_name_H-M   'P 1'
_cell_length_a   9.40380308
_cell_length_b   9.40380313
_cell_length_c   7.34781238
_cell_angle_alpha   90.22831004
_cell_angle_beta   89.77168909
_cell_angle_gamma   119.96900820
_symmetry_Int_Tables_number   1
_chemical_formula_structural   Li8Y8Sn7Bi
_chemical_formula_sum   'Li8 Y8 Sn7 Bi1'
_cell_volume   562.89409036
_cell_formula_units_Z   1
loop_
 _symmetry_equiv_pos_site_id
 _symmetry_equiv_pos_as_xyz
  1  'x, y, z'
loop_
 _atom_site_type_symbol
 _atom_site_label
 _atom_site_symmetry_multiplicity
 _atom_site_fract_x
 _atom_site_fract_y
 _atom_site_fract_z
 _atom_site_occupancy
  Li  Li0  1  0.166645  0.833355  0.195745  1
  Li  Li1  1  0.335814  0.171177  0.690068  1
  Li  Li2  1  0.828823  0.664186  0.690068  1
  Li  Li3  1  0.168132  0.334618  0.192718  1
  Li  Li4  1  0.665382  0.831868  0.192718  1
  Li  Li5  1  0.833291  0.166709  0.693495  1
  Li  Li6  1  0.335549  0.664451  0.815700  1
  Li  Li7  1  0.666025  0.333975  0.313961  1
  Y  Y8  1  0.513219  0.486781  0.992245  1
  Y  Y9  1  0.022693  0.507651  0.488627  1
  Y  Y10  1  0.492349  0.977307  0.488627  1
  Y  Y11  1  0.518252  0.027960  0.994390  1
  Y  Y12  1  0.972040  0.481748  0.994390  1
  Y  Y13  1  0.486774  0.513226  0.490232  1
  Y  Y14  1  0.997219  0.002781  0.988671  1
  Y  Y15  1  0.997911  0.002089  0.483217  1
  Sn  Sn16  1  0.333349  0.165818  0.257016  1
  Sn  Sn17  1  0.834182  0.666651  0.257016  1
  Sn  Sn18  1  0.165961  0.333470  0.757364  1
  Sn  Sn19  1  0.666530  0.834039  0.757364  1
  Sn  Sn20  1  0.833601  0.166399  0.256371  1
  Sn  Sn21  1  0.332720  0.667280  0.223332  1
  Sn  Sn22  1  0.666876  0.333124  0.722748  1
  Bi  Bi23  1  0.166662  0.833338  0.753922  1
