# generated using pymatgen
data_MgZr7(Co4P3)4
_symmetry_space_group_name_H-M   'P 1'
_cell_length_a   12.08123030
_cell_length_b   12.08123086
_cell_length_c   3.65627500
_cell_angle_alpha   90.00000000
_cell_angle_beta   90.00000000
_cell_angle_gamma   120.18237546
_symmetry_Int_Tables_number   1
_chemical_formula_structural   MgZr7(Co4P3)4
_chemical_formula_sum   'Mg1 Zr7 Co16 P12'
_cell_volume   461.30777632
_cell_formula_units_Z   1
loop_
 _symmetry_equiv_pos_site_id
 _symmetry_equiv_pos_as_xyz
  1  'x, y, z'
loop_
 _atom_site_type_symbol
 _atom_site_label
 _atom_site_symmetry_multiplicity
 _atom_site_fract_x
 _atom_site_fract_y
 _atom_site_fract_z
 _atom_site_occupancy
  Mg  Mg0  1  0.443487  0.443487  0.000000  1
  Zr  Zr1  1  0.554743  0.998756  0.000000  1
  Zr  Zr2  1  0.998756  0.554743  0.000000  1
  Zr  Zr3  1  0.665804  0.332159  0.000000  1
  Zr  Zr4  1  0.332159  0.665804  0.000000  1
  Zr  Zr5  1  0.818721  0.818721  0.500000  1
  Zr  Zr6  1  0.176383  0.000698  0.500000  1
  Zr  Zr7  1  0.000698  0.176383  0.500000  1
  Co  Co8  1  0.198440  0.375245  0.000000  1
  Co  Co9  1  0.178405  0.807103  0.000000  1
  Co  Co10  1  0.821074  0.629277  0.000000  1
  Co  Co11  1  0.807103  0.178405  0.000000  1
  Co  Co12  1  0.375245  0.198440  0.000000  1
  Co  Co13  1  0.126178  0.477903  0.500000  1
  Co  Co14  1  0.354241  0.873651  0.500000  1
  Co  Co15  1  0.517770  0.644344  0.500000  1
  Co  Co16  1  0.644344  0.517770  0.500000  1
  Co  Co17  1  0.873651  0.354241  0.500000  1
  Co  Co18  1  0.477903  0.126178  0.500000  1
  Co  Co19  1  0.000379  0.000379  0.000000  1
  Co  Co20  1  0.722471  0.000589  0.500000  1
  Co  Co21  1  0.000589  0.722471  0.500000  1
  Co  Co22  1  0.629277  0.821074  0.000000  1
  Co  Co23  1  0.282108  0.282108  0.500000  1
  P  P24  1  0.645583  0.645583  0.000000  1
  P  P25  1  0.346078  0.003343  0.000000  1
  P  P26  1  0.003343  0.346078  0.000000  1
  P  P27  1  0.482876  0.313091  0.500000  1
  P  P28  1  0.690951  0.173682  0.500000  1
  P  P29  1  0.825163  0.518442  0.500000  1
  P  P30  1  0.518442  0.825163  0.500000  1
  P  P31  1  0.173682  0.690951  0.500000  1
  P  P32  1  0.824779  0.998984  0.000000  1
  P  P33  1  0.998984  0.824779  0.000000  1
  P  P34  1  0.313091  0.482876  0.500000  1
  P  P35  1  0.177097  0.177097  0.000000  1
