# generated using pymatgen
data_Li8Dy7HoSn7Sb
_symmetry_space_group_name_H-M   'P 1'
_cell_length_a   9.38176700
_cell_length_b   9.38190294
_cell_length_c   7.26701813
_cell_angle_alpha   90.07751213
_cell_angle_beta   89.99996590
_cell_angle_gamma   119.99963560
_symmetry_Int_Tables_number   1
_chemical_formula_structural   Li8Dy7HoSn7Sb
_chemical_formula_sum   'Li8 Dy7 Ho1 Sn7 Sb1'
_cell_volume   553.94101111
_cell_formula_units_Z   1
loop_
 _symmetry_equiv_pos_site_id
 _symmetry_equiv_pos_as_xyz
  1  'x, y, z'
loop_
 _atom_site_type_symbol
 _atom_site_label
 _atom_site_symmetry_multiplicity
 _atom_site_fract_x
 _atom_site_fract_y
 _atom_site_fract_z
 _atom_site_occupancy
  Li  Li0  1  0.166771  0.333542  0.288054  1
  Li  Li1  1  0.167099  0.833317  0.288282  1
  Li  Li2  1  0.666217  0.833316  0.288283  1
  Li  Li3  1  0.833343  0.666685  0.788004  1
  Li  Li4  1  0.832380  0.166168  0.789130  1
  Li  Li5  1  0.333789  0.166169  0.789130  1
  Li  Li6  1  0.333659  0.667320  0.671040  1
  Li  Li7  1  0.666711  0.333422  0.172054  1
  Dy  Dy8  1  0.512095  0.024188  0.493887  1
  Dy  Dy9  1  0.514606  0.489869  0.491876  1
  Dy  Dy10  1  0.975262  0.489868  0.491877  1
  Dy  Dy11  1  0.487973  0.975948  0.994363  1
  Dy  Dy12  1  0.490155  0.512341  0.995063  1
  Dy  Dy13  1  0.022187  0.512342  0.995063  1
  Dy  Dy14  1  0.998939  0.997878  0.498331  1
  Ho  Ho15  1  0.999032  0.998063  0.001372  1
  Sn  Sn16  1  0.166376  0.832773  0.730191  1
  Sn  Sn17  1  0.666397  0.832772  0.730191  1
  Sn  Sn18  1  0.833509  0.667018  0.230769  1
  Sn  Sn19  1  0.834060  0.167210  0.230296  1
  Sn  Sn20  1  0.333149  0.167209  0.230297  1
  Sn  Sn21  1  0.332794  0.665586  0.260830  1
  Sn  Sn22  1  0.666886  0.333772  0.761309  1
  Sb  Sb23  1  0.166612  0.333224  0.732279  1
