# generated using pymatgen
data_Pr3Nd5(Sc3Pb4)4
_symmetry_space_group_name_H-M   'P 1'
_cell_length_a   8.06446271
_cell_length_b   8.17882506
_cell_length_c   15.39938300
_cell_angle_alpha   90.00610869
_cell_angle_beta   90.02405660
_cell_angle_gamma   89.97143650
_symmetry_Int_Tables_number   1
_chemical_formula_structural   Pr3Nd5(Sc3Pb4)4
_chemical_formula_sum   'Pr3 Nd5 Sc12 Pb16'
_cell_volume   1015.70966046
_cell_formula_units_Z   1
loop_
 _symmetry_equiv_pos_site_id
 _symmetry_equiv_pos_as_xyz
  1  'x, y, z'
loop_
 _atom_site_type_symbol
 _atom_site_label
 _atom_site_symmetry_multiplicity
 _atom_site_fract_x
 _atom_site_fract_y
 _atom_site_fract_z
 _atom_site_occupancy
  Pr  Pr0  1  0.020989  0.176130  0.095815  1
  Pr  Pr1  1  0.479329  0.676119  0.904585  1
  Pr  Pr2  1  0.979357  0.823736  0.595275  1
  Nd  Nd3  1  0.478363  0.676292  0.595799  1
  Nd  Nd4  1  0.978438  0.823506  0.904098  1
  Nd  Nd5  1  0.521085  0.323455  0.095811  1
  Nd  Nd6  1  0.021461  0.176942  0.403983  1
  Nd  Nd7  1  0.521455  0.323691  0.404343  1
  Sc  Sc8  1  0.639597  0.157648  0.624992  1
  Sc  Sc9  1  0.139625  0.342532  0.874958  1
  Sc  Sc10  1  0.360419  0.842730  0.125317  1
  Sc  Sc11  1  0.860391  0.657172  0.375128  1
  Sc  Sc12  1  0.360439  0.842451  0.374808  1
  Sc  Sc13  1  0.860263  0.657595  0.125148  1
  Sc  Sc14  1  0.639629  0.157267  0.874850  1
  Sc  Sc15  1  0.139311  0.342667  0.624883  1
  Sc  Sc16  1  0.806368  0.492394  0.749947  1
  Sc  Sc17  1  0.306582  0.007744  0.749894  1
  Sc  Sc18  1  0.193609  0.507459  0.250187  1
  Sc  Sc19  1  0.693405  0.992384  0.250132  1
  Pb  Pb20  1  0.695432  0.954579  0.454771  1
  Pb  Pb21  1  0.195469  0.546296  0.045236  1
  Pb  Pb22  1  0.304158  0.045949  0.954902  1
  Pb  Pb23  1  0.803289  0.453634  0.544733  1
  Pb  Pb24  1  0.304915  0.046521  0.544441  1
  Pb  Pb25  1  0.804752  0.453436  0.955387  1
  Pb  Pb26  1  0.695355  0.953713  0.044695  1
  Pb  Pb27  1  0.196714  0.545676  0.455085  1
  Pb  Pb28  1  0.445328  0.363538  0.749864  1
  Pb  Pb29  1  0.945430  0.136659  0.750000  1
  Pb  Pb30  1  0.554540  0.635833  0.249936  1
  Pb  Pb31  1  0.054549  0.863571  0.250361  1
  Pb  Pb32  1  0.666922  0.853748  0.749662  1
  Pb  Pb33  1  0.166910  0.646350  0.750350  1
  Pb  Pb34  1  0.333690  0.146809  0.250235  1
  Pb  Pb35  1  0.832434  0.353774  0.250391  1
