# generated using pymatgen
data_Yb2Th(AlPt)4
_symmetry_space_group_name_H-M   'P 1'
_cell_length_a   8.20687937
_cell_length_b   8.20688051
_cell_length_c   8.20687900
_cell_angle_alpha   150.43003481
_cell_angle_beta   126.84862801
_cell_angle_gamma   62.00095213
_symmetry_Int_Tables_number   1
_chemical_formula_structural   Yb2Th(AlPt)4
_chemical_formula_sum   'Yb2 Th1 Al4 Pt4'
_cell_volume   216.37218332
_cell_formula_units_Z   1
loop_
 _symmetry_equiv_pos_site_id
 _symmetry_equiv_pos_as_xyz
  1  'x, y, z'
loop_
 _atom_site_type_symbol
 _atom_site_label
 _atom_site_symmetry_multiplicity
 _atom_site_fract_x
 _atom_site_fract_y
 _atom_site_fract_z
 _atom_site_occupancy
  Yb  Yb0  1  0.882931  0.882931  0.000000  1
  Yb  Yb1  1  0.117069  0.117069  0.000000  1
  Th  Th2  1  0.500000  0.000000  0.500000  1
  Al  Al3  1  0.483193  0.680118  0.803075  1
  Al  Al4  1  0.877043  0.680118  0.196925  1
  Al  Al5  1  0.122957  0.319882  0.803075  1
  Al  Al6  1  0.516807  0.319882  0.196925  1
  Pt  Pt7  1  0.280354  0.780354  0.500000  1
  Pt  Pt8  1  0.719646  0.219646  0.500000  1
  Pt  Pt9  1  0.783566  0.500000  0.283566  1
  Pt  Pt10  1  0.216434  0.500000  0.716434  1
