# generated using pymatgen
data_Tm3Al3FeSiGe
_symmetry_space_group_name_H-M   'P 1'
_cell_length_a   6.82840100
_cell_length_b   6.82840098
_cell_length_c   4.12781400
_cell_angle_alpha   90.00000000
_cell_angle_beta   90.00000000
_cell_angle_gamma   119.99999525
_symmetry_Int_Tables_number   1
_chemical_formula_structural   Tm3Al3FeSiGe
_chemical_formula_sum   'Tm3 Al3 Fe1 Si1 Ge1'
_cell_volume   166.68203939
_cell_formula_units_Z   1
loop_
 _symmetry_equiv_pos_site_id
 _symmetry_equiv_pos_as_xyz
  1  'x, y, z'
loop_
 _atom_site_type_symbol
 _atom_site_label
 _atom_site_symmetry_multiplicity
 _atom_site_fract_x
 _atom_site_fract_y
 _atom_site_fract_z
 _atom_site_occupancy
  Tm  Tm0  1  0.408678  0.001835  0.000000  1
  Tm  Tm1  1  0.998165  0.406843  0.000000  1
  Tm  Tm2  1  0.593157  0.591321  0.000000  1
  Al  Al3  1  0.774126  0.002441  0.500000  1
  Al  Al4  1  0.228314  0.225874  0.500000  1
  Al  Al5  1  0.997559  0.771685  0.500000  1
  Fe  Fe6  1  0.000000  0.000000  0.000000  1
  Si  Si7  1  0.666666  0.333333  0.500000  1
  Ge  Ge8  1  0.333333  0.666666  0.500000  1
