# generated using pymatgen
data_YTh3(CdNi2)2
_symmetry_space_group_name_H-M   'P 1'
_cell_length_a   7.61220296
_cell_length_b   7.61220333
_cell_length_c   3.68164300
_cell_angle_alpha   90.00000000
_cell_angle_beta   90.00000000
_cell_angle_gamma   88.61159358
_symmetry_Int_Tables_number   1
_chemical_formula_structural   YTh3(CdNi2)2
_chemical_formula_sum   'Y1 Th3 Cd2 Ni4'
_cell_volume   213.27251524
_cell_formula_units_Z   1
loop_
 _symmetry_equiv_pos_site_id
 _symmetry_equiv_pos_as_xyz
  1  'x, y, z'
loop_
 _atom_site_type_symbol
 _atom_site_label
 _atom_site_symmetry_multiplicity
 _atom_site_fract_x
 _atom_site_fract_y
 _atom_site_fract_z
 _atom_site_occupancy
  Y  Y0  1  0.827783  0.327783  0.500000  1
  Th  Th1  1  0.169163  0.669163  0.500000  1
  Th  Th2  1  0.674143  0.828805  0.500000  1
  Th  Th3  1  0.328805  0.174143  0.500000  1
  Cd  Cd4  1  0.508235  0.496944  0.000000  1
  Cd  Cd5  1  0.996944  0.008235  0.000000  1
  Ni  Ni6  1  0.878358  0.629318  0.000000  1
  Ni  Ni7  1  0.372783  0.872783  0.000000  1
  Ni  Ni8  1  0.614469  0.114469  0.000000  1
  Ni  Ni9  1  0.129318  0.378358  0.000000  1
