# generated using pymatgen
data_Zr5NiBi2Pb
_symmetry_space_group_name_H-M   'P 1'
_cell_length_a   8.80378410
_cell_length_b   8.80378505
_cell_length_c   5.89518700
_cell_angle_alpha   90.00000000
_cell_angle_beta   90.00000000
_cell_angle_gamma   119.96670203
_symmetry_Int_Tables_number   1
_chemical_formula_structural   Zr5NiBi2Pb
_chemical_formula_sum   'Zr10 Ni2 Bi4 Pb2'
_cell_volume   395.83359783
_cell_formula_units_Z   2
loop_
 _symmetry_equiv_pos_site_id
 _symmetry_equiv_pos_as_xyz
  1  'x, y, z'
loop_
 _atom_site_type_symbol
 _atom_site_label
 _atom_site_symmetry_multiplicity
 _atom_site_fract_x
 _atom_site_fract_y
 _atom_site_fract_z
 _atom_site_occupancy
  Zr  Zr0  1  0.666551  0.333145  0.501176  1
  Zr  Zr1  1  0.333145  0.666551  0.501176  1
  Zr  Zr2  1  0.333145  0.666551  0.998824  1
  Zr  Zr3  1  0.666551  0.333145  0.998824  1
  Zr  Zr4  1  0.749993  0.749993  0.250000  1
  Zr  Zr5  1  0.247765  0.998876  0.250000  1
  Zr  Zr6  1  0.998876  0.247765  0.250000  1
  Zr  Zr7  1  0.251039  0.251039  0.750000  1
  Zr  Zr8  1  0.750267  0.002241  0.750000  1
  Zr  Zr9  1  0.002241  0.750267  0.750000  1
  Ni  Ni10  1  0.000460  0.000460  0.502976  1
  Ni  Ni11  1  0.000460  0.000460  0.997024  1
  Bi  Bi12  1  0.389496  0.389496  0.250000  1
  Bi  Bi13  1  0.608085  0.000049  0.250000  1
  Bi  Bi14  1  0.000049  0.608085  0.250000  1
  Bi  Bi15  1  0.611264  0.611264  0.750000  1
  Pb  Pb16  1  0.390337  0.000274  0.750000  1
  Pb  Pb17  1  0.000274  0.390337  0.750000  1
