# generated using pymatgen
data_NaHo(TaS2)6
_symmetry_space_group_name_H-M   'P 1'
_cell_length_a   5.80985300
_cell_length_b   5.80985350
_cell_length_c   14.19920100
_cell_angle_alpha   90.00000000
_cell_angle_beta   90.00000000
_cell_angle_gamma   120.00001424
_symmetry_Int_Tables_number   1
_chemical_formula_structural   NaHo(TaS2)6
_chemical_formula_sum   'Na1 Ho1 Ta6 S12'
_cell_volume   415.07330375
_cell_formula_units_Z   1
loop_
 _symmetry_equiv_pos_site_id
 _symmetry_equiv_pos_as_xyz
  1  'x, y, z'
loop_
 _atom_site_type_symbol
 _atom_site_label
 _atom_site_symmetry_multiplicity
 _atom_site_fract_x
 _atom_site_fract_y
 _atom_site_fract_z
 _atom_site_occupancy
  Na  Na0  1  0.000000  0.000000  0.500000  1
  Ho  Ho1  1  0.000000  0.000000  0.000000  1
  Ta  Ta2  1  0.333333  0.666667  0.243782  1
  Ta  Ta3  1  0.666667  0.333333  0.756218  1
  Ta  Ta4  1  0.666667  0.333333  0.243782  1
  Ta  Ta5  1  0.333333  0.666667  0.756218  1
  Ta  Ta6  1  0.000000  0.000000  0.243289  1
  Ta  Ta7  1  0.000000  0.000000  0.756711  1
  S  S8  1  0.336121  0.000000  0.132510  1
  S  S9  1  0.000000  0.336121  0.132510  1
  S  S10  1  0.663879  0.663879  0.132510  1
  S  S11  1  0.335109  0.335109  0.647270  1
  S  S12  1  0.664891  0.664891  0.352730  1
  S  S13  1  0.664891  0.000000  0.647270  1
  S  S14  1  0.000000  0.664891  0.647270  1
  S  S15  1  0.000000  0.663879  0.867490  1
  S  S16  1  0.336121  0.336121  0.867490  1
  S  S17  1  0.000000  0.335109  0.352730  1
  S  S18  1  0.335109  0.000000  0.352730  1
  S  S19  1  0.663879  0.000000  0.867490  1
