# generated using pymatgen
data_Tb3MnCrC6
_symmetry_space_group_name_H-M   'P 1'
_cell_length_a   8.12957300
_cell_length_b   8.12957298
_cell_length_c   5.02303000
_cell_angle_alpha   90.00000000
_cell_angle_beta   90.00000000
_cell_angle_gamma   119.99999603
_symmetry_Int_Tables_number   1
_chemical_formula_structural   Tb3MnCrC6
_chemical_formula_sum   'Tb6 Mn2 Cr2 C12'
_cell_volume   287.49605526
_cell_formula_units_Z   2
loop_
 _symmetry_equiv_pos_site_id
 _symmetry_equiv_pos_as_xyz
  1  'x, y, z'
loop_
 _atom_site_type_symbol
 _atom_site_label
 _atom_site_symmetry_multiplicity
 _atom_site_fract_x
 _atom_site_fract_y
 _atom_site_fract_z
 _atom_site_occupancy
  Tb  Tb0  1  0.621138  0.684461  0.750000  1
  Tb  Tb1  1  0.936677  0.621138  0.250000  1
  Tb  Tb2  1  0.684461  0.063323  0.250000  1
  Tb  Tb3  1  0.315539  0.936677  0.750000  1
  Tb  Tb4  1  0.063323  0.378862  0.750000  1
  Tb  Tb5  1  0.378862  0.315539  0.250000  1
  Mn  Mn6  1  0.666667  0.333333  0.750000  1
  Mn  Mn7  1  0.333333  0.666667  0.250000  1
  Cr  Cr8  1  0.000000  0.000000  0.500000  1
  Cr  Cr9  1  0.000000  0.000000  0.000000  1
  C  C10  1  0.961691  0.770908  0.750000  1
  C  C11  1  0.190784  0.961691  0.250000  1
  C  C12  1  0.770908  0.809216  0.250000  1
  C  C13  1  0.229092  0.190784  0.750000  1
  C  C14  1  0.809216  0.038309  0.750000  1
  C  C15  1  0.038309  0.229092  0.250000  1
  C  C16  1  0.863845  0.576300  0.750000  1
  C  C17  1  0.287545  0.863845  0.250000  1
  C  C18  1  0.576300  0.712455  0.250000  1
  C  C19  1  0.423700  0.287545  0.750000  1
  C  C20  1  0.136155  0.423700  0.250000  1
  C  C21  1  0.712455  0.136155  0.750000  1
