# generated using pymatgen
data_Dy4Th(FeB3)2
_symmetry_space_group_name_H-M   'P 1'
_cell_length_a   5.43103981
_cell_length_b   5.43103989
_cell_length_c   8.15690635
_cell_angle_alpha   70.55447960
_cell_angle_beta   70.55447693
_cell_angle_gamma   59.99998381
_symmetry_Int_Tables_number   1
_chemical_formula_structural   Dy4Th(FeB3)2
_chemical_formula_sum   'Dy4 Th1 Fe2 B6'
_cell_volume   192.35337176
_cell_formula_units_Z   1
loop_
 _symmetry_equiv_pos_site_id
 _symmetry_equiv_pos_as_xyz
  1  'x, y, z'
loop_
 _atom_site_type_symbol
 _atom_site_label
 _atom_site_symmetry_multiplicity
 _atom_site_fract_x
 _atom_site_fract_y
 _atom_site_fract_z
 _atom_site_occupancy
  Dy  Dy0  1  0.251567  0.251567  0.245299  1
  Dy  Dy1  1  0.748433  0.748433  0.754701  1
  Dy  Dy2  1  0.415515  0.415515  0.753456  1
  Dy  Dy3  1  0.584485  0.584485  0.246544  1
  Th  Th4  1  0.000000  0.000000  0.000000  1
  Fe  Fe5  1  0.112654  0.112654  0.662038  1
  Fe  Fe6  1  0.887346  0.887346  0.337962  1
  B  B7  1  0.167353  0.832647  0.500000  1
  B  B8  1  0.832647  0.500000  0.500000  1
  B  B9  1  0.500000  0.167353  0.500000  1
  B  B10  1  0.167353  0.500000  0.500000  1
  B  B11  1  0.500000  0.832647  0.500000  1
  B  B12  1  0.832647  0.167353  0.500000  1
