# generated using pymatgen
data_Tb2Ho2Al17Co6Si
_symmetry_space_group_name_H-M   'P 1'
_cell_length_a   7.37980300
_cell_length_b   7.37980337
_cell_length_c   9.27213400
_cell_angle_alpha   90.00000000
_cell_angle_beta   90.00000000
_cell_angle_gamma   119.25656118
_symmetry_Int_Tables_number   1
_chemical_formula_structural   Tb2Ho2Al17Co6Si
_chemical_formula_sum   'Tb2 Ho2 Al17 Co6 Si1'
_cell_volume   440.55978459
_cell_formula_units_Z   1
loop_
 _symmetry_equiv_pos_site_id
 _symmetry_equiv_pos_as_xyz
  1  'x, y, z'
loop_
 _atom_site_type_symbol
 _atom_site_label
 _atom_site_symmetry_multiplicity
 _atom_site_fract_x
 _atom_site_fract_y
 _atom_site_fract_z
 _atom_site_occupancy
  Tb  Tb0  1  0.992545  0.677683  0.250000  1
  Tb  Tb1  1  0.677683  0.992545  0.250000  1
  Ho  Ho2  1  0.005648  0.328576  0.750000  1
  Ho  Ho3  1  0.328576  0.005648  0.750000  1
  Al  Al4  1  0.877323  0.877323  0.750000  1
  Al  Al5  1  0.330771  0.330771  0.546497  1
  Al  Al6  1  0.664681  0.664681  0.040312  1
  Al  Al7  1  0.330771  0.330771  0.953503  1
  Al  Al8  1  0.664681  0.664681  0.459688  1
  Al  Al9  1  0.336149  0.553834  0.250000  1
  Al  Al10  1  0.661246  0.445543  0.750000  1
  Al  Al11  1  0.553834  0.336149  0.250000  1
  Al  Al12  1  0.445543  0.661246  0.750000  1
  Al  Al13  1  0.999257  0.337380  0.072858  1
  Al  Al14  1  0.002324  0.665343  0.571625  1
  Al  Al15  1  0.337380  0.999257  0.427142  1
  Al  Al16  1  0.665343  0.002324  0.928375  1
  Al  Al17  1  0.002324  0.665343  0.928375  1
  Al  Al18  1  0.999257  0.337380  0.427142  1
  Al  Al19  1  0.665343  0.002324  0.571625  1
  Al  Al20  1  0.337380  0.999257  0.072858  1
  Co  Co21  1  0.001030  0.001030  0.008277  1
  Co  Co22  1  0.001030  0.001030  0.491723  1
  Co  Co23  1  0.669277  0.327530  0.000192  1
  Co  Co24  1  0.327530  0.669277  0.499808  1
  Co  Co25  1  0.327530  0.669277  0.000192  1
  Co  Co26  1  0.669277  0.327530  0.499808  1
  Si  Si27  1  0.126270  0.126270  0.250000  1
