# generated using pymatgen
data_ThPaInCo2
_symmetry_space_group_name_H-M   'P 1'
_cell_length_a   7.50056100
_cell_length_b   7.29532300
_cell_length_c   3.53757000
_cell_angle_alpha   90.00000000
_cell_angle_beta   90.00000000
_cell_angle_gamma   90.00000000
_symmetry_Int_Tables_number   1
_chemical_formula_structural   ThPaInCo2
_chemical_formula_sum   'Th2 Pa2 In2 Co4'
_cell_volume   193.57234652
_cell_formula_units_Z   2
loop_
 _symmetry_equiv_pos_site_id
 _symmetry_equiv_pos_as_xyz
  1  'x, y, z'
loop_
 _atom_site_type_symbol
 _atom_site_label
 _atom_site_symmetry_multiplicity
 _atom_site_fract_x
 _atom_site_fract_y
 _atom_site_fract_z
 _atom_site_occupancy
  Th  Th0  1  0.830599  0.667056  0.500000  1
  Th  Th1  1  0.330599  0.832944  0.500000  1
  Pa  Pa2  1  0.677840  0.165705  0.500000  1
  Pa  Pa3  1  0.177840  0.334295  0.500000  1
  In  In4  1  0.004083  0.005447  0.000000  1
  In  In5  1  0.504083  0.494553  0.000000  1
  Co  Co6  1  0.352972  0.147578  0.000000  1
  Co  Co7  1  0.134506  0.595442  0.000000  1
  Co  Co8  1  0.634506  0.904558  0.000000  1
  Co  Co9  1  0.852972  0.352422  0.000000  1
