# generated using pymatgen
data_Nd4Er4Tc(B8Ru)3
_symmetry_space_group_name_H-M   'P 1'
_cell_length_a   3.71173700
_cell_length_b   9.20361786
_cell_length_c   11.63680500
_cell_angle_alpha   89.91147487
_cell_angle_beta   90.00000000
_cell_angle_gamma   90.00000000
_symmetry_Int_Tables_number   1
_chemical_formula_structural   Nd4Er4Tc(B8Ru)3
_chemical_formula_sum   'Nd4 Er4 Tc1 B24 Ru3'
_cell_volume   397.52918009
_cell_formula_units_Z   1
loop_
 _symmetry_equiv_pos_site_id
 _symmetry_equiv_pos_as_xyz
  1  'x, y, z'
loop_
 _atom_site_type_symbol
 _atom_site_label
 _atom_site_symmetry_multiplicity
 _atom_site_fract_x
 _atom_site_fract_y
 _atom_site_fract_z
 _atom_site_occupancy
  Nd  Nd0  1  0.000000  0.323724  0.413532  1
  Nd  Nd1  1  0.000000  0.677256  0.583710  1
  Nd  Nd2  1  0.000000  0.821091  0.087107  1
  Nd  Nd3  1  0.000000  0.176780  0.915249  1
  Er  Er4  1  0.000000  0.943162  0.371713  1
  Er  Er5  1  0.000000  0.057242  0.628953  1
  Er  Er6  1  0.000000  0.444394  0.128885  1
  Er  Er7  1  0.000000  0.556643  0.870547  1
  Tc  Tc8  1  0.000000  0.639240  0.319243  1
  B  B9  1  0.500000  0.555192  0.430375  1
  B  B10  1  0.500000  0.444030  0.569893  1
  B  B11  1  0.500000  0.056102  0.069902  1
  B  B12  1  0.500000  0.943563  0.930559  1
  B  B13  1  0.500000  0.749722  0.416698  1
  B  B14  1  0.500000  0.250464  0.583254  1
  B  B15  1  0.500000  0.249536  0.082819  1
  B  B16  1  0.500000  0.750221  0.916992  1
  B  B17  1  0.500000  0.790901  0.266482  1
  B  B18  1  0.500000  0.209682  0.733664  1
  B  B19  1  0.500000  0.290363  0.232904  1
  B  B20  1  0.500000  0.710139  0.766289  1
  B  B21  1  0.500000  0.630017  0.185661  1
  B  B22  1  0.500000  0.369786  0.814933  1
  B  B23  1  0.500000  0.130039  0.314342  1
  B  B24  1  0.500000  0.870483  0.685263  1
  B  B25  1  0.500000  0.985247  0.213865  1
  B  B26  1  0.500000  0.014594  0.786784  1
  B  B27  1  0.500000  0.484398  0.286148  1
  B  B28  1  0.500000  0.514504  0.713681  1
  B  B29  1  0.500000  0.601259  0.026956  1
  B  B30  1  0.500000  0.398318  0.971801  1
  B  B31  1  0.500000  0.102131  0.472592  1
  B  B32  1  0.500000  0.899477  0.528246  1
  Ru  Ru33  1  0.000000  0.360386  0.681419  1
  Ru  Ru34  1  0.000000  0.139392  0.180581  1
  Ru  Ru35  1  0.000000  0.860522  0.818957  1
