# generated using pymatgen
data_DyHo3PtAu
_symmetry_space_group_name_H-M   'P 1'
_cell_length_a   4.86163100
_cell_length_b   7.11664000
_cell_length_c   8.85897900
_cell_angle_alpha   90.00000000
_cell_angle_beta   90.00000000
_cell_angle_gamma   90.00000000
_symmetry_Int_Tables_number   1
_chemical_formula_structural   DyHo3PtAu
_chemical_formula_sum   'Dy2 Ho6 Pt2 Au2'
_cell_volume   306.50718684
_cell_formula_units_Z   2
loop_
 _symmetry_equiv_pos_site_id
 _symmetry_equiv_pos_as_xyz
  1  'x, y, z'
loop_
 _atom_site_type_symbol
 _atom_site_label
 _atom_site_symmetry_multiplicity
 _atom_site_fract_x
 _atom_site_fract_y
 _atom_site_fract_z
 _atom_site_occupancy
  Dy  Dy0  1  0.750000  0.984677  0.670966  1
  Dy  Dy1  1  0.750000  0.484677  0.829034  1
  Ho  Ho2  1  0.250000  0.149455  0.926081  1
  Ho  Ho3  1  0.250000  0.649455  0.573919  1
  Ho  Ho4  1  0.750000  0.855831  0.089647  1
  Ho  Ho5  1  0.750000  0.355831  0.410353  1
  Ho  Ho6  1  0.250000  0.005554  0.329925  1
  Ho  Ho7  1  0.250000  0.505554  0.170075  1
  Pt  Pt8  1  0.750000  0.760234  0.408537  1
  Pt  Pt9  1  0.750000  0.260234  0.091463  1
  Au  Au10  1  0.250000  0.244249  0.599488  1
  Au  Au11  1  0.250000  0.744249  0.900512  1
