# generated using pymatgen
data_La4NdHoTa2O14
_symmetry_space_group_name_H-M   'P 1'
_cell_length_a   6.70700904
_cell_length_b   6.69379355
_cell_length_c   7.77000200
_cell_angle_alpha   90.00000000
_cell_angle_beta   90.00000000
_cell_angle_gamma   108.96204735
_symmetry_Int_Tables_number   1
_chemical_formula_structural   La4NdHoTa2O14
_chemical_formula_sum   'La4 Nd1 Ho1 Ta2 O14'
_cell_volume   329.90686213
_cell_formula_units_Z   1
loop_
 _symmetry_equiv_pos_site_id
 _symmetry_equiv_pos_as_xyz
  1  'x, y, z'
loop_
 _atom_site_type_symbol
 _atom_site_label
 _atom_site_symmetry_multiplicity
 _atom_site_fract_x
 _atom_site_fract_y
 _atom_site_fract_z
 _atom_site_occupancy
  La  La0  1  0.527014  0.522004  0.498647  1
  La  La1  1  0.527014  0.522004  0.001353  1
  La  La2  1  0.006952  0.468102  0.750000  1
  La  La3  1  0.467088  0.003705  0.250000  1
  Nd  Nd4  1  0.534518  0.003283  0.750000  1
  Ho  Ho5  1  0.002646  0.530262  0.250000  1
  Ta  Ta6  1  0.001189  0.001262  0.497683  1
  Ta  Ta7  1  0.001189  0.001262  0.002317  1
  O  O8  1  0.946083  0.053021  0.750000  1
  O  O9  1  0.055607  0.938966  0.250000  1
  O  O10  1  0.352626  0.635745  0.250000  1
  O  O11  1  0.643245  0.369303  0.750000  1
  O  O12  1  0.375343  0.634227  0.750000  1
  O  O13  1  0.646751  0.380928  0.250000  1
  O  O14  1  0.306742  0.069080  0.966263  1
  O  O15  1  0.679296  0.919324  0.477077  1
  O  O16  1  0.306742  0.069080  0.533737  1
  O  O17  1  0.679296  0.919324  0.022923  1
  O  O18  1  0.037402  0.298452  0.454718  1
  O  O19  1  0.932928  0.681109  0.981730  1
  O  O20  1  0.932928  0.681109  0.518270  1
  O  O21  1  0.037402  0.298452  0.045282  1
