# generated using pymatgen
data_Ca20(AlZn3)3
_symmetry_space_group_name_H-M   'P 1'
_cell_length_a   7.98630200
_cell_length_b   7.98630200
_cell_length_c   14.96313700
_cell_angle_alpha   90.00000000
_cell_angle_beta   90.00000000
_cell_angle_gamma   90.00000000
_symmetry_Int_Tables_number   1
_chemical_formula_structural   Ca20(AlZn3)3
_chemical_formula_sum   'Ca20 Al3 Zn9'
_cell_volume   954.36413480
_cell_formula_units_Z   1
loop_
 _symmetry_equiv_pos_site_id
 _symmetry_equiv_pos_as_xyz
  1  'x, y, z'
loop_
 _atom_site_type_symbol
 _atom_site_label
 _atom_site_symmetry_multiplicity
 _atom_site_fract_x
 _atom_site_fract_y
 _atom_site_fract_z
 _atom_site_occupancy
  Ca  Ca0  1  0.672278  0.169919  0.101735  1
  Ca  Ca1  1  0.173024  0.671085  0.602910  1
  Ca  Ca2  1  0.327722  0.830081  0.101735  1
  Ca  Ca3  1  0.826976  0.328915  0.602910  1
  Ca  Ca4  1  0.830081  0.672278  0.101735  1
  Ca  Ca5  1  0.328915  0.173024  0.602910  1
  Ca  Ca6  1  0.169919  0.327722  0.101735  1
  Ca  Ca7  1  0.671085  0.826976  0.602910  1
  Ca  Ca8  1  0.830081  0.327722  0.898265  1
  Ca  Ca9  1  0.328915  0.826976  0.397090  1
  Ca  Ca10  1  0.169919  0.672278  0.898265  1
  Ca  Ca11  1  0.671085  0.173024  0.397090  1
  Ca  Ca12  1  0.672278  0.830081  0.898265  1
  Ca  Ca13  1  0.173024  0.328915  0.397090  1
  Ca  Ca14  1  0.327722  0.169919  0.898265  1
  Ca  Ca15  1  0.826976  0.671085  0.397090  1
  Ca  Ca16  1  0.500000  0.500000  0.754115  1
  Ca  Ca17  1  0.000000  0.000000  0.252406  1
  Ca  Ca18  1  0.000000  0.000000  0.747594  1
  Ca  Ca19  1  0.500000  0.500000  0.245885  1
  Al  Al20  1  0.500000  0.500000  0.500000  1
  Al  Al21  1  0.500000  0.500000  0.000000  1
  Al  Al22  1  0.000000  0.000000  0.500000  1
  Zn  Zn23  1  0.616306  0.116216  0.751645  1
  Zn  Zn24  1  0.116216  0.616306  0.248355  1
  Zn  Zn25  1  0.883784  0.383694  0.248355  1
  Zn  Zn26  1  0.383694  0.883784  0.751645  1
  Zn  Zn27  1  0.883784  0.616306  0.751645  1
  Zn  Zn28  1  0.383694  0.116216  0.248355  1
  Zn  Zn29  1  0.116216  0.383694  0.751645  1
  Zn  Zn30  1  0.616306  0.883784  0.248355  1
  Zn  Zn31  1  0.000000  0.000000  0.000000  1
