# generated using pymatgen
data_Ho5Lu3In4
_symmetry_space_group_name_H-M   'P 1'
_cell_length_a   5.13742000
_cell_length_b   6.73181959
_cell_length_c   9.62006904
_cell_angle_alpha   90.08555131
_cell_angle_beta   90.00000000
_cell_angle_gamma   90.00000000
_symmetry_Int_Tables_number   1
_chemical_formula_structural   Ho5Lu3In4
_chemical_formula_sum   'Ho5 Lu3 In4'
_cell_volume   332.70187260
_cell_formula_units_Z   1
loop_
 _symmetry_equiv_pos_site_id
 _symmetry_equiv_pos_as_xyz
  1  'x, y, z'
loop_
 _atom_site_type_symbol
 _atom_site_label
 _atom_site_symmetry_multiplicity
 _atom_site_fract_x
 _atom_site_fract_y
 _atom_site_fract_z
 _atom_site_occupancy
  Ho  Ho0  1  0.250000  0.816051  0.929314  1
  Ho  Ho1  1  0.750000  0.530937  0.785001  1
  Ho  Ho2  1  0.250000  0.467446  0.214984  1
  Ho  Ho3  1  0.750000  0.032394  0.714569  1
  Ho  Ho4  1  0.250000  0.968503  0.285656  1
  Lu  Lu5  1  0.750000  0.683913  0.429092  1
  Lu  Lu6  1  0.250000  0.315856  0.571097  1
  Lu  Lu7  1  0.750000  0.184191  0.070891  1
  In  In8  1  0.750000  0.215312  0.395367  1
  In  In9  1  0.250000  0.784682  0.602975  1
  In  In10  1  0.750000  0.714131  0.106176  1
  In  In11  1  0.250000  0.286587  0.894878  1
