# generated using pymatgen
data_Tb5Nd3(HgRu)2
_symmetry_space_group_name_H-M   'P 1'
_cell_length_a   9.72506049
_cell_length_b   9.72506112
_cell_length_c   9.72506000
_cell_angle_alpha   59.99999701
_cell_angle_beta   59.99999486
_cell_angle_gamma   59.99999872
_symmetry_Int_Tables_number   1
_chemical_formula_structural   Tb5Nd3(HgRu)2
_chemical_formula_sum   'Tb10 Nd6 Hg4 Ru4'
_cell_volume   650.37211350
_cell_formula_units_Z   2
loop_
 _symmetry_equiv_pos_site_id
 _symmetry_equiv_pos_as_xyz
  1  'x, y, z'
loop_
 _atom_site_type_symbol
 _atom_site_label
 _atom_site_symmetry_multiplicity
 _atom_site_fract_x
 _atom_site_fract_y
 _atom_site_fract_z
 _atom_site_occupancy
  Tb  Tb0  1  0.346626  0.346626  0.346626  1
  Tb  Tb1  1  0.346626  0.346626  0.960121  1
  Tb  Tb2  1  0.346626  0.960121  0.346626  1
  Tb  Tb3  1  0.960121  0.346626  0.346626  1
  Tb  Tb4  1  0.811438  0.188562  0.188562  1
  Tb  Tb5  1  0.188562  0.811438  0.811438  1
  Tb  Tb6  1  0.188562  0.811438  0.188562  1
  Tb  Tb7  1  0.811438  0.188562  0.811438  1
  Tb  Tb8  1  0.188562  0.188562  0.811438  1
  Tb  Tb9  1  0.811438  0.811438  0.188562  1
  Nd  Nd10  1  0.941096  0.558904  0.558904  1
  Nd  Nd11  1  0.558904  0.941096  0.941096  1
  Nd  Nd12  1  0.558904  0.941096  0.558904  1
  Nd  Nd13  1  0.941096  0.558904  0.941096  1
  Nd  Nd14  1  0.558904  0.558904  0.941096  1
  Nd  Nd15  1  0.941096  0.941096  0.558904  1
  Hg  Hg16  1  0.582094  0.582094  0.582094  1
  Hg  Hg17  1  0.582094  0.582094  0.253716  1
  Hg  Hg18  1  0.582094  0.253716  0.582094  1
  Hg  Hg19  1  0.253716  0.582094  0.582094  1
  Ru  Ru20  1  0.139216  0.139216  0.139216  1
  Ru  Ru21  1  0.139216  0.139216  0.582353  1
  Ru  Ru22  1  0.139216  0.582353  0.139216  1
  Ru  Ru23  1  0.582353  0.139216  0.139216  1
