# generated using pymatgen
data_Er2Lu4OsRh
_symmetry_space_group_name_H-M   'P 1'
_cell_length_a   7.20956100
_cell_length_b   8.93143000
_cell_length_c   6.24687620
_cell_angle_alpha   90.13283093
_cell_angle_beta   90.00000000
_cell_angle_gamma   90.00000000
_symmetry_Int_Tables_number   1
_chemical_formula_structural   Er2Lu4OsRh
_chemical_formula_sum   'Er4 Lu8 Os2 Rh2'
_cell_volume   402.24583085
_cell_formula_units_Z   2
loop_
 _symmetry_equiv_pos_site_id
 _symmetry_equiv_pos_as_xyz
  1  'x, y, z'
loop_
 _atom_site_type_symbol
 _atom_site_label
 _atom_site_symmetry_multiplicity
 _atom_site_fract_x
 _atom_site_fract_y
 _atom_site_fract_z
 _atom_site_occupancy
  Er  Er0  1  0.676729  0.057205  0.332945  1
  Er  Er1  1  0.176729  0.442795  0.167055  1
  Er  Er2  1  0.537807  0.250242  0.873389  1
  Er  Er3  1  0.037807  0.249758  0.626611  1
  Lu  Lu4  1  0.322274  0.566261  0.674654  1
  Lu  Lu5  1  0.822274  0.933739  0.825346  1
  Lu  Lu6  1  0.321722  0.933820  0.674821  1
  Lu  Lu7  1  0.821722  0.566180  0.825179  1
  Lu  Lu8  1  0.676030  0.442939  0.333269  1
  Lu  Lu9  1  0.176030  0.057061  0.166731  1
  Lu  Lu10  1  0.464668  0.749857  0.123294  1
  Lu  Lu11  1  0.964668  0.750143  0.376706  1
  Os  Os12  1  0.114725  0.750737  0.965145  1
  Os  Os13  1  0.614725  0.749263  0.534855  1
  Rh  Rh14  1  0.886046  0.249844  0.042116  1
  Rh  Rh15  1  0.386046  0.250156  0.457884  1
