# generated using pymatgen
data_Er16MgTl(AgRh2)2
_symmetry_space_group_name_H-M   'P 1'
_cell_length_a   9.56313597
_cell_length_b   9.54675619
_cell_length_c   9.54646745
_cell_angle_alpha   59.69682361
_cell_angle_beta   59.67793959
_cell_angle_gamma   59.67742513
_symmetry_Int_Tables_number   1
_chemical_formula_structural   Er16MgTl(AgRh2)2
_chemical_formula_sum   'Er16 Mg1 Tl1 Ag2 Rh4'
_cell_volume   611.86495114
_cell_formula_units_Z   1
loop_
 _symmetry_equiv_pos_site_id
 _symmetry_equiv_pos_as_xyz
  1  'x, y, z'
loop_
 _atom_site_type_symbol
 _atom_site_label
 _atom_site_symmetry_multiplicity
 _atom_site_fract_x
 _atom_site_fract_y
 _atom_site_fract_z
 _atom_site_occupancy
  Er  Er0  1  0.347417  0.347462  0.347474  1
  Er  Er1  1  0.350636  0.350100  0.952900  1
  Er  Er2  1  0.350633  0.952918  0.350102  1
  Er  Er3  1  0.944079  0.353086  0.353069  1
  Er  Er4  1  0.808893  0.189121  0.189066  1
  Er  Er5  1  0.189023  0.810614  0.810609  1
  Er  Er6  1  0.185587  0.811914  0.187288  1
  Er  Er7  1  0.809538  0.189636  0.809996  1
  Er  Er8  1  0.185556  0.187314  0.811922  1
  Er  Er9  1  0.809556  0.809999  0.189605  1
  Er  Er10  1  0.936591  0.565683  0.565701  1
  Er  Er11  1  0.562361  0.937639  0.937682  1
  Er  Er12  1  0.563789  0.942430  0.565811  1
  Er  Er13  1  0.934974  0.563501  0.939769  1
  Er  Er14  1  0.563781  0.565817  0.942417  1
  Er  Er15  1  0.934969  0.939767  0.563503  1
  Mg  Mg16  1  0.281152  0.569517  0.569590  1
  Tl  Tl17  1  0.583551  0.582037  0.582000  1
  Ag  Ag18  1  0.581967  0.583069  0.246610  1
  Ag  Ag19  1  0.581970  0.246595  0.583088  1
  Rh  Rh20  1  0.139816  0.143641  0.143668  1
  Rh  Rh21  1  0.140758  0.143359  0.572334  1
  Rh  Rh22  1  0.140767  0.572325  0.143344  1
  Rh  Rh23  1  0.572634  0.142451  0.142447  1
