# generated using pymatgen
data_Er8Cd2NiIr
_symmetry_space_group_name_H-M   'P 1'
_cell_length_a   9.53266561
_cell_length_b   9.53377307
_cell_length_c   9.57369007
_cell_angle_alpha   59.85710663
_cell_angle_beta   59.86834829
_cell_angle_gamma   59.55479739
_symmetry_Int_Tables_number   1
_chemical_formula_structural   Er8Cd2NiIr
_chemical_formula_sum   'Er16 Cd4 Ni2 Ir2'
_cell_volume   611.87508769
_cell_formula_units_Z   2
loop_
 _symmetry_equiv_pos_site_id
 _symmetry_equiv_pos_as_xyz
  1  'x, y, z'
loop_
 _atom_site_type_symbol
 _atom_site_label
 _atom_site_symmetry_multiplicity
 _atom_site_fract_x
 _atom_site_fract_y
 _atom_site_fract_z
 _atom_site_occupancy
  Er  Er0  1  0.350297  0.350257  0.343616  1
  Er  Er1  1  0.350364  0.350195  0.955795  1
  Er  Er2  1  0.353957  0.951994  0.347036  1
  Er  Er3  1  0.951682  0.354194  0.347062  1
  Er  Er4  1  0.809119  0.187254  0.190487  1
  Er  Er5  1  0.186903  0.809306  0.813386  1
  Er  Er6  1  0.186885  0.809259  0.190428  1
  Er  Er7  1  0.809099  0.187242  0.813195  1
  Er  Er8  1  0.188920  0.189111  0.810996  1
  Er  Er9  1  0.811532  0.810962  0.188774  1
  Er  Er10  1  0.937363  0.561481  0.566105  1
  Er  Er11  1  0.561433  0.937405  0.935103  1
  Er  Er12  1  0.561427  0.937414  0.566087  1
  Er  Er13  1  0.937386  0.561481  0.935061  1
  Er  Er14  1  0.566390  0.566547  0.933548  1
  Er  Er15  1  0.939952  0.940123  0.559967  1
  Cd  Cd16  1  0.579539  0.579239  0.583627  1
  Cd  Cd17  1  0.579523  0.579241  0.257600  1
  Cd  Cd18  1  0.579732  0.255844  0.582208  1
  Cd  Cd19  1  0.255378  0.579700  0.582495  1
  Ni  Ni20  1  0.142227  0.574817  0.141218  1
  Ni  Ni21  1  0.575546  0.141088  0.141786  1
  Ir  Ir22  1  0.142674  0.142914  0.142049  1
  Ir  Ir23  1  0.142673  0.142933  0.572369  1
