# generated using pymatgen
data_Tb16YTm3Sn16
_symmetry_space_group_name_H-M   'P 1'
_cell_length_a   8.04089010
_cell_length_b   8.19517110
_cell_length_c   15.51013000
_cell_angle_alpha   90.00000000
_cell_angle_beta   90.00000000
_cell_angle_gamma   90.01806796
_symmetry_Int_Tables_number   1
_chemical_formula_structural   Tb16YTm3Sn16
_chemical_formula_sum   'Tb16 Y1 Tm3 Sn16'
_cell_volume   1022.06276822
_cell_formula_units_Z   1
loop_
 _symmetry_equiv_pos_site_id
 _symmetry_equiv_pos_as_xyz
  1  'x, y, z'
loop_
 _atom_site_type_symbol
 _atom_site_label
 _atom_site_symmetry_multiplicity
 _atom_site_fract_x
 _atom_site_fract_y
 _atom_site_fract_z
 _atom_site_occupancy
  Tb  Tb0  1  0.367001  0.837440  0.877998  1
  Tb  Tb1  1  0.866516  0.662958  0.621982  1
  Tb  Tb2  1  0.633171  0.162788  0.377938  1
  Tb  Tb3  1  0.133160  0.337214  0.122104  1
  Tb  Tb4  1  0.633171  0.162788  0.122062  1
  Tb  Tb5  1  0.133160  0.337214  0.377896  1
  Tb  Tb6  1  0.367001  0.837440  0.622002  1
  Tb  Tb7  1  0.866516  0.662958  0.878018  1
  Tb  Tb8  1  0.519958  0.320389  0.902699  1
  Tb  Tb9  1  0.019698  0.179404  0.597314  1
  Tb  Tb10  1  0.480191  0.679511  0.402622  1
  Tb  Tb11  1  0.980217  0.820476  0.097356  1
  Tb  Tb12  1  0.480191  0.679511  0.097378  1
  Tb  Tb13  1  0.980217  0.820476  0.402644  1
  Tb  Tb14  1  0.519958  0.320389  0.597301  1
  Tb  Tb15  1  0.019698  0.179404  0.902686  1
  Y  Y16  1  0.198068  0.502544  0.750000  1
  Tm  Tm17  1  0.698348  0.997281  0.750000  1
  Tm  Tm18  1  0.801694  0.497357  0.250000  1
  Tm  Tm19  1  0.301691  0.002630  0.250000  1
  Sn  Sn20  1  0.293137  0.035958  0.042581  1
  Sn  Sn21  1  0.793152  0.464074  0.457421  1
  Sn  Sn22  1  0.706856  0.964046  0.542552  1
  Sn  Sn23  1  0.206829  0.536000  0.957740  1
  Sn  Sn24  1  0.706856  0.964046  0.957448  1
  Sn  Sn25  1  0.206829  0.536000  0.542260  1
  Sn  Sn26  1  0.293137  0.035958  0.457419  1
  Sn  Sn27  1  0.793152  0.464074  0.042579  1
  Sn  Sn28  1  0.564462  0.618415  0.750000  1
  Sn  Sn29  1  0.063598  0.882128  0.750000  1
  Sn  Sn30  1  0.436323  0.381792  0.250000  1
  Sn  Sn31  1  0.936272  0.118176  0.250000  1
  Sn  Sn32  1  0.329061  0.147695  0.750000  1
  Sn  Sn33  1  0.828512  0.351367  0.750000  1
  Sn  Sn34  1  0.671129  0.851521  0.250000  1
  Sn  Sn35  1  0.171069  0.648579  0.250000  1
