# generated using pymatgen
data_Nb4V4SiGe3
_symmetry_space_group_name_H-M   'P 1'
_cell_length_a   3.44759500
_cell_length_b   6.66424801
_cell_length_c   8.04470362
_cell_angle_alpha   89.91945730
_cell_angle_beta   90.00000000
_cell_angle_gamma   90.00000000
_symmetry_Int_Tables_number   1
_chemical_formula_structural   Nb4V4SiGe3
_chemical_formula_sum   'Nb4 V4 Si1 Ge3'
_cell_volume   184.83193594
_cell_formula_units_Z   1
loop_
 _symmetry_equiv_pos_site_id
 _symmetry_equiv_pos_as_xyz
  1  'x, y, z'
loop_
 _atom_site_type_symbol
 _atom_site_label
 _atom_site_symmetry_multiplicity
 _atom_site_fract_x
 _atom_site_fract_y
 _atom_site_fract_z
 _atom_site_occupancy
  Nb  Nb0  1  0.250000  0.038347  0.832381  1
  Nb  Nb1  1  0.250000  0.551642  0.673288  1
  Nb  Nb2  1  0.750000  0.951507  0.163924  1
  Nb  Nb3  1  0.750000  0.450692  0.333436  1
  V  V4  1  0.250000  0.128029  0.439330  1
  V  V5  1  0.250000  0.631129  0.056820  1
  V  V6  1  0.750000  0.870731  0.563508  1
  V  V7  1  0.750000  0.378469  0.938217  1
  Si  Si8  1  0.750000  0.747949  0.861945  1
  Ge  Ge9  1  0.250000  0.751224  0.361420  1
  Ge  Ge10  1  0.250000  0.252426  0.136241  1
  Ge  Ge11  1  0.750000  0.247855  0.639493  1
