# generated using pymatgen
data_Zr10Sn4Bi2Sb
_symmetry_space_group_name_H-M   'P 1'
_cell_length_a   5.95535754
_cell_length_b   8.74112763
_cell_length_c   8.73399223
_cell_angle_alpha   119.97298452
_cell_angle_beta   90.03741036
_cell_angle_gamma   89.98143280
_symmetry_Int_Tables_number   1
_chemical_formula_structural   Zr10Sn4Bi2Sb
_chemical_formula_sum   'Zr10 Sn4 Bi2 Sb1'
_cell_volume   393.85539931
_cell_formula_units_Z   1
loop_
 _symmetry_equiv_pos_site_id
 _symmetry_equiv_pos_as_xyz
  1  'x, y, z'
loop_
 _atom_site_type_symbol
 _atom_site_label
 _atom_site_symmetry_multiplicity
 _atom_site_fract_x
 _atom_site_fract_y
 _atom_site_fract_z
 _atom_site_occupancy
  Zr  Zr0  1  0.497492  0.331053  0.666367  1
  Zr  Zr1  1  0.497493  0.668945  0.335314  1
  Zr  Zr2  1  0.003405  0.669402  0.335650  1
  Zr  Zr3  1  0.003405  0.330598  0.666245  1
  Zr  Zr4  1  0.774710  0.259807  0.994055  1
  Zr  Zr5  1  0.774711  0.740186  0.734244  1
  Zr  Zr6  1  0.772640  0.999996  0.267284  1
  Zr  Zr7  1  0.229101  0.734136  0.000726  1
  Zr  Zr8  1  0.229098  0.265869  0.266592  1
  Zr  Zr9  1  0.225019  0.000005  0.733091  1
  Sn  Sn10  1  0.742606  0.999998  0.609681  1
  Sn  Sn11  1  0.254821  0.386779  0.000693  1
  Sn  Sn12  1  0.254838  0.613236  0.613929  1
  Sn  Sn13  1  0.255344  0.000000  0.388203  1
  Bi  Bi14  1  0.743638  0.610758  0.999402  1
  Bi  Bi15  1  0.743638  0.389234  0.388638  1
  Sb  Sb16  1  0.498041  0.000000  0.999886  1
