# generated using pymatgen
data_Be(Nb3S)2
_symmetry_space_group_name_H-M   'P 1'
_cell_length_a   3.42086800
_cell_length_b   11.63273900
_cell_length_c   14.34888400
_cell_angle_alpha   90.00000000
_cell_angle_beta   90.00000000
_cell_angle_gamma   90.00000000
_symmetry_Int_Tables_number   1
_chemical_formula_structural   Be(Nb3S)2
_chemical_formula_sum   'Be4 Nb24 S8'
_cell_volume   571.00041680
_cell_formula_units_Z   4
loop_
 _symmetry_equiv_pos_site_id
 _symmetry_equiv_pos_as_xyz
  1  'x, y, z'
loop_
 _atom_site_type_symbol
 _atom_site_label
 _atom_site_symmetry_multiplicity
 _atom_site_fract_x
 _atom_site_fract_y
 _atom_site_fract_z
 _atom_site_occupancy
  Be  Be0  1  0.000000  0.251818  0.088711  1
  Be  Be1  1  0.000000  0.748182  0.911289  1
  Be  Be2  1  0.500000  0.248182  0.588711  1
  Be  Be3  1  0.500000  0.751818  0.411289  1
  Nb  Nb4  1  0.000000  0.028188  0.108716  1
  Nb  Nb5  1  0.000000  0.971812  0.891284  1
  Nb  Nb6  1  0.500000  0.471812  0.608716  1
  Nb  Nb7  1  0.500000  0.528188  0.391284  1
  Nb  Nb8  1  0.000000  0.412702  0.241324  1
  Nb  Nb9  1  0.000000  0.587298  0.758676  1
  Nb  Nb10  1  0.500000  0.087298  0.741324  1
  Nb  Nb11  1  0.500000  0.912702  0.258676  1
  Nb  Nb12  1  0.000000  0.093442  0.580058  1
  Nb  Nb13  1  0.000000  0.906558  0.419942  1
  Nb  Nb14  1  0.500000  0.406558  0.080058  1
  Nb  Nb15  1  0.500000  0.593442  0.919942  1
  Nb  Nb16  1  0.000000  0.344888  0.482683  1
  Nb  Nb17  1  0.000000  0.655112  0.517317  1
  Nb  Nb18  1  0.500000  0.155112  0.982683  1
  Nb  Nb19  1  0.500000  0.844888  0.017317  1
  Nb  Nb20  1  0.000000  0.686587  0.292927  1
  Nb  Nb21  1  0.000000  0.313413  0.707073  1
  Nb  Nb22  1  0.500000  0.813413  0.792927  1
  Nb  Nb23  1  0.500000  0.186587  0.207073  1
  Nb  Nb24  1  0.000000  0.618474  0.072839  1
  Nb  Nb25  1  0.000000  0.381526  0.927161  1
  Nb  Nb26  1  0.500000  0.881526  0.572839  1
  Nb  Nb27  1  0.500000  0.118474  0.427161  1
  S  S28  1  0.000000  0.072003  0.295844  1
  S  S29  1  0.000000  0.927997  0.704156  1
  S  S30  1  0.500000  0.427997  0.795844  1
  S  S31  1  0.500000  0.572003  0.204156  1
  S  S32  1  0.000000  0.812527  0.149426  1
  S  S33  1  0.000000  0.187473  0.850574  1
  S  S34  1  0.500000  0.687473  0.649426  1
  S  S35  1  0.500000  0.312527  0.350574  1
