# generated using pymatgen
data_Nd7Gd3(InSi2)2
_symmetry_space_group_name_H-M   'P 1'
_cell_length_a   7.93839224
_cell_length_b   7.93839098
_cell_length_c   9.31112000
_cell_angle_alpha   115.23591261
_cell_angle_beta   115.21442259
_cell_angle_gamma   90.01464377
_symmetry_Int_Tables_number   1
_chemical_formula_structural   Nd7Gd3(InSi2)2
_chemical_formula_sum   'Nd7 Gd3 In2 Si4'
_cell_volume   468.18625477
_cell_formula_units_Z   1
loop_
 _symmetry_equiv_pos_site_id
 _symmetry_equiv_pos_as_xyz
  1  'x, y, z'
loop_
 _atom_site_type_symbol
 _atom_site_label
 _atom_site_symmetry_multiplicity
 _atom_site_fract_x
 _atom_site_fract_y
 _atom_site_fract_z
 _atom_site_occupancy
  Nd  Nd0  1  0.313917  0.460483  0.274401  1
  Nd  Nd1  1  0.813908  0.313755  0.274448  1
  Nd  Nd2  1  0.460693  0.960541  0.274448  1
  Nd  Nd3  1  0.038972  0.186116  0.725088  1
  Nd  Nd4  1  0.686370  0.540296  0.726666  1
  Nd  Nd5  1  0.186756  0.687040  0.725867  1
  Nd  Nd6  1  0.538826  0.039110  0.725867  1
  Gd  Gd7  1  0.499163  0.498272  0.000032  1
  Gd  Gd8  1  0.001758  0.000867  0.000032  1
  Gd  Gd9  1  0.958717  0.810360  0.269077  1
  In  In10  1  0.750751  0.751221  0.499413  1
  In  In11  1  0.248193  0.248662  0.499413  1
  Si  Si12  1  0.620472  0.881239  0.001711  1
  Si  Si13  1  0.382132  0.117881  0.000013  1
  Si  Si14  1  0.881631  0.384023  0.001762  1
  Si  Si15  1  0.117740  0.620132  0.001762  1
