# generated using pymatgen
data_Y2Er2TcB12Ru
_symmetry_space_group_name_H-M   'P 1'
_cell_length_a   3.66063600
_cell_length_b   9.13268013
_cell_length_c   11.52730600
_cell_angle_alpha   89.85752528
_cell_angle_beta   90.00000000
_cell_angle_gamma   90.00000000
_symmetry_Int_Tables_number   1
_chemical_formula_structural   Y2Er2TcB12Ru
_chemical_formula_sum   'Y4 Er4 Tc2 B24 Ru2'
_cell_volume   385.37298989
_cell_formula_units_Z   2
loop_
 _symmetry_equiv_pos_site_id
 _symmetry_equiv_pos_as_xyz
  1  'x, y, z'
loop_
 _atom_site_type_symbol
 _atom_site_label
 _atom_site_symmetry_multiplicity
 _atom_site_fract_x
 _atom_site_fract_y
 _atom_site_fract_z
 _atom_site_occupancy
  Y  Y0  1  0.000000  0.324468  0.415506  1
  Y  Y1  1  0.000000  0.675532  0.584494  1
  Y  Y2  1  0.000000  0.820923  0.087303  1
  Y  Y3  1  0.000000  0.179077  0.912697  1
  Er  Er4  1  0.000000  0.942310  0.370578  1
  Er  Er5  1  0.000000  0.057690  0.629422  1
  Er  Er6  1  0.000000  0.443236  0.130055  1
  Er  Er7  1  0.000000  0.556764  0.869945  1
  Tc  Tc8  1  0.000000  0.638974  0.319644  1
  Tc  Tc9  1  0.000000  0.361026  0.680356  1
  B  B10  1  0.500000  0.553467  0.432658  1
  B  B11  1  0.500000  0.446533  0.567342  1
  B  B12  1  0.500000  0.054176  0.067309  1
  B  B13  1  0.500000  0.945824  0.932691  1
  B  B14  1  0.500000  0.749171  0.418552  1
  B  B15  1  0.500000  0.250829  0.581448  1
  B  B16  1  0.500000  0.249187  0.081553  1
  B  B17  1  0.500000  0.750813  0.918447  1
  B  B18  1  0.500000  0.791847  0.265328  1
  B  B19  1  0.500000  0.208153  0.734672  1
  B  B20  1  0.500000  0.290898  0.234142  1
  B  B21  1  0.500000  0.709102  0.765858  1
  B  B22  1  0.500000  0.630820  0.185032  1
  B  B23  1  0.500000  0.369180  0.814968  1
  B  B24  1  0.500000  0.130512  0.314179  1
  B  B25  1  0.500000  0.869488  0.685821  1
  B  B26  1  0.500000  0.983206  0.212222  1
  B  B27  1  0.500000  0.016794  0.787778  1
  B  B28  1  0.500000  0.482666  0.287300  1
  B  B29  1  0.500000  0.517334  0.712700  1
  B  B30  1  0.500000  0.602300  0.028071  1
  B  B31  1  0.500000  0.397700  0.971929  1
  B  B32  1  0.500000  0.102346  0.471524  1
  B  B33  1  0.500000  0.897654  0.528476  1
  Ru  Ru34  1  0.000000  0.138155  0.179082  1
  Ru  Ru35  1  0.000000  0.861845  0.820918  1
