# generated using pymatgen
data_TaNb5Co4(ReN)2
_symmetry_space_group_name_H-M   'P 1'
_cell_length_a   8.13287240
_cell_length_b   8.13308362
_cell_length_c   8.13076700
_cell_angle_alpha   60.00928013
_cell_angle_beta   60.00860461
_cell_angle_gamma   59.98335005
_symmetry_Int_Tables_number   1
_chemical_formula_structural   TaNb5Co4(ReN)2
_chemical_formula_sum   'Ta2 Nb10 Co8 Re4 N4'
_cell_volume   380.29420605
_cell_formula_units_Z   2
loop_
 _symmetry_equiv_pos_site_id
 _symmetry_equiv_pos_as_xyz
  1  'x, y, z'
loop_
 _atom_site_type_symbol
 _atom_site_label
 _atom_site_symmetry_multiplicity
 _atom_site_fract_x
 _atom_site_fract_y
 _atom_site_fract_z
 _atom_site_occupancy
  Ta  Ta0  1  0.807257  0.807271  0.192753  1
  Ta  Ta1  1  0.192716  0.192788  0.807227  1
  Nb  Nb2  1  0.808087  0.191974  0.808045  1
  Nb  Nb3  1  0.191906  0.808098  0.191930  1
  Nb  Nb4  1  0.191928  0.808101  0.808040  1
  Nb  Nb5  1  0.808077  0.191951  0.191901  1
  Nb  Nb6  1  0.441397  0.441428  0.058570  1
  Nb  Nb7  1  0.058566  0.058595  0.441417  1
  Nb  Nb8  1  0.442185  0.057836  0.442189  1
  Nb  Nb9  1  0.057837  0.442204  0.057787  1
  Nb  Nb10  1  0.057808  0.442216  0.442192  1
  Nb  Nb11  1  0.442168  0.057866  0.057792  1
  Co  Co12  1  0.731432  0.423372  0.422602  1
  Co  Co13  1  0.423367  0.731394  0.422622  1
  Co  Co14  1  0.422581  0.422608  0.731497  1
  Co  Co15  1  0.422594  0.422623  0.423335  1
  Co  Co16  1  0.517500  0.828167  0.827145  1
  Co  Co17  1  0.828208  0.517408  0.827171  1
  Co  Co18  1  0.827186  0.827167  0.517490  1
  Co  Co19  1  0.827194  0.827176  0.828130  1
  Re  Re20  1  0.125151  0.624400  0.625208  1
  Re  Re21  1  0.624445  0.125160  0.625185  1
  Re  Re22  1  0.625182  0.625113  0.125247  1
  Re  Re23  1  0.625217  0.625138  0.624481  1
  N  N24  1  0.626732  0.122238  0.125522  1
  N  N25  1  0.122253  0.626712  0.125520  1
  N  N26  1  0.125510  0.125498  0.626751  1
  N  N27  1  0.125516  0.125496  0.122252  1
