# generated using pymatgen
data_La8Zn3Si12Os
_symmetry_space_group_name_H-M   'P 1'
_cell_length_a   8.30555500
_cell_length_b   8.30555558
_cell_length_c   8.82279200
_cell_angle_alpha   90.00000000
_cell_angle_beta   90.00000000
_cell_angle_gamma   120.00000169
_symmetry_Int_Tables_number   1
_chemical_formula_structural   La8Zn3Si12Os
_chemical_formula_sum   'La8 Zn3 Si12 Os1'
_cell_volume   527.07693550
_cell_formula_units_Z   1
loop_
 _symmetry_equiv_pos_site_id
 _symmetry_equiv_pos_as_xyz
  1  'x, y, z'
loop_
 _atom_site_type_symbol
 _atom_site_label
 _atom_site_symmetry_multiplicity
 _atom_site_fract_x
 _atom_site_fract_y
 _atom_site_fract_z
 _atom_site_occupancy
  La  La0  1  0.000000  0.000000  0.248791  1
  La  La1  1  0.000000  0.000000  0.750385  1
  La  La2  1  0.498106  0.501894  0.253484  1
  La  La3  1  0.498106  0.996213  0.253484  1
  La  La4  1  0.003787  0.501894  0.253484  1
  La  La5  1  0.497246  0.502754  0.746777  1
  La  La6  1  0.497246  0.994490  0.746777  1
  La  La7  1  0.005510  0.502754  0.746777  1
  Zn  Zn8  1  0.666667  0.333333  0.502771  1
  Zn  Zn9  1  0.666667  0.333333  0.996435  1
  Zn  Zn10  1  0.333333  0.666667  0.003104  1
  Si  Si11  1  0.169488  0.830512  0.500795  1
  Si  Si12  1  0.169488  0.338976  0.500795  1
  Si  Si13  1  0.661024  0.830512  0.500795  1
  Si  Si14  1  0.837931  0.162069  0.499522  1
  Si  Si15  1  0.837931  0.675862  0.499522  1
  Si  Si16  1  0.324138  0.162069  0.499522  1
  Si  Si17  1  0.833799  0.166201  0.000612  1
  Si  Si18  1  0.833799  0.667598  0.000612  1
  Si  Si19  1  0.332402  0.166201  0.000612  1
  Si  Si20  1  0.165787  0.834213  0.999364  1
  Si  Si21  1  0.165787  0.331574  0.999364  1
  Si  Si22  1  0.668426  0.834213  0.999364  1
  Os  Os23  1  0.333333  0.666667  0.496851  1
