# generated using pymatgen
data_Mn4Cr2PbO12
_symmetry_space_group_name_H-M   'P 1'
_cell_length_a   8.23041162
_cell_length_b   8.23041114
_cell_length_c   9.73634111
_cell_angle_alpha   54.56559400
_cell_angle_beta   54.56559980
_cell_angle_gamma   65.35000348
_symmetry_Int_Tables_number   1
_chemical_formula_structural   Mn4Cr2PbO12
_chemical_formula_sum   'Mn8 Cr4 Pb2 O24'
_cell_volume   434.57751464
_cell_formula_units_Z   2
loop_
 _symmetry_equiv_pos_site_id
 _symmetry_equiv_pos_as_xyz
  1  'x, y, z'
loop_
 _atom_site_type_symbol
 _atom_site_label
 _atom_site_symmetry_multiplicity
 _atom_site_fract_x
 _atom_site_fract_y
 _atom_site_fract_z
 _atom_site_occupancy
  Mn  Mn0  1  0.669484  0.001436  0.817141  1
  Mn  Mn1  1  0.186611  0.518379  0.478984  1
  Mn  Mn2  1  0.813389  0.481621  0.521016  1
  Mn  Mn3  1  0.330516  0.998564  0.182859  1
  Mn  Mn4  1  0.998564  0.330516  0.182859  1
  Mn  Mn5  1  0.001436  0.669484  0.817141  1
  Mn  Mn6  1  0.518379  0.186611  0.478984  1
  Mn  Mn7  1  0.481621  0.813389  0.521016  1
  Cr  Cr8  1  0.854361  0.854361  0.476144  1
  Cr  Cr9  1  0.335049  0.335049  0.817349  1
  Cr  Cr10  1  0.145639  0.145639  0.523856  1
  Cr  Cr11  1  0.664951  0.664951  0.182651  1
  Pb  Pb12  1  0.275467  0.724533  0.000000  1
  Pb  Pb13  1  0.724533  0.275467  0.000000  1
  O  O14  1  0.705854  0.705854  0.939992  1
  O  O15  1  0.015766  0.670070  0.349466  1
  O  O16  1  0.670070  0.015766  0.349466  1
  O  O17  1  0.673756  0.015831  0.613775  1
  O  O18  1  0.015831  0.673756  0.613775  1
  O  O19  1  0.047334  0.047334  0.273364  1
  O  O20  1  0.712635  0.370659  0.275911  1
  O  O21  1  0.370659  0.712635  0.275911  1
  O  O22  1  0.984169  0.326244  0.386225  1
  O  O23  1  0.984234  0.329930  0.650534  1
  O  O24  1  0.028688  0.373216  0.947944  1
  O  O25  1  0.373216  0.028688  0.947944  1
  O  O26  1  0.294146  0.294146  0.060008  1
  O  O27  1  0.971312  0.626784  0.052056  1
  O  O28  1  0.344796  0.344796  0.353038  1
  O  O29  1  0.346969  0.346969  0.606406  1
  O  O30  1  0.287365  0.629341  0.724089  1
  O  O31  1  0.629341  0.287365  0.724089  1
  O  O32  1  0.952666  0.952666  0.726636  1
  O  O33  1  0.653031  0.653031  0.393594  1
  O  O34  1  0.326244  0.984169  0.386225  1
  O  O35  1  0.655204  0.655204  0.646962  1
  O  O36  1  0.329930  0.984234  0.650534  1
  O  O37  1  0.626784  0.971312  0.052056  1
