# generated using pymatgen
data_KEuH6Ir
_symmetry_space_group_name_H-M   'P 1'
_cell_length_a   5.49168772
_cell_length_b   5.49168768
_cell_length_c   5.49168800
_cell_angle_alpha   59.99999806
_cell_angle_beta   59.99999834
_cell_angle_gamma   59.99999513
_symmetry_Int_Tables_number   1
_chemical_formula_structural   KEuH6Ir
_chemical_formula_sum   'K1 Eu1 H6 Ir1'
_cell_volume   117.11229561
_cell_formula_units_Z   1
loop_
 _symmetry_equiv_pos_site_id
 _symmetry_equiv_pos_as_xyz
  1  'x, y, z'
loop_
 _atom_site_type_symbol
 _atom_site_label
 _atom_site_symmetry_multiplicity
 _atom_site_fract_x
 _atom_site_fract_y
 _atom_site_fract_z
 _atom_site_occupancy
  K  K0  1  0.250000  0.250000  0.250000  1
  Eu  Eu1  1  0.750000  0.750000  0.750000  1
  H  H2  1  0.782301  0.217699  0.217699  1
  H  H3  1  0.217699  0.782301  0.782301  1
  H  H4  1  0.217699  0.782301  0.217699  1
  H  H5  1  0.782301  0.217699  0.782301  1
  H  H6  1  0.217699  0.217699  0.782301  1
  H  H7  1  0.782301  0.782301  0.217699  1
  Ir  Ir8  1  0.000000  0.000000  0.000000  1
