# generated using pymatgen
data_NaNd6IrBr12
_symmetry_space_group_name_H-M   'P 1'
_cell_length_a   9.57493640
_cell_length_b   9.57037136
_cell_length_c   9.57060541
_cell_angle_alpha   107.23605243
_cell_angle_beta   107.28998441
_cell_angle_gamma   107.29092208
_symmetry_Int_Tables_number   1
_chemical_formula_structural   NaNd6IrBr12
_chemical_formula_sum   'Na1 Nd6 Ir1 Br12'
_cell_volume   724.88727338
_cell_formula_units_Z   1
loop_
 _symmetry_equiv_pos_site_id
 _symmetry_equiv_pos_as_xyz
  1  'x, y, z'
loop_
 _atom_site_type_symbol
 _atom_site_label
 _atom_site_symmetry_multiplicity
 _atom_site_fract_x
 _atom_site_fract_y
 _atom_site_fract_z
 _atom_site_occupancy
  Na  Na0  1  0.500000  0.500000  0.500000  1
  Nd  Nd1  1  0.110924  0.321778  0.031847  1
  Nd  Nd2  1  0.322664  0.031777  0.111404  1
  Nd  Nd3  1  0.031665  0.111111  0.321658  1
  Nd  Nd4  1  0.968336  0.888889  0.678343  1
  Nd  Nd5  1  0.677336  0.968224  0.888596  1
  Nd  Nd6  1  0.889076  0.678222  0.968153  1
  Ir  Ir7  1  0.000000  0.000000  0.000000  1
  Br  Br8  1  0.219148  0.684612  0.073171  1
  Br  Br9  1  0.453722  0.373536  0.154684  1
  Br  Br10  1  0.684613  0.073215  0.218997  1
  Br  Br11  1  0.926780  0.780786  0.315218  1
  Br  Br12  1  0.154810  0.454009  0.373633  1
  Br  Br13  1  0.373381  0.154703  0.453793  1
  Br  Br14  1  0.626619  0.845297  0.546208  1
  Br  Br15  1  0.845191  0.545991  0.626367  1
  Br  Br16  1  0.073221  0.219214  0.684783  1
  Br  Br17  1  0.315388  0.926786  0.781003  1
  Br  Br18  1  0.546278  0.626464  0.845317  1
  Br  Br19  1  0.780852  0.315388  0.926829  1
