# generated using pymatgen
data_Ac2HfS5
_symmetry_space_group_name_H-M   'P 1'
_cell_length_a   7.56727900
_cell_length_b   8.43743400
_cell_length_c   11.73226900
_cell_angle_alpha   90.00000000
_cell_angle_beta   90.00000000
_cell_angle_gamma   90.00000000
_symmetry_Int_Tables_number   1
_chemical_formula_structural   Ac2HfS5
_chemical_formula_sum   'Ac8 Hf4 S20'
_cell_volume   749.08680490
_cell_formula_units_Z   4
loop_
 _symmetry_equiv_pos_site_id
 _symmetry_equiv_pos_as_xyz
  1  'x, y, z'
loop_
 _atom_site_type_symbol
 _atom_site_label
 _atom_site_symmetry_multiplicity
 _atom_site_fract_x
 _atom_site_fract_y
 _atom_site_fract_z
 _atom_site_occupancy
  Ac  Ac0  1  0.564224  0.997542  0.329701  1
  Ac  Ac1  1  0.935776  0.502458  0.829701  1
  Ac  Ac2  1  0.435776  0.497542  0.670299  1
  Ac  Ac3  1  0.064224  0.002458  0.170299  1
  Ac  Ac4  1  0.435776  0.002458  0.670299  1
  Ac  Ac5  1  0.064224  0.497542  0.170299  1
  Ac  Ac6  1  0.564224  0.502458  0.329701  1
  Ac  Ac7  1  0.935776  0.997542  0.829701  1
  Hf  Hf8  1  0.070357  0.750000  0.491017  1
  Hf  Hf9  1  0.429643  0.750000  0.991017  1
  Hf  Hf10  1  0.929643  0.250000  0.508983  1
  Hf  Hf11  1  0.570357  0.250000  0.008983  1
  S  S12  1  0.824506  0.531607  0.567814  1
  S  S13  1  0.675494  0.968393  0.067814  1
  S  S14  1  0.175494  0.031607  0.432186  1
  S  S15  1  0.324506  0.468393  0.932186  1
  S  S16  1  0.175494  0.468393  0.432186  1
  S  S17  1  0.324506  0.031607  0.932186  1
  S  S18  1  0.824506  0.968393  0.567814  1
  S  S19  1  0.675494  0.531607  0.067814  1
  S  S20  1  0.869366  0.750000  0.310463  1
  S  S21  1  0.630634  0.750000  0.810463  1
  S  S22  1  0.130634  0.250000  0.689537  1
  S  S23  1  0.369366  0.250000  0.189537  1
  S  S24  1  0.433411  0.750000  0.492977  1
  S  S25  1  0.066589  0.750000  0.992977  1
  S  S26  1  0.566589  0.250000  0.507023  1
  S  S27  1  0.933411  0.250000  0.007023  1
  S  S28  1  0.151307  0.750000  0.703007  1
  S  S29  1  0.348693  0.750000  0.203007  1
  S  S30  1  0.848693  0.250000  0.296993  1
  S  S31  1  0.651307  0.250000  0.796993  1
