# generated using pymatgen
data_Nd8Al5Ga3
_symmetry_space_group_name_H-M   'P 1'
_cell_length_a   5.75666600
_cell_length_b   5.92085780
_cell_length_c   11.72018759
_cell_angle_alpha   90.05964014
_cell_angle_beta   90.00000000
_cell_angle_gamma   90.00000000
_symmetry_Int_Tables_number   1
_chemical_formula_structural   Nd8Al5Ga3
_chemical_formula_sum   'Nd8 Al5 Ga3'
_cell_volume   399.47535475
_cell_formula_units_Z   1
loop_
 _symmetry_equiv_pos_site_id
 _symmetry_equiv_pos_as_xyz
  1  'x, y, z'
loop_
 _atom_site_type_symbol
 _atom_site_label
 _atom_site_symmetry_multiplicity
 _atom_site_fract_x
 _atom_site_fract_y
 _atom_site_fract_z
 _atom_site_occupancy
  Nd  Nd0  1  0.750000  0.165232  0.011157  1
  Nd  Nd1  1  0.750000  0.406232  0.334584  1
  Nd  Nd2  1  0.750000  0.834481  0.510738  1
  Nd  Nd3  1  0.750000  0.594309  0.833692  1
  Nd  Nd4  1  0.250000  0.406858  0.166900  1
  Nd  Nd5  1  0.250000  0.165250  0.489494  1
  Nd  Nd6  1  0.250000  0.594726  0.664483  1
  Nd  Nd7  1  0.250000  0.833952  0.990937  1
  Al  Al8  1  0.500138  0.928185  0.250342  1
  Al  Al9  1  0.500423  0.071746  0.749479  1
  Al  Al10  1  0.999862  0.928185  0.250342  1
  Al  Al11  1  0.999577  0.071746  0.749479  1
  Al  Al12  1  0.250000  0.332850  0.898065  1
  Ga  Ga13  1  0.750000  0.665923  0.100851  1
  Ga  Ga14  1  0.750000  0.333764  0.600121  1
  Ga  Ga15  1  0.250000  0.666558  0.399337  1
