# generated using pymatgen
data_Tb13Y3(InRh)4
_symmetry_space_group_name_H-M   'P 1'
_cell_length_a   9.69847584
_cell_length_b   9.70568465
_cell_length_c   9.69804031
_cell_angle_alpha   60.02954457
_cell_angle_beta   60.02992183
_cell_angle_gamma   60.02528737
_symmetry_Int_Tables_number   1
_chemical_formula_structural   Tb13Y3(InRh)4
_chemical_formula_sum   'Tb13 Y3 In4 Rh4'
_cell_volume   645.91696037
_cell_formula_units_Z   1
loop_
 _symmetry_equiv_pos_site_id
 _symmetry_equiv_pos_as_xyz
  1  'x, y, z'
loop_
 _atom_site_type_symbol
 _atom_site_label
 _atom_site_symmetry_multiplicity
 _atom_site_fract_x
 _atom_site_fract_y
 _atom_site_fract_z
 _atom_site_occupancy
  Tb  Tb0  1  0.437521  0.437329  0.061770  1
  Tb  Tb1  1  0.061144  0.437832  0.061264  1
  Tb  Tb2  1  0.061295  0.061015  0.437980  1
  Tb  Tb3  1  0.651501  0.651342  0.652095  1
  Tb  Tb4  1  0.648443  0.648456  0.050558  1
  Tb  Tb5  1  0.050434  0.648675  0.648436  1
  Tb  Tb6  1  0.648660  0.050407  0.648524  1
  Tb  Tb7  1  0.190278  0.810623  0.810381  1
  Tb  Tb8  1  0.811174  0.189730  0.189535  1
  Tb  Tb9  1  0.810551  0.190284  0.810526  1
  Tb  Tb10  1  0.810287  0.810521  0.190411  1
  Tb  Tb11  1  0.189524  0.811595  0.189376  1
  Tb  Tb12  1  0.189675  0.189865  0.810972  1
  Y  Y13  1  0.061749  0.437782  0.437505  1
  Y  Y14  1  0.438083  0.060816  0.061130  1
  Y  Y15  1  0.438054  0.061160  0.437770  1
  In  In16  1  0.416328  0.417590  0.416491  1
  In  In17  1  0.418028  0.417895  0.747888  1
  In  In18  1  0.748177  0.417826  0.417868  1
  In  In19  1  0.417975  0.747853  0.417951  1
  Rh  Rh20  1  0.857368  0.857352  0.857547  1
  Rh  Rh21  1  0.858302  0.858415  0.427143  1
  Rh  Rh22  1  0.426962  0.858652  0.858408  1
  Rh  Rh23  1  0.858490  0.426984  0.858472  1
