# generated using pymatgen
data_La4V3IrF28
_symmetry_space_group_name_H-M   'P 1'
_cell_length_a   5.73847411
_cell_length_b   9.27798464
_cell_length_c   12.34771300
_cell_angle_alpha   62.69304696
_cell_angle_beta   90.04908379
_cell_angle_gamma   90.00346628
_symmetry_Int_Tables_number   1
_chemical_formula_structural   La4V3IrF28
_chemical_formula_sum   'La4 V3 Ir1 F28'
_cell_volume   584.14940323
_cell_formula_units_Z   1
loop_
 _symmetry_equiv_pos_site_id
 _symmetry_equiv_pos_as_xyz
  1  'x, y, z'
loop_
 _atom_site_type_symbol
 _atom_site_label
 _atom_site_symmetry_multiplicity
 _atom_site_fract_x
 _atom_site_fract_y
 _atom_site_fract_z
 _atom_site_occupancy
  La  La0  1  0.761156  0.808088  0.264710  1
  La  La1  1  0.258210  0.194672  0.231639  1
  La  La2  1  0.241242  0.195302  0.730818  1
  La  La3  1  0.737881  0.807138  0.770660  1
  V  V4  1  0.745394  0.273915  0.956134  1
  V  V5  1  0.754727  0.274424  0.455318  1
  V  V6  1  0.254166  0.726016  0.043788  1
  Ir  Ir7  1  0.244589  0.727358  0.543405  1
  F  F8  1  0.957526  0.712911  0.456949  1
  F  F9  1  0.475432  0.285390  0.042887  1
  F  F10  1  0.025204  0.284807  0.542486  1
  F  F11  1  0.526000  0.713409  0.958581  1
  F  F12  1  0.057442  0.709373  0.926541  1
  F  F13  1  0.557508  0.289708  0.573045  1
  F  F14  1  0.943039  0.289477  0.073612  1
  F  F15  1  0.439799  0.705809  0.422807  1
  F  F16  1  0.737355  0.496793  0.867207  1
  F  F17  1  0.237952  0.492421  0.639117  1
  F  F18  1  0.262605  0.503216  0.133262  1
  F  F19  1  0.763539  0.497749  0.365881  1
  F  F20  1  0.741164  0.051831  0.044460  1
  F  F21  1  0.242426  0.962068  0.453335  1
  F  F22  1  0.259302  0.946902  0.955865  1
  F  F23  1  0.759318  0.053199  0.544056  1
  F  F24  1  0.050650  0.743548  0.667494  1
  F  F25  1  0.548888  0.254437  0.837980  1
  F  F26  1  0.950998  0.257512  0.335889  1
  F  F27  1  0.450065  0.743808  0.162908  1
  F  F28  1  0.009784  0.265783  0.866332  1
  F  F29  1  0.528924  0.734145  0.634415  1
  F  F30  1  0.988275  0.732615  0.133139  1
  F  F31  1  0.490886  0.269484  0.363683  1
  F  F32  1  0.088982  0.970250  0.229863  1
  F  F33  1  0.585178  0.027204  0.269692  1
  F  F34  1  0.912931  0.028921  0.771068  1
  F  F35  1  0.411461  0.970316  0.730979  1
