# generated using pymatgen
data_Er2Fe3P6Ir7
_symmetry_space_group_name_H-M   'P 1'
_cell_length_a   3.87723500
_cell_length_b   10.61743000
_cell_length_c   12.32670500
_cell_angle_alpha   90.00000000
_cell_angle_beta   90.00000000
_cell_angle_gamma   90.00000000
_symmetry_Int_Tables_number   1
_chemical_formula_structural   Er2Fe3P6Ir7
_chemical_formula_sum   'Er4 Fe6 P12 Ir14'
_cell_volume   507.44448111
_cell_formula_units_Z   2
loop_
 _symmetry_equiv_pos_site_id
 _symmetry_equiv_pos_as_xyz
  1  'x, y, z'
loop_
 _atom_site_type_symbol
 _atom_site_label
 _atom_site_symmetry_multiplicity
 _atom_site_fract_x
 _atom_site_fract_y
 _atom_site_fract_z
 _atom_site_occupancy
  Er  Er0  1  0.250000  0.576700  0.712644  1
  Er  Er1  1  0.250000  0.923300  0.212644  1
  Er  Er2  1  0.750000  0.415056  0.289456  1
  Er  Er3  1  0.750000  0.084944  0.789456  1
  Fe  Fe4  1  0.750000  0.124505  0.302510  1
  Fe  Fe5  1  0.750000  0.375495  0.802510  1
  Fe  Fe6  1  0.250000  0.459216  0.932636  1
  Fe  Fe7  1  0.250000  0.040784  0.432636  1
  Fe  Fe8  1  0.750000  0.542864  0.064967  1
  Fe  Fe9  1  0.750000  0.957136  0.564967  1
  P  P10  1  0.250000  0.431412  0.105280  1
  P  P11  1  0.250000  0.068588  0.605280  1
  P  P12  1  0.750000  0.556770  0.887857  1
  P  P13  1  0.750000  0.943230  0.387857  1
  P  P14  1  0.250000  0.273893  0.864021  1
  P  P15  1  0.250000  0.226107  0.364021  1
  P  P16  1  0.750000  0.733524  0.131294  1
  P  P17  1  0.750000  0.766476  0.631294  1
  P  P18  1  0.250000  0.595553  0.387194  1
  P  P19  1  0.250000  0.904447  0.887194  1
  P  P20  1  0.750000  0.399444  0.624029  1
  P  P21  1  0.750000  0.100556  0.124029  1
  Ir  Ir22  1  0.250000  0.722396  0.988851  1
  Ir  Ir23  1  0.250000  0.777604  0.488851  1
  Ir  Ir24  1  0.750000  0.279360  0.010261  1
  Ir  Ir25  1  0.750000  0.220640  0.510261  1
  Ir  Ir26  1  0.250000  0.405032  0.475162  1
  Ir  Ir27  1  0.250000  0.094968  0.975162  1
  Ir  Ir28  1  0.750000  0.586882  0.522406  1
  Ir  Ir29  1  0.750000  0.913118  0.022406  1
  Ir  Ir30  1  0.250000  0.230736  0.175114  1
  Ir  Ir31  1  0.250000  0.269264  0.675114  1
  Ir  Ir32  1  0.750000  0.760562  0.824505  1
  Ir  Ir33  1  0.750000  0.739438  0.324505  1
  Ir  Ir34  1  0.250000  0.881842  0.701815  1
  Ir  Ir35  1  0.250000  0.618158  0.201815  1
