# generated using pymatgen
data_Sr2Zn(SiPd2)3
_symmetry_space_group_name_H-M   'P 1'
_cell_length_a   6.90320276
_cell_length_b   6.93782016
_cell_length_c   6.90320000
_cell_angle_alpha   129.63980787
_cell_angle_beta   116.48891800
_cell_angle_gamma   85.02344571
_symmetry_Int_Tables_number   1
_chemical_formula_structural   Sr2Zn(SiPd2)3
_chemical_formula_sum   'Sr2 Zn1 Si3 Pd6'
_cell_volume   218.28491759
_cell_formula_units_Z   1
loop_
 _symmetry_equiv_pos_site_id
 _symmetry_equiv_pos_as_xyz
  1  'x, y, z'
loop_
 _atom_site_type_symbol
 _atom_site_label
 _atom_site_symmetry_multiplicity
 _atom_site_fract_x
 _atom_site_fract_y
 _atom_site_fract_z
 _atom_site_occupancy
  Sr  Sr0  1  0.002413  0.975388  0.972976  1
  Sr  Sr1  1  0.498993  0.043495  0.544502  1
  Zn  Zn2  1  0.343151  0.398279  0.055128  1
  Si  Si3  1  0.817248  0.260542  0.443294  1
  Si  Si4  1  0.651084  0.703726  0.052642  1
  Si  Si5  1  0.190303  0.630323  0.440020  1
  Pd  Pd6  1  0.947907  0.502409  0.954990  1
  Pd  Pd7  1  0.547417  0.502409  0.554501  1
  Pd  Pd8  1  0.028147  0.993573  0.525725  1
  Pd  Pd9  1  0.791993  0.490642  0.277149  1
  Pd  Pd10  1  0.213494  0.490642  0.698648  1
  Pd  Pd11  1  0.467850  0.993573  0.965426  1
