# generated using pymatgen
data_PrNd(Al5Rh)4
_symmetry_space_group_name_H-M   'P 1'
_cell_length_a   6.89069508
_cell_length_b   6.89069481
_cell_length_c   9.21754300
_cell_angle_alpha   90.00000000
_cell_angle_beta   90.00000000
_cell_angle_gamma   97.16164068
_symmetry_Int_Tables_number   1
_chemical_formula_structural   PrNd(Al5Rh)4
_chemical_formula_sum   'Pr1 Nd1 Al20 Rh4'
_cell_volume   434.24991057
_cell_formula_units_Z   1
loop_
 _symmetry_equiv_pos_site_id
 _symmetry_equiv_pos_as_xyz
  1  'x, y, z'
loop_
 _atom_site_type_symbol
 _atom_site_label
 _atom_site_symmetry_multiplicity
 _atom_site_fract_x
 _atom_site_fract_y
 _atom_site_fract_z
 _atom_site_occupancy
  Pr  Pr0  1  0.873582  0.126418  0.750000  1
  Nd  Nd1  1  0.126590  0.873410  0.250000  1
  Al  Al2  1  0.620901  0.379099  0.550031  1
  Al  Al3  1  0.378951  0.621049  0.449811  1
  Al  Al4  1  0.378951  0.621049  0.050189  1
  Al  Al5  1  0.620901  0.379099  0.949969  1
  Al  Al6  1  0.223258  0.223164  0.499857  1
  Al  Al7  1  0.776836  0.776742  0.499857  1
  Al  Al8  1  0.776836  0.776742  0.000143  1
  Al  Al9  1  0.223258  0.223164  0.000143  1
  Al  Al10  1  0.842861  0.157139  0.103863  1
  Al  Al11  1  0.157315  0.842685  0.896390  1
  Al  Al12  1  0.157315  0.842685  0.603610  1
  Al  Al13  1  0.842861  0.157139  0.396137  1
  Al  Al14  1  0.859171  0.595770  0.750000  1
  Al  Al15  1  0.140831  0.404492  0.250000  1
  Al  Al16  1  0.404230  0.140829  0.750000  1
  Al  Al17  1  0.595508  0.859169  0.250000  1
  Al  Al18  1  0.226937  0.481182  0.750000  1
  Al  Al19  1  0.773263  0.519021  0.250000  1
  Al  Al20  1  0.518818  0.773063  0.750000  1
  Al  Al21  1  0.480979  0.226737  0.250000  1
  Rh  Rh22  1  0.000022  0.500100  0.499859  1
  Rh  Rh23  1  0.000022  0.500100  0.000141  1
  Rh  Rh24  1  0.499900  0.999978  0.000141  1
  Rh  Rh25  1  0.499900  0.999978  0.499859  1
