# generated using pymatgen
data_La2HoTm17Pt16
_symmetry_space_group_name_H-M   'P 1'
_cell_length_a   7.47191508
_cell_length_b   7.51393152
_cell_length_c   14.63080600
_cell_angle_alpha   90.00628323
_cell_angle_beta   89.99168772
_cell_angle_gamma   89.82394071
_symmetry_Int_Tables_number   1
_chemical_formula_structural   La2HoTm17Pt16
_chemical_formula_sum   'La2 Ho1 Tm17 Pt16'
_cell_volume   821.42015375
_cell_formula_units_Z   1
loop_
 _symmetry_equiv_pos_site_id
 _symmetry_equiv_pos_as_xyz
  1  'x, y, z'
loop_
 _atom_site_type_symbol
 _atom_site_label
 _atom_site_symmetry_multiplicity
 _atom_site_fract_x
 _atom_site_fract_y
 _atom_site_fract_z
 _atom_site_occupancy
  La  La0  1  0.498990  0.323648  0.908229  1
  La  La1  1  0.501078  0.676288  0.408518  1
  Ho  Ho2  1  0.999264  0.822346  0.091535  1
  Tm  Tm3  1  0.681804  0.991935  0.249069  1
  Tm  Tm4  1  0.180919  0.509412  0.248938  1
  Tm  Tm5  1  0.818726  0.490689  0.748298  1
  Tm  Tm6  1  0.318438  0.007887  0.748608  1
  Tm  Tm7  1  0.660551  0.836199  0.622861  1
  Tm  Tm8  1  0.153174  0.667303  0.875856  1
  Tm  Tm9  1  0.847442  0.332236  0.376675  1
  Tm  Tm10  1  0.340377  0.164177  0.123177  1
  Tm  Tm11  1  0.344561  0.167277  0.378277  1
  Tm  Tm12  1  0.845964  0.332274  0.121580  1
  Tm  Tm13  1  0.153826  0.667979  0.621310  1
  Tm  Tm14  1  0.655902  0.832598  0.877894  1
  Tm  Tm15  1  0.998471  0.823347  0.405793  1
  Tm  Tm16  1  0.496807  0.683694  0.095815  1
  Tm  Tm17  1  0.502760  0.315778  0.595680  1
  Tm  Tm18  1  0.002132  0.178759  0.905471  1
  Tm  Tm19  1  0.001124  0.178884  0.591808  1
  Pt  Pt20  1  0.820437  0.643526  0.248981  1
  Pt  Pt21  1  0.314020  0.859273  0.248151  1
  Pt  Pt22  1  0.686808  0.140583  0.747339  1
  Pt  Pt23  1  0.178318  0.355451  0.747362  1
  Pt  Pt24  1  0.547868  0.380897  0.247736  1
  Pt  Pt25  1  0.045596  0.116212  0.250745  1
  Pt  Pt26  1  0.954857  0.884553  0.750044  1
  Pt  Pt27  1  0.451705  0.618747  0.747101  1
  Pt  Pt28  1  0.816287  0.526649  0.545919  1
  Pt  Pt29  1  0.312453  0.959515  0.960151  1
  Pt  Pt30  1  0.687763  0.041132  0.461083  1
  Pt  Pt31  1  0.184068  0.470929  0.044924  1
  Pt  Pt32  1  0.175101  0.461928  0.459328  1
  Pt  Pt33  1  0.683812  0.030043  0.043514  1
  Pt  Pt34  1  0.313253  0.971467  0.543899  1
  Pt  Pt35  1  0.825346  0.536385  0.958330  1
