# generated using pymatgen
data_Pr2(CN2)3
_symmetry_space_group_name_H-M   'P 1'
_cell_length_a   7.78905761
_cell_length_b   4.03605209
_cell_length_c   5.36707269
_cell_angle_alpha   90.00000226
_cell_angle_beta   83.42347901
_cell_angle_gamma   74.98424288
_symmetry_Int_Tables_number   1
_chemical_formula_structural   Pr2(CN2)3
_chemical_formula_sum   'Pr2 C3 N6'
_cell_volume   161.81394309
_cell_formula_units_Z   1
loop_
 _symmetry_equiv_pos_site_id
 _symmetry_equiv_pos_as_xyz
  1  'x, y, z'
loop_
 _atom_site_type_symbol
 _atom_site_label
 _atom_site_symmetry_multiplicity
 _atom_site_fract_x
 _atom_site_fract_y
 _atom_site_fract_z
 _atom_site_occupancy
  Pr  Pr0  1  0.270153  0.864923  0.929887  1
  Pr  Pr1  1  0.729847  0.135077  0.070113  1
  C  C2  1  0.655897  0.672051  0.591119  1
  C  C3  1  0.344103  0.327949  0.408881  1
  C  C4  1  0.000000  0.000000  0.500000  1
  N  N5  1  0.316758  0.341621  0.637716  1
  N  N6  1  0.683242  0.658379  0.362284  1
  N  N7  1  0.377371  0.311314  0.175193  1
  N  N8  1  0.622629  0.688686  0.824807  1
  N  N9  1  0.019056  0.990472  0.268569  1
  N  N10  1  0.980944  0.009527  0.731431  1
