# generated using pymatgen
data_YLu2Ga7Cu4
_symmetry_space_group_name_H-M   'P 1'
_cell_length_a   7.95841104
_cell_length_b   7.95841118
_cell_length_c   9.30913696
_cell_angle_alpha   54.49657671
_cell_angle_beta   54.49657673
_cell_angle_gamma   30.60613614
_symmetry_Int_Tables_number   1
_chemical_formula_structural   YLu2Ga7Cu4
_chemical_formula_sum   'Y1 Lu2 Ga7 Cu4'
_cell_volume   239.67661267
_cell_formula_units_Z   1
loop_
 _symmetry_equiv_pos_site_id
 _symmetry_equiv_pos_as_xyz
  1  'x, y, z'
loop_
 _atom_site_type_symbol
 _atom_site_label
 _atom_site_symmetry_multiplicity
 _atom_site_fract_x
 _atom_site_fract_y
 _atom_site_fract_z
 _atom_site_occupancy
  Y  Y0  1  0.000000  0.000000  0.000000  1
  Lu  Lu1  1  0.301982  0.301982  0.706762  1
  Lu  Lu2  1  0.698018  0.698018  0.293238  1
  Ga  Ga3  1  0.857447  0.857447  0.421738  1
  Ga  Ga4  1  0.142553  0.142553  0.578262  1
  Ga  Ga5  1  0.138696  0.138696  0.135039  1
  Ga  Ga6  1  0.861304  0.861304  0.864961  1
  Ga  Ga7  1  0.000000  0.000000  0.500000  1
  Ga  Ga8  1  0.344197  0.344197  0.275095  1
  Ga  Ga9  1  0.655803  0.655803  0.724905  1
  Cu  Cu10  1  0.495019  0.495019  0.315817  1
  Cu  Cu11  1  0.504981  0.504981  0.684183  1
  Cu  Cu12  1  0.658473  0.658473  0.985440  1
  Cu  Cu13  1  0.341527  0.341527  0.014560  1
