# generated using pymatgen
data_Tm5NiSe4
_symmetry_space_group_name_H-M   'P 1'
_cell_length_a   6.94973587
_cell_length_b   6.94974722
_cell_length_c   6.94971282
_cell_angle_alpha   99.65389042
_cell_angle_beta   99.64998553
_cell_angle_gamma   131.65743576
_symmetry_Int_Tables_number   1
_chemical_formula_structural   Tm5NiSe4
_chemical_formula_sum   'Tm5 Ni1 Se4'
_cell_volume   228.79750315
_cell_formula_units_Z   1
loop_
 _symmetry_equiv_pos_site_id
 _symmetry_equiv_pos_as_xyz
  1  'x, y, z'
loop_
 _atom_site_type_symbol
 _atom_site_label
 _atom_site_symmetry_multiplicity
 _atom_site_fract_x
 _atom_site_fract_y
 _atom_site_fract_z
 _atom_site_occupancy
  Tm  Tm0  1  0.404255  0.775732  0.179989  1
  Tm  Tm1  1  0.000000  0.000000  0.000000  1
  Tm  Tm2  1  0.595745  0.224268  0.820011  1
  Tm  Tm3  1  0.224268  0.404259  0.628527  1
  Tm  Tm4  1  0.775732  0.595741  0.371473  1
  Ni  Ni5  1  0.500000  0.500000  0.000000  1
  Se  Se6  1  0.091304  0.692797  0.784103  1
  Se  Se7  1  0.692802  0.908691  0.601498  1
  Se  Se8  1  0.307198  0.091309  0.398502  1
  Se  Se9  1  0.908696  0.307203  0.215897  1
