# generated using pymatgen
data_Tm4Lu4Cd2IrRu
_symmetry_space_group_name_H-M   'P 1'
_cell_length_a   9.47547519
_cell_length_b   9.47547424
_cell_length_c   9.53788200
_cell_angle_alpha   59.78189567
_cell_angle_beta   59.78189903
_cell_angle_gamma   59.66170542
_symmetry_Int_Tables_number   1
_chemical_formula_structural   Tm4Lu4Cd2IrRu
_chemical_formula_sum   'Tm8 Lu8 Cd4 Ir2 Ru2'
_cell_volume   601.98265860
_cell_formula_units_Z   2
loop_
 _symmetry_equiv_pos_site_id
 _symmetry_equiv_pos_as_xyz
  1  'x, y, z'
loop_
 _atom_site_type_symbol
 _atom_site_label
 _atom_site_symmetry_multiplicity
 _atom_site_fract_x
 _atom_site_fract_y
 _atom_site_fract_z
 _atom_site_occupancy
  Tm  Tm0  1  0.437776  0.437776  0.062224  1
  Tm  Tm1  1  0.059313  0.059313  0.440687  1
  Tm  Tm2  1  0.189088  0.808489  0.812949  1
  Tm  Tm3  1  0.808489  0.189088  0.189474  1
  Tm  Tm4  1  0.808489  0.189088  0.812949  1
  Tm  Tm5  1  0.189088  0.808489  0.189474  1
  Tm  Tm6  1  0.809755  0.809755  0.190245  1
  Tm  Tm7  1  0.188747  0.188747  0.811253  1
  Lu  Lu8  1  0.598721  0.598721  0.597846  1
  Lu  Lu9  1  0.598721  0.598721  0.204713  1
  Lu  Lu10  1  0.596571  0.210240  0.596595  1
  Lu  Lu11  1  0.210240  0.596571  0.596595  1
  Lu  Lu12  1  0.061678  0.437596  0.440871  1
  Lu  Lu13  1  0.437596  0.061678  0.059855  1
  Lu  Lu14  1  0.437596  0.061678  0.440871  1
  Lu  Lu15  1  0.061678  0.437596  0.059855  1
  Cd  Cd16  1  0.830602  0.830602  0.830753  1
  Cd  Cd17  1  0.830602  0.830602  0.508042  1
  Cd  Cd18  1  0.831237  0.506578  0.831092  1
  Cd  Cd19  1  0.506578  0.831237  0.831092  1
  Ir  Ir20  1  0.395907  0.826487  0.388802  1
  Ir  Ir21  1  0.826487  0.395907  0.388802  1
  Ru  Ru22  1  0.392520  0.392520  0.386560  1
  Ru  Ru23  1  0.392520  0.392520  0.828399  1
