# generated using pymatgen
data_Be3ZnInF9
_symmetry_space_group_name_H-M   'P 1'
_cell_length_a   6.75392400
_cell_length_b   6.75392284
_cell_length_c   9.78174400
_cell_angle_alpha   90.00000000
_cell_angle_beta   90.00000000
_cell_angle_gamma   119.99999587
_symmetry_Int_Tables_number   1
_chemical_formula_structural   Be3ZnInF9
_chemical_formula_sum   'Be6 Zn2 In2 F18'
_cell_volume   386.41965339
_cell_formula_units_Z   2
loop_
 _symmetry_equiv_pos_site_id
 _symmetry_equiv_pos_as_xyz
  1  'x, y, z'
loop_
 _atom_site_type_symbol
 _atom_site_label
 _atom_site_symmetry_multiplicity
 _atom_site_fract_x
 _atom_site_fract_y
 _atom_site_fract_z
 _atom_site_occupancy
  Be  Be0  1  0.214052  0.938844  0.250000  1
  Be  Be1  1  0.214052  0.275208  0.750000  1
  Be  Be2  1  0.724792  0.938844  0.750000  1
  Be  Be3  1  0.061156  0.785948  0.750000  1
  Be  Be4  1  0.061156  0.275208  0.250000  1
  Be  Be5  1  0.724792  0.785948  0.250000  1
  Zn  Zn6  1  0.333333  0.666667  0.000000  1
  Zn  Zn7  1  0.333333  0.666667  0.500000  1
  In  In8  1  0.666667  0.333333  0.000000  1
  In  In9  1  0.666667  0.333333  0.500000  1
  F  F10  1  0.081298  0.668252  0.618960  1
  F  F11  1  0.586954  0.918702  0.618960  1
  F  F12  1  0.331748  0.413046  0.618960  1
  F  F13  1  0.331748  0.918702  0.381040  1
  F  F14  1  0.239148  0.187300  0.250000  1
  F  F15  1  0.948152  0.760852  0.250000  1
  F  F16  1  0.812700  0.051848  0.250000  1
  F  F17  1  0.812700  0.760852  0.750000  1
  F  F18  1  0.948152  0.187300  0.750000  1
  F  F19  1  0.239148  0.051848  0.750000  1
  F  F20  1  0.331748  0.918702  0.118959  1
  F  F21  1  0.586954  0.668252  0.381040  1
  F  F22  1  0.081298  0.413046  0.381040  1
  F  F23  1  0.081298  0.413046  0.118959  1
  F  F24  1  0.586954  0.668252  0.118959  1
  F  F25  1  0.081298  0.668252  0.881040  1
  F  F26  1  0.586954  0.918702  0.881040  1
  F  F27  1  0.331748  0.413046  0.881040  1
