# generated using pymatgen
data_Tm5Mg2U(Co4P3)4
_symmetry_space_group_name_H-M   'P 1'
_cell_length_a   3.70384300
_cell_length_b   10.61022500
_cell_length_c   12.14470400
_cell_angle_alpha   90.00000000
_cell_angle_beta   90.00000000
_cell_angle_gamma   90.00000000
_symmetry_Int_Tables_number   1
_chemical_formula_structural   Tm5Mg2U(Co4P3)4
_chemical_formula_sum   'Tm5 Mg2 U1 Co16 P12'
_cell_volume   477.26995685
_cell_formula_units_Z   1
loop_
 _symmetry_equiv_pos_site_id
 _symmetry_equiv_pos_as_xyz
  1  'x, y, z'
loop_
 _atom_site_type_symbol
 _atom_site_label
 _atom_site_symmetry_multiplicity
 _atom_site_fract_x
 _atom_site_fract_y
 _atom_site_fract_z
 _atom_site_occupancy
  Tm  Tm0  1  0.500000  0.000000  0.472674  1
  Tm  Tm1  1  0.500000  0.820711  0.206375  1
  Tm  Tm2  1  0.500000  0.179289  0.206375  1
  Tm  Tm3  1  0.000000  0.679103  0.794710  1
  Tm  Tm4  1  0.000000  0.320897  0.794710  1
  Mg  Mg5  1  0.500000  0.500000  0.157140  1
  Mg  Mg6  1  0.000000  0.000000  0.843596  1
  U  U7  1  0.000000  0.500000  0.533402  1
  Co  Co8  1  0.500000  0.500000  0.694656  1
  Co  Co9  1  0.000000  0.000000  0.295512  1
  Co  Co10  1  0.000000  0.500000  0.987677  1
  Co  Co11  1  0.500000  0.000000  0.012259  1
  Co  Co12  1  0.500000  0.333307  0.994772  1
  Co  Co13  1  0.500000  0.666693  0.994772  1
  Co  Co14  1  0.000000  0.167283  0.003968  1
  Co  Co15  1  0.000000  0.832717  0.003968  1
  Co  Co16  1  0.500000  0.295605  0.432707  1
  Co  Co17  1  0.500000  0.704395  0.432707  1
  Co  Co18  1  0.000000  0.202235  0.567672  1
  Co  Co19  1  0.000000  0.797765  0.567672  1
  Co  Co20  1  0.500000  0.877709  0.707352  1
  Co  Co21  1  0.500000  0.122291  0.707352  1
  Co  Co22  1  0.000000  0.622526  0.295509  1
  Co  Co23  1  0.000000  0.377474  0.295509  1
  P  P24  1  0.500000  0.500000  0.880039  1
  P  P25  1  0.000000  0.000000  0.116608  1
  P  P26  1  0.500000  0.500000  0.358829  1
  P  P27  1  0.000000  0.000000  0.642792  1
  P  P28  1  0.500000  0.306115  0.615666  1
  P  P29  1  0.500000  0.693885  0.615666  1
  P  P30  1  0.000000  0.187907  0.383484  1
  P  P31  1  0.000000  0.812093  0.383484  1
  P  P32  1  0.500000  0.838339  0.892730  1
  P  P33  1  0.500000  0.161661  0.892730  1
  P  P34  1  0.000000  0.660979  0.107461  1
  P  P35  1  0.000000  0.339021  0.107461  1
