# generated using pymatgen
data_Tb3Lu17(SiSb3)3
_symmetry_space_group_name_H-M   'P 1'
_cell_length_a   7.86065340
_cell_length_b   8.95689700
_cell_length_c   11.63852700
_cell_angle_alpha   90.00000000
_cell_angle_beta   89.93934877
_cell_angle_gamma   90.00000000
_symmetry_Int_Tables_number   1
_chemical_formula_structural   Tb3Lu17(SiSb3)3
_chemical_formula_sum   'Tb3 Lu17 Si3 Sb9'
_cell_volume   819.43404337
_cell_formula_units_Z   1
loop_
 _symmetry_equiv_pos_site_id
 _symmetry_equiv_pos_as_xyz
  1  'x, y, z'
loop_
 _atom_site_type_symbol
 _atom_site_label
 _atom_site_symmetry_multiplicity
 _atom_site_fract_x
 _atom_site_fract_y
 _atom_site_fract_z
 _atom_site_occupancy
  Tb  Tb0  1  0.834210  0.250000  0.784336  1
  Tb  Tb1  1  0.142221  0.250000  0.208442  1
  Tb  Tb2  1  0.344654  0.250000  0.713318  1
  Lu  Lu3  1  0.815627  0.945368  0.063505  1
  Lu  Lu4  1  0.311068  0.043705  0.431227  1
  Lu  Lu5  1  0.179937  0.447681  0.938599  1
  Lu  Lu6  1  0.686938  0.566092  0.565687  1
  Lu  Lu7  1  0.179937  0.052319  0.938599  1
  Lu  Lu8  1  0.686938  0.933908  0.565687  1
  Lu  Lu9  1  0.815627  0.554632  0.063505  1
  Lu  Lu10  1  0.311068  0.456295  0.431227  1
  Lu  Lu11  1  0.535832  0.250000  0.997356  1
  Lu  Lu12  1  0.040911  0.750000  0.501977  1
  Lu  Lu13  1  0.461344  0.750000  0.002300  1
  Lu  Lu14  1  0.975473  0.250000  0.497516  1
  Lu  Lu15  1  0.165644  0.750000  0.213828  1
  Lu  Lu16  1  0.677579  0.250000  0.271023  1
  Lu  Lu17  1  0.334710  0.750000  0.715761  1
  Lu  Lu18  1  0.641441  0.750000  0.293556  1
  Lu  Lu19  1  0.857877  0.750000  0.794991  1
  Si  Si20  1  0.906496  0.250000  0.025358  1
  Si  Si21  1  0.416010  0.750000  0.480415  1
  Si  Si22  1  0.087695  0.750000  0.978634  1
  Sb  Sb23  1  0.930823  0.986890  0.327542  1
  Sb  Sb24  1  0.434494  0.009365  0.173068  1
  Sb  Sb25  1  0.067109  0.494501  0.673404  1
  Sb  Sb26  1  0.566406  0.512572  0.827086  1
  Sb  Sb27  1  0.067109  0.005499  0.673404  1
  Sb  Sb28  1  0.566406  0.987428  0.827086  1
  Sb  Sb29  1  0.930823  0.513110  0.327542  1
  Sb  Sb30  1  0.434494  0.490635  0.173068  1
  Sb  Sb31  1  0.593097  0.250000  0.520948  1
