# generated using pymatgen
data_SrLiPrZnBi4
_symmetry_space_group_name_H-M   'P 1'
_cell_length_a   4.58744700
_cell_length_b   4.62139300
_cell_length_c   11.04626900
_cell_angle_alpha   90.00000000
_cell_angle_beta   90.00000000
_cell_angle_gamma   90.00000000
_symmetry_Int_Tables_number   1
_chemical_formula_structural   SrLiPrZnBi4
_chemical_formula_sum   'Sr1 Li1 Pr1 Zn1 Bi4'
_cell_volume   234.18527109
_cell_formula_units_Z   1
loop_
 _symmetry_equiv_pos_site_id
 _symmetry_equiv_pos_as_xyz
  1  'x, y, z'
loop_
 _atom_site_type_symbol
 _atom_site_label
 _atom_site_symmetry_multiplicity
 _atom_site_fract_x
 _atom_site_fract_y
 _atom_site_fract_z
 _atom_site_occupancy
  Sr  Sr0  1  0.000000  0.500000  0.256969  1
  Li  Li1  1  0.500000  0.500000  0.996819  1
  Pr  Pr2  1  0.500000  0.000000  0.745771  1
  Zn  Zn3  1  0.000000  0.000000  0.995065  1
  Bi  Bi4  1  0.000000  0.500000  0.830668  1
  Bi  Bi5  1  0.500000  0.000000  0.148166  1
  Bi  Bi6  1  0.000000  0.000000  0.513732  1
  Bi  Bi7  1  0.500000  0.500000  0.512809  1
