# generated using pymatgen
data_Cd3Ni(SnO4)2
_symmetry_space_group_name_H-M   'P 1'
_cell_length_a   6.41894780
_cell_length_b   6.60860688
_cell_length_c   6.41894705
_cell_angle_alpha   120.99054333
_cell_angle_beta   119.19789457
_cell_angle_gamma   89.00168493
_symmetry_Int_Tables_number   1
_chemical_formula_structural   Cd3Ni(SnO4)2
_chemical_formula_sum   'Cd3 Ni1 Sn2 O8'
_cell_volume   193.56898267
_cell_formula_units_Z   1
loop_
 _symmetry_equiv_pos_site_id
 _symmetry_equiv_pos_as_xyz
  1  'x, y, z'
loop_
 _atom_site_type_symbol
 _atom_site_label
 _atom_site_symmetry_multiplicity
 _atom_site_fract_x
 _atom_site_fract_y
 _atom_site_fract_z
 _atom_site_occupancy
  Cd  Cd0  1  0.890422  0.136472  0.746049  1
  Cd  Cd1  1  0.500000  0.000000  0.000000  1
  Cd  Cd2  1  0.109578  0.863528  0.253951  1
  Ni  Ni3  1  0.500000  0.500000  0.500000  1
  Sn  Sn4  1  0.500000  0.500000  0.000000  1
  Sn  Sn5  1  0.000000  0.500000  0.500000  1
  O  O6  1  0.750915  0.285905  0.034990  1
  O  O7  1  0.741918  0.715040  0.473122  1
  O  O8  1  0.754600  0.296926  0.494715  1
  O  O9  1  0.302209  0.296926  0.042326  1
  O  O10  1  0.697791  0.703074  0.957674  1
  O  O11  1  0.245400  0.703074  0.505285  1
  O  O12  1  0.258082  0.284960  0.526878  1
  O  O13  1  0.249085  0.714095  0.965010  1
