# generated using pymatgen
data_DyHoTm8(In2Pt)4
_symmetry_space_group_name_H-M   'P 1'
_cell_length_a   3.60007700
_cell_length_b   8.07817809
_cell_length_c   18.10543420
_cell_angle_alpha   89.98280558
_cell_angle_beta   90.00000000
_cell_angle_gamma   90.00000000
_symmetry_Int_Tables_number   1
_chemical_formula_structural   DyHoTm8(In2Pt)4
_chemical_formula_sum   'Dy1 Ho1 Tm8 In8 Pt4'
_cell_volume   526.54335711
_cell_formula_units_Z   1
loop_
 _symmetry_equiv_pos_site_id
 _symmetry_equiv_pos_as_xyz
  1  'x, y, z'
loop_
 _atom_site_type_symbol
 _atom_site_label
 _atom_site_symmetry_multiplicity
 _atom_site_fract_x
 _atom_site_fract_y
 _atom_site_fract_z
 _atom_site_occupancy
  Dy  Dy0  1  0.000000  0.000000  0.000000  1
  Ho  Ho1  1  0.000000  0.500000  0.500000  1
  Tm  Tm2  1  0.000000  0.116709  0.414298  1
  Tm  Tm3  1  0.000000  0.883291  0.585702  1
  Tm  Tm4  1  0.000000  0.383259  0.914311  1
  Tm  Tm5  1  0.000000  0.616741  0.085689  1
  Tm  Tm6  1  0.000000  0.243636  0.220778  1
  Tm  Tm7  1  0.000000  0.756364  0.779222  1
  Tm  Tm8  1  0.000000  0.256346  0.720804  1
  Tm  Tm9  1  0.000000  0.743654  0.279196  1
  In  In10  1  0.500000  0.423305  0.351088  1
  In  In11  1  0.500000  0.576695  0.648912  1
  In  In12  1  0.500000  0.076762  0.851018  1
  In  In13  1  0.500000  0.923238  0.148982  1
  In  In14  1  0.500000  0.293642  0.066563  1
  In  In15  1  0.500000  0.706358  0.933437  1
  In  In16  1  0.500000  0.206650  0.566515  1
  In  In17  1  0.500000  0.793350  0.433485  1
  Pt  Pt18  1  0.500000  0.025418  0.303683  1
  Pt  Pt19  1  0.500000  0.974582  0.696317  1
  Pt  Pt20  1  0.500000  0.474593  0.803598  1
  Pt  Pt21  1  0.500000  0.525407  0.196402  1
