# generated using pymatgen
data_Tb3Er(Tm2Os)4
_symmetry_space_group_name_H-M   'P 1'
_cell_length_a   6.27655701
_cell_length_b   7.36425589
_cell_length_c   8.94907700
_cell_angle_alpha   90.00000000
_cell_angle_beta   90.00000000
_cell_angle_gamma   89.93083654
_symmetry_Int_Tables_number   1
_chemical_formula_structural   Tb3Er(Tm2Os)4
_chemical_formula_sum   'Tb3 Er1 Tm8 Os4'
_cell_volume   413.64547426
_cell_formula_units_Z   1
loop_
 _symmetry_equiv_pos_site_id
 _symmetry_equiv_pos_as_xyz
  1  'x, y, z'
loop_
 _atom_site_type_symbol
 _atom_site_label
 _atom_site_symmetry_multiplicity
 _atom_site_fract_x
 _atom_site_fract_y
 _atom_site_fract_z
 _atom_site_occupancy
  Tb  Tb0  1  0.870592  0.538626  0.250000  1
  Tb  Tb1  1  0.629564  0.038674  0.250000  1
  Tb  Tb2  1  0.129963  0.461272  0.750000  1
  Er  Er3  1  0.369909  0.961172  0.750000  1
  Tm  Tm4  1  0.333594  0.675615  0.062944  1
  Tm  Tm5  1  0.166995  0.174365  0.437218  1
  Tm  Tm6  1  0.666180  0.324552  0.563333  1
  Tm  Tm7  1  0.832555  0.825262  0.936384  1
  Tm  Tm8  1  0.666180  0.324552  0.936667  1
  Tm  Tm9  1  0.832555  0.825262  0.563616  1
  Tm  Tm10  1  0.333594  0.675615  0.437056  1
  Tm  Tm11  1  0.166995  0.174365  0.062782  1
  Os  Os12  1  0.043355  0.882823  0.250000  1
  Os  Os13  1  0.456709  0.382676  0.250000  1
  Os  Os14  1  0.958722  0.116789  0.750000  1
  Os  Os15  1  0.542538  0.618381  0.750000  1
