# generated using pymatgen
data_Y12Co4SnIr
_symmetry_space_group_name_H-M   'P 1'
_cell_length_a   8.31790922
_cell_length_b   8.31790969
_cell_length_c   8.31790917
_cell_angle_alpha   111.13740756
_cell_angle_beta   110.43222638
_cell_angle_gamma   106.87562497
_symmetry_Int_Tables_number   1
_chemical_formula_structural   Y12Co4SnIr
_chemical_formula_sum   'Y12 Co4 Sn1 Ir1'
_cell_volume   442.32164195
_cell_formula_units_Z   1
loop_
 _symmetry_equiv_pos_site_id
 _symmetry_equiv_pos_as_xyz
  1  'x, y, z'
loop_
 _atom_site_type_symbol
 _atom_site_label
 _atom_site_symmetry_multiplicity
 _atom_site_fract_x
 _atom_site_fract_y
 _atom_site_fract_z
 _atom_site_occupancy
  Y  Y0  1  0.409812  0.213645  0.196167  1
  Y  Y1  1  0.590188  0.786355  0.803833  1
  Y  Y2  1  0.017479  0.213645  0.803833  1
  Y  Y3  1  0.982521  0.786355  0.196167  1
  Y  Y4  1  0.184904  0.288235  0.473138  1
  Y  Y5  1  0.815096  0.711765  0.526862  1
  Y  Y6  1  0.184904  0.711765  0.896669  1
  Y  Y7  1  0.815096  0.288235  0.103331  1
  Y  Y8  1  0.313693  0.618062  0.304369  1
  Y  Y9  1  0.686307  0.381938  0.695631  1
  Y  Y10  1  0.313693  0.009324  0.695631  1
  Y  Y11  1  0.686307  0.990676  0.304369  1
  Co  Co12  1  0.379534  0.000000  0.379534  1
  Co  Co13  1  0.620466  0.000000  0.620466  1
  Co  Co14  1  0.110562  0.610562  0.500000  1
  Co  Co15  1  0.889438  0.389438  0.500000  1
  Sn  Sn16  1  0.500000  0.500000  0.000000  1
  Ir  Ir17  1  0.000000  0.000000  0.000000  1
