# generated using pymatgen
data_CePr6Dy9(CdRu)4
_symmetry_space_group_name_H-M   'P 1'
_cell_length_a   9.82965273
_cell_length_b   9.82965184
_cell_length_c   9.82965234
_cell_angle_alpha   59.15624106
_cell_angle_beta   59.15624051
_cell_angle_gamma   59.15624245
_symmetry_Int_Tables_number   1
_chemical_formula_structural   CePr6Dy9(CdRu)4
_chemical_formula_sum   'Ce1 Pr6 Dy9 Cd4 Ru4'
_cell_volume   658.66887474
_cell_formula_units_Z   1
loop_
 _symmetry_equiv_pos_site_id
 _symmetry_equiv_pos_as_xyz
  1  'x, y, z'
loop_
 _atom_site_type_symbol
 _atom_site_label
 _atom_site_symmetry_multiplicity
 _atom_site_fract_x
 _atom_site_fract_y
 _atom_site_fract_z
 _atom_site_occupancy
  Ce  Ce0  1  0.339452  0.339452  0.339452  1
  Pr  Pr1  1  0.559126  0.559126  0.941034  1
  Pr  Pr2  1  0.941963  0.557372  0.941963  1
  Pr  Pr3  1  0.557372  0.941963  0.941963  1
  Pr  Pr4  1  0.941963  0.941963  0.557372  1
  Pr  Pr5  1  0.559126  0.941034  0.559126  1
  Pr  Pr6  1  0.941034  0.559126  0.559126  1
  Dy  Dy7  1  0.187423  0.187423  0.814020  1
  Dy  Dy8  1  0.813476  0.187264  0.813476  1
  Dy  Dy9  1  0.187263  0.813477  0.813476  1
  Dy  Dy10  1  0.813476  0.813477  0.187264  1
  Dy  Dy11  1  0.187422  0.814020  0.187422  1
  Dy  Dy12  1  0.814020  0.187423  0.187423  1
  Dy  Dy13  1  0.345163  0.345163  0.961005  1
  Dy  Dy14  1  0.345163  0.961005  0.345163  1
  Dy  Dy15  1  0.961005  0.345163  0.345163  1
  Cd  Cd16  1  0.578531  0.578531  0.263160  1
  Cd  Cd17  1  0.578531  0.263160  0.578531  1
  Cd  Cd18  1  0.263160  0.578531  0.578531  1
  Cd  Cd19  1  0.578679  0.578679  0.578679  1
  Ru  Ru20  1  0.145746  0.145746  0.575933  1
  Ru  Ru21  1  0.145746  0.575933  0.145746  1
  Ru  Ru22  1  0.575933  0.145746  0.145746  1
  Ru  Ru23  1  0.139224  0.139224  0.139224  1
