# generated using pymatgen
data_SrY6CoBr12
_symmetry_space_group_name_H-M   'P 1'
_cell_length_a   9.25039417
_cell_length_b   9.25039431
_cell_length_c   9.25039435
_cell_angle_alpha   106.18656698
_cell_angle_beta   106.18656174
_cell_angle_gamma   106.18655963
_symmetry_Int_Tables_number   1
_chemical_formula_structural   SrY6CoBr12
_chemical_formula_sum   'Sr1 Y6 Co1 Br12'
_cell_volume   673.30651879
_cell_formula_units_Z   1
loop_
 _symmetry_equiv_pos_site_id
 _symmetry_equiv_pos_as_xyz
  1  'x, y, z'
loop_
 _atom_site_type_symbol
 _atom_site_label
 _atom_site_symmetry_multiplicity
 _atom_site_fract_x
 _atom_site_fract_y
 _atom_site_fract_z
 _atom_site_occupancy
  Sr  Sr0  1  0.500000  0.500000  0.500000  1
  Y  Y1  1  0.300952  0.094829  0.017423  1
  Y  Y2  1  0.094829  0.017423  0.300952  1
  Y  Y3  1  0.017423  0.300952  0.094829  1
  Y  Y4  1  0.699048  0.905171  0.982577  1
  Y  Y5  1  0.905171  0.982577  0.699048  1
  Y  Y6  1  0.982577  0.699048  0.905171  1
  Co  Co7  1  0.000000  0.000000  0.000000  1
  Br  Br8  1  0.219181  0.072641  0.676197  1
  Br  Br9  1  0.072641  0.676197  0.219181  1
  Br  Br10  1  0.676197  0.219181  0.072641  1
  Br  Br11  1  0.780819  0.927359  0.323803  1
  Br  Br12  1  0.927359  0.323803  0.780819  1
  Br  Br13  1  0.323803  0.780819  0.927359  1
  Br  Br14  1  0.364073  0.442604  0.138445  1
  Br  Br15  1  0.442604  0.138445  0.364073  1
  Br  Br16  1  0.138445  0.364073  0.442604  1
  Br  Br17  1  0.635927  0.557396  0.861555  1
  Br  Br18  1  0.557396  0.861555  0.635927  1
  Br  Br19  1  0.861555  0.635927  0.557396  1
