# generated using pymatgen
data_Tb7Hf9(Si4W)4
_symmetry_space_group_name_H-M   'P 1'
_cell_length_a   7.14207174
_cell_length_b   7.13737468
_cell_length_c   13.05979129
_cell_angle_alpha   90.16166622
_cell_angle_beta   90.02754166
_cell_angle_gamma   89.95569895
_symmetry_Int_Tables_number   1
_chemical_formula_structural   Tb7Hf9(Si4W)4
_chemical_formula_sum   'Tb7 Hf9 Si16 W4'
_cell_volume   665.72832005
_cell_formula_units_Z   1
loop_
 _symmetry_equiv_pos_site_id
 _symmetry_equiv_pos_as_xyz
  1  'x, y, z'
loop_
 _atom_site_type_symbol
 _atom_site_label
 _atom_site_symmetry_multiplicity
 _atom_site_fract_x
 _atom_site_fract_y
 _atom_site_fract_z
 _atom_site_occupancy
  Tb  Tb0  1  0.498749  0.154980  0.533281  1
  Tb  Tb1  1  0.501523  0.845850  0.035419  1
  Tb  Tb2  1  0.656177  0.002325  0.282976  1
  Tb  Tb3  1  0.345242  0.998352  0.784797  1
  Tb  Tb4  1  0.844814  0.501549  0.966697  1
  Tb  Tb5  1  0.153972  0.498052  0.466005  1
  Tb  Tb6  1  0.001383  0.655179  0.715634  1
  Hf  Hf7  1  0.005664  0.347941  0.215241  1
  Hf  Hf8  1  0.493490  0.353179  0.124936  1
  Hf  Hf9  1  0.506073  0.646895  0.623136  1
  Hf  Hf10  1  0.853002  0.007965  0.875592  1
  Hf  Hf11  1  0.144087  0.993373  0.371857  1
  Hf  Hf12  1  0.647099  0.503882  0.374080  1
  Hf  Hf13  1  0.352651  0.493830  0.877569  1
  Hf  Hf14  1  0.005805  0.854343  0.127295  1
  Hf  Hf15  1  0.992965  0.147239  0.625163  1
  Si  Si16  1  0.803748  0.145459  0.071760  1
  Si  Si17  1  0.201380  0.860472  0.565797  1
  Si  Si18  1  0.639493  0.701358  0.816486  1
  Si  Si19  1  0.353982  0.300161  0.315454  1
  Si  Si20  1  0.861000  0.203826  0.430500  1
  Si  Si21  1  0.139099  0.797748  0.934351  1
  Si  Si22  1  0.707774  0.635669  0.181951  1
  Si  Si23  1  0.299021  0.360199  0.683726  1
  Si  Si24  1  0.551717  0.205648  0.934316  1
  Si  Si25  1  0.448880  0.794296  0.432660  1
  Si  Si26  1  0.704930  0.949216  0.683689  1
  Si  Si27  1  0.292984  0.054220  0.183410  1
  Si  Si28  1  0.795112  0.449443  0.565742  1
  Si  Si29  1  0.201674  0.547824  0.068630  1
  Si  Si30  1  0.950936  0.698075  0.314839  1
  Si  Si31  1  0.050903  0.295346  0.816396  1
  W  W32  1  0.675680  0.324013  0.750060  1
  W  W33  1  0.320710  0.672015  0.249855  1
  W  W34  1  0.824537  0.822619  0.498570  1
  W  W35  1  0.173742  0.177456  0.002130  1
