# generated using pymatgen
data_Hf6BBr12
_symmetry_space_group_name_H-M   'P 1'
_cell_length_a   8.64845272
_cell_length_b   8.64845286
_cell_length_c   8.64845340
_cell_angle_alpha   107.02788236
_cell_angle_beta   107.02788293
_cell_angle_gamma   107.02788209
_symmetry_Int_Tables_number   1
_chemical_formula_structural   Hf6BBr12
_chemical_formula_sum   'Hf6 B1 Br12'
_cell_volume   538.30711569
_cell_formula_units_Z   1
loop_
 _symmetry_equiv_pos_site_id
 _symmetry_equiv_pos_as_xyz
  1  'x, y, z'
loop_
 _atom_site_type_symbol
 _atom_site_label
 _atom_site_symmetry_multiplicity
 _atom_site_fract_x
 _atom_site_fract_y
 _atom_site_fract_z
 _atom_site_occupancy
  Hf  Hf0  1  0.970517  0.716647  0.906292  1
  Hf  Hf1  1  0.283353  0.093708  0.029483  1
  Hf  Hf2  1  0.093708  0.029483  0.283353  1
  Hf  Hf3  1  0.906292  0.970517  0.716647  1
  Hf  Hf4  1  0.716647  0.906292  0.970517  1
  Hf  Hf5  1  0.029483  0.283353  0.093708  1
  B  B6  1  0.000000  0.000000  0.000000  1
  Br  Br7  1  0.922481  0.307205  0.776824  1
  Br  Br8  1  0.692795  0.223176  0.077519  1
  Br  Br9  1  0.440722  0.143571  0.366727  1
  Br  Br10  1  0.856429  0.633273  0.559278  1
  Br  Br11  1  0.223176  0.077519  0.692795  1
  Br  Br12  1  0.633273  0.559278  0.856429  1
  Br  Br13  1  0.366727  0.440722  0.143571  1
  Br  Br14  1  0.776824  0.922481  0.307205  1
  Br  Br15  1  0.143571  0.366727  0.440722  1
  Br  Br16  1  0.559278  0.856429  0.633273  1
  Br  Br17  1  0.307205  0.776824  0.922481  1
  Br  Br18  1  0.077519  0.692795  0.223176  1
