# generated using pymatgen
data_Pr2Zr(ScGa2)2
_symmetry_space_group_name_H-M   'P 1'
_cell_length_a   7.41681015
_cell_length_b   7.70391066
_cell_length_c   14.69219748
_cell_angle_alpha   90.04666764
_cell_angle_beta   89.97871810
_cell_angle_gamma   89.99111492
_symmetry_Int_Tables_number   1
_chemical_formula_structural   Pr2Zr(ScGa2)2
_chemical_formula_sum   'Pr8 Zr4 Sc8 Ga16'
_cell_volume   839.48893827
_cell_formula_units_Z   4
loop_
 _symmetry_equiv_pos_site_id
 _symmetry_equiv_pos_as_xyz
  1  'x, y, z'
loop_
 _atom_site_type_symbol
 _atom_site_label
 _atom_site_symmetry_multiplicity
 _atom_site_fract_x
 _atom_site_fract_y
 _atom_site_fract_z
 _atom_site_occupancy
  Pr  Pr0  1  0.011232  0.174513  0.404781  1
  Pr  Pr1  1  0.511614  0.326490  0.404093  1
  Pr  Pr2  1  0.488211  0.674382  0.904617  1
  Pr  Pr3  1  0.488412  0.673680  0.595199  1
  Pr  Pr4  1  0.987887  0.826195  0.595280  1
  Pr  Pr5  1  0.988690  0.825492  0.904543  1
  Pr  Pr6  1  0.511526  0.325629  0.094406  1
  Pr  Pr7  1  0.012338  0.173973  0.095421  1
  Zr  Zr8  1  0.329223  0.173741  0.625051  1
  Zr  Zr9  1  0.670637  0.823670  0.375469  1
  Zr  Zr10  1  0.170650  0.675414  0.375724  1
  Zr  Zr11  1  0.829804  0.325758  0.875470  1
  Sc  Sc12  1  0.661448  0.000863  0.750085  1
  Sc  Sc13  1  0.828326  0.325023  0.624130  1
  Sc  Sc14  1  0.838660  0.500009  0.249235  1
  Sc  Sc15  1  0.338232  0.999748  0.249601  1
  Sc  Sc16  1  0.329137  0.174904  0.876218  1
  Sc  Sc17  1  0.170576  0.673055  0.124143  1
  Sc  Sc18  1  0.671357  0.827225  0.124019  1
  Sc  Sc19  1  0.161669  0.498934  0.750446  1
  Ga  Ga20  1  0.286464  0.883038  0.748718  1
  Ga  Ga21  1  0.467724  0.624717  0.251672  1
  Ga  Ga22  1  0.032462  0.125287  0.750062  1
  Ga  Ga23  1  0.532343  0.374751  0.750005  1
  Ga  Ga24  1  0.157953  0.460566  0.540356  1
  Ga  Ga25  1  0.967979  0.875897  0.251740  1
  Ga  Ga26  1  0.713624  0.116935  0.250947  1
  Ga  Ga27  1  0.843733  0.536766  0.040370  1
  Ga  Ga28  1  0.344363  0.961306  0.041594  1
  Ga  Ga29  1  0.154297  0.459947  0.958313  1
  Ga  Ga30  1  0.654279  0.038702  0.540477  1
  Ga  Ga31  1  0.344137  0.959912  0.459710  1
  Ga  Ga32  1  0.844307  0.541947  0.458145  1
  Ga  Ga33  1  0.786329  0.617314  0.750687  1
  Ga  Ga34  1  0.213518  0.383426  0.251105  1
  Ga  Ga35  1  0.656859  0.040790  0.958171  1
