# generated using pymatgen
data_La3Y6Tm7(CdNi)4
_symmetry_space_group_name_H-M   'P 1'
_cell_length_a   9.60434622
_cell_length_b   9.61754025
_cell_length_c   9.59832875
_cell_angle_alpha   59.93426500
_cell_angle_beta   60.01453628
_cell_angle_gamma   59.95727653
_symmetry_Int_Tables_number   1
_chemical_formula_structural   La3Y6Tm7(CdNi)4
_chemical_formula_sum   'La3 Y6 Tm7 Cd4 Ni4'
_cell_volume   626.47471914
_cell_formula_units_Z   1
loop_
 _symmetry_equiv_pos_site_id
 _symmetry_equiv_pos_as_xyz
  1  'x, y, z'
loop_
 _atom_site_type_symbol
 _atom_site_label
 _atom_site_symmetry_multiplicity
 _atom_site_fract_x
 _atom_site_fract_y
 _atom_site_fract_z
 _atom_site_occupancy
  La  La0  1  0.595516  0.601106  0.600541  1
  La  La1  1  0.596084  0.601127  0.201639  1
  La  La2  1  0.595508  0.202834  0.600545  1
  Y  Y3  1  0.186834  0.814599  0.814331  1
  Y  Y4  1  0.814445  0.184861  0.185603  1
  Y  Y5  1  0.814887  0.184922  0.815263  1
  Y  Y6  1  0.186326  0.813885  0.185914  1
  Y  Y7  1  0.814453  0.815090  0.185588  1
  Y  Y8  1  0.186836  0.184207  0.814356  1
  Tm  Tm9  1  0.195798  0.600964  0.602239  1
  Tm  Tm10  1  0.065786  0.435922  0.435613  1
  Tm  Tm11  1  0.435731  0.065302  0.065912  1
  Tm  Tm12  1  0.436333  0.064902  0.433874  1
  Tm  Tm13  1  0.066516  0.435219  0.063041  1
  Tm  Tm14  1  0.435731  0.433055  0.065917  1
  Tm  Tm15  1  0.065764  0.062690  0.435618  1
  Cd  Cd16  1  0.837309  0.829524  0.828760  1
  Cd  Cd17  1  0.837146  0.829815  0.503221  1
  Cd  Cd18  1  0.837324  0.504391  0.828755  1
  Cd  Cd19  1  0.504388  0.832122  0.831369  1
  Ni  Ni20  1  0.387309  0.392893  0.392286  1
  Ni  Ni21  1  0.386603  0.392918  0.827630  1
  Ni  Ni22  1  0.387080  0.827699  0.392214  1
  Ni  Ni23  1  0.830292  0.389948  0.389771  1
