# generated using pymatgen
data_DyTmNi2(SnH)2
_symmetry_space_group_name_H-M   'P 1'
_cell_length_a   4.21984700
_cell_length_b   7.06610228
_cell_length_c   8.28008246
_cell_angle_alpha   90.06852607
_cell_angle_beta   90.00000000
_cell_angle_gamma   90.00000000
_symmetry_Int_Tables_number   1
_chemical_formula_structural   DyTmNi2(SnH)2
_chemical_formula_sum   'Dy2 Tm2 Ni4 Sn4 H4'
_cell_volume   246.89425004
_cell_formula_units_Z   2
loop_
 _symmetry_equiv_pos_site_id
 _symmetry_equiv_pos_as_xyz
  1  'x, y, z'
loop_
 _atom_site_type_symbol
 _atom_site_label
 _atom_site_symmetry_multiplicity
 _atom_site_fract_x
 _atom_site_fract_y
 _atom_site_fract_z
 _atom_site_occupancy
  Dy  Dy0  1  0.750000  0.516218  0.813872  1
  Dy  Dy1  1  0.250000  0.483782  0.186128  1
  Tm  Tm2  1  0.250000  0.983536  0.314741  1
  Tm  Tm3  1  0.750000  0.016464  0.685259  1
  Ni  Ni4  1  0.750000  0.269784  0.392419  1
  Ni  Ni5  1  0.250000  0.730216  0.607581  1
  Ni  Ni6  1  0.250000  0.224739  0.888440  1
  Ni  Ni7  1  0.750000  0.775261  0.111560  1
  Sn  Sn8  1  0.750000  0.156239  0.071872  1
  Sn  Sn9  1  0.250000  0.843761  0.928128  1
  Sn  Sn10  1  0.250000  0.343419  0.571074  1
  Sn  Sn11  1  0.750000  0.656581  0.428926  1
  H  H12  1  0.250000  0.953234  0.577231  1
  H  H13  1  0.750000  0.046766  0.422769  1
  H  H14  1  0.750000  0.551327  0.078770  1
  H  H15  1  0.250000  0.448673  0.921230  1
