# generated using pymatgen
data_Ho17Er3(Ir5Au)2
_symmetry_space_group_name_H-M   'P 1'
_cell_length_a   10.99675090
_cell_length_b   10.94916004
_cell_length_c   6.31967731
_cell_angle_alpha   90.00993444
_cell_angle_beta   89.82033188
_cell_angle_gamma   89.99924423
_symmetry_Int_Tables_number   1
_chemical_formula_structural   Ho17Er3(Ir5Au)2
_chemical_formula_sum   'Ho17 Er3 Ir10 Au2'
_cell_volume   760.91816624
_cell_formula_units_Z   1
loop_
 _symmetry_equiv_pos_site_id
 _symmetry_equiv_pos_as_xyz
  1  'x, y, z'
loop_
 _atom_site_type_symbol
 _atom_site_label
 _atom_site_symmetry_multiplicity
 _atom_site_fract_x
 _atom_site_fract_y
 _atom_site_fract_z
 _atom_site_occupancy
  Ho  Ho0  1  0.292161  0.088107  0.372317  1
  Ho  Ho1  1  0.292060  0.911955  0.872301  1
  Ho  Ho2  1  0.698853  0.091689  0.866136  1
  Ho  Ho3  1  0.698831  0.908266  0.366052  1
  Ho  Ho4  1  0.578535  0.789238  0.877055  1
  Ho  Ho5  1  0.578559  0.210735  0.377139  1
  Ho  Ho6  1  0.409173  0.790475  0.376649  1
  Ho  Ho7  1  0.409195  0.209513  0.876562  1
  Ho  Ho8  1  0.209679  0.411476  0.621891  1
  Ho  Ho9  1  0.209662  0.588541  0.121967  1
  Ho  Ho10  1  0.789093  0.419360  0.123135  1
  Ho  Ho11  1  0.789109  0.580622  0.623055  1
  Ho  Ho12  1  0.916935  0.705178  0.137849  1
  Ho  Ho13  1  0.916892  0.294852  0.637923  1
  Ho  Ho14  1  0.095485  0.703723  0.624174  1
  Ho  Ho15  1  0.095426  0.296184  0.124161  1
  Ho  Ho16  1  0.009008  0.998370  0.499929  1
  Er  Er17  1  0.009147  0.001628  0.999904  1
  Er  Er18  1  0.499726  0.498922  0.000650  1
  Er  Er19  1  0.499724  0.501065  0.500649  1
  Ir  Ir20  1  0.153482  0.153673  0.750606  1
  Ir  Ir21  1  0.153528  0.846400  0.249906  1
  Ir  Ir22  1  0.655179  0.346297  0.748450  1
  Ir  Ir23  1  0.655159  0.653740  0.248412  1
  Ir  Ir24  1  0.347589  0.346464  0.251569  1
  Ir  Ir25  1  0.347544  0.653511  0.751561  1
  Ir  Ir26  1  0.500104  0.999717  0.121768  1
  Ir  Ir27  1  0.500079  0.000301  0.621820  1
  Ir  Ir28  1  0.999703  0.500806  0.878095  1
  Ir  Ir29  1  0.999709  0.499190  0.378093  1
  Au  Au30  1  0.845325  0.154646  0.249662  1
  Au  Au31  1  0.845345  0.845359  0.750561  1
