# generated using pymatgen
data_Li3CePr3AlRh4
_symmetry_space_group_name_H-M   'P 1'
_cell_length_a   4.05538500
_cell_length_b   7.10626132
_cell_length_c   8.60316283
_cell_angle_alpha   90.92914386
_cell_angle_beta   90.00000000
_cell_angle_gamma   90.00000000
_symmetry_Int_Tables_number   1
_chemical_formula_structural   Li3CePr3AlRh4
_chemical_formula_sum   'Li3 Ce1 Pr3 Al1 Rh4'
_cell_volume   247.89872865
_cell_formula_units_Z   1
loop_
 _symmetry_equiv_pos_site_id
 _symmetry_equiv_pos_as_xyz
  1  'x, y, z'
loop_
 _atom_site_type_symbol
 _atom_site_label
 _atom_site_symmetry_multiplicity
 _atom_site_fract_x
 _atom_site_fract_y
 _atom_site_fract_z
 _atom_site_occupancy
  Li  Li0  1  0.250000  0.624573  0.550894  1
  Li  Li1  1  0.750000  0.377477  0.448911  1
  Li  Li2  1  0.750000  0.869995  0.052598  1
  Ce  Ce3  1  0.750000  0.454773  0.820149  1
  Pr  Pr4  1  0.250000  0.546519  0.180591  1
  Pr  Pr5  1  0.750000  0.957351  0.682733  1
  Pr  Pr6  1  0.250000  0.048009  0.316563  1
  Al  Al7  1  0.250000  0.120041  0.942976  1
  Rh  Rh8  1  0.250000  0.736426  0.876841  1
  Rh  Rh9  1  0.750000  0.243523  0.096431  1
  Rh  Rh10  1  0.750000  0.761343  0.372052  1
  Rh  Rh11  1  0.250000  0.259967  0.659259  1
