# generated using pymatgen
data_Cs4KRb15(GeAs3)4
_symmetry_space_group_name_H-M   'P 1'
_cell_length_a   5.55049900
_cell_length_b   15.24962061
_cell_length_c   16.72925121
_cell_angle_alpha   90.06906372
_cell_angle_beta   90.00000000
_cell_angle_gamma   90.00000000
_symmetry_Int_Tables_number   1
_chemical_formula_structural   Cs4KRb15(GeAs3)4
_chemical_formula_sum   'Cs4 K1 Rb15 Ge4 As12'
_cell_volume   1416.01304819
_cell_formula_units_Z   1
loop_
 _symmetry_equiv_pos_site_id
 _symmetry_equiv_pos_as_xyz
  1  'x, y, z'
loop_
 _atom_site_type_symbol
 _atom_site_label
 _atom_site_symmetry_multiplicity
 _atom_site_fract_x
 _atom_site_fract_y
 _atom_site_fract_z
 _atom_site_occupancy
  Cs  Cs0  1  0.250000  0.127516  0.521164  1
  Cs  Cs1  1  0.750000  0.872234  0.478736  1
  Cs  Cs2  1  0.750000  0.627178  0.976311  1
  Cs  Cs3  1  0.250000  0.373816  0.021043  1
  K  K4  1  0.250000  0.550031  0.790087  1
  Rb  Rb5  1  0.250000  0.426053  0.566040  1
  Rb  Rb6  1  0.750000  0.575034  0.435067  1
  Rb  Rb7  1  0.750000  0.924597  0.934250  1
  Rb  Rb8  1  0.250000  0.074697  0.065665  1
  Rb  Rb9  1  0.250000  0.816815  0.084333  1
  Rb  Rb10  1  0.750000  0.183265  0.914980  1
  Rb  Rb11  1  0.750000  0.317632  0.415095  1
  Rb  Rb12  1  0.250000  0.682940  0.585972  1
  Rb  Rb13  1  0.250000  0.232977  0.260870  1
  Rb  Rb14  1  0.750000  0.765952  0.739588  1
  Rb  Rb15  1  0.750000  0.732690  0.239099  1
  Rb  Rb16  1  0.250000  0.267806  0.761603  1
  Rb  Rb17  1  0.250000  0.946615  0.294420  1
  Rb  Rb18  1  0.750000  0.052867  0.705698  1
  Rb  Rb19  1  0.750000  0.446780  0.205653  1
  Ge  Ge20  1  0.250000  0.586655  0.289533  1
  Ge  Ge21  1  0.750000  0.414808  0.711751  1
  Ge  Ge22  1  0.750000  0.086465  0.210806  1
  Ge  Ge23  1  0.250000  0.912042  0.788553  1
  As  As24  1  0.250000  0.593481  0.145184  1
  As  As25  1  0.750000  0.409978  0.856045  1
  As  As26  1  0.750000  0.093754  0.355301  1
  As  As27  1  0.250000  0.906610  0.644153  1
  As  As28  1  0.250000  0.445533  0.353252  1
  As  As29  1  0.750000  0.556157  0.649334  1
  As  As30  1  0.750000  0.945241  0.147184  1
  As  As31  1  0.250000  0.053073  0.853129  1
  As  As32  1  0.250000  0.717511  0.372424  1
  As  As33  1  0.750000  0.283699  0.629204  1
  As  As34  1  0.750000  0.217322  0.128196  1
  As  As35  1  0.250000  0.780175  0.870277  1
