# generated using pymatgen
data_Er16In4Ir3Os
_symmetry_space_group_name_H-M   'P 1'
_cell_length_a   9.60188239
_cell_length_b   9.60188254
_cell_length_c   9.60188265
_cell_angle_alpha   59.77539905
_cell_angle_beta   59.77539734
_cell_angle_gamma   59.77539957
_symmetry_Int_Tables_number   1
_chemical_formula_structural   Er16In4Ir3Os
_chemical_formula_sum   'Er16 In4 Ir3 Os1'
_cell_volume   622.77884396
_cell_formula_units_Z   1
loop_
 _symmetry_equiv_pos_site_id
 _symmetry_equiv_pos_as_xyz
  1  'x, y, z'
loop_
 _atom_site_type_symbol
 _atom_site_label
 _atom_site_symmetry_multiplicity
 _atom_site_fract_x
 _atom_site_fract_y
 _atom_site_fract_z
 _atom_site_occupancy
  Er  Er0  1  0.058481  0.058481  0.442908  1
  Er  Er1  1  0.650819  0.046605  0.650819  1
  Er  Er2  1  0.191753  0.809484  0.191753  1
  Er  Er3  1  0.439398  0.060806  0.439398  1
  Er  Er4  1  0.191753  0.191753  0.809484  1
  Er  Er5  1  0.651213  0.651213  0.651213  1
  Er  Er6  1  0.046605  0.650819  0.650819  1
  Er  Er7  1  0.442908  0.058481  0.058481  1
  Er  Er8  1  0.650819  0.650819  0.046605  1
  Er  Er9  1  0.190872  0.808945  0.808945  1
  Er  Er10  1  0.808945  0.190872  0.808945  1
  Er  Er11  1  0.809484  0.191753  0.191753  1
  Er  Er12  1  0.808945  0.808945  0.190872  1
  Er  Er13  1  0.060806  0.439398  0.439398  1
  Er  Er14  1  0.439398  0.439398  0.060806  1
  Er  Er15  1  0.058481  0.442908  0.058481  1
  In  In16  1  0.749450  0.417003  0.417003  1
  In  In17  1  0.417003  0.417003  0.749450  1
  In  In18  1  0.417003  0.749450  0.417003  1
  In  In19  1  0.416944  0.416944  0.416944  1
  Ir  Ir20  1  0.422483  0.858691  0.858691  1
  Ir  Ir21  1  0.858691  0.858691  0.422483  1
  Ir  Ir22  1  0.858691  0.422483  0.858691  1
  Os  Os23  1  0.859057  0.859057  0.859057  1
