# generated using pymatgen
data_Tm5LuAl18(Si3Ru4)2
_symmetry_space_group_name_H-M   'P 1'
_cell_length_a   8.62062003
_cell_length_b   8.62061981
_cell_length_c   9.49038900
_cell_angle_alpha   90.00000000
_cell_angle_beta   90.00000000
_cell_angle_gamma   119.87039295
_symmetry_Int_Tables_number   1
_chemical_formula_structural   Tm5LuAl18(Si3Ru4)2
_chemical_formula_sum   'Tm5 Lu1 Al18 Si6 Ru8'
_cell_volume   611.58574214
_cell_formula_units_Z   1
loop_
 _symmetry_equiv_pos_site_id
 _symmetry_equiv_pos_as_xyz
  1  'x, y, z'
loop_
 _atom_site_type_symbol
 _atom_site_label
 _atom_site_symmetry_multiplicity
 _atom_site_fract_x
 _atom_site_fract_y
 _atom_site_fract_z
 _atom_site_occupancy
  Tm  Tm0  1  0.194064  0.805936  0.250000  1
  Tm  Tm1  1  0.391193  0.198594  0.750000  1
  Tm  Tm2  1  0.609043  0.801413  0.250000  1
  Tm  Tm3  1  0.801406  0.608807  0.750000  1
  Tm  Tm4  1  0.198587  0.390957  0.250000  1
  Lu  Lu5  1  0.805432  0.194568  0.750000  1
  Al  Al6  1  0.835449  0.164551  0.419460  1
  Al  Al7  1  0.164566  0.835434  0.580635  1
  Al  Al8  1  0.329307  0.164209  0.420862  1
  Al  Al9  1  0.164566  0.835434  0.919365  1
  Al  Al10  1  0.670746  0.835943  0.579168  1
  Al  Al11  1  0.835449  0.164551  0.080540  1
  Al  Al12  1  0.835791  0.670693  0.420862  1
  Al  Al13  1  0.670746  0.835943  0.920832  1
  Al  Al14  1  0.164057  0.329254  0.579168  1
  Al  Al15  1  0.329307  0.164209  0.079138  1
  Al  Al16  1  0.164057  0.329254  0.920832  1
  Al  Al17  1  0.835791  0.670693  0.079138  1
  Al  Al18  1  0.125595  0.559701  0.750000  1
  Al  Al19  1  0.874133  0.439959  0.250000  1
  Al  Al20  1  0.440299  0.874405  0.750000  1
  Al  Al21  1  0.560041  0.125867  0.250000  1
  Al  Al22  1  0.000184  0.999816  0.750000  1
  Al  Al23  1  0.999584  0.000416  0.250000  1
  Si  Si24  1  0.668205  0.331795  0.959569  1
  Si  Si25  1  0.331999  0.668001  0.040172  1
  Si  Si26  1  0.331999  0.668001  0.459828  1
  Si  Si27  1  0.668205  0.331795  0.540431  1
  Si  Si28  1  0.437289  0.562711  0.750000  1
  Si  Si29  1  0.562657  0.437343  0.250000  1
  Ru  Ru30  1  0.500061  0.499939  0.999917  1
  Ru  Ru31  1  0.999889  0.499826  0.999781  1
  Ru  Ru32  1  0.500061  0.499939  0.500083  1
  Ru  Ru33  1  0.500174  0.000111  0.999781  1
  Ru  Ru34  1  0.999889  0.499826  0.500219  1
  Ru  Ru35  1  0.500174  0.000111  0.500219  1
  Ru  Ru36  1  0.000002  0.999998  0.999866  1
  Ru  Ru37  1  0.000002  0.999998  0.500134  1
