# generated using pymatgen
data_DyPa5(Ni3As2)6
_symmetry_space_group_name_H-M   'P 1'
_cell_length_a   3.93379600
_cell_length_b   10.75438500
_cell_length_c   12.79480100
_cell_angle_alpha   90.00000000
_cell_angle_beta   90.00000000
_cell_angle_gamma   90.00000000
_symmetry_Int_Tables_number   1
_chemical_formula_structural   DyPa5(Ni3As2)6
_chemical_formula_sum   'Dy1 Pa5 Ni18 As12'
_cell_volume   541.29117911
_cell_formula_units_Z   1
loop_
 _symmetry_equiv_pos_site_id
 _symmetry_equiv_pos_as_xyz
  1  'x, y, z'
loop_
 _atom_site_type_symbol
 _atom_site_label
 _atom_site_symmetry_multiplicity
 _atom_site_fract_x
 _atom_site_fract_y
 _atom_site_fract_z
 _atom_site_occupancy
  Dy  Dy0  1  0.500000  0.000000  0.480764  1
  Pa  Pa1  1  0.000000  0.500000  0.519017  1
  Pa  Pa2  1  0.500000  0.815292  0.207987  1
  Pa  Pa3  1  0.500000  0.184708  0.207987  1
  Pa  Pa4  1  0.000000  0.685241  0.793041  1
  Pa  Pa5  1  0.000000  0.314759  0.793041  1
  Ni  Ni6  1  0.500000  0.500000  0.149306  1
  Ni  Ni7  1  0.000000  0.000000  0.845581  1
  Ni  Ni8  1  0.500000  0.500000  0.698202  1
  Ni  Ni9  1  0.000000  0.000000  0.299345  1
  Ni  Ni10  1  0.000000  0.500000  0.975218  1
  Ni  Ni11  1  0.500000  0.000000  0.025267  1
  Ni  Ni12  1  0.500000  0.328957  0.999029  1
  Ni  Ni13  1  0.500000  0.671043  0.999029  1
  Ni  Ni14  1  0.000000  0.170802  0.999683  1
  Ni  Ni15  1  0.000000  0.829198  0.999683  1
  Ni  Ni16  1  0.500000  0.306100  0.424607  1
  Ni  Ni17  1  0.500000  0.693900  0.424607  1
  Ni  Ni18  1  0.000000  0.196282  0.576842  1
  Ni  Ni19  1  0.000000  0.803718  0.576842  1
  Ni  Ni20  1  0.500000  0.877841  0.706800  1
  Ni  Ni21  1  0.500000  0.122159  0.706800  1
  Ni  Ni22  1  0.000000  0.622651  0.296681  1
  Ni  Ni23  1  0.000000  0.377349  0.296681  1
  As  As24  1  0.500000  0.500000  0.877116  1
  As  As25  1  0.000000  0.000000  0.121891  1
  As  As26  1  0.500000  0.500000  0.334972  1
  As  As27  1  0.000000  0.000000  0.660045  1
  As  As28  1  0.500000  0.312845  0.610373  1
  As  As29  1  0.500000  0.687155  0.610373  1
  As  As30  1  0.000000  0.185888  0.390734  1
  As  As31  1  0.000000  0.814112  0.390734  1
  As  As32  1  0.500000  0.852397  0.891607  1
  As  As33  1  0.500000  0.147603  0.891607  1
  As  As34  1  0.000000  0.648459  0.109253  1
  As  As35  1  0.000000  0.351541  0.109253  1
