# generated using pymatgen
data_TaTi3AlInC2
_symmetry_space_group_name_H-M   'P 1'
_cell_length_a   3.10591100
_cell_length_b   3.10591190
_cell_length_c   14.06129300
_cell_angle_alpha   90.00000000
_cell_angle_beta   90.00000000
_cell_angle_gamma   120.00002238
_symmetry_Int_Tables_number   1
_chemical_formula_structural   TaTi3AlInC2
_chemical_formula_sum   'Ta1 Ti3 Al1 In1 C2'
_cell_volume   117.47188321
_cell_formula_units_Z   1
loop_
 _symmetry_equiv_pos_site_id
 _symmetry_equiv_pos_as_xyz
  1  'x, y, z'
loop_
 _atom_site_type_symbol
 _atom_site_label
 _atom_site_symmetry_multiplicity
 _atom_site_fract_x
 _atom_site_fract_y
 _atom_site_fract_z
 _atom_site_occupancy
  Ta  Ta0  1  0.333333  0.666667  0.092209  1
  Ti  Ti1  1  0.333333  0.666667  0.412391  1
  Ti  Ti2  1  0.666667  0.333333  0.574144  1
  Ti  Ti3  1  0.666667  0.333333  0.922459  1
  Al  Al4  1  0.666667  0.333333  0.253517  1
  In  In5  1  0.333333  0.666667  0.748129  1
  C  C6  1  0.000000  0.000000  0.495171  1
  C  C7  1  0.000000  0.000000  0.001978  1
