# generated using pymatgen
data_ErGaPRu2
_symmetry_space_group_name_H-M   'P 1'
_cell_length_a   5.65676778
_cell_length_b   5.65676724
_cell_length_c   5.65676797
_cell_angle_alpha   136.67851366
_cell_angle_beta   136.67851770
_cell_angle_gamma   62.93307222
_symmetry_Int_Tables_number   1
_chemical_formula_structural   ErGaPRu2
_chemical_formula_sum   'Er1 Ga1 P1 Ru2'
_cell_volume   84.13910268
_cell_formula_units_Z   1
loop_
 _symmetry_equiv_pos_site_id
 _symmetry_equiv_pos_as_xyz
  1  'x, y, z'
loop_
 _atom_site_type_symbol
 _atom_site_label
 _atom_site_symmetry_multiplicity
 _atom_site_fract_x
 _atom_site_fract_y
 _atom_site_fract_z
 _atom_site_occupancy
  Er  Er0  1  0.999472  0.999472  0.000000  1
  Ga  Ga1  1  0.619071  0.619071  0.000000  1
  P  P2  1  0.362091  0.362091  0.000000  1
  Ru  Ru3  1  0.259683  0.759683  0.500000  1
  Ru  Ru4  1  0.759683  0.259683  0.500000  1
