# generated using pymatgen
data_YbHo2Ga8Ag3
_symmetry_space_group_name_H-M   'P 1'
_cell_length_a   4.34543251
_cell_length_b   8.36084871
_cell_length_c   8.36084873
_cell_angle_alpha   70.19649159
_cell_angle_beta   74.93777172
_cell_angle_gamma   74.93777295
_symmetry_Int_Tables_number   1
_chemical_formula_structural   YbHo2Ga8Ag3
_chemical_formula_sum   'Yb1 Ho2 Ga8 Ag3'
_cell_volume   270.99837081
_cell_formula_units_Z   1
loop_
 _symmetry_equiv_pos_site_id
 _symmetry_equiv_pos_as_xyz
  1  'x, y, z'
loop_
 _atom_site_type_symbol
 _atom_site_label
 _atom_site_symmetry_multiplicity
 _atom_site_fract_x
 _atom_site_fract_y
 _atom_site_fract_z
 _atom_site_occupancy
  Yb  Yb0  1  0.500000  0.500000  0.500000  1
  Ho  Ho1  1  0.202487  0.797513  0.797513  1
  Ho  Ho2  1  0.797513  0.202487  0.202487  1
  Ga  Ga3  1  0.355532  0.362897  0.926039  1
  Ga  Ga4  1  0.644468  0.637103  0.073961  1
  Ga  Ga5  1  0.355532  0.926039  0.362897  1
  Ga  Ga6  1  0.644468  0.073961  0.637103  1
  Ga  Ga7  1  0.158989  0.472208  0.209814  1
  Ga  Ga8  1  0.841011  0.527792  0.790186  1
  Ga  Ga9  1  0.158989  0.209814  0.472208  1
  Ga  Ga10  1  0.841011  0.790186  0.527792  1
  Ag  Ag11  1  0.500000  0.000000  0.000000  1
  Ag  Ag12  1  0.000000  0.809819  0.190181  1
  Ag  Ag13  1  0.000000  0.190181  0.809819  1
