# generated using pymatgen
data_Li3Tb3AgSn4
_symmetry_space_group_name_H-M   'P 1'
_cell_length_a   4.59982685
_cell_length_b   7.19824749
_cell_length_c   8.68329028
_cell_angle_alpha   114.43490317
_cell_angle_beta   105.35903331
_cell_angle_gamma   89.99999948
_symmetry_Int_Tables_number   1
_chemical_formula_structural   Li3Tb3AgSn4
_chemical_formula_sum   'Li3 Tb3 Ag1 Sn4'
_cell_volume   250.43597115
_cell_formula_units_Z   1
loop_
 _symmetry_equiv_pos_site_id
 _symmetry_equiv_pos_as_xyz
  1  'x, y, z'
loop_
 _atom_site_type_symbol
 _atom_site_label
 _atom_site_symmetry_multiplicity
 _atom_site_fract_x
 _atom_site_fract_y
 _atom_site_fract_z
 _atom_site_occupancy
  Li  Li0  1  0.327097  0.015819  0.654192  1
  Li  Li1  1  0.671053  0.980322  0.342107  1
  Li  Li2  1  0.326153  0.634742  0.652305  1
  Tb  Tb3  1  0.872425  0.375399  0.744849  1
  Tb  Tb4  1  0.128000  0.628583  0.256001  1
  Tb  Tb5  1  0.001763  0.001950  0.003525  1
  Ag  Ag6  1  0.673839  0.366527  0.347679  1
  Sn  Sn7  1  0.215645  0.204251  0.431289  1
  Sn  Sn8  1  0.787705  0.794065  0.575411  1
  Sn  Sn9  1  0.496940  0.298384  0.993880  1
  Sn  Sn10  1  0.499380  0.699958  0.998760  1
