# generated using pymatgen
data_Nd8Si12TcAu3
_symmetry_space_group_name_H-M   'P 1'
_cell_length_a   8.32911300
_cell_length_b   8.32846771
_cell_length_c   8.55434700
_cell_angle_alpha   90.00110956
_cell_angle_beta   90.00078093
_cell_angle_gamma   120.00381950
_symmetry_Int_Tables_number   1
_chemical_formula_structural   Nd8Si12TcAu3
_chemical_formula_sum   'Nd8 Si12 Tc1 Au3'
_cell_volume   513.88345926
_cell_formula_units_Z   1
loop_
 _symmetry_equiv_pos_site_id
 _symmetry_equiv_pos_as_xyz
  1  'x, y, z'
loop_
 _atom_site_type_symbol
 _atom_site_label
 _atom_site_symmetry_multiplicity
 _atom_site_fract_x
 _atom_site_fract_y
 _atom_site_fract_z
 _atom_site_occupancy
  Nd  Nd0  1  0.000027  0.000004  0.750065  1
  Nd  Nd1  1  0.000006  0.000006  0.250113  1
  Nd  Nd2  1  0.495677  0.504280  0.758870  1
  Nd  Nd3  1  0.495611  0.991368  0.758811  1
  Nd  Nd4  1  0.008622  0.504363  0.758825  1
  Nd  Nd5  1  0.497076  0.502882  0.241057  1
  Nd  Nd6  1  0.005744  0.502820  0.241012  1
  Nd  Nd7  1  0.497156  0.994250  0.241024  1
  Si  Si8  1  0.838864  0.161157  0.999401  1
  Si  Si9  1  0.838864  0.677740  0.999408  1
  Si  Si10  1  0.322277  0.161161  0.999383  1
  Si  Si11  1  0.836802  0.163202  0.500356  1
  Si  Si12  1  0.836799  0.673623  0.500416  1
  Si  Si13  1  0.326409  0.163223  0.500425  1
  Si  Si14  1  0.162673  0.837315  0.499764  1
  Si  Si15  1  0.674639  0.837302  0.499781  1
  Si  Si16  1  0.162678  0.325345  0.499764  1
  Si  Si17  1  0.168074  0.831870  0.000893  1
  Si  Si18  1  0.663807  0.831843  0.000807  1
  Si  Si19  1  0.168142  0.336216  0.000800  1
  Tc  Tc20  1  0.333380  0.666699  0.002026  1
  Au  Au21  1  0.666666  0.333332  0.997689  1
  Au  Au22  1  0.666675  0.333314  0.501798  1
  Au  Au23  1  0.333333  0.666683  0.497510  1
