# generated using pymatgen
data_TbTmTaB2Ru5
_symmetry_space_group_name_H-M   'P 1'
_cell_length_a   9.67405603
_cell_length_b   9.67405603
_cell_length_c   3.12886100
_cell_angle_alpha   90.00000000
_cell_angle_beta   90.00000000
_cell_angle_gamma   90.37941572
_symmetry_Int_Tables_number   1
_chemical_formula_structural   TbTmTaB2Ru5
_chemical_formula_sum   'Tb2 Tm2 Ta2 B4 Ru10'
_cell_volume   292.81542056
_cell_formula_units_Z   2
loop_
 _symmetry_equiv_pos_site_id
 _symmetry_equiv_pos_as_xyz
  1  'x, y, z'
loop_
 _atom_site_type_symbol
 _atom_site_label
 _atom_site_symmetry_multiplicity
 _atom_site_fract_x
 _atom_site_fract_y
 _atom_site_fract_z
 _atom_site_occupancy
  Tb  Tb0  1  0.825104  0.674896  0.000000  1
  Tb  Tb1  1  0.174896  0.325104  0.000000  1
  Tm  Tm2  1  0.325650  0.825650  0.000000  1
  Tm  Tm3  1  0.674350  0.174350  0.000000  1
  Ta  Ta4  1  0.500000  0.500000  0.000000  1
  Ta  Ta5  1  0.000000  0.000000  0.000000  1
  B  B6  1  0.619720  0.880280  0.000000  1
  B  B7  1  0.380280  0.119720  0.000000  1
  B  B8  1  0.121209  0.621209  0.000000  1
  B  B9  1  0.878791  0.378791  0.000000  1
  Ru  Ru10  1  0.568910  0.718670  0.500000  1
  Ru  Ru11  1  0.431090  0.281330  0.500000  1
  Ru  Ru12  1  0.073892  0.782806  0.500000  1
  Ru  Ru13  1  0.926108  0.217194  0.500000  1
  Ru  Ru14  1  0.282806  0.573892  0.500000  1
  Ru  Ru15  1  0.717194  0.426108  0.500000  1
  Ru  Ru16  1  0.218670  0.068910  0.500000  1
  Ru  Ru17  1  0.781330  0.931090  0.500000  1
  Ru  Ru18  1  0.500000  0.000000  0.500000  1
  Ru  Ru19  1  0.000000  0.500000  0.500000  1
