# generated using pymatgen
data_Tb3GaNi2Ru
_symmetry_space_group_name_H-M   'P 1'
_cell_length_a   5.54017145
_cell_length_b   5.54017176
_cell_length_c   12.91541900
_cell_angle_alpha   90.00000000
_cell_angle_beta   90.00000000
_cell_angle_gamma   135.89250972
_symmetry_Int_Tables_number   1
_chemical_formula_structural   Tb3GaNi2Ru
_chemical_formula_sum   'Tb6 Ga2 Ni4 Ru2'
_cell_volume   275.91056907
_cell_formula_units_Z   2
loop_
 _symmetry_equiv_pos_site_id
 _symmetry_equiv_pos_as_xyz
  1  'x, y, z'
loop_
 _atom_site_type_symbol
 _atom_site_label
 _atom_site_symmetry_multiplicity
 _atom_site_fract_x
 _atom_site_fract_y
 _atom_site_fract_z
 _atom_site_occupancy
  Tb  Tb0  1  0.790401  0.209599  0.393901  1
  Tb  Tb1  1  0.209599  0.790401  0.606099  1
  Tb  Tb2  1  0.790401  0.209599  0.106099  1
  Tb  Tb3  1  0.209599  0.790401  0.893901  1
  Tb  Tb4  1  0.508121  0.491879  0.250000  1
  Tb  Tb5  1  0.491879  0.508121  0.750000  1
  Ga  Ga6  1  0.500000  0.500000  0.500000  1
  Ga  Ga7  1  0.500000  0.500000  0.000000  1
  Ni  Ni8  1  0.075950  0.924050  0.413591  1
  Ni  Ni9  1  0.924050  0.075950  0.586409  1
  Ni  Ni10  1  0.075950  0.924050  0.086409  1
  Ni  Ni11  1  0.924050  0.075950  0.913591  1
  Ru  Ru12  1  0.216319  0.783681  0.250000  1
  Ru  Ru13  1  0.783681  0.216319  0.750000  1
