# generated using pymatgen
data_La9Nd11(CoSn2)4
_symmetry_space_group_name_H-M   'P 1'
_cell_length_a   8.43076810
_cell_length_b   9.23229846
_cell_length_c   12.72132400
_cell_angle_alpha   90.05297455
_cell_angle_beta   90.10100270
_cell_angle_gamma   90.04986496
_symmetry_Int_Tables_number   1
_chemical_formula_structural   La9Nd11(CoSn2)4
_chemical_formula_sum   'La9 Nd11 Co4 Sn8'
_cell_volume   990.16658803
_cell_formula_units_Z   1
loop_
 _symmetry_equiv_pos_site_id
 _symmetry_equiv_pos_as_xyz
  1  'x, y, z'
loop_
 _atom_site_type_symbol
 _atom_site_label
 _atom_site_symmetry_multiplicity
 _atom_site_fract_x
 _atom_site_fract_y
 _atom_site_fract_z
 _atom_site_occupancy
  La  La0  1  0.857442  0.749723  0.810570  1
  La  La1  1  0.143226  0.250154  0.190228  1
  La  La2  1  0.357146  0.250721  0.689767  1
  La  La3  1  0.644195  0.750493  0.308377  1
  La  La4  1  0.386227  0.748302  0.685381  1
  La  La5  1  0.610620  0.250814  0.316120  1
  La  La6  1  0.886809  0.249323  0.817222  1
  La  La7  1  0.112079  0.750015  0.182939  1
  La  La8  1  0.685346  0.023786  0.572141  1
  Nd  Nd9  1  0.967162  0.748573  0.501383  1
  Nd  Nd10  1  0.035541  0.250888  0.497213  1
  Nd  Nd11  1  0.465240  0.250424  0.998348  1
  Nd  Nd12  1  0.534535  0.748890  0.002722  1
  Nd  Nd13  1  0.314477  0.973253  0.426842  1
  Nd  Nd14  1  0.184157  0.974320  0.927460  1
  Nd  Nd15  1  0.316911  0.529165  0.426999  1
  Nd  Nd16  1  0.815183  0.025841  0.071938  1
  Nd  Nd17  1  0.684192  0.474295  0.572416  1
  Nd  Nd18  1  0.815856  0.473112  0.071977  1
  Nd  Nd19  1  0.183264  0.525596  0.927577  1
  Co  Co20  1  0.560556  0.752968  0.505774  1
  Co  Co21  1  0.439642  0.252581  0.494167  1
  Co  Co22  1  0.055749  0.249828  0.995989  1
  Co  Co23  1  0.945404  0.749776  0.004960  1
  Sn  Sn24  1  0.573646  0.492289  0.829660  1
  Sn  Sn25  1  0.426383  0.507050  0.170784  1
  Sn  Sn26  1  0.072359  0.506240  0.671340  1
  Sn  Sn27  1  0.426917  0.993220  0.170891  1
  Sn  Sn28  1  0.926599  0.492830  0.328354  1
  Sn  Sn29  1  0.571686  0.006207  0.830930  1
  Sn  Sn30  1  0.927002  0.006844  0.328006  1
  Sn  Sn31  1  0.074450  0.992483  0.671524  1
