# generated using pymatgen
data_Ca7Yb2PrSi6F
_symmetry_space_group_name_H-M   'P 1'
_cell_length_a   9.08754057
_cell_length_b   9.08754061
_cell_length_c   9.06924882
_cell_angle_alpha   130.04375926
_cell_angle_beta   130.04376245
_cell_angle_gamma   73.40090494
_symmetry_Int_Tables_number   1
_chemical_formula_structural   Ca7Yb2PrSi6F
_chemical_formula_sum   'Ca7 Yb2 Pr1 Si6 F1'
_cell_volume   428.31018771
_cell_formula_units_Z   1
loop_
 _symmetry_equiv_pos_site_id
 _symmetry_equiv_pos_as_xyz
  1  'x, y, z'
loop_
 _atom_site_type_symbol
 _atom_site_label
 _atom_site_symmetry_multiplicity
 _atom_site_fract_x
 _atom_site_fract_y
 _atom_site_fract_z
 _atom_site_occupancy
  Ca  Ca0  1  0.287955  0.287955  0.356727  1
  Ca  Ca1  1  0.712798  0.068965  0.999812  1
  Ca  Ca2  1  0.068965  0.712798  0.999812  1
  Ca  Ca3  1  0.563592  0.563592  0.335687  1
  Ca  Ca4  1  0.228782  0.228782  0.663432  1
  Ca  Ca5  1  0.252961  0.747952  0.500413  1
  Ca  Ca6  1  0.747952  0.252961  0.500413  1
  Yb  Yb7  1  0.765815  0.433387  0.998413  1
  Yb  Yb8  1  0.433387  0.765816  0.998413  1
  Pr  Pr9  1  0.929645  0.929645  0.638698  1
  Si  Si10  1  0.000894  0.504775  0.502277  1
  Si  Si11  1  0.504775  0.000894  0.502277  1
  Si  Si12  1  0.132261  0.359253  0.997881  1
  Si  Si13  1  0.359253  0.132261  0.997881  1
  Si  Si14  1  0.865116  0.865116  0.231002  1
  Si  Si15  1  0.641369  0.641369  0.777514  1
  F  F16  1  0.504480  0.504480  0.999349  1
