# generated using pymatgen
data_HoTm2B6Ir7Os
_symmetry_space_group_name_H-M   'P 1'
_cell_length_a   9.99525981
_cell_length_b   9.17358227
_cell_length_c   5.57663200
_cell_angle_alpha   81.37255126
_cell_angle_beta   65.14959597
_cell_angle_gamma   33.47785328
_symmetry_Int_Tables_number   1
_chemical_formula_structural   HoTm2B6Ir7Os
_chemical_formula_sum   'Ho1 Tm2 B6 Ir7 Os1'
_cell_volume   234.50745941
_cell_formula_units_Z   1
loop_
 _symmetry_equiv_pos_site_id
 _symmetry_equiv_pos_as_xyz
  1  'x, y, z'
loop_
 _atom_site_type_symbol
 _atom_site_label
 _atom_site_symmetry_multiplicity
 _atom_site_fract_x
 _atom_site_fract_y
 _atom_site_fract_z
 _atom_site_occupancy
  Ho  Ho0  1  0.000012  0.000027  0.999977  1
  Tm  Tm1  1  0.179168  0.179290  0.820763  1
  Tm  Tm2  1  0.820882  0.820743  0.179224  1
  B  B3  1  0.820268  0.530933  0.482056  1
  B  B4  1  0.167242  0.481578  0.530358  1
  B  B5  1  0.481515  0.167322  0.820754  1
  B  B6  1  0.669804  0.330164  0.670669  1
  B  B7  1  0.530868  0.820272  0.166906  1
  B  B8  1  0.330173  0.669827  0.329362  1
  Ir  Ir9  1  0.414044  0.414128  0.585929  1
  Ir  Ir10  1  0.585684  0.585586  0.914242  1
  Ir  Ir11  1  0.086145  0.085973  0.413866  1
  Ir  Ir12  1  0.914268  0.914275  0.585743  1
  Ir  Ir13  1  0.585987  0.585848  0.413998  1
  Ir  Ir14  1  0.250005  0.249808  0.250219  1
  Ir  Ir15  1  0.413936  0.414030  0.086162  1
  Os  Os16  1  0.749997  0.750196  0.749770  1
