# generated using pymatgen
data_Tb11Y9Ir11Ru
_symmetry_space_group_name_H-M   'P 1'
_cell_length_a   10.91872227
_cell_length_b   10.91851227
_cell_length_c   6.41424611
_cell_angle_alpha   89.98530322
_cell_angle_beta   89.98513006
_cell_angle_gamma   90.02077927
_symmetry_Int_Tables_number   1
_chemical_formula_structural   Tb11Y9Ir11Ru
_chemical_formula_sum   'Tb11 Y9 Ir11 Ru1'
_cell_volume   764.68196530
_cell_formula_units_Z   1
loop_
 _symmetry_equiv_pos_site_id
 _symmetry_equiv_pos_as_xyz
  1  'x, y, z'
loop_
 _atom_site_type_symbol
 _atom_site_label
 _atom_site_symmetry_multiplicity
 _atom_site_fract_x
 _atom_site_fract_y
 _atom_site_fract_z
 _atom_site_occupancy
  Tb  Tb0  1  0.292329  0.087427  0.377743  1
  Tb  Tb1  1  0.292704  0.912619  0.880534  1
  Tb  Tb2  1  0.707289  0.087508  0.880483  1
  Tb  Tb3  1  0.707763  0.912662  0.377673  1
  Tb  Tb4  1  0.587454  0.792704  0.880525  1
  Tb  Tb5  1  0.587297  0.207732  0.377779  1
  Tb  Tb6  1  0.412576  0.792254  0.377624  1
  Tb  Tb7  1  0.999994  0.999986  0.499234  1
  Tb  Tb8  1  0.000026  0.000056  0.999126  1
  Tb  Tb9  1  0.499961  0.499906  0.999125  1
  Tb  Tb10  1  0.500002  0.499971  0.499313  1
  Y  Y11  1  0.412478  0.207399  0.880412  1
  Y  Y12  1  0.208727  0.411612  0.621425  1
  Y  Y13  1  0.208795  0.588173  0.120929  1
  Y  Y14  1  0.791171  0.411789  0.120941  1
  Y  Y15  1  0.791224  0.588365  0.621259  1
  Y  Y16  1  0.911789  0.708804  0.120946  1
  Y  Y17  1  0.911667  0.291201  0.621241  1
  Y  Y18  1  0.088348  0.708815  0.621278  1
  Y  Y19  1  0.088263  0.291197  0.120848  1
  Ir  Ir20  1  0.846852  0.153470  0.249833  1
  Ir  Ir21  1  0.846929  0.846906  0.749603  1
  Ir  Ir22  1  0.152931  0.153075  0.749473  1
  Ir  Ir23  1  0.153158  0.846527  0.249813  1
  Ir  Ir24  1  0.653117  0.346998  0.749583  1
  Ir  Ir25  1  0.653501  0.653186  0.249775  1
  Ir  Ir26  1  0.346509  0.346965  0.250053  1
  Ir  Ir27  1  0.346955  0.653101  0.749578  1
  Ir  Ir28  1  0.500067  0.999819  0.624526  1
  Ir  Ir29  1  0.000000  0.500009  0.876445  1
  Ir  Ir30  1  0.999994  0.499989  0.376595  1
  Ru  Ru31  1  0.500132  0.999772  0.126281  1
