# generated using pymatgen
data_Nd3Sn2Rh3Pb
_symmetry_space_group_name_H-M   'P 1'
_cell_length_a   7.66049537
_cell_length_b   7.66049562
_cell_length_c   4.05954100
_cell_angle_alpha   90.00000000
_cell_angle_beta   90.00000000
_cell_angle_gamma   119.80260355
_symmetry_Int_Tables_number   1
_chemical_formula_structural   Nd3Sn2Rh3Pb
_chemical_formula_sum   'Nd3 Sn2 Rh3 Pb1'
_cell_volume   206.71962497
_cell_formula_units_Z   1
loop_
 _symmetry_equiv_pos_site_id
 _symmetry_equiv_pos_as_xyz
  1  'x, y, z'
loop_
 _atom_site_type_symbol
 _atom_site_label
 _atom_site_symmetry_multiplicity
 _atom_site_fract_x
 _atom_site_fract_y
 _atom_site_fract_z
 _atom_site_occupancy
  Nd  Nd0  1  0.002638  0.589684  0.000000  1
  Nd  Nd1  1  0.407223  0.407223  0.000000  1
  Nd  Nd2  1  0.589684  0.002638  0.000000  1
  Sn  Sn3  1  0.001064  0.255419  0.500000  1
  Sn  Sn4  1  0.255419  0.001064  0.500000  1
  Rh  Rh5  1  0.012766  0.012766  0.000000  1
  Rh  Rh6  1  0.664174  0.322955  0.500000  1
  Rh  Rh7  1  0.322955  0.664174  0.500000  1
  Pb  Pb8  1  0.744077  0.744077  0.500000  1
