# generated using pymatgen
data_Yb10InCu4Au
_symmetry_space_group_name_H-M   'P 1'
_cell_length_a   8.94793025
_cell_length_b   8.94793122
_cell_length_c   8.94793000
_cell_angle_alpha   129.13591180
_cell_angle_beta   129.13590863
_cell_angle_gamma   74.79198385
_symmetry_Int_Tables_number   1
_chemical_formula_structural   Yb10InCu4Au
_chemical_formula_sum   'Yb10 In1 Cu4 Au1'
_cell_volume   419.85935007
_cell_formula_units_Z   1
loop_
 _symmetry_equiv_pos_site_id
 _symmetry_equiv_pos_as_xyz
  1  'x, y, z'
loop_
 _atom_site_type_symbol
 _atom_site_label
 _atom_site_symmetry_multiplicity
 _atom_site_fract_x
 _atom_site_fract_y
 _atom_site_fract_z
 _atom_site_occupancy
  Yb  Yb0  1  0.508935  0.508935  0.000000  1
  Yb  Yb1  1  0.991065  0.991065  0.000000  1
  Yb  Yb2  1  0.520234  0.038371  0.839433  1
  Yb  Yb3  1  0.198941  0.680803  0.160567  1
  Yb  Yb4  1  0.038371  0.198941  0.518137  1
  Yb  Yb5  1  0.680803  0.520234  0.481863  1
  Yb  Yb6  1  0.461629  0.979766  0.160567  1
  Yb  Yb7  1  0.819197  0.301059  0.839433  1
  Yb  Yb8  1  0.979766  0.819197  0.518137  1
  Yb  Yb9  1  0.301059  0.461629  0.481863  1
  In  In10  1  0.750000  0.750000  0.000000  1
  Cu  Cu11  1  0.117336  0.617336  0.734673  1
  Cu  Cu12  1  0.882664  0.382664  0.265327  1
  Cu  Cu13  1  0.617336  0.882664  0.500000  1
  Cu  Cu14  1  0.382664  0.117336  0.500000  1
  Au  Au15  1  0.250000  0.250000  0.000000  1
