# generated using pymatgen
data_Pr3Cd3Hg2Pt
_symmetry_space_group_name_H-M   'P 1'
_cell_length_a   8.17882400
_cell_length_b   8.17882456
_cell_length_c   4.01404400
_cell_angle_alpha   90.00000000
_cell_angle_beta   90.00000000
_cell_angle_gamma   119.99999775
_symmetry_Int_Tables_number   1
_chemical_formula_structural   Pr3Cd3Hg2Pt
_chemical_formula_sum   'Pr3 Cd3 Hg2 Pt1'
_cell_volume   232.53831717
_cell_formula_units_Z   1
loop_
 _symmetry_equiv_pos_site_id
 _symmetry_equiv_pos_as_xyz
  1  'x, y, z'
loop_
 _atom_site_type_symbol
 _atom_site_label
 _atom_site_symmetry_multiplicity
 _atom_site_fract_x
 _atom_site_fract_y
 _atom_site_fract_z
 _atom_site_occupancy
  Pr  Pr0  1  0.578241  0.974757  0.000000  1
  Pr  Pr1  1  0.025243  0.603485  0.000000  1
  Pr  Pr2  1  0.396515  0.421759  0.000000  1
  Cd  Cd3  1  0.267826  0.999288  0.500000  1
  Cd  Cd4  1  0.000712  0.268538  0.500000  1
  Cd  Cd5  1  0.731462  0.732174  0.500000  1
  Hg  Hg6  1  0.666667  0.333333  0.500000  1
  Hg  Hg7  1  0.000000  0.000000  0.000000  1
  Pt  Pt8  1  0.333333  0.666667  0.500000  1
