# generated using pymatgen
data_La12CoTc3
_symmetry_space_group_name_H-M   'P 1'
_cell_length_a   6.57623003
_cell_length_b   7.32434103
_cell_length_c   10.09264200
_cell_angle_alpha   90.00000000
_cell_angle_beta   90.00000000
_cell_angle_gamma   90.01051888
_symmetry_Int_Tables_number   1
_chemical_formula_structural   La12CoTc3
_chemical_formula_sum   'La12 Co1 Tc3'
_cell_volume   486.12775167
_cell_formula_units_Z   1
loop_
 _symmetry_equiv_pos_site_id
 _symmetry_equiv_pos_as_xyz
  1  'x, y, z'
loop_
 _atom_site_type_symbol
 _atom_site_label
 _atom_site_symmetry_multiplicity
 _atom_site_fract_x
 _atom_site_fract_y
 _atom_site_fract_z
 _atom_site_occupancy
  La  La0  1  0.829872  0.662287  0.070720  1
  La  La1  1  0.671875  0.167446  0.070985  1
  La  La2  1  0.176535  0.334663  0.929784  1
  La  La3  1  0.327051  0.832558  0.566182  1
  La  La4  1  0.858667  0.943746  0.750000  1
  La  La5  1  0.140420  0.063444  0.250000  1
  La  La6  1  0.176535  0.334663  0.570216  1
  La  La7  1  0.671875  0.167446  0.429015  1
  La  La8  1  0.327051  0.832558  0.933818  1
  La  La9  1  0.829872  0.662287  0.429280  1
  La  La10  1  0.349875  0.555484  0.250000  1
  La  La11  1  0.642971  0.444757  0.750000  1
  Co  Co12  1  0.946357  0.378848  0.250000  1
  Tc  Tc13  1  0.549419  0.882851  0.250000  1
  Tc  Tc14  1  0.454399  0.119855  0.750000  1
  Tc  Tc15  1  0.047227  0.617106  0.750000  1
