# generated using pymatgen
data_Hf4In2Pt3Au
_symmetry_space_group_name_H-M   'P 1'
_cell_length_a   7.55492319
_cell_length_b   7.55492380
_cell_length_c   6.88444000
_cell_angle_alpha   90.00000000
_cell_angle_beta   90.00000000
_cell_angle_gamma   90.24825202
_symmetry_Int_Tables_number   1
_chemical_formula_structural   Hf4In2Pt3Au
_chemical_formula_sum   'Hf8 In4 Pt6 Au2'
_cell_volume   392.93859153
_cell_formula_units_Z   2
loop_
 _symmetry_equiv_pos_site_id
 _symmetry_equiv_pos_as_xyz
  1  'x, y, z'
loop_
 _atom_site_type_symbol
 _atom_site_label
 _atom_site_symmetry_multiplicity
 _atom_site_fract_x
 _atom_site_fract_y
 _atom_site_fract_z
 _atom_site_occupancy
  Hf  Hf0  1  0.139939  0.162617  0.000000  1
  Hf  Hf1  1  0.837383  0.860061  0.000000  1
  Hf  Hf2  1  0.652782  0.347218  0.500000  1
  Hf  Hf3  1  0.360699  0.639301  0.500000  1
  Hf  Hf4  1  0.686058  0.313942  0.000000  1
  Hf  Hf5  1  0.326170  0.673830  0.000000  1
  Hf  Hf6  1  0.804583  0.815648  0.500000  1
  Hf  Hf7  1  0.184352  0.195417  0.500000  1
  In  In8  1  0.499161  0.001630  0.249470  1
  In  In9  1  0.499161  0.001630  0.750530  1
  In  In10  1  0.998370  0.500839  0.249470  1
  In  In11  1  0.998370  0.500839  0.750530  1
  Pt  Pt12  1  0.369905  0.366499  0.215457  1
  Pt  Pt13  1  0.633501  0.630095  0.784543  1
  Pt  Pt14  1  0.633501  0.630095  0.215457  1
  Pt  Pt15  1  0.870111  0.129889  0.715285  1
  Pt  Pt16  1  0.870111  0.129889  0.284715  1
  Pt  Pt17  1  0.369905  0.366499  0.784543  1
  Au  Au18  1  0.132970  0.867030  0.284181  1
  Au  Au19  1  0.132970  0.867030  0.715819  1
