# generated using pymatgen
data_CaScSnB2Rh5
_symmetry_space_group_name_H-M   'P 1'
_cell_length_a   9.61473600
_cell_length_b   9.65903900
_cell_length_c   3.14503600
_cell_angle_alpha   90.00000000
_cell_angle_beta   90.00000000
_cell_angle_gamma   90.00000000
_symmetry_Int_Tables_number   1
_chemical_formula_structural   CaScSnB2Rh5
_chemical_formula_sum   'Ca2 Sc2 Sn2 B4 Rh10'
_cell_volume   292.07669423
_cell_formula_units_Z   2
loop_
 _symmetry_equiv_pos_site_id
 _symmetry_equiv_pos_as_xyz
  1  'x, y, z'
loop_
 _atom_site_type_symbol
 _atom_site_label
 _atom_site_symmetry_multiplicity
 _atom_site_fract_x
 _atom_site_fract_y
 _atom_site_fract_z
 _atom_site_occupancy
  Ca  Ca0  1  0.823037  0.326739  0.000000  1
  Ca  Ca1  1  0.323037  0.173261  0.000000  1
  Sc  Sc2  1  0.672967  0.825327  0.000000  1
  Sc  Sc3  1  0.172967  0.674673  0.000000  1
  Sn  Sn4  1  0.005138  0.009123  0.000000  1
  Sn  Sn5  1  0.505138  0.490877  0.000000  1
  B  B6  1  0.622820  0.111480  0.000000  1
  B  B7  1  0.122820  0.388520  0.000000  1
  B  B8  1  0.878977  0.633375  0.000000  1
  B  B9  1  0.378977  0.866625  0.000000  1
  Rh  Rh10  1  0.070969  0.235641  0.500000  1
  Rh  Rh11  1  0.222561  0.912607  0.500000  1
  Rh  Rh12  1  0.773125  0.057054  0.500000  1
  Rh  Rh13  1  0.929009  0.784967  0.500000  1
  Rh  Rh14  1  0.429009  0.715033  0.500000  1
  Rh  Rh15  1  0.570969  0.264359  0.500000  1
  Rh  Rh16  1  0.722561  0.587393  0.500000  1
  Rh  Rh17  1  0.273125  0.442946  0.500000  1
  Rh  Rh18  1  0.501398  0.986877  0.500000  1
  Rh  Rh19  1  0.001398  0.513123  0.500000  1
