# generated using pymatgen
data_TbDy3Co4HgI
_symmetry_space_group_name_H-M   'P 1'
_cell_length_a   3.92160200
_cell_length_b   3.92160104
_cell_length_c   16.70706500
_cell_angle_alpha   90.00000000
_cell_angle_beta   90.00000000
_cell_angle_gamma   119.99997437
_symmetry_Int_Tables_number   1
_chemical_formula_structural   TbDy3Co4HgI
_chemical_formula_sum   'Tb1 Dy3 Co4 Hg1 I1'
_cell_volume   222.51425084
_cell_formula_units_Z   1
loop_
 _symmetry_equiv_pos_site_id
 _symmetry_equiv_pos_as_xyz
  1  'x, y, z'
loop_
 _atom_site_type_symbol
 _atom_site_label
 _atom_site_symmetry_multiplicity
 _atom_site_fract_x
 _atom_site_fract_y
 _atom_site_fract_z
 _atom_site_occupancy
  Tb  Tb0  1  0.000000  0.000000  0.898221  1
  Dy  Dy1  1  0.000000  0.000000  0.114258  1
  Dy  Dy2  1  0.000000  0.000000  0.601041  1
  Dy  Dy3  1  0.000000  0.000000  0.385917  1
  Co  Co4  1  0.666667  0.333333  0.003077  1
  Co  Co5  1  0.333333  0.666667  0.004090  1
  Co  Co6  1  0.666667  0.333333  0.497411  1
  Co  Co7  1  0.333333  0.666667  0.496267  1
  Hg  Hg8  1  0.666667  0.333333  0.250007  1
  I  I9  1  0.333333  0.666667  0.749711  1
