# generated using pymatgen
data_LuSi2P4(Pd10Pb)2
_symmetry_space_group_name_H-M   'P 1'
_cell_length_a   8.69650181
_cell_length_b   8.69650026
_cell_length_c   8.72732100
_cell_angle_alpha   59.88269851
_cell_angle_beta   59.88270443
_cell_angle_gamma   60.23460925
_symmetry_Int_Tables_number   1
_chemical_formula_structural   LuSi2P4(Pd10Pb)2
_chemical_formula_sum   'Lu1 Si2 P4 Pd20 Pb2'
_cell_volume   466.70682287
_cell_formula_units_Z   1
loop_
 _symmetry_equiv_pos_site_id
 _symmetry_equiv_pos_as_xyz
  1  'x, y, z'
loop_
 _atom_site_type_symbol
 _atom_site_label
 _atom_site_symmetry_multiplicity
 _atom_site_fract_x
 _atom_site_fract_y
 _atom_site_fract_z
 _atom_site_occupancy
  Lu  Lu0  1  0.000000  0.000000  0.000000  1
  Si  Si1  1  0.267330  0.267330  0.732670  1
  Si  Si2  1  0.732670  0.732670  0.267330  1
  P  P3  1  0.734466  0.265534  0.265534  1
  P  P4  1  0.265534  0.734466  0.734466  1
  P  P5  1  0.265534  0.734466  0.265534  1
  P  P6  1  0.734466  0.265534  0.734466  1
  Pd  Pd7  1  0.342858  0.999638  0.000362  1
  Pd  Pd8  1  0.657142  0.000362  0.999638  1
  Pd  Pd9  1  0.999638  0.342858  0.657142  1
  Pd  Pd10  1  0.000362  0.657142  0.342858  1
  Pd  Pd11  1  0.999638  0.342858  0.000362  1
  Pd  Pd12  1  0.657142  0.000362  0.342858  1
  Pd  Pd13  1  0.000362  0.657142  0.999638  1
  Pd  Pd14  1  0.342858  0.999638  0.657142  1
  Pd  Pd15  1  0.000000  0.000000  0.341244  1
  Pd  Pd16  1  0.000000  0.000000  0.658756  1
  Pd  Pd17  1  0.658756  0.341244  0.000000  1
  Pd  Pd18  1  0.341244  0.658756  0.000000  1
  Pd  Pd19  1  0.384802  0.384802  0.383004  1
  Pd  Pd20  1  0.615198  0.615198  0.616996  1
  Pd  Pd21  1  0.384802  0.384802  0.847392  1
  Pd  Pd22  1  0.383004  0.847392  0.384802  1
  Pd  Pd23  1  0.615198  0.615198  0.152608  1
  Pd  Pd24  1  0.616996  0.152608  0.615198  1
  Pd  Pd25  1  0.847392  0.383004  0.384802  1
  Pd  Pd26  1  0.152608  0.616996  0.615198  1
  Pb  Pb27  1  0.250000  0.250000  0.250000  1
  Pb  Pb28  1  0.750000  0.750000  0.750000  1
