# generated using pymatgen
data_Dy2ErLuC7
_symmetry_space_group_name_H-M   'P 1'
_cell_length_a   13.71507200
_cell_length_b   3.67381697
_cell_length_c   6.42876777
_cell_angle_alpha   74.35661407
_cell_angle_beta   90.00000000
_cell_angle_gamma   90.00000000
_symmetry_Int_Tables_number   1
_chemical_formula_structural   Dy2ErLuC7
_chemical_formula_sum   'Dy4 Er2 Lu2 C14'
_cell_volume   311.92557701
_cell_formula_units_Z   2
loop_
 _symmetry_equiv_pos_site_id
 _symmetry_equiv_pos_as_xyz
  1  'x, y, z'
loop_
 _atom_site_type_symbol
 _atom_site_label
 _atom_site_symmetry_multiplicity
 _atom_site_fract_x
 _atom_site_fract_y
 _atom_site_fract_z
 _atom_site_occupancy
  Dy  Dy0  1  0.943306  0.367041  0.260981  1
  Dy  Dy1  1  0.443306  0.632959  0.239019  1
  Dy  Dy2  1  0.055845  0.635386  0.737742  1
  Dy  Dy3  1  0.555845  0.364614  0.762258  1
  Er  Er4  1  0.660967  0.059316  0.337504  1
  Er  Er5  1  0.160967  0.940684  0.162496  1
  Lu  Lu6  1  0.340893  0.938337  0.661934  1
  Lu  Lu7  1  0.840893  0.061663  0.838066  1
  C  C8  1  0.498691  0.999772  0.500702  1
  C  C9  1  0.998691  0.000228  0.999298  1
  C  C10  1  0.783984  0.468406  0.062870  1
  C  C11  1  0.283984  0.531594  0.437130  1
  C  C12  1  0.216650  0.541682  0.929505  1
  C  C13  1  0.716650  0.458318  0.570495  1
  C  C14  1  0.196630  0.372463  0.459641  1
  C  C15  1  0.696630  0.627537  0.040359  1
  C  C16  1  0.395346  0.265758  0.942346  1
  C  C17  1  0.895346  0.734242  0.557654  1
  C  C18  1  0.604149  0.731381  0.055211  1
  C  C19  1  0.104149  0.268619  0.444789  1
  C  C20  1  0.303539  0.378821  0.954106  1
  C  C21  1  0.803539  0.621179  0.545894  1
