# generated using pymatgen
data_Sr2HgS5
_symmetry_space_group_name_H-M   'P 1'
_cell_length_a   8.05999300
_cell_length_b   8.40330800
_cell_length_c   11.93399800
_cell_angle_alpha   90.00000000
_cell_angle_beta   90.00000000
_cell_angle_gamma   90.00000000
_symmetry_Int_Tables_number   1
_chemical_formula_structural   Sr2HgS5
_chemical_formula_sum   'Sr8 Hg4 S20'
_cell_volume   808.29688858
_cell_formula_units_Z   4
loop_
 _symmetry_equiv_pos_site_id
 _symmetry_equiv_pos_as_xyz
  1  'x, y, z'
loop_
 _atom_site_type_symbol
 _atom_site_label
 _atom_site_symmetry_multiplicity
 _atom_site_fract_x
 _atom_site_fract_y
 _atom_site_fract_z
 _atom_site_occupancy
  Sr  Sr0  1  0.643228  0.506208  0.810148  1
  Sr  Sr1  1  0.856772  0.993792  0.310148  1
  Sr  Sr2  1  0.356772  0.006208  0.189852  1
  Sr  Sr3  1  0.143228  0.493792  0.689852  1
  Sr  Sr4  1  0.356772  0.493792  0.189852  1
  Sr  Sr5  1  0.143228  0.006208  0.689852  1
  Sr  Sr6  1  0.643228  0.993792  0.810148  1
  Sr  Sr7  1  0.856772  0.506208  0.310148  1
  Hg  Hg8  1  0.015649  0.750000  0.008622  1
  Hg  Hg9  1  0.484351  0.750000  0.508622  1
  Hg  Hg10  1  0.984351  0.250000  0.991378  1
  Hg  Hg11  1  0.515649  0.250000  0.491378  1
  S  S12  1  0.561583  0.750000  0.024416  1
  S  S13  1  0.938417  0.750000  0.524416  1
  S  S14  1  0.438417  0.250000  0.975584  1
  S  S15  1  0.061583  0.250000  0.475584  1
  S  S16  1  0.093879  0.750000  0.201547  1
  S  S17  1  0.406121  0.750000  0.701547  1
  S  S18  1  0.906121  0.250000  0.798453  1
  S  S19  1  0.593879  0.250000  0.298453  1
  S  S20  1  0.937939  0.750000  0.816534  1
  S  S21  1  0.562061  0.750000  0.316534  1
  S  S22  1  0.062061  0.250000  0.183466  1
  S  S23  1  0.437939  0.250000  0.683466  1
  S  S24  1  0.694376  0.543992  0.066163  1
  S  S25  1  0.805624  0.956008  0.566163  1
  S  S26  1  0.305624  0.043992  0.933837  1
  S  S27  1  0.194376  0.456008  0.433837  1
  S  S28  1  0.305624  0.456008  0.933837  1
  S  S29  1  0.194376  0.043992  0.433837  1
  S  S30  1  0.694376  0.956008  0.066163  1
  S  S31  1  0.805624  0.543992  0.566163  1
