# generated using pymatgen
data_LaTiVO5
_symmetry_space_group_name_H-M   'P 1'
_cell_length_a   7.81842000
_cell_length_b   8.82570400
_cell_length_c   5.93168500
_cell_angle_alpha   90.00000000
_cell_angle_beta   90.00000000
_cell_angle_gamma   90.00000000
_symmetry_Int_Tables_number   1
_chemical_formula_structural   LaTiVO5
_chemical_formula_sum   'La4 Ti4 V4 O20'
_cell_volume   409.30441992
_cell_formula_units_Z   4
loop_
 _symmetry_equiv_pos_site_id
 _symmetry_equiv_pos_as_xyz
  1  'x, y, z'
loop_
 _atom_site_type_symbol
 _atom_site_label
 _atom_site_symmetry_multiplicity
 _atom_site_fract_x
 _atom_site_fract_y
 _atom_site_fract_z
 _atom_site_occupancy
  La  La0  1  0.141006  0.172908  0.000000  1
  La  La1  1  0.641005  0.327092  0.000000  1
  La  La2  1  0.358994  0.672908  0.000000  1
  La  La3  1  0.858994  0.827092  0.000000  1
  Ti  Ti4  1  0.880497  0.141978  0.499999  1
  Ti  Ti5  1  0.380497  0.358023  0.499999  1
  Ti  Ti6  1  0.619502  0.641978  0.499999  1
  Ti  Ti7  1  0.119503  0.858023  0.499999  1
  V  V8  1  0.500000  0.000000  0.249153  1
  V  V9  1  0.000000  0.500000  0.249153  1
  V  V10  1  0.500000  0.000000  0.750846  1
  V  V11  1  0.000000  0.500000  0.750846  1
  O  O12  1  0.663227  0.054561  0.000000  1
  O  O13  1  0.163227  0.445439  0.000000  1
  O  O14  1  0.836774  0.554561  0.000000  1
  O  O15  1  0.336774  0.945438  0.000000  1
  O  O16  1  0.396902  0.214095  0.257752  1
  O  O17  1  0.896902  0.285905  0.257752  1
  O  O18  1  0.103097  0.714095  0.257752  1
  O  O19  1  0.603097  0.785905  0.257752  1
  O  O20  1  0.000000  0.000000  0.288120  1
  O  O21  1  0.500000  0.500000  0.288120  1
  O  O22  1  0.663025  0.073827  0.499999  1
  O  O23  1  0.163024  0.426173  0.499999  1
  O  O24  1  0.836976  0.573827  0.499999  1
  O  O25  1  0.336976  0.926173  0.499999  1
  O  O26  1  0.000000  0.000000  0.711879  1
  O  O27  1  0.500000  0.500000  0.711879  1
  O  O28  1  0.396902  0.214095  0.742247  1
  O  O29  1  0.896902  0.285905  0.742247  1
  O  O30  1  0.103097  0.714095  0.742247  1
  O  O31  1  0.603097  0.785905  0.742247  1
