# generated using pymatgen
data_Dy8Ho4InCo4Ru
_symmetry_space_group_name_H-M   'P 1'
_cell_length_a   8.29002366
_cell_length_b   8.28950443
_cell_length_c   8.29002340
_cell_angle_alpha   111.10796518
_cell_angle_beta   110.72207350
_cell_angle_gamma   106.62333850
_symmetry_Int_Tables_number   1
_chemical_formula_structural   Dy8Ho4InCo4Ru
_chemical_formula_sum   'Dy8 Ho4 In1 Co4 Ru1'
_cell_volume   437.72260016
_cell_formula_units_Z   1
loop_
 _symmetry_equiv_pos_site_id
 _symmetry_equiv_pos_as_xyz
  1  'x, y, z'
loop_
 _atom_site_type_symbol
 _atom_site_label
 _atom_site_symmetry_multiplicity
 _atom_site_fract_x
 _atom_site_fract_y
 _atom_site_fract_z
 _atom_site_occupancy
  Dy  Dy0  1  0.314161  0.620348  0.306186  1
  Dy  Dy1  1  0.685839  0.379652  0.693814  1
  Dy  Dy2  1  0.314226  0.008062  0.693837  1
  Dy  Dy3  1  0.685774  0.991938  0.306163  1
  Dy  Dy4  1  0.183855  0.284617  0.468446  1
  Dy  Dy5  1  0.816145  0.715383  0.531554  1
  Dy  Dy6  1  0.183830  0.715383  0.899239  1
  Dy  Dy7  1  0.816170  0.284617  0.100761  1
  Ho  Ho8  1  0.409841  0.217076  0.192761  1
  Ho  Ho9  1  0.590159  0.782924  0.807239  1
  Ho  Ho10  1  0.024315  0.217076  0.807236  1
  Ho  Ho11  1  0.975685  0.782924  0.192764  1
  In  In12  1  0.500000  0.500000  0.000000  1
  Co  Co13  1  0.111223  0.611206  0.499983  1
  Co  Co14  1  0.888777  0.388794  0.500017  1
  Co  Co15  1  0.376781  0.000000  0.376781  1
  Co  Co16  1  0.623219  0.000000  0.623219  1
  Ru  Ru17  1  0.000000  0.000000  0.000000  1
