# generated using pymatgen
data_Ba6YbMn(Ir2O9)2
_symmetry_space_group_name_H-M   'P 1'
_cell_length_a   5.88799500
_cell_length_b   5.88799454
_cell_length_c   14.53706000
_cell_angle_alpha   90.00000000
_cell_angle_beta   90.00000000
_cell_angle_gamma   119.99999699
_symmetry_Int_Tables_number   1
_chemical_formula_structural   Ba6YbMn(Ir2O9)2
_chemical_formula_sum   'Ba6 Yb1 Mn1 Ir4 O18'
_cell_volume   436.45759840
_cell_formula_units_Z   1
loop_
 _symmetry_equiv_pos_site_id
 _symmetry_equiv_pos_as_xyz
  1  'x, y, z'
loop_
 _atom_site_type_symbol
 _atom_site_label
 _atom_site_symmetry_multiplicity
 _atom_site_fract_x
 _atom_site_fract_y
 _atom_site_fract_z
 _atom_site_occupancy
  Ba  Ba0  1  0.666667  0.333333  0.416002  1
  Ba  Ba1  1  0.333333  0.666667  0.583998  1
  Ba  Ba2  1  0.333333  0.666667  0.912430  1
  Ba  Ba3  1  0.000000  0.000000  0.254054  1
  Ba  Ba4  1  0.666667  0.333333  0.087570  1
  Ba  Ba5  1  0.000000  0.000000  0.745946  1
  Yb  Yb6  1  0.000000  0.000000  0.000000  1
  Mn  Mn7  1  0.000000  0.000000  0.500000  1
  Ir  Ir8  1  0.333333  0.666667  0.164708  1
  Ir  Ir9  1  0.666667  0.333333  0.835292  1
  Ir  Ir10  1  0.333333  0.666667  0.340428  1
  Ir  Ir11  1  0.666667  0.333333  0.659572  1
  O  O12  1  0.825529  0.651061  0.583585  1
  O  O13  1  0.822475  0.177525  0.911731  1
  O  O14  1  0.651061  0.825529  0.416415  1
  O  O15  1  0.509539  0.490461  0.747250  1
  O  O16  1  0.174471  0.348939  0.416415  1
  O  O17  1  0.348939  0.174471  0.583585  1
  O  O18  1  0.509539  0.019078  0.747250  1
  O  O19  1  0.177525  0.355048  0.088269  1
  O  O20  1  0.490461  0.980922  0.252750  1
  O  O21  1  0.644952  0.822475  0.088269  1
  O  O22  1  0.174471  0.825529  0.416415  1
  O  O23  1  0.355048  0.177525  0.911731  1
  O  O24  1  0.019078  0.509539  0.252750  1
  O  O25  1  0.490461  0.509539  0.252750  1
  O  O26  1  0.980922  0.490461  0.747250  1
  O  O27  1  0.822475  0.644952  0.911731  1
  O  O28  1  0.825529  0.174471  0.583585  1
  O  O29  1  0.177525  0.822475  0.088269  1
