# generated using pymatgen
data_ScTa(CoP)2
_symmetry_space_group_name_H-M   'P 1'
_cell_length_a   3.64125300
_cell_length_b   6.16619600
_cell_length_c   7.03484200
_cell_angle_alpha   90.00000000
_cell_angle_beta   90.00000000
_cell_angle_gamma   90.00000000
_symmetry_Int_Tables_number   1
_chemical_formula_structural   ScTa(CoP)2
_chemical_formula_sum   'Sc2 Ta2 Co4 P4'
_cell_volume   157.95105405
_cell_formula_units_Z   2
loop_
 _symmetry_equiv_pos_site_id
 _symmetry_equiv_pos_as_xyz
  1  'x, y, z'
loop_
 _atom_site_type_symbol
 _atom_site_label
 _atom_site_symmetry_multiplicity
 _atom_site_fract_x
 _atom_site_fract_y
 _atom_site_fract_z
 _atom_site_occupancy
  Sc  Sc0  1  0.750000  0.977441  0.181102  1
  Sc  Sc1  1  0.750000  0.477441  0.318898  1
  Ta  Ta2  1  0.250000  0.023129  0.818169  1
  Ta  Ta3  1  0.250000  0.523129  0.681831  1
  Co  Co4  1  0.250000  0.140588  0.441381  1
  Co  Co5  1  0.250000  0.640588  0.058619  1
  Co  Co6  1  0.750000  0.860561  0.565329  1
  Co  Co7  1  0.750000  0.360561  0.934671  1
  P  P8  1  0.250000  0.270099  0.112953  1
  P  P9  1  0.250000  0.770099  0.387047  1
  P  P10  1  0.750000  0.728182  0.879586  1
  P  P11  1  0.750000  0.228182  0.620414  1
