# generated using pymatgen
data_V(Pt3Rh)2
_symmetry_space_group_name_H-M   'P 1'
_cell_length_a   6.25227521
_cell_length_b   6.25227382
_cell_length_c   6.15002212
_cell_angle_alpha   95.69469639
_cell_angle_beta   95.69470187
_cell_angle_gamma   143.58999861
_symmetry_Int_Tables_number   1
_chemical_formula_structural   V(Pt3Rh)2
_chemical_formula_sum   'V1 Pt6 Rh2'
_cell_volume   135.30890132
_cell_formula_units_Z   1
loop_
 _symmetry_equiv_pos_site_id
 _symmetry_equiv_pos_as_xyz
  1  'x, y, z'
loop_
 _atom_site_type_symbol
 _atom_site_label
 _atom_site_symmetry_multiplicity
 _atom_site_fract_x
 _atom_site_fract_y
 _atom_site_fract_z
 _atom_site_occupancy
  V  V0  1  0.000000  0.000000  0.000000  1
  Pt  Pt1  1  0.659430  0.340570  0.000000  1
  Pt  Pt2  1  0.340570  0.659430  0.000000  1
  Pt  Pt3  1  0.003078  0.326148  0.329226  1
  Pt  Pt4  1  0.996922  0.673852  0.670774  1
  Pt  Pt5  1  0.673852  0.996922  0.670774  1
  Pt  Pt6  1  0.326148  0.003078  0.329226  1
  Rh  Rh7  1  0.339270  0.339270  0.678541  1
  Rh  Rh8  1  0.660730  0.660730  0.321459  1
