# generated using pymatgen
data_Hf9FeRe3W
_symmetry_space_group_name_H-M   'P 1'
_cell_length_a   8.61068600
_cell_length_b   8.61075940
_cell_length_c   8.47312100
_cell_angle_alpha   90.00000000
_cell_angle_beta   90.00000000
_cell_angle_gamma   119.99972570
_symmetry_Int_Tables_number   1
_chemical_formula_structural   Hf9FeRe3W
_chemical_formula_sum   'Hf18 Fe2 Re6 W2'
_cell_volume   544.06958388
_cell_formula_units_Z   2
loop_
 _symmetry_equiv_pos_site_id
 _symmetry_equiv_pos_as_xyz
  1  'x, y, z'
loop_
 _atom_site_type_symbol
 _atom_site_label
 _atom_site_symmetry_multiplicity
 _atom_site_fract_x
 _atom_site_fract_y
 _atom_site_fract_z
 _atom_site_occupancy
  Hf  Hf0  1  0.200798  0.401596  0.059045  1
  Hf  Hf1  1  0.200800  0.799200  0.059042  1
  Hf  Hf2  1  0.598399  0.799200  0.059042  1
  Hf  Hf3  1  0.540555  0.081111  0.250000  1
  Hf  Hf4  1  0.540547  0.459445  0.250000  1
  Hf  Hf5  1  0.918898  0.459445  0.250000  1
  Hf  Hf6  1  0.200800  0.799200  0.440958  1
  Hf  Hf7  1  0.598399  0.799200  0.440958  1
  Hf  Hf8  1  0.200798  0.401596  0.440955  1
  Hf  Hf9  1  0.799201  0.598403  0.559045  1
  Hf  Hf10  1  0.401601  0.200801  0.559042  1
  Hf  Hf11  1  0.799199  0.200801  0.559042  1
  Hf  Hf12  1  0.081103  0.540555  0.750000  1
  Hf  Hf13  1  0.459453  0.540555  0.750000  1
  Hf  Hf14  1  0.459445  0.918889  0.750000  1
  Hf  Hf15  1  0.401601  0.200801  0.940958  1
  Hf  Hf16  1  0.799199  0.200801  0.940958  1
  Hf  Hf17  1  0.799201  0.598403  0.940955  1
  Fe  Fe18  1  0.333330  0.666661  0.250000  1
  Fe  Fe19  1  0.666669  0.333340  0.750000  1
  Re  Re20  1  0.223703  0.111850  0.250000  1
  Re  Re21  1  0.888148  0.111850  0.250000  1
  Re  Re22  1  0.888145  0.776293  0.250000  1
  Re  Re23  1  0.111854  0.223707  0.750000  1
  Re  Re24  1  0.111853  0.888150  0.750000  1
  Re  Re25  1  0.776297  0.888150  0.750000  1
  W  W26  1  0.000000  0.000000  0.000000  1
  W  W27  1  0.000000  0.000000  0.500000  1
