# generated using pymatgen
data_Dy3Ho9Co4SnRh
_symmetry_space_group_name_H-M   'P 1'
_cell_length_a   8.26307599
_cell_length_b   8.26083939
_cell_length_c   8.26083823
_cell_angle_alpha   111.19558660
_cell_angle_beta   110.30328739
_cell_angle_gamma   106.93488986
_symmetry_Int_Tables_number   1
_chemical_formula_structural   Dy3Ho9Co4SnRh
_chemical_formula_sum   'Dy3 Ho9 Co4 Sn1 Rh1'
_cell_volume   433.47445712
_cell_formula_units_Z   1
loop_
 _symmetry_equiv_pos_site_id
 _symmetry_equiv_pos_as_xyz
  1  'x, y, z'
loop_
 _atom_site_type_symbol
 _atom_site_label
 _atom_site_symmetry_multiplicity
 _atom_site_fract_x
 _atom_site_fract_y
 _atom_site_fract_z
 _atom_site_occupancy
  Dy  Dy0  1  0.408078  0.212222  0.195856  1
  Dy  Dy1  1  0.592269  0.787846  0.804423  1
  Dy  Dy2  1  0.016344  0.212048  0.804296  1
  Ho  Ho3  1  0.983616  0.787668  0.195948  1
  Ho  Ho4  1  0.185713  0.291071  0.476964  1
  Ho  Ho5  1  0.814076  0.708450  0.522298  1
  Ho  Ho6  1  0.185713  0.708749  0.894641  1
  Ho  Ho7  1  0.814076  0.291779  0.105627  1
  Ho  Ho8  1  0.313520  0.619754  0.305713  1
  Ho  Ho9  1  0.686574  0.380673  0.694464  1
  Ho  Ho10  1  0.313520  0.007805  0.693765  1
  Ho  Ho11  1  0.686574  0.992111  0.305901  1
  Co  Co12  1  0.377921  0.999864  0.378057  1
  Co  Co13  1  0.621325  0.000131  0.621194  1
  Co  Co14  1  0.111564  0.612079  0.499486  1
  Co  Co15  1  0.888361  0.388169  0.500192  1
  Sn  Sn16  1  0.500345  0.500127  0.000218  1
  Rh  Rh17  1  0.000411  0.999452  0.000959  1
