# generated using pymatgen
data_Yb3Y(Ga3Pd)6
_symmetry_space_group_name_H-M   'P 1'
_cell_length_a   7.69695042
_cell_length_b   7.69566681
_cell_length_c   9.54495500
_cell_angle_alpha   90.00000000
_cell_angle_beta   90.00000000
_cell_angle_gamma   119.68053172
_symmetry_Int_Tables_number   1
_chemical_formula_structural   Yb3Y(Ga3Pd)6
_chemical_formula_sum   'Yb3 Y1 Ga18 Pd6'
_cell_volume   491.20021667
_cell_formula_units_Z   1
loop_
 _symmetry_equiv_pos_site_id
 _symmetry_equiv_pos_as_xyz
  1  'x, y, z'
loop_
 _atom_site_type_symbol
 _atom_site_label
 _atom_site_symmetry_multiplicity
 _atom_site_fract_x
 _atom_site_fract_y
 _atom_site_fract_z
 _atom_site_occupancy
  Yb  Yb0  1  0.996751  0.668615  0.250000  1
  Yb  Yb1  1  0.001636  0.330394  0.750000  1
  Yb  Yb2  1  0.671935  0.998716  0.250000  1
  Y  Y3  1  0.330472  0.000389  0.750000  1
  Ga  Ga4  1  0.128812  0.129485  0.250000  1
  Ga  Ga5  1  0.872484  0.871533  0.750000  1
  Ga  Ga6  1  0.998644  0.335236  0.080579  1
  Ga  Ga7  1  0.999976  0.662933  0.917769  1
  Ga  Ga8  1  0.999976  0.662933  0.582231  1
  Ga  Ga9  1  0.335173  0.997519  0.417066  1
  Ga  Ga10  1  0.998644  0.335236  0.419421  1
  Ga  Ga11  1  0.667252  0.002651  0.582107  1
  Ga  Ga12  1  0.667252  0.002651  0.917893  1
  Ga  Ga13  1  0.335173  0.997519  0.082934  1
  Ga  Ga14  1  0.329200  0.330576  0.568301  1
  Ga  Ga15  1  0.669438  0.669532  0.435211  1
  Ga  Ga16  1  0.669438  0.669532  0.064789  1
  Ga  Ga17  1  0.329200  0.330576  0.931699  1
  Ga  Ga18  1  0.339729  0.547695  0.250000  1
  Ga  Ga19  1  0.657924  0.454368  0.750000  1
  Ga  Ga20  1  0.545124  0.340874  0.250000  1
  Ga  Ga21  1  0.456254  0.661950  0.750000  1
  Pd  Pd22  1  0.669106  0.329319  0.000489  1
  Pd  Pd23  1  0.330204  0.670857  0.999663  1
  Pd  Pd24  1  0.330204  0.670857  0.500337  1
  Pd  Pd25  1  0.669106  0.329319  0.499511  1
  Pd  Pd26  1  0.000448  0.999369  0.000517  1
  Pd  Pd27  1  0.000448  0.999369  0.499483  1
