# generated using pymatgen
data_Cu2AsPd5
_symmetry_space_group_name_H-M   'P 1'
_cell_length_a   4.14773700
_cell_length_b   5.38946200
_cell_length_c   10.47125200
_cell_angle_alpha   90.00000000
_cell_angle_beta   90.00000000
_cell_angle_gamma   90.00000000
_symmetry_Int_Tables_number   1
_chemical_formula_structural   Cu2AsPd5
_chemical_formula_sum   'Cu4 As2 Pd10'
_cell_volume   234.07511012
_cell_formula_units_Z   2
loop_
 _symmetry_equiv_pos_site_id
 _symmetry_equiv_pos_as_xyz
  1  'x, y, z'
loop_
 _atom_site_type_symbol
 _atom_site_label
 _atom_site_symmetry_multiplicity
 _atom_site_fract_x
 _atom_site_fract_y
 _atom_site_fract_z
 _atom_site_occupancy
  Cu  Cu0  1  0.500000  0.154110  0.143421  1
  Cu  Cu1  1  0.500000  0.845890  0.856579  1
  Cu  Cu2  1  0.500000  0.345890  0.643421  1
  Cu  Cu3  1  0.500000  0.654110  0.356579  1
  As  As4  1  0.000000  0.000000  0.500000  1
  As  As5  1  0.000000  0.500000  0.000000  1
  Pd  Pd6  1  0.500000  0.179043  0.395843  1
  Pd  Pd7  1  0.500000  0.820957  0.604157  1
  Pd  Pd8  1  0.500000  0.320957  0.895843  1
  Pd  Pd9  1  0.500000  0.679043  0.104157  1
  Pd  Pd10  1  0.000000  0.402893  0.232740  1
  Pd  Pd11  1  0.000000  0.597107  0.767260  1
  Pd  Pd12  1  0.000000  0.097107  0.732740  1
  Pd  Pd13  1  0.000000  0.902893  0.267260  1
  Pd  Pd14  1  0.000000  0.000000  0.000000  1
  Pd  Pd15  1  0.000000  0.500000  0.500000  1
