# generated using pymatgen
data_Nd4Al13Au9
_symmetry_space_group_name_H-M   'P 1'
_cell_length_a   11.76669700
_cell_length_b   11.76669543
_cell_length_c   4.26228900
_cell_angle_alpha   90.00000000
_cell_angle_beta   90.00000000
_cell_angle_gamma   120.00000159
_symmetry_Int_Tables_number   1
_chemical_formula_structural   Nd4Al13Au9
_chemical_formula_sum   'Nd4 Al13 Au9'
_cell_volume   511.07260324
_cell_formula_units_Z   1
loop_
 _symmetry_equiv_pos_site_id
 _symmetry_equiv_pos_as_xyz
  1  'x, y, z'
loop_
 _atom_site_type_symbol
 _atom_site_label
 _atom_site_symmetry_multiplicity
 _atom_site_fract_x
 _atom_site_fract_y
 _atom_site_fract_z
 _atom_site_occupancy
  Nd  Nd0  1  0.204786  0.795214  0.500000  1
  Nd  Nd1  1  0.590427  0.795214  0.500000  1
  Nd  Nd2  1  0.204786  0.409573  0.500000  1
  Nd  Nd3  1  0.666667  0.333333  0.000000  1
  Al  Al4  1  0.948501  0.292178  0.000000  1
  Al  Al5  1  0.707822  0.656323  0.000000  1
  Al  Al6  1  0.948501  0.656323  0.000000  1
  Al  Al7  1  0.343677  0.051499  0.000000  1
  Al  Al8  1  0.165063  0.082532  0.500000  1
  Al  Al9  1  0.917468  0.834937  0.500000  1
  Al  Al10  1  0.707822  0.051499  0.000000  1
  Al  Al11  1  0.532020  0.064039  0.500000  1
  Al  Al12  1  0.917468  0.082532  0.500000  1
  Al  Al13  1  0.343677  0.292178  0.000000  1
  Al  Al14  1  0.532020  0.467980  0.500000  1
  Al  Al15  1  0.935961  0.467980  0.500000  1
  Al  Al16  1  0.333333  0.666667  0.000000  1
  Au  Au17  1  0.457309  0.542691  0.000000  1
  Au  Au18  1  0.827153  0.913578  0.000000  1
  Au  Au19  1  0.457309  0.914617  0.000000  1
  Au  Au20  1  0.086422  0.172847  0.000000  1
  Au  Au21  1  0.086422  0.913578  0.000000  1
  Au  Au22  1  0.790080  0.580159  0.500000  1
  Au  Au23  1  0.085383  0.542691  0.000000  1
  Au  Au24  1  0.790080  0.209920  0.500000  1
  Au  Au25  1  0.419841  0.209920  0.500000  1
