# generated using pymatgen
data_Dy2Ni6As3P
_symmetry_space_group_name_H-M   'P 1'
_cell_length_a   3.86890700
_cell_length_b   10.74820812
_cell_length_c   12.60609231
_cell_angle_alpha   90.05230263
_cell_angle_beta   90.00000000
_cell_angle_gamma   90.00000000
_symmetry_Int_Tables_number   1
_chemical_formula_structural   Dy2Ni6As3P
_chemical_formula_sum   'Dy6 Ni18 As9 P3'
_cell_volume   524.20922538
_cell_formula_units_Z   3
loop_
 _symmetry_equiv_pos_site_id
 _symmetry_equiv_pos_as_xyz
  1  'x, y, z'
loop_
 _atom_site_type_symbol
 _atom_site_label
 _atom_site_symmetry_multiplicity
 _atom_site_fract_x
 _atom_site_fract_y
 _atom_site_fract_z
 _atom_site_occupancy
  Dy  Dy0  1  0.000000  0.494921  0.526164  1
  Dy  Dy1  1  0.500000  0.001109  0.476291  1
  Dy  Dy2  1  0.500000  0.819158  0.204205  1
  Dy  Dy3  1  0.500000  0.181327  0.204884  1
  Dy  Dy4  1  0.000000  0.679829  0.795375  1
  Dy  Dy5  1  0.000000  0.318918  0.792440  1
  Ni  Ni6  1  0.500000  0.499869  0.155129  1
  Ni  Ni7  1  0.000000  0.000133  0.844907  1
  Ni  Ni8  1  0.500000  0.492898  0.703729  1
  Ni  Ni9  1  0.000000  0.000357  0.292958  1
  Ni  Ni10  1  0.000000  0.499494  0.973374  1
  Ni  Ni11  1  0.500000  0.000482  0.025386  1
  Ni  Ni12  1  0.500000  0.338255  0.992114  1
  Ni  Ni13  1  0.500000  0.660965  0.991839  1
  Ni  Ni14  1  0.000000  0.162074  0.006899  1
  Ni  Ni15  1  0.000000  0.838084  0.007270  1
  Ni  Ni16  1  0.500000  0.301453  0.435917  1
  Ni  Ni17  1  0.500000  0.697352  0.427623  1
  Ni  Ni18  1  0.000000  0.206925  0.574979  1
  Ni  Ni19  1  0.000000  0.802369  0.573691  1
  Ni  Ni20  1  0.500000  0.880644  0.707400  1
  Ni  Ni21  1  0.500000  0.127163  0.703111  1
  Ni  Ni22  1  0.000000  0.619751  0.292446  1
  Ni  Ni23  1  0.000000  0.378935  0.292654  1
  As  As24  1  0.500000  0.498427  0.346311  1
  As  As25  1  0.000000  0.002555  0.654819  1
  As  As26  1  0.500000  0.682021  0.615310  1
  As  As27  1  0.000000  0.184733  0.385718  1
  As  As28  1  0.000000  0.815932  0.385192  1
  As  As29  1  0.500000  0.848309  0.891702  1
  As  As30  1  0.500000  0.151691  0.890573  1
  As  As31  1  0.000000  0.651047  0.107853  1
  As  As32  1  0.000000  0.348833  0.108046  1
  P  P33  1  0.500000  0.499052  0.876106  1
  P  P34  1  0.000000  0.000301  0.121876  1
  P  P35  1  0.500000  0.314630  0.615709  1
