# generated using pymatgen
data_Nd8Zr2IrRh5
_symmetry_space_group_name_H-M   'P 1'
_cell_length_a   11.17992774
_cell_length_b   11.18332600
_cell_length_c   6.38353555
_cell_angle_alpha   90.00000000
_cell_angle_beta   89.84882359
_cell_angle_gamma   90.00000000
_symmetry_Int_Tables_number   1
_chemical_formula_structural   Nd8Zr2IrRh5
_chemical_formula_sum   'Nd16 Zr4 Ir2 Rh10'
_cell_volume   798.12286169
_cell_formula_units_Z   2
loop_
 _symmetry_equiv_pos_site_id
 _symmetry_equiv_pos_as_xyz
  1  'x, y, z'
loop_
 _atom_site_type_symbol
 _atom_site_label
 _atom_site_symmetry_multiplicity
 _atom_site_fract_x
 _atom_site_fract_y
 _atom_site_fract_z
 _atom_site_occupancy
  Nd  Nd0  1  0.086891  0.286928  0.121572  1
  Nd  Nd1  1  0.786528  0.412682  0.121400  1
  Nd  Nd2  1  0.212772  0.586793  0.121185  1
  Nd  Nd3  1  0.912850  0.713208  0.121049  1
  Nd  Nd4  1  0.413109  0.786928  0.378428  1
  Nd  Nd5  1  0.587150  0.213208  0.378951  1
  Nd  Nd6  1  0.287228  0.086793  0.378815  1
  Nd  Nd7  1  0.713472  0.912682  0.378600  1
  Nd  Nd8  1  0.414216  0.213331  0.877873  1
  Nd  Nd9  1  0.712881  0.087251  0.877695  1
  Nd  Nd10  1  0.287362  0.913429  0.878591  1
  Nd  Nd11  1  0.588095  0.787675  0.878076  1
  Nd  Nd12  1  0.085784  0.713331  0.622127  1
  Nd  Nd13  1  0.911905  0.287675  0.621924  1
  Nd  Nd14  1  0.212638  0.413429  0.621409  1
  Nd  Nd15  1  0.787119  0.587251  0.622305  1
  Zr  Zr16  1  0.999403  0.999271  0.999748  1
  Zr  Zr17  1  0.500440  0.499643  0.999658  1
  Zr  Zr18  1  0.500597  0.499271  0.500252  1
  Zr  Zr19  1  0.999560  0.999643  0.500342  1
  Ir  Ir20  1  0.861324  0.861135  0.749975  1
  Ir  Ir21  1  0.638676  0.361135  0.750025  1
  Rh  Rh22  1  0.139974  0.860603  0.249785  1
  Rh  Rh23  1  0.360026  0.360603  0.250215  1
  Rh  Rh24  1  0.639099  0.639767  0.249965  1
  Rh  Rh25  1  0.860901  0.139767  0.250035  1
  Rh  Rh26  1  0.360693  0.638957  0.749888  1
  Rh  Rh27  1  0.139307  0.138957  0.750112  1
  Rh  Rh28  1  0.000526  0.499872  0.378948  1
  Rh  Rh29  1  0.499474  0.999872  0.121052  1
  Rh  Rh30  1  0.499074  0.999455  0.620569  1
  Rh  Rh31  1  0.000926  0.499455  0.879431  1
