# generated using pymatgen
data_TbDy6Co6Sn23
_symmetry_space_group_name_H-M   'P 1'
_cell_length_a   9.72981100
_cell_length_b   9.72981082
_cell_length_c   9.99455000
_cell_angle_alpha   90.00000000
_cell_angle_beta   90.00000000
_cell_angle_gamma   120.00000402
_symmetry_Int_Tables_number   1
_chemical_formula_structural   TbDy6Co6Sn23
_chemical_formula_sum   'Tb1 Dy6 Co6 Sn23'
_cell_volume   819.41264085
_cell_formula_units_Z   1
loop_
 _symmetry_equiv_pos_site_id
 _symmetry_equiv_pos_as_xyz
  1  'x, y, z'
loop_
 _atom_site_type_symbol
 _atom_site_label
 _atom_site_symmetry_multiplicity
 _atom_site_fract_x
 _atom_site_fract_y
 _atom_site_fract_z
 _atom_site_occupancy
  Tb  Tb0  1  0.000000  0.000000  0.000000  1
  Dy  Dy1  1  0.478855  0.521145  0.305744  1
  Dy  Dy2  1  0.521145  0.478855  0.694256  1
  Dy  Dy3  1  0.478855  0.957710  0.305744  1
  Dy  Dy4  1  0.521145  0.042290  0.694256  1
  Dy  Dy5  1  0.042290  0.521145  0.305744  1
  Dy  Dy6  1  0.957710  0.478855  0.694256  1
  Co  Co7  1  0.832349  0.167651  0.197327  1
  Co  Co8  1  0.167651  0.832349  0.802673  1
  Co  Co9  1  0.832349  0.664699  0.197327  1
  Co  Co10  1  0.167651  0.335301  0.802673  1
  Co  Co11  1  0.335301  0.167651  0.197327  1
  Co  Co12  1  0.664699  0.832349  0.802673  1
  Sn  Sn13  1  0.345582  0.000000  0.000000  1
  Sn  Sn14  1  0.654418  0.000000  0.000000  1
  Sn  Sn15  1  0.000000  0.345582  0.000000  1
  Sn  Sn16  1  0.000000  0.654418  0.000000  1
  Sn  Sn17  1  0.654418  0.654418  0.000000  1
  Sn  Sn18  1  0.345582  0.345582  0.000000  1
  Sn  Sn19  1  0.333333  0.666667  0.817842  1
  Sn  Sn20  1  0.666667  0.333333  0.182158  1
  Sn  Sn21  1  0.000000  0.000000  0.500000  1
  Sn  Sn22  1  0.781027  0.218973  0.452058  1
  Sn  Sn23  1  0.218973  0.781027  0.547942  1
  Sn  Sn24  1  0.781027  0.562054  0.452058  1
  Sn  Sn25  1  0.218973  0.437946  0.547942  1
  Sn  Sn26  1  0.437946  0.218973  0.452058  1
  Sn  Sn27  1  0.562054  0.781027  0.547942  1
  Sn  Sn28  1  0.333333  0.666667  0.116770  1
  Sn  Sn29  1  0.666667  0.333333  0.883230  1
  Sn  Sn30  1  0.117915  0.882085  0.275018  1
  Sn  Sn31  1  0.882085  0.117915  0.724982  1
  Sn  Sn32  1  0.117915  0.235831  0.275018  1
  Sn  Sn33  1  0.882085  0.764169  0.724982  1
  Sn  Sn34  1  0.764169  0.882085  0.275018  1
  Sn  Sn35  1  0.235831  0.117915  0.724982  1
