# generated using pymatgen
data_Tb2UMnCoSi7
_symmetry_space_group_name_H-M   'P 1'
_cell_length_a   4.04207744
_cell_length_b   4.07120500
_cell_length_c   12.31858066
_cell_angle_alpha   90.00000000
_cell_angle_beta   99.44288418
_cell_angle_gamma   90.00000000
_symmetry_Int_Tables_number   1
_chemical_formula_structural   Tb2UMnCoSi7
_chemical_formula_sum   'Tb2 U1 Mn1 Co1 Si7'
_cell_volume   199.96923763
_cell_formula_units_Z   1
loop_
 _symmetry_equiv_pos_site_id
 _symmetry_equiv_pos_as_xyz
  1  'x, y, z'
loop_
 _atom_site_type_symbol
 _atom_site_label
 _atom_site_symmetry_multiplicity
 _atom_site_fract_x
 _atom_site_fract_y
 _atom_site_fract_z
 _atom_site_occupancy
  Tb  Tb0  1  0.317256  0.000000  0.634512  1
  Tb  Tb1  1  0.684005  0.000000  0.368009  1
  U  U2  1  0.001158  0.500000  0.002316  1
  Mn  Mn3  1  0.123970  0.500000  0.247940  1
  Co  Co4  1  0.874410  0.500000  0.748820  1
  Si  Si5  1  0.498729  0.000000  0.997458  1
  Si  Si6  1  0.414990  0.500000  0.829979  1
  Si  Si7  1  0.585471  0.500000  0.170944  1
  Si  Si8  1  0.085458  0.000000  0.170915  1
  Si  Si9  1  0.914923  0.000000  0.829845  1
  Si  Si10  1  0.219698  0.500000  0.439397  1
  Si  Si11  1  0.779933  0.500000  0.559864  1
