# generated using pymatgen
data_Tb3Er3(Lu7Sb6)2
_symmetry_space_group_name_H-M   'P 1'
_cell_length_a   8.05627703
_cell_length_b   9.13134400
_cell_length_c   11.70706773
_cell_angle_alpha   90.00000000
_cell_angle_beta   89.91137532
_cell_angle_gamma   90.00000000
_symmetry_Int_Tables_number   1
_chemical_formula_structural   Tb3Er3(Lu7Sb6)2
_chemical_formula_sum   'Tb3 Er3 Lu14 Sb12'
_cell_volume   861.22515713
_cell_formula_units_Z   1
loop_
 _symmetry_equiv_pos_site_id
 _symmetry_equiv_pos_as_xyz
  1  'x, y, z'
loop_
 _atom_site_type_symbol
 _atom_site_label
 _atom_site_symmetry_multiplicity
 _atom_site_fract_x
 _atom_site_fract_y
 _atom_site_fract_z
 _atom_site_occupancy
  Tb  Tb0  1  0.675120  0.750000  0.271794  1
  Tb  Tb1  1  0.841579  0.250000  0.790785  1
  Tb  Tb2  1  0.324602  0.250000  0.728900  1
  Er  Er3  1  0.824968  0.750000  0.771956  1
  Er  Er4  1  0.658715  0.250000  0.290307  1
  Er  Er5  1  0.175372  0.250000  0.228826  1
  Lu  Lu6  1  0.309408  0.561667  0.433879  1
  Lu  Lu7  1  0.190672  0.938302  0.933903  1
  Lu  Lu8  1  0.309408  0.938333  0.433879  1
  Lu  Lu9  1  0.690301  0.438650  0.565231  1
  Lu  Lu10  1  0.809521  0.438387  0.065871  1
  Lu  Lu11  1  0.975187  0.750000  0.495027  1
  Lu  Lu12  1  0.160019  0.750000  0.209393  1
  Lu  Lu13  1  0.475143  0.250000  0.004783  1
  Lu  Lu14  1  0.809521  0.061613  0.065871  1
  Lu  Lu15  1  0.190672  0.561698  0.933903  1
  Lu  Lu16  1  0.025243  0.250000  0.503931  1
  Lu  Lu17  1  0.340249  0.750000  0.709897  1
  Lu  Lu18  1  0.690301  0.061350  0.565231  1
  Lu  Lu19  1  0.524602  0.750000  0.995204  1
  Sb  Sb20  1  0.099337  0.250000  0.975929  1
  Sb  Sb21  1  0.937762  0.491072  0.326280  1
  Sb  Sb22  1  0.434409  0.991196  0.172854  1
  Sb  Sb23  1  0.063745  0.989331  0.672743  1
  Sb  Sb24  1  0.434409  0.508804  0.172854  1
  Sb  Sb25  1  0.596887  0.750000  0.528157  1
  Sb  Sb26  1  0.401785  0.250000  0.473255  1
  Sb  Sb27  1  0.563249  0.493078  0.826745  1
  Sb  Sb28  1  0.063745  0.510669  0.672743  1
  Sb  Sb29  1  0.903057  0.750000  0.026847  1
  Sb  Sb30  1  0.563249  0.006922  0.826745  1
  Sb  Sb31  1  0.937762  0.008928  0.326280  1
