# generated using pymatgen
data_Ta6Al4CuAuC2
_symmetry_space_group_name_H-M   'P 1'
_cell_length_a   8.35843089
_cell_length_b   8.35843112
_cell_length_c   8.35632500
_cell_angle_alpha   60.00833096
_cell_angle_beta   60.00833006
_cell_angle_gamma   60.01085406
_symmetry_Int_Tables_number   1
_chemical_formula_structural   Ta6Al4CuAuC2
_chemical_formula_sum   'Ta12 Al8 Cu2 Au2 C4'
_cell_volume   412.89549317
_cell_formula_units_Z   2
loop_
 _symmetry_equiv_pos_site_id
 _symmetry_equiv_pos_as_xyz
  1  'x, y, z'
loop_
 _atom_site_type_symbol
 _atom_site_label
 _atom_site_symmetry_multiplicity
 _atom_site_fract_x
 _atom_site_fract_y
 _atom_site_fract_z
 _atom_site_occupancy
  Ta  Ta0  1  0.567701  0.931700  0.569929  1
  Ta  Ta1  1  0.318300  0.682299  0.680071  1
  Ta  Ta2  1  0.682299  0.318300  0.319331  1
  Ta  Ta3  1  0.318300  0.682299  0.319331  1
  Ta  Ta4  1  0.678532  0.678532  0.321468  1
  Ta  Ta5  1  0.315851  0.315851  0.684149  1
  Ta  Ta6  1  0.571468  0.571468  0.928532  1
  Ta  Ta7  1  0.931700  0.567701  0.569929  1
  Ta  Ta8  1  0.567701  0.931700  0.930669  1
  Ta  Ta9  1  0.934149  0.934149  0.565851  1
  Ta  Ta10  1  0.682299  0.318300  0.680071  1
  Ta  Ta11  1  0.931700  0.567701  0.930669  1
  Al  Al12  1  0.919784  0.919784  0.905317  1
  Al  Al13  1  0.997594  0.325323  0.338541  1
  Al  Al14  1  0.325323  0.997594  0.338541  1
  Al  Al15  1  0.330216  0.330216  0.994884  1
  Al  Al16  1  0.924677  0.252406  0.911459  1
  Al  Al17  1  0.919784  0.919784  0.255116  1
  Al  Al18  1  0.252406  0.924677  0.911459  1
  Al  Al19  1  0.330216  0.330216  0.344683  1
  Cu  Cu20  1  0.125000  0.125000  0.125000  1
  Cu  Cu21  1  0.125000  0.125000  0.625000  1
  Au  Au22  1  0.625000  0.125000  0.125000  1
  Au  Au23  1  0.125000  0.625000  0.125000  1
  C  C24  1  0.625000  0.625000  0.625000  1
  C  C25  1  0.125000  0.625000  0.625000  1
  C  C26  1  0.625000  0.125000  0.625000  1
  C  C27  1  0.625000  0.625000  0.125000  1
