# generated using pymatgen
data_Pm2MnRh3
_symmetry_space_group_name_H-M   'P 1'
_cell_length_a   5.60569898
_cell_length_b   5.23593547
_cell_length_c   5.60570000
_cell_angle_alpha   57.63505773
_cell_angle_beta   60.00000575
_cell_angle_gamma   57.63505562
_symmetry_Int_Tables_number   1
_chemical_formula_structural   Pm2MnRh3
_chemical_formula_sum   'Pm2 Mn1 Rh3'
_cell_volume   112.00879923
_cell_formula_units_Z   1
loop_
 _symmetry_equiv_pos_site_id
 _symmetry_equiv_pos_as_xyz
  1  'x, y, z'
loop_
 _atom_site_type_symbol
 _atom_site_label
 _atom_site_symmetry_multiplicity
 _atom_site_fract_x
 _atom_site_fract_y
 _atom_site_fract_z
 _atom_site_occupancy
  Pm  Pm0  1  0.752752  0.741745  0.752752  1
  Pm  Pm1  1  0.497248  0.508255  0.497248  1
  Mn  Mn2  1  0.125000  0.625000  0.125000  1
  Rh  Rh3  1  0.125000  0.125000  0.125000  1
  Rh  Rh4  1  0.625000  0.125000  0.125000  1
  Rh  Rh5  1  0.125000  0.125000  0.625000  1
