# generated using pymatgen
data_Y6P13PtRh19
_symmetry_space_group_name_H-M   'P 1'
_cell_length_a   13.36245800
_cell_length_b   13.36245656
_cell_length_c   3.93903900
_cell_angle_alpha   90.00000000
_cell_angle_beta   90.00000000
_cell_angle_gamma   119.99999861
_symmetry_Int_Tables_number   1
_chemical_formula_structural   Y6P13PtRh19
_chemical_formula_sum   'Y6 P13 Pt1 Rh19'
_cell_volume   609.10698249
_cell_formula_units_Z   1
loop_
 _symmetry_equiv_pos_site_id
 _symmetry_equiv_pos_as_xyz
  1  'x, y, z'
loop_
 _atom_site_type_symbol
 _atom_site_label
 _atom_site_symmetry_multiplicity
 _atom_site_fract_x
 _atom_site_fract_y
 _atom_site_fract_z
 _atom_site_occupancy
  Y  Y0  1  0.529673  0.717140  0.247902  1
  Y  Y1  1  0.282860  0.812533  0.247902  1
  Y  Y2  1  0.187467  0.470327  0.247902  1
  Y  Y3  1  0.470781  0.282517  0.752067  1
  Y  Y4  1  0.717483  0.188264  0.752067  1
  Y  Y5  1  0.811736  0.529219  0.752067  1
  P  P6  1  0.525997  0.139423  0.250600  1
  P  P7  1  0.860577  0.386575  0.250600  1
  P  P8  1  0.613425  0.474003  0.250600  1
  P  P9  1  0.945615  0.715310  0.254966  1
  P  P10  1  0.284690  0.230306  0.254966  1
  P  P11  1  0.769694  0.054385  0.254966  1
  P  P12  1  0.387654  0.524179  0.749706  1
  P  P13  1  0.475821  0.863475  0.749706  1
  P  P14  1  0.136525  0.612346  0.749706  1
  P  P15  1  0.715771  0.769581  0.745605  1
  P  P16  1  0.230419  0.946190  0.745605  1
  P  P17  1  0.053810  0.284229  0.745605  1
  P  P18  1  0.000000  0.000000  0.997456  1
  Pt  Pt19  1  0.333333  0.666667  0.750277  1
  Rh  Rh20  1  0.920957  0.249660  0.254939  1
  Rh  Rh21  1  0.750340  0.671297  0.254939  1
  Rh  Rh22  1  0.328703  0.079043  0.254939  1
  Rh  Rh23  1  0.437357  0.021776  0.752037  1
  Rh  Rh24  1  0.978224  0.415582  0.752037  1
  Rh  Rh25  1  0.584418  0.562643  0.752037  1
  Rh  Rh26  1  0.666667  0.333333  0.247774  1
  Rh  Rh27  1  0.093472  0.186312  0.246873  1
  Rh  Rh28  1  0.813688  0.907160  0.246873  1
  Rh  Rh29  1  0.092840  0.906528  0.246873  1
  Rh  Rh30  1  0.021249  0.584022  0.248365  1
  Rh  Rh31  1  0.415978  0.437226  0.248365  1
  Rh  Rh32  1  0.562774  0.978751  0.248365  1
  Rh  Rh33  1  0.671099  0.919986  0.744973  1
  Rh  Rh34  1  0.080014  0.751113  0.744973  1
  Rh  Rh35  1  0.248887  0.328901  0.744973  1
  Rh  Rh36  1  0.906161  0.812498  0.753464  1
  Rh  Rh37  1  0.187502  0.093663  0.753464  1
  Rh  Rh38  1  0.906337  0.093839  0.753464  1
