# generated using pymatgen
data_TbHo3Ga18(Co2Pt)2
_symmetry_space_group_name_H-M   'P 1'
_cell_length_a   7.47883340
_cell_length_b   7.47875918
_cell_length_c   9.41379900
_cell_angle_alpha   90.00000000
_cell_angle_beta   90.00000000
_cell_angle_gamma   119.65208546
_symmetry_Int_Tables_number   1
_chemical_formula_structural   TbHo3Ga18(Co2Pt)2
_chemical_formula_sum   'Tb1 Ho3 Ga18 Co4 Pt2'
_cell_volume   457.58403885
_cell_formula_units_Z   1
loop_
 _symmetry_equiv_pos_site_id
 _symmetry_equiv_pos_as_xyz
  1  'x, y, z'
loop_
 _atom_site_type_symbol
 _atom_site_label
 _atom_site_symmetry_multiplicity
 _atom_site_fract_x
 _atom_site_fract_y
 _atom_site_fract_z
 _atom_site_occupancy
  Tb  Tb0  1  0.322031  0.003663  0.750000  1
  Ho  Ho1  1  0.003680  0.322004  0.750000  1
  Ho  Ho2  1  0.678031  0.996304  0.250000  1
  Ho  Ho3  1  0.996300  0.678042  0.250000  1
  Ga  Ga4  1  0.654616  0.002809  0.923568  1
  Ga  Ga5  1  0.345713  0.997178  0.423415  1
  Ga  Ga6  1  0.997257  0.345728  0.423631  1
  Ga  Ga7  1  0.345713  0.997178  0.076585  1
  Ga  Ga8  1  0.002591  0.654000  0.923560  1
  Ga  Ga9  1  0.997257  0.345728  0.076368  1
  Ga  Ga10  1  0.344030  0.344353  0.564883  1
  Ga  Ga11  1  0.344030  0.344353  0.935117  1
  Ga  Ga12  1  0.655926  0.655966  0.064881  1
  Ga  Ga13  1  0.655926  0.655966  0.435119  1
  Ga  Ga14  1  0.854715  0.854892  0.750000  1
  Ga  Ga15  1  0.145036  0.145060  0.250000  1
  Ga  Ga16  1  0.333475  0.558367  0.250000  1
  Ga  Ga17  1  0.558346  0.333492  0.250000  1
  Ga  Ga18  1  0.666683  0.441961  0.750000  1
  Ga  Ga19  1  0.441663  0.666209  0.750000  1
  Ga  Ga20  1  0.654616  0.002809  0.576433  1
  Ga  Ga21  1  0.002591  0.654000  0.576440  1
  Co  Co22  1  0.329636  0.670368  0.000223  1
  Co  Co23  1  0.670438  0.329667  0.499778  1
  Co  Co24  1  0.670438  0.329667  0.000222  1
  Co  Co25  1  0.329636  0.670368  0.499777  1
  Pt  Pt26  1  0.999813  0.999935  0.000284  1
  Pt  Pt27  1  0.999813  0.999935  0.499716  1
