# generated using pymatgen
data_Ho5Si12Ni11Ru8
_symmetry_space_group_name_H-M   'P 1'
_cell_length_a   12.50080742
_cell_length_b   12.53859187
_cell_length_c   3.78418300
_cell_angle_alpha   90.00000000
_cell_angle_beta   90.00000000
_cell_angle_gamma   120.02862445
_symmetry_Int_Tables_number   1
_chemical_formula_structural   Ho5Si12Ni11Ru8
_chemical_formula_sum   'Ho5 Si12 Ni11 Ru8'
_cell_volume   513.52814804
_cell_formula_units_Z   1
loop_
 _symmetry_equiv_pos_site_id
 _symmetry_equiv_pos_as_xyz
  1  'x, y, z'
loop_
 _atom_site_type_symbol
 _atom_site_label
 _atom_site_symmetry_multiplicity
 _atom_site_fract_x
 _atom_site_fract_y
 _atom_site_fract_z
 _atom_site_occupancy
  Ho  Ho0  1  0.666347  0.332905  0.000000  1
  Ho  Ho1  1  0.332251  0.665557  0.000000  1
  Ho  Ho2  1  0.815320  0.814890  0.500000  1
  Ho  Ho3  1  0.184831  0.001539  0.500000  1
  Ho  Ho4  1  0.999160  0.184607  0.500000  1
  Si  Si5  1  0.679181  0.157592  0.500000  1
  Si  Si6  1  0.845635  0.521190  0.500000  1
  Si  Si7  1  0.478126  0.322392  0.500000  1
  Si  Si8  1  0.156673  0.676496  0.500000  1
  Si  Si9  1  0.520945  0.842900  0.500000  1
  Si  Si10  1  0.318357  0.477655  0.500000  1
  Si  Si11  1  0.178939  0.182234  0.000000  1
  Si  Si12  1  0.820644  0.999860  0.000000  1
  Si  Si13  1  0.000824  0.820611  0.000000  1
  Si  Si14  1  0.629927  0.630386  0.000000  1
  Si  Si15  1  0.368442  0.999661  0.000000  1
  Si  Si16  1  0.002720  0.368225  0.000000  1
  Ni  Ni17  1  0.128090  0.478417  0.500000  1
  Ni  Ni18  1  0.803546  0.173352  0.000000  1
  Ni  Ni19  1  0.827805  0.629811  0.000000  1
  Ni  Ni20  1  0.369369  0.196687  0.000000  1
  Ni  Ni21  1  0.173335  0.802672  0.000000  1
  Ni  Ni22  1  0.630038  0.826325  0.000000  1
  Ni  Ni23  1  0.193238  0.374171  0.000000  1
  Ni  Ni24  1  0.277310  0.277971  0.500000  1
  Ni  Ni25  1  0.722357  0.000031  0.500000  1
  Ni  Ni26  1  0.000847  0.721721  0.500000  1
  Ni  Ni27  1  0.000295  0.999400  0.000000  1
  Ru  Ru28  1  0.876745  0.349626  0.500000  1
  Ru  Ru29  1  0.652621  0.523207  0.500000  1
  Ru  Ru30  1  0.477349  0.129095  0.500000  1
  Ru  Ru31  1  0.348092  0.870362  0.500000  1
  Ru  Ru32  1  0.520198  0.650160  0.500000  1
  Ru  Ru33  1  0.436211  0.439179  0.000000  1
  Ru  Ru34  1  0.560968  0.000490  0.000000  1
  Ru  Ru35  1  0.003262  0.558626  0.000000  1
