# generated using pymatgen
data_Ac3Yb(PbAu2)2
_symmetry_space_group_name_H-M   'P 1'
_cell_length_a   8.37139522
_cell_length_b   8.37139522
_cell_length_c   4.13303000
_cell_angle_alpha   90.00000000
_cell_angle_beta   90.00000000
_cell_angle_gamma   89.03113252
_symmetry_Int_Tables_number   1
_chemical_formula_structural   Ac3Yb(PbAu2)2
_chemical_formula_sum   'Ac3 Yb1 Pb2 Au4'
_cell_volume   289.60239814
_cell_formula_units_Z   1
loop_
 _symmetry_equiv_pos_site_id
 _symmetry_equiv_pos_as_xyz
  1  'x, y, z'
loop_
 _atom_site_type_symbol
 _atom_site_label
 _atom_site_symmetry_multiplicity
 _atom_site_fract_x
 _atom_site_fract_y
 _atom_site_fract_z
 _atom_site_occupancy
  Ac  Ac0  1  0.320856  0.825436  0.000000  1
  Ac  Ac1  1  0.674564  0.179144  0.000000  1
  Ac  Ac2  1  0.827976  0.672024  0.000000  1
  Yb  Yb3  1  0.173548  0.326452  0.000000  1
  Pb  Pb4  1  0.004311  0.006961  0.500000  1
  Pb  Pb5  1  0.493039  0.495689  0.500000  1
  Au  Au6  1  0.366699  0.133301  0.500000  1
  Au  Au7  1  0.620106  0.879894  0.500000  1
  Au  Au8  1  0.889616  0.370715  0.500000  1
  Au  Au9  1  0.129285  0.610384  0.500000  1
