# generated using pymatgen
data_Dy3Er2SnSb2
_symmetry_space_group_name_H-M   'P 1'
_cell_length_a   6.39131700
_cell_length_b   8.93651188
_cell_length_c   8.93401900
_cell_angle_alpha   119.99076383
_cell_angle_beta   90.00046141
_cell_angle_gamma   89.99944923
_symmetry_Int_Tables_number   1
_chemical_formula_structural   Dy3Er2SnSb2
_chemical_formula_sum   'Dy6 Er4 Sn2 Sb4'
_cell_volume   441.95322893
_cell_formula_units_Z   2
loop_
 _symmetry_equiv_pos_site_id
 _symmetry_equiv_pos_as_xyz
  1  'x, y, z'
loop_
 _atom_site_type_symbol
 _atom_site_label
 _atom_site_symmetry_multiplicity
 _atom_site_fract_x
 _atom_site_fract_y
 _atom_site_fract_z
 _atom_site_occupancy
  Dy  Dy0  1  0.750006  0.245060  0.001619  1
  Dy  Dy1  1  0.750002  0.754918  0.756530  1
  Dy  Dy2  1  0.750006  0.999992  0.242969  1
  Dy  Dy3  1  0.249994  0.755470  0.999257  1
  Dy  Dy4  1  0.249994  0.244551  0.243797  1
  Dy  Dy5  1  0.250000  0.999998  0.755010  1
  Er  Er6  1  0.499963  0.334485  0.667241  1
  Er  Er7  1  0.499971  0.665538  0.332760  1
  Er  Er8  1  0.000037  0.665525  0.332753  1
  Er  Er9  1  0.000039  0.334470  0.667224  1
  Sn  Sn10  1  0.749997  0.608322  0.000583  1
  Sn  Sn11  1  0.750009  0.391672  0.392247  1
  Sb  Sb12  1  0.749987  0.999988  0.609006  1
  Sb  Sb13  1  0.249998  0.390567  0.999579  1
  Sb  Sb14  1  0.250003  0.609451  0.609011  1
  Sb  Sb15  1  0.249999  0.999995  0.390414  1
