# generated using pymatgen
data_Tm4Si4OsRuRh2
_symmetry_space_group_name_H-M   'P 1'
_cell_length_a   4.22694700
_cell_length_b   6.80086462
_cell_length_c   7.24495800
_cell_angle_alpha   89.96039511
_cell_angle_beta   90.00000000
_cell_angle_gamma   90.00000000
_symmetry_Int_Tables_number   1
_chemical_formula_structural   Tm4Si4OsRuRh2
_chemical_formula_sum   'Tm4 Si4 Os1 Ru1 Rh2'
_cell_volume   208.26999224
_cell_formula_units_Z   1
loop_
 _symmetry_equiv_pos_site_id
 _symmetry_equiv_pos_as_xyz
  1  'x, y, z'
loop_
 _atom_site_type_symbol
 _atom_site_label
 _atom_site_symmetry_multiplicity
 _atom_site_fract_x
 _atom_site_fract_y
 _atom_site_fract_z
 _atom_site_occupancy
  Tm  Tm0  1  0.250000  0.997553  0.812635  1
  Tm  Tm1  1  0.750000  0.004562  0.186255  1
  Tm  Tm2  1  0.250000  0.498096  0.688252  1
  Tm  Tm3  1  0.750000  0.504677  0.312144  1
  Si  Si4  1  0.250000  0.296803  0.104401  1
  Si  Si5  1  0.750000  0.701307  0.885003  1
  Si  Si6  1  0.250000  0.796395  0.396585  1
  Si  Si7  1  0.750000  0.200732  0.613539  1
  Os  Os8  1  0.750000  0.842143  0.564553  1
  Ru  Ru9  1  0.750000  0.343776  0.936786  1
  Rh  Rh10  1  0.250000  0.156821  0.434549  1
  Rh  Rh11  1  0.250000  0.657139  0.065299  1
