# generated using pymatgen
data_Ca20Zn8InPb3
_symmetry_space_group_name_H-M   'P 1'
_cell_length_a   8.05822500
_cell_length_b   8.05822500
_cell_length_c   15.11959300
_cell_angle_alpha   90.00000000
_cell_angle_beta   90.00000000
_cell_angle_gamma   90.00000000
_symmetry_Int_Tables_number   1
_chemical_formula_structural   Ca20Zn8InPb3
_chemical_formula_sum   'Ca20 Zn8 In1 Pb3'
_cell_volume   981.79062254
_cell_formula_units_Z   1
loop_
 _symmetry_equiv_pos_site_id
 _symmetry_equiv_pos_as_xyz
  1  'x, y, z'
loop_
 _atom_site_type_symbol
 _atom_site_label
 _atom_site_symmetry_multiplicity
 _atom_site_fract_x
 _atom_site_fract_y
 _atom_site_fract_z
 _atom_site_occupancy
  Ca  Ca0  1  0.673067  0.170274  0.104433  1
  Ca  Ca1  1  0.171804  0.672196  0.606184  1
  Ca  Ca2  1  0.326933  0.829726  0.104433  1
  Ca  Ca3  1  0.828196  0.327804  0.606184  1
  Ca  Ca4  1  0.829726  0.673067  0.104433  1
  Ca  Ca5  1  0.327804  0.171804  0.606184  1
  Ca  Ca6  1  0.170274  0.326933  0.104433  1
  Ca  Ca7  1  0.672196  0.828196  0.606184  1
  Ca  Ca8  1  0.829726  0.326933  0.895567  1
  Ca  Ca9  1  0.327804  0.828196  0.393816  1
  Ca  Ca10  1  0.170274  0.673067  0.895567  1
  Ca  Ca11  1  0.672196  0.171804  0.393816  1
  Ca  Ca12  1  0.673067  0.829726  0.895567  1
  Ca  Ca13  1  0.171804  0.327804  0.393816  1
  Ca  Ca14  1  0.326933  0.170274  0.895567  1
  Ca  Ca15  1  0.828196  0.672196  0.393816  1
  Ca  Ca16  1  0.500000  0.500000  0.754191  1
  Ca  Ca17  1  0.000000  0.000000  0.249159  1
  Ca  Ca18  1  0.000000  0.000000  0.750841  1
  Ca  Ca19  1  0.500000  0.500000  0.245809  1
  Zn  Zn20  1  0.613739  0.114159  0.750668  1
  Zn  Zn21  1  0.114159  0.613739  0.249332  1
  Zn  Zn22  1  0.885841  0.386261  0.249332  1
  Zn  Zn23  1  0.386261  0.885841  0.750668  1
  Zn  Zn24  1  0.885841  0.613739  0.750668  1
  Zn  Zn25  1  0.386261  0.114159  0.249332  1
  Zn  Zn26  1  0.114159  0.386261  0.750668  1
  Zn  Zn27  1  0.613739  0.885841  0.249332  1
  In  In28  1  0.000000  0.000000  0.000000  1
  Pb  Pb29  1  0.500000  0.500000  0.500000  1
  Pb  Pb30  1  0.500000  0.500000  0.000000  1
  Pb  Pb31  1  0.000000  0.000000  0.500000  1
