# generated using pymatgen
data_LaGd(Si7Ir3)2
_symmetry_space_group_name_H-M   'P 1'
_cell_length_a   8.11529514
_cell_length_b   8.11529567
_cell_length_c   8.11529700
_cell_angle_alpha   56.56535335
_cell_angle_beta   56.56535089
_cell_angle_gamma   56.56535693
_symmetry_Int_Tables_number   1
_chemical_formula_structural   LaGd(Si7Ir3)2
_chemical_formula_sum   'La1 Gd1 Si14 Ir6'
_cell_volume   347.92596254
_cell_formula_units_Z   1
loop_
 _symmetry_equiv_pos_site_id
 _symmetry_equiv_pos_as_xyz
  1  'x, y, z'
loop_
 _atom_site_type_symbol
 _atom_site_label
 _atom_site_symmetry_multiplicity
 _atom_site_fract_x
 _atom_site_fract_y
 _atom_site_fract_z
 _atom_site_occupancy
  La  La0  1  0.000000  0.000000  0.000000  1
  Gd  Gd1  1  0.500000  0.500000  0.500000  1
  Si  Si2  1  0.749578  0.749578  0.749578  1
  Si  Si3  1  0.250422  0.250422  0.250422  1
  Si  Si4  1  0.849699  0.063732  0.672330  1
  Si  Si5  1  0.672330  0.849699  0.063732  1
  Si  Si6  1  0.063732  0.672330  0.849699  1
  Si  Si7  1  0.648622  0.826300  0.436977  1
  Si  Si8  1  0.436977  0.648622  0.826300  1
  Si  Si9  1  0.826300  0.436977  0.648622  1
  Si  Si10  1  0.173700  0.563023  0.351378  1
  Si  Si11  1  0.563023  0.351378  0.173700  1
  Si  Si12  1  0.351378  0.173700  0.563023  1
  Si  Si13  1  0.936268  0.327670  0.150301  1
  Si  Si14  1  0.327670  0.150301  0.936268  1
  Si  Si15  1  0.150301  0.936268  0.327670  1
  Ir  Ir16  1  0.069385  0.433093  0.748490  1
  Ir  Ir17  1  0.251510  0.930615  0.566907  1
  Ir  Ir18  1  0.566907  0.251510  0.930615  1
  Ir  Ir19  1  0.930615  0.566907  0.251510  1
  Ir  Ir20  1  0.433093  0.748490  0.069385  1
  Ir  Ir21  1  0.748490  0.069385  0.433093  1
