# generated using pymatgen
data_Hf6SnBiRh
_symmetry_space_group_name_H-M   'P 1'
_cell_length_a   3.54851800
_cell_length_b   7.98686476
_cell_length_c   7.98686600
_cell_angle_alpha   119.99999685
_cell_angle_beta   90.00000000
_cell_angle_gamma   90.00000000
_symmetry_Int_Tables_number   1
_chemical_formula_structural   Hf6SnBiRh
_chemical_formula_sum   'Hf6 Sn1 Bi1 Rh1'
_cell_volume   196.03354197
_cell_formula_units_Z   1
loop_
 _symmetry_equiv_pos_site_id
 _symmetry_equiv_pos_as_xyz
  1  'x, y, z'
loop_
 _atom_site_type_symbol
 _atom_site_label
 _atom_site_symmetry_multiplicity
 _atom_site_fract_x
 _atom_site_fract_y
 _atom_site_fract_z
 _atom_site_occupancy
  Hf  Hf0  1  0.500000  0.752044  0.749158  1
  Hf  Hf1  1  0.500000  0.997114  0.247956  1
  Hf  Hf2  1  0.500000  0.250842  0.002886  1
  Hf  Hf3  1  0.000000  0.396057  0.391127  1
  Hf  Hf4  1  0.000000  0.995069  0.603943  1
  Hf  Hf5  1  0.000000  0.608873  0.004931  1
  Sn  Sn6  1  0.500000  0.666667  0.333333  1
  Bi  Bi7  1  0.500000  0.333333  0.666667  1
  Rh  Rh8  1  0.000000  0.000000  0.000000  1
