# generated using pymatgen
data_Er4Al12(Ga4Pt3)3
_symmetry_space_group_name_H-M   'P 1'
_cell_length_a   7.51509244
_cell_length_b   7.51638437
_cell_length_c   13.24760498
_cell_angle_alpha   84.57387326
_cell_angle_beta   100.76334828
_cell_angle_gamma   119.90345341
_symmetry_Int_Tables_number   1
_chemical_formula_structural   Er4Al12(Ga4Pt3)3
_chemical_formula_sum   'Er4 Al12 Ga12 Pt9'
_cell_volume   637.27043889
_cell_formula_units_Z   1
loop_
 _symmetry_equiv_pos_site_id
 _symmetry_equiv_pos_as_xyz
  1  'x, y, z'
loop_
 _atom_site_type_symbol
 _atom_site_label
 _atom_site_symmetry_multiplicity
 _atom_site_fract_x
 _atom_site_fract_y
 _atom_site_fract_z
 _atom_site_occupancy
  Er  Er0  1  0.735802  0.001081  0.192723  1
  Er  Er1  1  0.264198  0.998919  0.807277  1
  Er  Er2  1  0.060673  0.664531  0.191632  1
  Er  Er3  1  0.939327  0.335469  0.808368  1
  Al  Al4  1  0.852416  0.332041  0.558283  1
  Al  Al5  1  0.187103  0.999790  0.558352  1
  Al  Al6  1  0.812897  0.000210  0.441648  1
  Al  Al7  1  0.352124  0.998996  0.055464  1
  Al  Al8  1  0.647876  0.001004  0.944536  1
  Al  Al9  1  0.556532  0.994560  0.670391  1
  Al  Al10  1  0.443468  0.005440  0.329609  1
  Al  Al11  1  0.520100  0.667319  0.560910  1
  Al  Al12  1  0.479900  0.332681  0.439090  1
  Al  Al13  1  0.684530  0.667340  0.048914  1
  Al  Al14  1  0.315470  0.332660  0.951086  1
  Al  Al15  1  0.147584  0.667959  0.441717  1
  Ga  Ga16  1  0.804721  0.871137  0.815175  1
  Ga  Ga17  1  0.195279  0.128863  0.184825  1
  Ga  Ga18  1  0.982625  0.666549  0.940488  1
  Ga  Ga19  1  0.017375  0.333451  0.059512  1
  Ga  Ga20  1  0.400103  0.664232  0.816045  1
  Ga  Ga21  1  0.599897  0.335768  0.183955  1
  Ga  Ga22  1  0.884453  0.665411  0.671134  1
  Ga  Ga23  1  0.115547  0.334589  0.328866  1
  Ga  Ga24  1  0.600649  0.457237  0.815324  1
  Ga  Ga25  1  0.399351  0.542763  0.184676  1
  Ga  Ga26  1  0.228297  0.337292  0.671266  1
  Ga  Ga27  1  0.771703  0.662708  0.328734  1
  Pt  Pt28  1  0.336055  0.674526  0.000492  1
  Pt  Pt29  1  0.545792  0.322030  0.634904  1
  Pt  Pt30  1  0.454208  0.677970  0.365096  1
  Pt  Pt31  1  0.882765  0.006929  0.635861  1
  Pt  Pt32  1  0.117235  0.993071  0.364139  1
  Pt  Pt33  1  0.663945  0.325474  0.999508  1
  Pt  Pt34  1  0.207749  0.670309  0.636217  1
  Pt  Pt35  1  0.792251  0.329691  0.363783  1
  Pt  Pt36  1  0.000000  0.000000  0.000000  1
