# generated using pymatgen
data_Y4Al18Os4PdPt
_symmetry_space_group_name_H-M   'P 1'
_cell_length_a   7.60175081
_cell_length_b   7.60175008
_cell_length_c   9.56368148
_cell_angle_alpha   89.98165712
_cell_angle_beta   89.98165619
_cell_angle_gamma   119.57206233
_symmetry_Int_Tables_number   1
_chemical_formula_structural   Y4Al18Os4PdPt
_chemical_formula_sum   'Y4 Al18 Os4 Pd1 Pt1'
_cell_volume   480.66169772
_cell_formula_units_Z   1
loop_
 _symmetry_equiv_pos_site_id
 _symmetry_equiv_pos_as_xyz
  1  'x, y, z'
loop_
 _atom_site_type_symbol
 _atom_site_label
 _atom_site_symmetry_multiplicity
 _atom_site_fract_x
 _atom_site_fract_y
 _atom_site_fract_z
 _atom_site_occupancy
  Y  Y0  1  0.997617  0.670068  0.249374  1
  Y  Y1  1  0.002383  0.329932  0.750626  1
  Y  Y2  1  0.670068  0.997617  0.249374  1
  Y  Y3  1  0.329932  0.002383  0.750626  1
  Al  Al4  1  0.132919  0.132919  0.249712  1
  Al  Al5  1  0.867081  0.867081  0.750288  1
  Al  Al6  1  0.002451  0.339818  0.072043  1
  Al  Al7  1  0.997549  0.660182  0.927957  1
  Al  Al8  1  0.997394  0.659821  0.572765  1
  Al  Al9  1  0.340179  0.002606  0.427235  1
  Al  Al10  1  0.002606  0.340179  0.427235  1
  Al  Al11  1  0.659821  0.997394  0.572765  1
  Al  Al12  1  0.660182  0.997549  0.927957  1
  Al  Al13  1  0.339818  0.002451  0.072043  1
  Al  Al14  1  0.339464  0.339464  0.548855  1
  Al  Al15  1  0.660536  0.660536  0.451145  1
  Al  Al16  1  0.661575  0.661575  0.048381  1
  Al  Al17  1  0.338425  0.338425  0.951619  1
  Al  Al18  1  0.336614  0.549241  0.249805  1
  Al  Al19  1  0.663386  0.450759  0.750195  1
  Al  Al20  1  0.549241  0.336614  0.249805  1
  Al  Al21  1  0.450759  0.663386  0.750195  1
  Os  Os22  1  0.672289  0.327711  0.000000  1
  Os  Os23  1  0.327711  0.672289  0.000000  1
  Os  Os24  1  0.327650  0.672350  0.500000  1
  Os  Os25  1  0.672350  0.327650  0.500000  1
  Pd  Pd26  1  0.000000  0.000000  0.500000  1
  Pt  Pt27  1  0.000000  0.000000  0.000000  1
