# generated using pymatgen
data_DyY7(Si4Mo3)4
_symmetry_space_group_name_H-M   'P 1'
_cell_length_a   6.77824506
_cell_length_b   6.96201463
_cell_length_c   12.94105772
_cell_angle_alpha   90.00138486
_cell_angle_beta   90.00584790
_cell_angle_gamma   89.97215023
_symmetry_Int_Tables_number   1
_chemical_formula_structural   DyY7(Si4Mo3)4
_chemical_formula_sum   'Dy1 Y7 Si16 Mo12'
_cell_volume   610.69156106
_cell_formula_units_Z   1
loop_
 _symmetry_equiv_pos_site_id
 _symmetry_equiv_pos_as_xyz
  1  'x, y, z'
loop_
 _atom_site_type_symbol
 _atom_site_label
 _atom_site_symmetry_multiplicity
 _atom_site_fract_x
 _atom_site_fract_y
 _atom_site_fract_z
 _atom_site_occupancy
  Dy  Dy0  1  0.996982  0.167033  0.094136  1
  Y  Y1  1  0.497415  0.332951  0.094084  1
  Y  Y2  1  0.997549  0.167009  0.405955  1
  Y  Y3  1  0.502611  0.666914  0.594129  1
  Y  Y4  1  0.002349  0.833019  0.906309  1
  Y  Y5  1  0.502319  0.667290  0.906230  1
  Y  Y6  1  0.002393  0.833000  0.594112  1
  Y  Y7  1  0.497297  0.332928  0.405505  1
  Si  Si8  1  0.658244  0.042374  0.547667  1
  Si  Si9  1  0.158444  0.457417  0.952708  1
  Si  Si10  1  0.340752  0.958393  0.047872  1
  Si  Si11  1  0.841622  0.542251  0.452122  1
  Si  Si12  1  0.341743  0.957567  0.452058  1
  Si  Si13  1  0.841851  0.541485  0.047879  1
  Si  Si14  1  0.658409  0.042299  0.952709  1
  Si  Si15  1  0.158425  0.457863  0.547685  1
  Si  Si16  1  0.534845  0.365020  0.750229  1
  Si  Si17  1  0.034948  0.134777  0.750054  1
  Si  Si18  1  0.465326  0.635214  0.249650  1
  Si  Si19  1  0.965547  0.865765  0.249648  1
  Si  Si20  1  0.802933  0.627979  0.750303  1
  Si  Si21  1  0.302710  0.871698  0.750154  1
  Si  Si22  1  0.196756  0.371347  0.249587  1
  Si  Si23  1  0.697567  0.128383  0.249732  1
  Mo  Mo24  1  0.830836  0.334863  0.625465  1
  Mo  Mo25  1  0.330309  0.165062  0.874861  1
  Mo  Mo26  1  0.169335  0.665161  0.125364  1
  Mo  Mo27  1  0.669658  0.835116  0.374340  1
  Mo  Mo28  1  0.169238  0.665204  0.374246  1
  Mo  Mo29  1  0.669919  0.835271  0.125154  1
  Mo  Mo30  1  0.830931  0.334294  0.874917  1
  Mo  Mo31  1  0.330590  0.164864  0.625357  1
  Mo  Mo32  1  0.665850  0.999934  0.750154  1
  Mo  Mo33  1  0.165893  0.500026  0.750155  1
  Mo  Mo34  1  0.334162  0.000563  0.249718  1
  Mo  Mo35  1  0.834240  0.499663  0.249751  1
