# generated using pymatgen
data_Tb8MgCdRuPt
_symmetry_space_group_name_H-M   'P 1'
_cell_length_a   9.72558061
_cell_length_b   9.72557942
_cell_length_c   9.78741600
_cell_angle_alpha   59.78945065
_cell_angle_beta   59.78945472
_cell_angle_gamma   59.68368240
_symmetry_Int_Tables_number   1
_chemical_formula_structural   Tb8MgCdRuPt
_chemical_formula_sum   'Tb16 Mg2 Cd2 Ru2 Pt2'
_cell_volume   650.95692870
_cell_formula_units_Z   2
loop_
 _symmetry_equiv_pos_site_id
 _symmetry_equiv_pos_as_xyz
  1  'x, y, z'
loop_
 _atom_site_type_symbol
 _atom_site_label
 _atom_site_symmetry_multiplicity
 _atom_site_fract_x
 _atom_site_fract_y
 _atom_site_fract_z
 _atom_site_occupancy
  Tb  Tb0  1  0.348091  0.348091  0.352652  1
  Tb  Tb1  1  0.348091  0.348091  0.951166  1
  Tb  Tb2  1  0.344155  0.959146  0.348350  1
  Tb  Tb3  1  0.959146  0.344155  0.348350  1
  Tb  Tb4  1  0.815486  0.187644  0.189647  1
  Tb  Tb5  1  0.187644  0.815486  0.807223  1
  Tb  Tb6  1  0.187644  0.815486  0.189647  1
  Tb  Tb7  1  0.815486  0.187644  0.807223  1
  Tb  Tb8  1  0.188733  0.188733  0.811267  1
  Tb  Tb9  1  0.810441  0.810441  0.189559  1
  Tb  Tb10  1  0.938274  0.559911  0.566401  1
  Tb  Tb11  1  0.559911  0.938274  0.935414  1
  Tb  Tb12  1  0.559911  0.938274  0.566401  1
  Tb  Tb13  1  0.938274  0.559911  0.935414  1
  Tb  Tb14  1  0.564354  0.564354  0.935646  1
  Tb  Tb15  1  0.937940  0.937940  0.562060  1
  Mg  Mg16  1  0.575411  0.575411  0.581128  1
  Mg  Mg17  1  0.575411  0.575411  0.268050  1
  Cd  Cd18  1  0.582143  0.253490  0.582184  1
  Cd  Cd19  1  0.253490  0.582143  0.582184  1
  Ru  Ru20  1  0.144916  0.144916  0.135439  1
  Ru  Ru21  1  0.144916  0.144916  0.574730  1
  Pt  Pt22  1  0.146050  0.574082  0.139935  1
  Pt  Pt23  1  0.574082  0.146050  0.139935  1
