# generated using pymatgen
data_NdDy4TmTa2O14
_symmetry_space_group_name_H-M   'P 1'
_cell_length_a   6.48673307
_cell_length_b   6.47761730
_cell_length_c   7.53594494
_cell_angle_alpha   90.07426701
_cell_angle_beta   89.88942087
_cell_angle_gamma   108.97988830
_symmetry_Int_Tables_number   1
_chemical_formula_structural   NdDy4TmTa2O14
_chemical_formula_sum   'Nd1 Dy4 Tm1 Ta2 O14'
_cell_volume   299.43367391
_cell_formula_units_Z   1
loop_
 _symmetry_equiv_pos_site_id
 _symmetry_equiv_pos_as_xyz
  1  'x, y, z'
loop_
 _atom_site_type_symbol
 _atom_site_label
 _atom_site_symmetry_multiplicity
 _atom_site_fract_x
 _atom_site_fract_y
 _atom_site_fract_z
 _atom_site_occupancy
  Nd  Nd0  1  0.501018  0.500320  0.000993  1
  Dy  Dy1  1  0.537282  0.533215  0.500091  1
  Dy  Dy2  1  0.001276  0.465300  0.744767  1
  Dy  Dy3  1  0.533532  0.002009  0.750567  1
  Dy  Dy4  1  0.465117  0.000268  0.255652  1
  Tm  Tm5  1  0.002519  0.533586  0.248871  1
  Ta  Ta6  1  0.002898  0.003655  0.499188  1
  Ta  Ta7  1  0.999550  0.999834  0.001086  1
  O  O8  1  0.935476  0.066363  0.750432  1
  O  O9  1  0.066205  0.930418  0.249752  1
  O  O10  1  0.355686  0.639452  0.259507  1
  O  O11  1  0.642392  0.360846  0.742100  1
  O  O12  1  0.367972  0.632479  0.740998  1
  O  O13  1  0.638474  0.370611  0.257526  1
  O  O14  1  0.321228  0.072365  0.969256  1
  O  O15  1  0.673323  0.917601  0.472078  1
  O  O16  1  0.313393  0.061419  0.536577  1
  O  O17  1  0.678657  0.928450  0.034819  1
  O  O18  1  0.043924  0.308612  0.457502  1
  O  O19  1  0.932395  0.679172  0.966145  1
  O  O20  1  0.922331  0.674243  0.527186  1
  O  O21  1  0.065355  0.319781  0.034906  1
