# generated using pymatgen
data_Zr4In2Rh3Au
_symmetry_space_group_name_H-M   'P 1'
_cell_length_a   7.69772926
_cell_length_b   7.69772926
_cell_length_c   3.31214900
_cell_angle_alpha   90.00000000
_cell_angle_beta   90.00000000
_cell_angle_gamma   89.42693035
_symmetry_Int_Tables_number   1
_chemical_formula_structural   Zr4In2Rh3Au
_chemical_formula_sum   'Zr4 In2 Rh3 Au1'
_cell_volume   196.25169056
_cell_formula_units_Z   1
loop_
 _symmetry_equiv_pos_site_id
 _symmetry_equiv_pos_as_xyz
  1  'x, y, z'
loop_
 _atom_site_type_symbol
 _atom_site_label
 _atom_site_symmetry_multiplicity
 _atom_site_fract_x
 _atom_site_fract_y
 _atom_site_fract_z
 _atom_site_occupancy
  Zr  Zr0  1  0.159346  0.313102  0.000000  1
  Zr  Zr1  1  0.813102  0.659346  0.000000  1
  Zr  Zr2  1  0.672337  0.172337  0.000000  1
  Zr  Zr3  1  0.347033  0.847033  0.000000  1
  In  In4  1  0.997568  0.998086  0.500000  1
  In  In5  1  0.498086  0.497568  0.500000  1
  Rh  Rh6  1  0.374229  0.134412  0.500000  1
  Rh  Rh7  1  0.634412  0.874229  0.500000  1
  Rh  Rh8  1  0.873311  0.373311  0.500000  1
  Au  Au9  1  0.130576  0.630576  0.500000  1
