# generated using pymatgen
data_Er6Tm2Sc12Si15Os
_symmetry_space_group_name_H-M   'P 1'
_cell_length_a   7.04613713
_cell_length_b   7.40510922
_cell_length_c   13.89331508
_cell_angle_alpha   89.98796160
_cell_angle_beta   89.99884414
_cell_angle_gamma   90.20806819
_symmetry_Int_Tables_number   1
_chemical_formula_structural   Er6Tm2Sc12Si15Os
_chemical_formula_sum   'Er6 Tm2 Sc12 Si15 Os1'
_cell_volume   724.91247117
_cell_formula_units_Z   1
loop_
 _symmetry_equiv_pos_site_id
 _symmetry_equiv_pos_as_xyz
  1  'x, y, z'
loop_
 _atom_site_type_symbol
 _atom_site_label
 _atom_site_symmetry_multiplicity
 _atom_site_fract_x
 _atom_site_fract_y
 _atom_site_fract_z
 _atom_site_occupancy
  Er  Er0  1  0.488005  0.677290  0.904617  1
  Er  Er1  1  0.990133  0.827451  0.595320  1
  Er  Er2  1  0.511565  0.322423  0.096216  1
  Er  Er3  1  0.011995  0.180244  0.403609  1
  Er  Er4  1  0.511561  0.322428  0.403799  1
  Er  Er5  1  0.487986  0.677300  0.595401  1
  Tm  Tm6  1  0.012011  0.180296  0.096434  1
  Tm  Tm7  1  0.990125  0.827483  0.904612  1
  Sc  Sc8  1  0.156245  0.498373  0.750009  1
  Sc  Sc9  1  0.838875  0.495481  0.249983  1
  Sc  Sc10  1  0.339987  0.006623  0.249984  1
  Sc  Sc11  1  0.668190  0.996490  0.750017  1
  Sc  Sc12  1  0.316415  0.171440  0.627453  1
  Sc  Sc13  1  0.672722  0.826332  0.373634  1
  Sc  Sc14  1  0.171947  0.678156  0.374012  1
  Sc  Sc15  1  0.672752  0.826361  0.126344  1
  Sc  Sc16  1  0.837370  0.318683  0.627840  1
  Sc  Sc17  1  0.316314  0.171383  0.872557  1
  Sc  Sc18  1  0.837409  0.318634  0.872169  1
  Sc  Sc19  1  0.171921  0.678184  0.125961  1
  Si  Si20  1  0.969994  0.886842  0.249968  1
  Si  Si21  1  0.470524  0.613422  0.249993  1
  Si  Si22  1  0.528518  0.389666  0.750006  1
  Si  Si23  1  0.285112  0.863838  0.750043  1
  Si  Si24  1  0.714276  0.132618  0.249954  1
  Si  Si25  1  0.214816  0.369647  0.249945  1
  Si  Si26  1  0.778164  0.627784  0.750040  1
  Si  Si27  1  0.160197  0.468879  0.537045  1
  Si  Si28  1  0.843677  0.535792  0.461525  1
  Si  Si29  1  0.344288  0.966558  0.459726  1
  Si  Si30  1  0.843732  0.535773  0.038479  1
  Si  Si31  1  0.655448  0.033973  0.538381  1
  Si  Si32  1  0.160150  0.468902  0.962960  1
  Si  Si33  1  0.655596  0.033914  0.961607  1
  Si  Si34  1  0.344128  0.966605  0.040288  1
  Os  Os35  1  0.027851  0.104733  0.750069  1
