# generated using pymatgen
data_TbNd5(TmIn4)2
_symmetry_space_group_name_H-M   'P 1'
_cell_length_a   6.68283223
_cell_length_b   6.68283281
_cell_length_c   10.10354600
_cell_angle_alpha   90.00000000
_cell_angle_beta   90.00000000
_cell_angle_gamma   97.96399004
_symmetry_Int_Tables_number   1
_chemical_formula_structural   TbNd5(TmIn4)2
_chemical_formula_sum   'Tb1 Nd5 Tm2 In8'
_cell_volume   446.87496665
_cell_formula_units_Z   1
loop_
 _symmetry_equiv_pos_site_id
 _symmetry_equiv_pos_as_xyz
  1  'x, y, z'
loop_
 _atom_site_type_symbol
 _atom_site_label
 _atom_site_symmetry_multiplicity
 _atom_site_fract_x
 _atom_site_fract_y
 _atom_site_fract_z
 _atom_site_occupancy
  Tb  Tb0  1  0.473291  0.473291  0.750000  1
  Nd  Nd1  1  0.528276  0.528276  0.250000  1
  Nd  Nd2  1  0.245035  0.752428  0.499998  1
  Nd  Nd3  1  0.245035  0.752428  0.000002  1
  Nd  Nd4  1  0.752428  0.245035  0.499998  1
  Nd  Nd5  1  0.752428  0.245035  0.000002  1
  Tm  Tm6  1  0.984923  0.984923  0.250000  1
  Tm  Tm7  1  0.020270  0.020270  0.750000  1
  In  In8  1  0.250063  0.250063  0.015496  1
  In  In9  1  0.749256  0.749256  0.978077  1
  In  In10  1  0.250063  0.250063  0.484504  1
  In  In11  1  0.749256  0.749256  0.521923  1
  In  In12  1  0.483669  0.019430  0.250000  1
  In  In13  1  0.980937  0.515641  0.750000  1
  In  In14  1  0.515641  0.980937  0.750000  1
  In  In15  1  0.019430  0.483669  0.250000  1
