# generated using pymatgen
data_TaInCl6
_symmetry_space_group_name_H-M   'P 1'
_cell_length_a   7.39197702
_cell_length_b   7.39169861
_cell_length_c   7.35720568
_cell_angle_alpha   120.15642794
_cell_angle_beta   89.99428069
_cell_angle_gamma   120.00026847
_symmetry_Int_Tables_number   1
_chemical_formula_structural   TaInCl6
_chemical_formula_sum   'Ta1 In1 Cl6'
_cell_volume   283.59068309
_cell_formula_units_Z   1
loop_
 _symmetry_equiv_pos_site_id
 _symmetry_equiv_pos_as_xyz
  1  'x, y, z'
loop_
 _atom_site_type_symbol
 _atom_site_label
 _atom_site_symmetry_multiplicity
 _atom_site_fract_x
 _atom_site_fract_y
 _atom_site_fract_z
 _atom_site_occupancy
  Ta  Ta0  1  0.333246  0.666417  0.999580  1
  In  In1  1  0.665692  0.331712  0.997682  1
  Cl  Cl2  1  0.145992  0.817418  0.229269  1
  Cl  Cl3  1  0.671382  0.083176  0.229217  1
  Cl  Cl4  1  0.411759  0.557703  0.229195  1
  Cl  Cl5  1  0.522937  0.519804  0.771682  1
  Cl  Cl6  1  0.252042  0.774856  0.771677  1
  Cl  Cl7  1  0.996950  0.248912  0.771696  1
