# generated using pymatgen
data_Er15Th(InPt)4
_symmetry_space_group_name_H-M   'P 1'
_cell_length_a   9.66542432
_cell_length_b   9.66542448
_cell_length_c   9.66542360
_cell_angle_alpha   60.14561252
_cell_angle_beta   60.14561364
_cell_angle_gamma   60.14561476
_symmetry_Int_Tables_number   1
_chemical_formula_structural   Er15Th(InPt)4
_chemical_formula_sum   'Er15 Th1 In4 Pt4'
_cell_volume   640.58661903
_cell_formula_units_Z   1
loop_
 _symmetry_equiv_pos_site_id
 _symmetry_equiv_pos_as_xyz
  1  'x, y, z'
loop_
 _atom_site_type_symbol
 _atom_site_label
 _atom_site_symmetry_multiplicity
 _atom_site_fract_x
 _atom_site_fract_y
 _atom_site_fract_z
 _atom_site_occupancy
  Er  Er0  1  0.352243  0.352243  0.941252  1
  Er  Er1  1  0.352243  0.941252  0.352243  1
  Er  Er2  1  0.941252  0.352243  0.352243  1
  Er  Er3  1  0.812832  0.189108  0.189108  1
  Er  Er4  1  0.194584  0.809326  0.809326  1
  Er  Er5  1  0.189108  0.812832  0.189108  1
  Er  Er6  1  0.809326  0.194584  0.809326  1
  Er  Er7  1  0.189108  0.189108  0.812832  1
  Er  Er8  1  0.809326  0.809326  0.194584  1
  Er  Er9  1  0.934433  0.564863  0.564863  1
  Er  Er10  1  0.562026  0.939895  0.939895  1
  Er  Er11  1  0.564863  0.934433  0.564863  1
  Er  Er12  1  0.939895  0.562026  0.939895  1
  Er  Er13  1  0.564863  0.564863  0.934433  1
  Er  Er14  1  0.939895  0.939895  0.562026  1
  Th  Th15  1  0.347999  0.347999  0.347999  1
  In  In16  1  0.585526  0.585526  0.585526  1
  In  In17  1  0.584043  0.584043  0.249075  1
  In  In18  1  0.584043  0.249075  0.584043  1
  In  In19  1  0.249075  0.584043  0.584043  1
  Pt  Pt20  1  0.143918  0.143918  0.143918  1
  Pt  Pt21  1  0.138511  0.138511  0.572383  1
  Pt  Pt22  1  0.138511  0.572383  0.138511  1
  Pt  Pt23  1  0.572383  0.138511  0.138511  1
