# generated using pymatgen
data_Pr2Ga4GeIr2Rh
_symmetry_space_group_name_H-M   'P 1'
_cell_length_a   8.62668658
_cell_length_b   8.72493047
_cell_length_c   8.72493059
_cell_angle_alpha   140.86194182
_cell_angle_beta   108.11687492
_cell_angle_gamma   85.17984335
_symmetry_Int_Tables_number   1
_chemical_formula_structural   Pr2Ga4GeIr2Rh
_chemical_formula_sum   'Pr4 Ga8 Ge2 Ir4 Rh2'
_cell_volume   380.19589959
_cell_formula_units_Z   2
loop_
 _symmetry_equiv_pos_site_id
 _symmetry_equiv_pos_as_xyz
  1  'x, y, z'
loop_
 _atom_site_type_symbol
 _atom_site_label
 _atom_site_symmetry_multiplicity
 _atom_site_fract_x
 _atom_site_fract_y
 _atom_site_fract_z
 _atom_site_occupancy
  Pr  Pr0  1  0.863116  0.634135  0.228980  1
  Pr  Pr1  1  0.136884  0.365865  0.771020  1
  Pr  Pr2  1  0.591825  0.862903  0.728923  1
  Pr  Pr3  1  0.408175  0.137097  0.271077  1
  Ga  Ga4  1  0.500000  0.752163  0.252163  1
  Ga  Ga5  1  0.500000  0.247837  0.747837  1
  Ga  Ga6  1  0.210919  0.960382  0.748327  1
  Ga  Ga7  1  0.789081  0.537407  0.749464  1
  Ga  Ga8  1  0.789081  0.039618  0.251673  1
  Ga  Ga9  1  0.210919  0.462593  0.250536  1
  Ga  Ga10  1  0.075044  0.908301  0.166744  1
  Ga  Ga11  1  0.924956  0.091699  0.833256  1
  Ge  Ge12  1  0.260058  0.593551  0.666507  1
  Ge  Ge13  1  0.739942  0.406449  0.333493  1
  Ir  Ir14  1  0.253467  0.853513  0.399954  1
  Ir  Ir15  1  0.746533  0.146487  0.600046  1
  Ir  Ir16  1  0.545675  0.645176  0.900498  1
  Ir  Ir17  1  0.454325  0.354824  0.099502  1
  Rh  Rh18  1  0.000000  0.748411  0.748411  1
  Rh  Rh19  1  0.000000  0.251589  0.251589  1
