# generated using pymatgen
data_Na4Ac3NdTe8
_symmetry_space_group_name_H-M   'P 1'
_cell_length_a   9.44372371
_cell_length_b   9.44372363
_cell_length_c   9.44372200
_cell_angle_alpha   60.39675168
_cell_angle_beta   60.39675892
_cell_angle_gamma   60.39675598
_symmetry_Int_Tables_number   1
_chemical_formula_structural   Na4Ac3NdTe8
_chemical_formula_sum   'Na4 Ac3 Nd1 Te8'
_cell_volume   600.88883633
_cell_formula_units_Z   1
loop_
 _symmetry_equiv_pos_site_id
 _symmetry_equiv_pos_as_xyz
  1  'x, y, z'
loop_
 _atom_site_type_symbol
 _atom_site_label
 _atom_site_symmetry_multiplicity
 _atom_site_fract_x
 _atom_site_fract_y
 _atom_site_fract_z
 _atom_site_occupancy
  Na  Na0  1  0.125000  0.625000  0.125000  1
  Na  Na1  1  0.125000  0.125000  0.625000  1
  Na  Na2  1  0.625000  0.125000  0.125000  1
  Na  Na3  1  0.125000  0.125000  0.125000  1
  Ac  Ac4  1  0.625000  0.125000  0.625000  1
  Ac  Ac5  1  0.125000  0.625000  0.625000  1
  Ac  Ac6  1  0.625000  0.625000  0.125000  1
  Nd  Nd7  1  0.625000  0.625000  0.625000  1
  Te  Te8  1  0.382807  0.866300  0.382807  1
  Te  Te9  1  0.867193  0.383700  0.867193  1
  Te  Te10  1  0.867193  0.867193  0.383700  1
  Te  Te11  1  0.874214  0.874214  0.874214  1
  Te  Te12  1  0.866300  0.382807  0.382807  1
  Te  Te13  1  0.382807  0.382807  0.866300  1
  Te  Te14  1  0.375786  0.375786  0.375786  1
  Te  Te15  1  0.383700  0.867193  0.867193  1
