# generated using pymatgen
data_Cs8Zr(US4)3
_symmetry_space_group_name_H-M   'P 1'
_cell_length_a   13.84795479
_cell_length_b   6.75887169
_cell_length_c   9.17471500
_cell_angle_alpha   71.95974452
_cell_angle_beta   89.85266381
_cell_angle_gamma   89.76229755
_symmetry_Int_Tables_number   1
_chemical_formula_structural   Cs8Zr(US4)3
_chemical_formula_sum   'Cs8 Zr1 U3 S12'
_cell_volume   816.49842232
_cell_formula_units_Z   1
loop_
 _symmetry_equiv_pos_site_id
 _symmetry_equiv_pos_as_xyz
  1  'x, y, z'
loop_
 _atom_site_type_symbol
 _atom_site_label
 _atom_site_symmetry_multiplicity
 _atom_site_fract_x
 _atom_site_fract_y
 _atom_site_fract_z
 _atom_site_occupancy
  Cs  Cs0  1  0.953265  0.674762  0.661191  1
  Cs  Cs1  1  0.456499  0.828725  0.335280  1
  Cs  Cs2  1  0.042997  0.324284  0.335757  1
  Cs  Cs3  1  0.547090  0.168532  0.660093  1
  Cs  Cs4  1  0.870707  0.092209  0.891495  1
  Cs  Cs5  1  0.373711  0.414484  0.109455  1
  Cs  Cs6  1  0.126047  0.914430  0.109981  1
  Cs  Cs7  1  0.629908  0.578332  0.890566  1
  Zr  Zr8  1  0.749223  0.156656  0.298618  1
  U  U9  1  0.750562  0.657277  0.298614  1
  U  U10  1  0.250503  0.842468  0.702487  1
  U  U11  1  0.249321  0.342741  0.702081  1
  S  S12  1  0.897294  0.920681  0.282441  1
  S  S13  1  0.402792  0.586566  0.714773  1
  S  S14  1  0.097353  0.087552  0.716067  1
  S  S15  1  0.602538  0.409596  0.282770  1
  S  S16  1  0.814227  0.313772  0.507485  1
  S  S17  1  0.317790  0.181694  0.487650  1
  S  S18  1  0.181955  0.682738  0.487777  1
  S  S19  1  0.686247  0.827647  0.508043  1
  S  S20  1  0.833903  0.485680  0.100156  1
  S  S21  1  0.335074  0.004974  0.908442  1
  S  S22  1  0.164566  0.506601  0.908491  1
  S  S23  1  0.666428  0.997594  0.100292  1
