# generated using pymatgen
data_Yb5PrSm2(Cu2Sn5)2
_symmetry_space_group_name_H-M   'P 1'
_cell_length_a   4.48293300
_cell_length_b   8.84777500
_cell_length_c   14.17412300
_cell_angle_alpha   90.00000000
_cell_angle_beta   90.00000000
_cell_angle_gamma   90.00000000
_symmetry_Int_Tables_number   1
_chemical_formula_structural   Yb5PrSm2(Cu2Sn5)2
_chemical_formula_sum   'Yb5 Pr1 Sm2 Cu4 Sn10'
_cell_volume   562.20216697
_cell_formula_units_Z   1
loop_
 _symmetry_equiv_pos_site_id
 _symmetry_equiv_pos_as_xyz
  1  'x, y, z'
loop_
 _atom_site_type_symbol
 _atom_site_label
 _atom_site_symmetry_multiplicity
 _atom_site_fract_x
 _atom_site_fract_y
 _atom_site_fract_z
 _atom_site_occupancy
  Yb  Yb0  1  0.500000  0.791658  0.741815  1
  Yb  Yb1  1  0.000000  0.204864  0.753704  1
  Yb  Yb2  1  0.000000  0.204864  0.246296  1
  Yb  Yb3  1  0.000000  0.864294  0.500000  1
  Yb  Yb4  1  0.500000  0.791658  0.258185  1
  Pr  Pr5  1  0.500000  0.141903  0.000000  1
  Sm  Sm6  1  0.500000  0.695342  0.000000  1
  Sm  Sm7  1  0.000000  0.297018  0.500000  1
  Cu  Cu8  1  0.500000  0.378083  0.645036  1
  Cu  Cu9  1  0.000000  0.624297  0.851307  1
  Cu  Cu10  1  0.000000  0.624297  0.148693  1
  Cu  Cu11  1  0.500000  0.378083  0.354964  1
  Sn  Sn12  1  0.500000  0.082826  0.395821  1
  Sn  Sn13  1  0.000000  0.552893  0.663094  1
  Sn  Sn14  1  0.000000  0.415453  0.000000  1
  Sn  Sn15  1  0.500000  0.444807  0.165511  1
  Sn  Sn16  1  0.500000  0.593671  0.500000  1
  Sn  Sn17  1  0.500000  0.444807  0.834489  1
  Sn  Sn18  1  0.000000  0.916731  0.896018  1
  Sn  Sn19  1  0.000000  0.552893  0.336906  1
  Sn  Sn20  1  0.500000  0.082826  0.604179  1
  Sn  Sn21  1  0.000000  0.916731  0.103982  1
