# generated using pymatgen
data_Tb2Ga9PdRu2
_symmetry_space_group_name_H-M   'P 1'
_cell_length_a   7.58279202
_cell_length_b   7.58305213
_cell_length_c   9.64645800
_cell_angle_alpha   90.00000000
_cell_angle_beta   90.00000000
_cell_angle_gamma   119.69746274
_symmetry_Int_Tables_number   1
_chemical_formula_structural   Tb2Ga9PdRu2
_chemical_formula_sum   'Tb4 Ga18 Pd2 Ru4'
_cell_volume   481.82309724
_cell_formula_units_Z   2
loop_
 _symmetry_equiv_pos_site_id
 _symmetry_equiv_pos_as_xyz
  1  'x, y, z'
loop_
 _atom_site_type_symbol
 _atom_site_label
 _atom_site_symmetry_multiplicity
 _atom_site_fract_x
 _atom_site_fract_y
 _atom_site_fract_z
 _atom_site_occupancy
  Tb  Tb0  1  0.997912  0.671137  0.250000  1
  Tb  Tb1  1  0.002088  0.328863  0.750000  1
  Tb  Tb2  1  0.671158  0.997918  0.250000  1
  Tb  Tb3  1  0.328842  0.002082  0.750000  1
  Ga  Ga4  1  0.132058  0.132058  0.250000  1
  Ga  Ga5  1  0.867942  0.867942  0.750000  1
  Ga  Ga6  1  0.003807  0.339899  0.078458  1
  Ga  Ga7  1  0.996193  0.660101  0.921542  1
  Ga  Ga8  1  0.996193  0.660101  0.578458  1
  Ga  Ga9  1  0.339888  0.003809  0.421554  1
  Ga  Ga10  1  0.003807  0.339899  0.421542  1
  Ga  Ga11  1  0.660112  0.996191  0.578446  1
  Ga  Ga12  1  0.660112  0.996191  0.921554  1
  Ga  Ga13  1  0.339888  0.003809  0.078446  1
  Ga  Ga14  1  0.341575  0.341576  0.564773  1
  Ga  Ga15  1  0.658425  0.658424  0.435227  1
  Ga  Ga16  1  0.658425  0.658424  0.064773  1
  Ga  Ga17  1  0.341575  0.341576  0.935227  1
  Ga  Ga18  1  0.336335  0.551098  0.250000  1
  Ga  Ga19  1  0.663665  0.448902  0.750000  1
  Ga  Ga20  1  0.551105  0.336349  0.250000  1
  Ga  Ga21  1  0.448895  0.663651  0.750000  1
  Pd  Pd22  1  0.000000  0.000000  0.000000  1
  Pd  Pd23  1  0.000000  0.000000  0.500000  1
  Ru  Ru24  1  0.673695  0.326294  0.999999  1
  Ru  Ru25  1  0.326305  0.673706  0.000001  1
  Ru  Ru26  1  0.326305  0.673706  0.499999  1
  Ru  Ru27  1  0.673695  0.326294  0.500001  1
