# generated using pymatgen
data_Tm2Co8Tc4P7
_symmetry_space_group_name_H-M   'P 1'
_cell_length_a   9.04790633
_cell_length_b   9.05986104
_cell_length_c   3.73649700
_cell_angle_alpha   90.00000000
_cell_angle_beta   90.00000000
_cell_angle_gamma   119.72199209
_symmetry_Int_Tables_number   1
_chemical_formula_structural   Tm2Co8Tc4P7
_chemical_formula_sum   'Tm2 Co8 Tc4 P7'
_cell_volume   265.99576815
_cell_formula_units_Z   1
loop_
 _symmetry_equiv_pos_site_id
 _symmetry_equiv_pos_as_xyz
  1  'x, y, z'
loop_
 _atom_site_type_symbol
 _atom_site_label
 _atom_site_symmetry_multiplicity
 _atom_site_fract_x
 _atom_site_fract_y
 _atom_site_fract_z
 _atom_site_occupancy
  Tm  Tm0  1  0.332692  0.667041  0.000000  1
  Tm  Tm1  1  0.001523  0.001735  0.500000  1
  Co  Co2  1  0.729862  0.964289  0.000000  1
  Co  Co3  1  0.225849  0.265465  0.000000  1
  Co  Co4  1  0.043649  0.768805  0.000000  1
  Co  Co5  1  0.948183  0.455014  0.000000  1
  Co  Co6  1  0.506303  0.049731  0.000000  1
  Co  Co7  1  0.101776  0.385313  0.500000  1
  Co  Co8  1  0.281680  0.893375  0.500000  1
  Co  Co9  1  0.616459  0.727269  0.500000  1
  Tc  Tc10  1  0.545479  0.492228  0.000000  1
  Tc  Tc11  1  0.762444  0.208142  0.500000  1
  Tc  Tc12  1  0.439601  0.228950  0.500000  1
  Tc  Tc13  1  0.795915  0.560074  0.500000  1
  P  P14  1  0.963648  0.219638  0.000000  1
  P  P15  1  0.254614  0.033282  0.000000  1
  P  P16  1  0.787589  0.754122  0.000000  1
  P  P17  1  0.077245  0.624065  0.500000  1
  P  P18  1  0.547909  0.924732  0.500000  1
  P  P19  1  0.368257  0.449393  0.500000  1
  P  P20  1  0.669324  0.327333  0.000000  1
