# generated using pymatgen
data_YbPa(Ga3Ir)3
_symmetry_space_group_name_H-M   'P 1'
_cell_length_a   7.63147452
_cell_length_b   7.63620333
_cell_length_c   9.42146300
_cell_angle_alpha   90.00000000
_cell_angle_beta   90.00000000
_cell_angle_gamma   120.02269251
_symmetry_Int_Tables_number   1
_chemical_formula_structural   YbPa(Ga3Ir)3
_chemical_formula_sum   'Yb2 Pa2 Ga18 Ir6'
_cell_volume   475.37415674
_cell_formula_units_Z   2
loop_
 _symmetry_equiv_pos_site_id
 _symmetry_equiv_pos_as_xyz
  1  'x, y, z'
loop_
 _atom_site_type_symbol
 _atom_site_label
 _atom_site_symmetry_multiplicity
 _atom_site_fract_x
 _atom_site_fract_y
 _atom_site_fract_z
 _atom_site_occupancy
  Yb  Yb0  1  0.996807  0.669000  0.750000  1
  Yb  Yb1  1  0.003193  0.331000  0.250000  1
  Pa  Pa2  1  0.668266  0.999221  0.750000  1
  Pa  Pa3  1  0.331734  0.000779  0.250000  1
  Ga  Ga4  1  0.127942  0.129589  0.750000  1
  Ga  Ga5  1  0.872058  0.870411  0.250000  1
  Ga  Ga6  1  0.002621  0.340596  0.579548  1
  Ga  Ga7  1  0.997379  0.659404  0.420452  1
  Ga  Ga8  1  0.997379  0.659404  0.079548  1
  Ga  Ga9  1  0.327643  0.996275  0.915668  1
  Ga  Ga10  1  0.002621  0.340596  0.920452  1
  Ga  Ga11  1  0.672357  0.003725  0.084332  1
  Ga  Ga12  1  0.672357  0.003725  0.415668  1
  Ga  Ga13  1  0.327643  0.996275  0.584332  1
  Ga  Ga14  1  0.329934  0.335277  0.067804  1
  Ga  Ga15  1  0.670066  0.664723  0.932196  1
  Ga  Ga16  1  0.670066  0.664723  0.567804  1
  Ga  Ga17  1  0.329934  0.335277  0.432196  1
  Ga  Ga18  1  0.339207  0.545181  0.750000  1
  Ga  Ga19  1  0.660793  0.454819  0.250000  1
  Ga  Ga20  1  0.546186  0.340836  0.750000  1
  Ga  Ga21  1  0.453814  0.659164  0.250000  1
  Ir  Ir22  1  0.665516  0.321179  0.500330  1
  Ir  Ir23  1  0.334484  0.678821  0.499670  1
  Ir  Ir24  1  0.334484  0.678821  0.000330  1
  Ir  Ir25  1  0.665516  0.321179  0.999670  1
  Ir  Ir26  1  0.000000  0.000000  0.500000  1
  Ir  Ir27  1  0.000000  0.000000  0.000000  1
