# generated using pymatgen
data_BaP3Rh4
_symmetry_space_group_name_H-M   'P 1'
_cell_length_a   3.96737700
_cell_length_b   3.96737700
_cell_length_c   9.11504300
_cell_angle_alpha   90.00000000
_cell_angle_beta   90.00000000
_cell_angle_gamma   90.00000000
_symmetry_Int_Tables_number   1
_chemical_formula_structural   BaP3Rh4
_chemical_formula_sum   'Ba1 P3 Rh4'
_cell_volume   143.47150839
_cell_formula_units_Z   1
loop_
 _symmetry_equiv_pos_site_id
 _symmetry_equiv_pos_as_xyz
  1  'x, y, z'
loop_
 _atom_site_type_symbol
 _atom_site_label
 _atom_site_symmetry_multiplicity
 _atom_site_fract_x
 _atom_site_fract_y
 _atom_site_fract_z
 _atom_site_occupancy
  Ba  Ba0  1  0.000000  0.000000  0.500000  1
  P  P1  1  0.000000  0.000000  0.000000  1
  P  P2  1  0.499999  0.499999  0.292530  1
  P  P3  1  0.499999  0.499999  0.707470  1
  Rh  Rh4  1  0.499999  0.000000  0.156981  1
  Rh  Rh5  1  0.000000  0.499999  0.156981  1
  Rh  Rh6  1  0.499999  0.000000  0.843019  1
  Rh  Rh7  1  0.000000  0.499999  0.843019  1
