# generated using pymatgen
data_TmLuFe3Re14C3
_symmetry_space_group_name_H-M   'P 1'
_cell_length_a   6.91541615
_cell_length_b   6.91541629
_cell_length_c   6.91541505
_cell_angle_alpha   82.41599709
_cell_angle_beta   82.41600116
_cell_angle_gamma   82.41599935
_symmetry_Int_Tables_number   1
_chemical_formula_structural   TmLuFe3Re14C3
_chemical_formula_sum   'Tm1 Lu1 Fe3 Re14 C3'
_cell_volume   322.73893364
_cell_formula_units_Z   1
loop_
 _symmetry_equiv_pos_site_id
 _symmetry_equiv_pos_as_xyz
  1  'x, y, z'
loop_
 _atom_site_type_symbol
 _atom_site_label
 _atom_site_symmetry_multiplicity
 _atom_site_fract_x
 _atom_site_fract_y
 _atom_site_fract_z
 _atom_site_occupancy
  Tm  Tm0  1  0.350502  0.350502  0.350502  1
  Lu  Lu1  1  0.649510  0.649510  0.649510  1
  Fe  Fe2  1  0.999992  0.999992  0.500000  1
  Fe  Fe3  1  0.999992  0.500000  0.999992  1
  Fe  Fe4  1  0.500000  0.999992  0.999992  1
  Re  Re5  1  0.102635  0.102635  0.102635  1
  Re  Re6  1  0.897262  0.897262  0.897262  1
  Re  Re7  1  0.722163  0.277872  0.999958  1
  Re  Re8  1  0.277872  0.999958  0.722163  1
  Re  Re9  1  0.999958  0.722163  0.277872  1
  Re  Re10  1  0.277872  0.722163  0.999958  1
  Re  Re11  1  0.722163  0.999958  0.277872  1
  Re  Re12  1  0.999958  0.277872  0.722163  1
  Re  Re13  1  0.140479  0.652732  0.652732  1
  Re  Re14  1  0.652732  0.652732  0.140479  1
  Re  Re15  1  0.652732  0.140479  0.652732  1
  Re  Re16  1  0.347404  0.859373  0.347404  1
  Re  Re17  1  0.347404  0.347404  0.859373  1
  Re  Re18  1  0.859373  0.347404  0.347404  1
  C  C19  1  0.500148  0.500148  0.999700  1
  C  C20  1  0.500148  0.999700  0.500148  1
  C  C21  1  0.999700  0.500148  0.500148  1
