# generated using pymatgen
data_Ca(Eu3Sn2)3
_symmetry_space_group_name_H-M   'P 1'
_cell_length_a   9.81906003
_cell_length_b   9.81905999
_cell_length_c   9.81906004
_cell_angle_alpha   129.76987947
_cell_angle_beta   129.76988288
_cell_angle_gamma   73.77491966
_symmetry_Int_Tables_number   1
_chemical_formula_structural   Ca(Eu3Sn2)3
_chemical_formula_sum   'Ca1 Eu9 Sn6'
_cell_volume   545.61611932
_cell_formula_units_Z   1
loop_
 _symmetry_equiv_pos_site_id
 _symmetry_equiv_pos_as_xyz
  1  'x, y, z'
loop_
 _atom_site_type_symbol
 _atom_site_label
 _atom_site_symmetry_multiplicity
 _atom_site_fract_x
 _atom_site_fract_y
 _atom_site_fract_z
 _atom_site_occupancy
  Ca  Ca0  1  0.000000  0.000000  0.000000  1
  Eu  Eu1  1  0.820237  0.319233  0.846402  1
  Eu  Eu2  1  0.179763  0.680767  0.153598  1
  Eu  Eu3  1  0.472831  0.973835  0.153598  1
  Eu  Eu4  1  0.319233  0.472831  0.498996  1
  Eu  Eu5  1  0.026165  0.179763  0.498996  1
  Eu  Eu6  1  0.527169  0.026165  0.846402  1
  Eu  Eu7  1  0.680767  0.527169  0.501004  1
  Eu  Eu8  1  0.973835  0.820237  0.501004  1
  Eu  Eu9  1  0.500000  0.500000  0.000000  1
  Sn  Sn10  1  0.122614  0.626647  0.749263  1
  Sn  Sn11  1  0.877386  0.373353  0.250737  1
  Sn  Sn12  1  0.626647  0.877386  0.504033  1
  Sn  Sn13  1  0.373353  0.122614  0.495967  1
  Sn  Sn14  1  0.249964  0.249964  0.000000  1
  Sn  Sn15  1  0.750036  0.750036  0.000000  1
