# generated using pymatgen
data_Er3Sc2AlBi2
_symmetry_space_group_name_H-M   'P 1'
_cell_length_a   8.65497000
_cell_length_b   8.67774301
_cell_length_c   6.12269300
_cell_angle_alpha   90.00000000
_cell_angle_beta   90.00000000
_cell_angle_gamma   120.08707808
_symmetry_Int_Tables_number   1
_chemical_formula_structural   Er3Sc2AlBi2
_chemical_formula_sum   'Er6 Sc4 Al2 Bi4'
_cell_volume   397.89064006
_cell_formula_units_Z   2
loop_
 _symmetry_equiv_pos_site_id
 _symmetry_equiv_pos_as_xyz
  1  'x, y, z'
loop_
 _atom_site_type_symbol
 _atom_site_label
 _atom_site_symmetry_multiplicity
 _atom_site_fract_x
 _atom_site_fract_y
 _atom_site_fract_z
 _atom_site_occupancy
  Er  Er0  1  0.012469  0.770160  0.750000  1
  Er  Er1  1  0.012469  0.242308  0.250000  1
  Er  Er2  1  0.754522  0.756850  0.250000  1
  Er  Er3  1  0.754522  0.997670  0.750000  1
  Er  Er4  1  0.242560  0.228617  0.750000  1
  Er  Er5  1  0.242560  0.013942  0.250000  1
  Sc  Sc6  1  0.335931  0.667967  0.500000  1
  Sc  Sc7  1  0.652880  0.326440  0.000000  1
  Sc  Sc8  1  0.652880  0.326440  0.500000  1
  Sc  Sc9  1  0.335931  0.667967  0.000000  1
  Al  Al10  1  0.401471  0.996586  0.750000  1
  Al  Al11  1  0.401471  0.404885  0.250000  1
  Bi  Bi12  1  0.998680  0.604181  0.250000  1
  Bi  Bi13  1  0.998680  0.394499  0.750000  1
  Bi  Bi14  1  0.601487  0.599538  0.750000  1
  Bi  Bi15  1  0.601487  0.001950  0.250000  1
