# generated using pymatgen
data_NaAc2(YPb2)2
_symmetry_space_group_name_H-M   'P 1'
_cell_length_a   8.48019700
_cell_length_b   16.13464800
_cell_length_c   8.51973300
_cell_angle_alpha   90.00000000
_cell_angle_beta   90.00000000
_cell_angle_gamma   90.00000000
_symmetry_Int_Tables_number   1
_chemical_formula_structural   NaAc2(YPb2)2
_chemical_formula_sum   'Na4 Ac8 Y8 Pb16'
_cell_volume   1165.71241291
_cell_formula_units_Z   4
loop_
 _symmetry_equiv_pos_site_id
 _symmetry_equiv_pos_as_xyz
  1  'x, y, z'
loop_
 _atom_site_type_symbol
 _atom_site_label
 _atom_site_symmetry_multiplicity
 _atom_site_fract_x
 _atom_site_fract_y
 _atom_site_fract_z
 _atom_site_occupancy
  Na  Na0  1  0.815826  0.750000  0.500267  1
  Na  Na1  1  0.315826  0.750000  0.999733  1
  Na  Na2  1  0.184174  0.250000  0.499733  1
  Na  Na3  1  0.684174  0.250000  0.000267  1
  Ac  Ac4  1  0.498340  0.597146  0.677384  1
  Ac  Ac5  1  0.998340  0.902854  0.822616  1
  Ac  Ac6  1  0.501660  0.097146  0.322616  1
  Ac  Ac7  1  0.001660  0.402854  0.177384  1
  Ac  Ac8  1  0.501660  0.402854  0.322616  1
  Ac  Ac9  1  0.001660  0.097146  0.177384  1
  Ac  Ac10  1  0.498340  0.902854  0.677384  1
  Ac  Ac11  1  0.998340  0.597146  0.822616  1
  Y  Y12  1  0.649118  0.624510  0.170649  1
  Y  Y13  1  0.149118  0.875490  0.329351  1
  Y  Y14  1  0.350882  0.124510  0.829351  1
  Y  Y15  1  0.850882  0.375490  0.670649  1
  Y  Y16  1  0.350882  0.375490  0.829351  1
  Y  Y17  1  0.850882  0.124510  0.670649  1
  Y  Y18  1  0.649118  0.875490  0.170649  1
  Y  Y19  1  0.149118  0.624510  0.329351  1
  Pb  Pb20  1  0.680677  0.461792  0.955870  1
  Pb  Pb21  1  0.180677  0.038208  0.544130  1
  Pb  Pb22  1  0.319323  0.961792  0.044130  1
  Pb  Pb23  1  0.819323  0.538208  0.455870  1
  Pb  Pb24  1  0.319323  0.538208  0.044130  1
  Pb  Pb25  1  0.819323  0.961792  0.455870  1
  Pb  Pb26  1  0.680677  0.038208  0.955870  1
  Pb  Pb27  1  0.180677  0.461792  0.544130  1
  Pb  Pb28  1  0.450525  0.750000  0.372164  1
  Pb  Pb29  1  0.950525  0.750000  0.127836  1
  Pb  Pb30  1  0.549475  0.250000  0.627836  1
  Pb  Pb31  1  0.049475  0.250000  0.872164  1
  Pb  Pb32  1  0.689060  0.750000  0.875510  1
  Pb  Pb33  1  0.189060  0.750000  0.624490  1
  Pb  Pb34  1  0.310940  0.250000  0.124490  1
  Pb  Pb35  1  0.810940  0.250000  0.375510  1
