# generated using pymatgen
data_Ta12B12MoOs11
_symmetry_space_group_name_H-M   'P 1'
_cell_length_a   3.12496700
_cell_length_b   9.08222624
_cell_length_c   15.82307546
_cell_angle_alpha   90.22750606
_cell_angle_beta   90.00000000
_cell_angle_gamma   90.00000000
_symmetry_Int_Tables_number   1
_chemical_formula_structural   Ta12B12MoOs11
_chemical_formula_sum   'Ta12 B12 Mo1 Os11'
_cell_volume   449.08156467
_cell_formula_units_Z   1
loop_
 _symmetry_equiv_pos_site_id
 _symmetry_equiv_pos_as_xyz
  1  'x, y, z'
loop_
 _atom_site_type_symbol
 _atom_site_label
 _atom_site_symmetry_multiplicity
 _atom_site_fract_x
 _atom_site_fract_y
 _atom_site_fract_z
 _atom_site_occupancy
  Ta  Ta0  1  0.000000  0.799509  0.495219  1
  Ta  Ta1  1  0.000000  0.200397  0.505134  1
  Ta  Ta2  1  0.000000  0.300636  0.003817  1
  Ta  Ta3  1  0.000000  0.700118  0.995480  1
  Ta  Ta4  1  0.000000  0.516403  0.593568  1
  Ta  Ta5  1  0.000000  0.483861  0.406141  1
  Ta  Ta6  1  0.000000  0.016875  0.906079  1
  Ta  Ta7  1  0.000000  0.984691  0.092841  1
  Ta  Ta8  1  0.000000  0.690339  0.203458  1
  Ta  Ta9  1  0.000000  0.312584  0.797448  1
  Ta  Ta10  1  0.000000  0.181531  0.296105  1
  Ta  Ta11  1  0.000000  0.811393  0.702704  1
  B  B12  1  0.500000  0.605079  0.496752  1
  B  B13  1  0.500000  0.394418  0.503159  1
  B  B14  1  0.500000  0.107623  0.002984  1
  B  B15  1  0.500000  0.894583  0.995017  1
  B  B16  1  0.000000  0.609665  0.832607  1
  B  B17  1  0.000000  0.390119  0.167277  1
  B  B18  1  0.000000  0.109208  0.667455  1
  B  B19  1  0.000000  0.891961  0.332645  1
  B  B20  1  0.500000  0.715692  0.598594  1
  B  B21  1  0.500000  0.283024  0.401353  1
  B  B22  1  0.500000  0.216633  0.901185  1
  B  B23  1  0.500000  0.787098  0.099582  1
  Mo  Mo24  1  0.500000  0.935954  0.233063  1
  Os  Os25  1  0.500000  0.716419  0.357077  1
  Os  Os26  1  0.500000  0.280969  0.644645  1
  Os  Os27  1  0.500000  0.221264  0.141717  1
  Os  Os28  1  0.500000  0.781491  0.856018  1
  Os  Os29  1  0.500000  0.518806  0.094525  1
  Os  Os30  1  0.500000  0.485164  0.906524  1
  Os  Os31  1  0.500000  0.016112  0.408460  1
  Os  Os32  1  0.500000  0.983567  0.594515  1
  Os  Os33  1  0.500000  0.560488  0.734667  1
  Os  Os34  1  0.500000  0.434878  0.266082  1
  Os  Os35  1  0.500000  0.061447  0.766104  1
