# generated using pymatgen
data_Er5SiGeSe3
_symmetry_space_group_name_H-M   'P 1'
_cell_length_a   7.06893082
_cell_length_b   7.06875530
_cell_length_c   7.06938411
_cell_angle_alpha   99.12877794
_cell_angle_beta   99.79369065
_cell_angle_gamma   132.16081339
_symmetry_Int_Tables_number   1
_chemical_formula_structural   Er5SiGeSe3
_chemical_formula_sum   'Er5 Si1 Ge1 Se3'
_cell_volume   239.35913621
_cell_formula_units_Z   1
loop_
 _symmetry_equiv_pos_site_id
 _symmetry_equiv_pos_as_xyz
  1  'x, y, z'
loop_
 _atom_site_type_symbol
 _atom_site_label
 _atom_site_symmetry_multiplicity
 _atom_site_fract_x
 _atom_site_fract_y
 _atom_site_fract_z
 _atom_site_occupancy
  Er  Er0  1  0.395782  0.787193  0.182963  1
  Er  Er1  1  0.002236  0.995479  0.997722  1
  Er  Er2  1  0.596828  0.207354  0.804192  1
  Er  Er3  1  0.207417  0.410880  0.618295  1
  Er  Er4  1  0.797114  0.599170  0.396280  1
  Si  Si5  1  0.502131  0.501545  0.003683  1
  Ge  Ge6  1  0.097010  0.698137  0.795136  1
  Se  Se7  1  0.696313  0.900226  0.596532  1
  Se  Se8  1  0.300527  0.098494  0.399027  1
  Se  Se9  1  0.904642  0.301522  0.206170  1
