# generated using pymatgen
data_Tm6MgCo17P12
_symmetry_space_group_name_H-M   'P 1'
_cell_length_a   3.69015000
_cell_length_b   10.51793700
_cell_length_c   12.17157000
_cell_angle_alpha   90.00000000
_cell_angle_beta   90.00000000
_cell_angle_gamma   90.00000000
_symmetry_Int_Tables_number   1
_chemical_formula_structural   Tm6MgCo17P12
_chemical_formula_sum   'Tm6 Mg1 Co17 P12'
_cell_volume   472.41228878
_cell_formula_units_Z   1
loop_
 _symmetry_equiv_pos_site_id
 _symmetry_equiv_pos_as_xyz
  1  'x, y, z'
loop_
 _atom_site_type_symbol
 _atom_site_label
 _atom_site_symmetry_multiplicity
 _atom_site_fract_x
 _atom_site_fract_y
 _atom_site_fract_z
 _atom_site_occupancy
  Tm  Tm0  1  0.000000  0.500000  0.525731  1
  Tm  Tm1  1  0.500000  0.000000  0.477600  1
  Tm  Tm2  1  0.500000  0.822244  0.207573  1
  Tm  Tm3  1  0.500000  0.177756  0.207573  1
  Tm  Tm4  1  0.000000  0.681979  0.794452  1
  Tm  Tm5  1  0.000000  0.318021  0.794452  1
  Mg  Mg6  1  0.500000  0.500000  0.154060  1
  Co  Co7  1  0.000000  0.000000  0.837761  1
  Co  Co8  1  0.500000  0.500000  0.704363  1
  Co  Co9  1  0.000000  0.000000  0.296178  1
  Co  Co10  1  0.000000  0.500000  0.986226  1
  Co  Co11  1  0.500000  0.000000  0.012292  1
  Co  Co12  1  0.500000  0.329072  0.992901  1
  Co  Co13  1  0.500000  0.670928  0.992901  1
  Co  Co14  1  0.000000  0.163420  0.001787  1
  Co  Co15  1  0.000000  0.836580  0.001787  1
  Co  Co16  1  0.500000  0.295907  0.433375  1
  Co  Co17  1  0.500000  0.704093  0.433375  1
  Co  Co18  1  0.000000  0.202100  0.570191  1
  Co  Co19  1  0.000000  0.797900  0.570191  1
  Co  Co20  1  0.500000  0.879192  0.707909  1
  Co  Co21  1  0.500000  0.120808  0.707909  1
  Co  Co22  1  0.000000  0.623619  0.293545  1
  Co  Co23  1  0.000000  0.376381  0.293545  1
  P  P24  1  0.500000  0.500000  0.882915  1
  P  P25  1  0.000000  0.000000  0.116798  1
  P  P26  1  0.500000  0.500000  0.355562  1
  P  P27  1  0.000000  0.000000  0.653361  1
  P  P28  1  0.500000  0.310951  0.617766  1
  P  P29  1  0.500000  0.689049  0.617766  1
  P  P30  1  0.000000  0.187962  0.385349  1
  P  P31  1  0.000000  0.812038  0.385349  1
  P  P32  1  0.500000  0.848892  0.889089  1
  P  P33  1  0.500000  0.151108  0.889089  1
  P  P34  1  0.000000  0.663660  0.104639  1
  P  P35  1  0.000000  0.336340  0.104639  1
