# generated using pymatgen
data_Sc3Nb(ZnRh2)4
_symmetry_space_group_name_H-M   'P 1'
_cell_length_a   5.96571400
_cell_length_b   5.96513700
_cell_length_c   6.78425600
_cell_angle_alpha   89.99933445
_cell_angle_beta   90.00032374
_cell_angle_gamma   90.00072995
_symmetry_Int_Tables_number   1
_chemical_formula_structural   Sc3Nb(ZnRh2)4
_chemical_formula_sum   'Sc3 Nb1 Zn4 Rh8'
_cell_volume   241.42657818
_cell_formula_units_Z   1
loop_
 _symmetry_equiv_pos_site_id
 _symmetry_equiv_pos_as_xyz
  1  'x, y, z'
loop_
 _atom_site_type_symbol
 _atom_site_label
 _atom_site_symmetry_multiplicity
 _atom_site_fract_x
 _atom_site_fract_y
 _atom_site_fract_z
 _atom_site_occupancy
  Sc  Sc0  1  0.249891  0.750000  0.999999  1
  Sc  Sc1  1  0.749964  0.249999  0.499993  1
  Sc  Sc2  1  0.250042  0.750004  0.499993  1
  Nb  Nb3  1  0.750076  0.250011  0.999978  1
  Zn  Zn4  1  0.249961  0.250015  0.999982  1
  Zn  Zn5  1  0.750010  0.749988  0.999983  1
  Zn  Zn6  1  0.250068  0.250016  0.500012  1
  Zn  Zn7  1  0.749940  0.749986  0.500016  1
  Rh  Rh8  1  0.502485  0.002469  0.246944  1
  Rh  Rh9  1  0.502484  0.497518  0.246941  1
  Rh  Rh10  1  0.997534  0.002488  0.247050  1
  Rh  Rh11  1  0.997528  0.497509  0.247049  1
  Rh  Rh12  1  0.997523  0.002493  0.752956  1
  Rh  Rh13  1  0.997525  0.497499  0.752963  1
  Rh  Rh14  1  0.502486  0.002489  0.753072  1
  Rh  Rh15  1  0.502482  0.497515  0.753067  1
