# generated using pymatgen
data_YNi4P3W
_symmetry_space_group_name_H-M   'P 1'
_cell_length_a   3.68280200
_cell_length_b   10.56503400
_cell_length_c   12.14754500
_cell_angle_alpha   90.00000000
_cell_angle_beta   90.00000000
_cell_angle_gamma   90.00000000
_symmetry_Int_Tables_number   1
_chemical_formula_structural   YNi4P3W
_chemical_formula_sum   'Y4 Ni16 P12 W4'
_cell_volume   472.64795798
_cell_formula_units_Z   4
loop_
 _symmetry_equiv_pos_site_id
 _symmetry_equiv_pos_as_xyz
  1  'x, y, z'
loop_
 _atom_site_type_symbol
 _atom_site_label
 _atom_site_symmetry_multiplicity
 _atom_site_fract_x
 _atom_site_fract_y
 _atom_site_fract_z
 _atom_site_occupancy
  Y  Y0  1  0.250000  0.585026  0.707528  1
  Y  Y1  1  0.250000  0.914974  0.207528  1
  Y  Y2  1  0.750000  0.414974  0.292472  1
  Y  Y3  1  0.750000  0.085026  0.792472  1
  Ni  Ni4  1  0.250000  0.409435  0.487895  1
  Ni  Ni5  1  0.250000  0.090565  0.987895  1
  Ni  Ni6  1  0.750000  0.590565  0.512105  1
  Ni  Ni7  1  0.750000  0.909435  0.012105  1
  Ni  Ni8  1  0.250000  0.218909  0.175733  1
  Ni  Ni9  1  0.250000  0.281091  0.675733  1
  Ni  Ni10  1  0.750000  0.781091  0.824267  1
  Ni  Ni11  1  0.750000  0.718909  0.324267  1
  Ni  Ni12  1  0.250000  0.883571  0.702063  1
  Ni  Ni13  1  0.250000  0.616429  0.202063  1
  Ni  Ni14  1  0.750000  0.116429  0.297937  1
  Ni  Ni15  1  0.750000  0.383571  0.797937  1
  Ni  Ni16  1  0.250000  0.463843  0.932605  1
  Ni  Ni17  1  0.250000  0.036157  0.432605  1
  Ni  Ni18  1  0.750000  0.536157  0.067395  1
  Ni  Ni19  1  0.750000  0.963843  0.567395  1
  P  P20  1  0.250000  0.419366  0.114384  1
  P  P21  1  0.250000  0.080634  0.614384  1
  P  P22  1  0.750000  0.580634  0.885616  1
  P  P23  1  0.750000  0.919366  0.385616  1
  P  P24  1  0.250000  0.266463  0.866607  1
  P  P25  1  0.250000  0.233537  0.366607  1
  P  P26  1  0.750000  0.733537  0.133393  1
  P  P27  1  0.750000  0.766463  0.633393  1
  P  P28  1  0.250000  0.596922  0.389002  1
  P  P29  1  0.250000  0.903078  0.889002  1
  P  P30  1  0.750000  0.403078  0.610998  1
  P  P31  1  0.750000  0.096922  0.110998  1
  W  W32  1  0.250000  0.708944  0.987580  1
  W  W33  1  0.250000  0.791056  0.487580  1
  W  W34  1  0.750000  0.291056  0.012420  1
  W  W35  1  0.750000  0.208944  0.512420  1
