# generated using pymatgen
data_Dy10IrRu3Au2
_symmetry_space_group_name_H-M   'P 1'
_cell_length_a   11.08516446
_cell_length_b   10.96095000
_cell_length_c   6.44866900
_cell_angle_alpha   90.00000000
_cell_angle_beta   89.97096639
_cell_angle_gamma   90.00000000
_symmetry_Int_Tables_number   1
_chemical_formula_structural   Dy10IrRu3Au2
_chemical_formula_sum   'Dy20 Ir2 Ru6 Au4'
_cell_volume   783.53854835
_cell_formula_units_Z   2
loop_
 _symmetry_equiv_pos_site_id
 _symmetry_equiv_pos_as_xyz
  1  'x, y, z'
loop_
 _atom_site_type_symbol
 _atom_site_label
 _atom_site_symmetry_multiplicity
 _atom_site_fract_x
 _atom_site_fract_y
 _atom_site_fract_z
 _atom_site_occupancy
  Dy  Dy0  1  0.303812  0.091051  0.370181  1
  Dy  Dy1  1  0.303812  0.908949  0.870181  1
  Dy  Dy2  1  0.708421  0.080641  0.873104  1
  Dy  Dy3  1  0.708421  0.919359  0.373104  1
  Dy  Dy4  1  0.587047  0.794344  0.862176  1
  Dy  Dy5  1  0.587047  0.205656  0.362176  1
  Dy  Dy6  1  0.415221  0.797389  0.378549  1
  Dy  Dy7  1  0.415221  0.202611  0.878549  1
  Dy  Dy8  1  0.205808  0.420410  0.627052  1
  Dy  Dy9  1  0.205808  0.579590  0.127052  1
  Dy  Dy10  1  0.801713  0.408133  0.130076  1
  Dy  Dy11  1  0.801713  0.591867  0.630076  1
  Dy  Dy12  1  0.913640  0.703031  0.122430  1
  Dy  Dy13  1  0.913640  0.296969  0.622430  1
  Dy  Dy14  1  0.083953  0.706369  0.637631  1
  Dy  Dy15  1  0.083953  0.293631  0.137631  1
  Dy  Dy16  1  0.990273  0.001633  0.496739  1
  Dy  Dy17  1  0.990273  0.998367  0.996739  1
  Dy  Dy18  1  0.490203  0.499705  0.002351  1
  Dy  Dy19  1  0.490203  0.500295  0.502351  1
  Ir  Ir20  1  0.345237  0.347260  0.248609  1
  Ir  Ir21  1  0.345237  0.652740  0.748609  1
  Ru  Ru22  1  0.846952  0.154252  0.250323  1
  Ru  Ru23  1  0.846952  0.845748  0.750323  1
  Ru  Ru24  1  0.501264  0.000085  0.122176  1
  Ru  Ru25  1  0.501264  0.999915  0.622176  1
  Ru  Ru26  1  0.999351  0.500310  0.878086  1
  Ru  Ru27  1  0.999351  0.499690  0.378086  1
  Au  Au28  1  0.154595  0.154422  0.748311  1
  Au  Au29  1  0.154595  0.845578  0.248311  1
  Au  Au30  1  0.652506  0.345504  0.752206  1
  Au  Au31  1  0.652506  0.654496  0.252206  1
