# generated using pymatgen
data_CaNb8AlSe16
_symmetry_space_group_name_H-M   'P 1'
_cell_length_a   7.00928300
_cell_length_b   7.00928399
_cell_length_c   13.90303000
_cell_angle_alpha   90.00000000
_cell_angle_beta   90.00000000
_cell_angle_gamma   120.00000003
_symmetry_Int_Tables_number   1
_chemical_formula_structural   CaNb8AlSe16
_chemical_formula_sum   'Ca1 Nb8 Al1 Se16'
_cell_volume   591.54439415
_cell_formula_units_Z   1
loop_
 _symmetry_equiv_pos_site_id
 _symmetry_equiv_pos_as_xyz
  1  'x, y, z'
loop_
 _atom_site_type_symbol
 _atom_site_label
 _atom_site_symmetry_multiplicity
 _atom_site_fract_x
 _atom_site_fract_y
 _atom_site_fract_z
 _atom_site_occupancy
  Ca  Ca0  1  0.000000  0.000000  0.500000  1
  Nb  Nb1  1  0.000000  0.000000  0.231917  1
  Nb  Nb2  1  0.000000  0.000000  0.768083  1
  Nb  Nb3  1  0.507430  0.014860  0.230482  1
  Nb  Nb4  1  0.985140  0.492570  0.230482  1
  Nb  Nb5  1  0.507430  0.492570  0.230482  1
  Nb  Nb6  1  0.492570  0.985140  0.769518  1
  Nb  Nb7  1  0.014860  0.507430  0.769518  1
  Nb  Nb8  1  0.492570  0.507430  0.769518  1
  Al  Al9  1  0.000000  0.000000  0.000000  1
  Se  Se10  1  0.333333  0.666667  0.892244  1
  Se  Se11  1  0.666667  0.333333  0.107756  1
  Se  Se12  1  0.666667  0.333333  0.355904  1
  Se  Se13  1  0.333333  0.666667  0.644096  1
  Se  Se14  1  0.168886  0.831114  0.349812  1
  Se  Se15  1  0.168886  0.337773  0.349812  1
  Se  Se16  1  0.662227  0.831114  0.349812  1
  Se  Se17  1  0.831114  0.168886  0.650188  1
  Se  Se18  1  0.831114  0.662227  0.650188  1
  Se  Se19  1  0.337773  0.168886  0.650188  1
  Se  Se20  1  0.831407  0.168593  0.888678  1
  Se  Se21  1  0.831407  0.662815  0.888678  1
  Se  Se22  1  0.337185  0.168593  0.888678  1
  Se  Se23  1  0.168593  0.831407  0.111322  1
  Se  Se24  1  0.168593  0.337185  0.111322  1
  Se  Se25  1  0.662815  0.831407  0.111322  1
