# generated using pymatgen
data_ErTmCoIr3
_symmetry_space_group_name_H-M   'P 1'
_cell_length_a   5.16559148
_cell_length_b   5.16559296
_cell_length_c   5.16559193
_cell_angle_alpha   62.44444100
_cell_angle_beta   62.44443396
_cell_angle_gamma   62.44444044
_symmetry_Int_Tables_number   1
_chemical_formula_structural   ErTmCoIr3
_chemical_formula_sum   'Er1 Tm1 Co1 Ir3'
_cell_volume   102.77581657
_cell_formula_units_Z   1
loop_
 _symmetry_equiv_pos_site_id
 _symmetry_equiv_pos_as_xyz
  1  'x, y, z'
loop_
 _atom_site_type_symbol
 _atom_site_label
 _atom_site_symmetry_multiplicity
 _atom_site_fract_x
 _atom_site_fract_y
 _atom_site_fract_z
 _atom_site_occupancy
  Er  Er0  1  0.998770  0.998770  0.998770  1
  Tm  Tm1  1  0.251241  0.251241  0.251241  1
  Co  Co2  1  0.625100  0.625100  0.625100  1
  Ir  Ir3  1  0.624916  0.624916  0.125054  1
  Ir  Ir4  1  0.624916  0.125054  0.624916  1
  Ir  Ir5  1  0.125054  0.624916  0.624916  1
