# generated using pymatgen
data_Li4LaY5Pt13
_symmetry_space_group_name_H-M   'P 1'
_cell_length_a   8.31105436
_cell_length_b   8.31103271
_cell_length_c   8.31103400
_cell_angle_alpha   109.54017966
_cell_angle_beta   109.43665665
_cell_angle_gamma   109.43665212
_symmetry_Int_Tables_number   1
_chemical_formula_structural   Li4LaY5Pt13
_chemical_formula_sum   'Li4 La1 Y5 Pt13'
_cell_volume   441.92122235
_cell_formula_units_Z   1
loop_
 _symmetry_equiv_pos_site_id
 _symmetry_equiv_pos_as_xyz
  1  'x, y, z'
loop_
 _atom_site_type_symbol
 _atom_site_label
 _atom_site_symmetry_multiplicity
 _atom_site_fract_x
 _atom_site_fract_y
 _atom_site_fract_z
 _atom_site_occupancy
  Li  Li0  1  0.000000  0.000239  0.494393  1
  Li  Li1  1  0.000000  0.494393  0.000239  1
  Li  Li2  1  0.505832  0.000229  0.000229  1
  Li  Li3  1  0.494178  0.494404  0.494404  1
  La  La4  1  0.000060  0.698675  0.698675  1
  Y  Y5  1  0.695677  0.696211  0.000472  1
  Y  Y6  1  0.304323  0.000511  0.304766  1
  Y  Y7  1  0.999962  0.308565  0.308565  1
  Y  Y8  1  0.304323  0.304766  0.000511  1
  Y  Y9  1  0.695677  0.000472  0.696211  1
  Pt  Pt10  1  0.333876  0.334061  0.667939  1
  Pt  Pt11  1  0.666120  0.000182  0.334059  1
  Pt  Pt12  1  0.999996  0.669592  0.327381  1
  Pt  Pt13  1  0.666120  0.334059  0.000182  1
  Pt  Pt14  1  0.333876  0.667939  0.334061  1
  Pt  Pt15  1  0.999996  0.327381  0.669592  1
  Pt  Pt16  1  0.335361  0.665345  0.000718  1
  Pt  Pt17  1  0.335361  0.000718  0.665345  1
  Pt  Pt18  1  0.657808  0.327394  0.327394  1
  Pt  Pt19  1  0.664633  0.665354  0.329987  1
  Pt  Pt20  1  0.664633  0.329987  0.665354  1
  Pt  Pt21  1  0.342194  0.669577  0.669577  1
  Pt  Pt22  1  0.999995  0.009945  0.009945  1
