# generated using pymatgen
data_NdEuBe2SiO7
_symmetry_space_group_name_H-M   'P 1'
_cell_length_a   7.46989630
_cell_length_b   7.46989630
_cell_length_c   4.88609100
_cell_angle_alpha   90.00000000
_cell_angle_beta   90.00000000
_cell_angle_gamma   90.50764778
_symmetry_Int_Tables_number   1
_chemical_formula_structural   NdEuBe2SiO7
_chemical_formula_sum   'Nd2 Eu2 Be4 Si2 O14'
_cell_volume   272.63000409
_cell_formula_units_Z   2
loop_
 _symmetry_equiv_pos_site_id
 _symmetry_equiv_pos_as_xyz
  1  'x, y, z'
loop_
 _atom_site_type_symbol
 _atom_site_label
 _atom_site_symmetry_multiplicity
 _atom_site_fract_x
 _atom_site_fract_y
 _atom_site_fract_z
 _atom_site_occupancy
  Nd  Nd0  1  0.661189  0.838810  0.503925  1
  Nd  Nd1  1  0.338811  0.161189  0.503925  1
  Eu  Eu2  1  0.159798  0.659798  0.493159  1
  Eu  Eu3  1  0.840201  0.340202  0.493159  1
  Be  Be4  1  0.362972  0.862971  0.037052  1
  Be  Be5  1  0.637028  0.137029  0.037052  1
  Be  Be6  1  0.866190  0.633809  0.961762  1
  Be  Be7  1  0.133810  0.366191  0.961762  1
  Si  Si8  1  0.000000  0.000000  0.001500  1
  Si  Si9  1  0.500000  0.500000  0.001500  1
  O  O10  1  0.000000  0.500000  0.823105  1
  O  O11  1  0.500000  0.000000  0.167323  1
  O  O12  1  0.355699  0.855701  0.711093  1
  O  O13  1  0.644301  0.144300  0.711093  1
  O  O14  1  0.862866  0.637136  0.288552  1
  O  O15  1  0.137135  0.362864  0.288552  1
  O  O16  1  0.078648  0.164523  0.810355  1
  O  O17  1  0.921352  0.835475  0.810355  1
  O  O18  1  0.578513  0.336260  0.193518  1
  O  O19  1  0.421488  0.663741  0.193518  1
  O  O20  1  0.664524  0.578650  0.810355  1
  O  O21  1  0.335477  0.421351  0.810355  1
  O  O22  1  0.836258  0.078511  0.193518  1
  O  O23  1  0.163740  0.921489  0.193518  1
