# generated using pymatgen
data_La3Nd7Si8
_symmetry_space_group_name_H-M   'P 1'
_cell_length_a   7.91053922
_cell_length_b   7.91671921
_cell_length_c   15.32564300
_cell_angle_alpha   90.00000000
_cell_angle_beta   90.00000000
_cell_angle_gamma   90.17487119
_symmetry_Int_Tables_number   1
_chemical_formula_structural   La3Nd7Si8
_chemical_formula_sum   'La6 Nd14 Si16'
_cell_volume   959.77185822
_cell_formula_units_Z   2
loop_
 _symmetry_equiv_pos_site_id
 _symmetry_equiv_pos_as_xyz
  1  'x, y, z'
loop_
 _atom_site_type_symbol
 _atom_site_label
 _atom_site_symmetry_multiplicity
 _atom_site_fract_x
 _atom_site_fract_y
 _atom_site_fract_z
 _atom_site_occupancy
  La  La0  1  0.622756  0.986665  0.947737  1
  La  La1  1  0.122184  0.513446  0.802622  1
  La  La2  1  0.877816  0.486554  0.302622  1
  La  La3  1  0.512947  0.122516  0.197480  1
  La  La4  1  0.487053  0.877484  0.697480  1
  La  La5  1  0.377244  0.013335  0.447737  1
  Nd  Nd6  1  0.372938  0.480174  0.373432  1
  Nd  Nd7  1  0.873734  0.018783  0.376961  1
  Nd  Nd8  1  0.980993  0.126183  0.122908  1
  Nd  Nd9  1  0.019007  0.873817  0.622908  1
  Nd  Nd10  1  0.627062  0.519826  0.873432  1
  Nd  Nd11  1  0.480452  0.372754  0.626546  1
  Nd  Nd12  1  0.519548  0.627246  0.126546  1
  Nd  Nd13  1  0.126266  0.981217  0.876961  1
  Nd  Nd14  1  0.988855  0.619798  0.053447  1
  Nd  Nd15  1  0.011145  0.380202  0.553447  1
  Nd  Nd16  1  0.692133  0.691660  0.500249  1
  Nd  Nd17  1  0.808294  0.192516  0.749919  1
  Nd  Nd18  1  0.191706  0.807484  0.249919  1
  Nd  Nd19  1  0.307867  0.308340  0.000249  1
  Si  Si20  1  0.079130  0.711950  0.439789  1
  Si  Si21  1  0.920870  0.288050  0.939789  1
  Si  Si22  1  0.715530  0.080793  0.560531  1
  Si  Si23  1  0.213502  0.421460  0.188930  1
  Si  Si24  1  0.786499  0.578540  0.688930  1
  Si  Si25  1  0.419926  0.214193  0.810268  1
  Si  Si26  1  0.580074  0.785808  0.310268  1
  Si  Si27  1  0.284470  0.919207  0.060531  1
  Si  Si28  1  0.830814  0.806000  0.795501  1
  Si  Si29  1  0.169186  0.194000  0.295501  1
  Si  Si30  1  0.806764  0.829916  0.202710  1
  Si  Si31  1  0.304465  0.667313  0.546605  1
  Si  Si32  1  0.695535  0.332687  0.046605  1
  Si  Si33  1  0.671523  0.307017  0.454367  1
  Si  Si34  1  0.328477  0.692983  0.954367  1
  Si  Si35  1  0.193236  0.170084  0.702710  1
