# generated using pymatgen
data_Na3Nd4EuTe8
_symmetry_space_group_name_H-M   'P 1'
_cell_length_a   9.11068840
_cell_length_b   9.11068794
_cell_length_c   9.12686109
_cell_angle_alpha   60.05859735
_cell_angle_beta   60.05859562
_cell_angle_gamma   59.99999892
_symmetry_Int_Tables_number   1
_chemical_formula_structural   Na3Nd4EuTe8
_chemical_formula_sum   'Na3 Nd4 Eu1 Te8'
_cell_volume   536.15811744
_cell_formula_units_Z   1
loop_
 _symmetry_equiv_pos_site_id
 _symmetry_equiv_pos_as_xyz
  1  'x, y, z'
loop_
 _atom_site_type_symbol
 _atom_site_label
 _atom_site_symmetry_multiplicity
 _atom_site_fract_x
 _atom_site_fract_y
 _atom_site_fract_z
 _atom_site_occupancy
  Na  Na0  1  0.125000  0.625000  0.125000  1
  Na  Na1  1  0.625000  0.125000  0.125000  1
  Na  Na2  1  0.125000  0.125000  0.125000  1
  Nd  Nd3  1  0.625000  0.125000  0.625000  1
  Nd  Nd4  1  0.625000  0.625000  0.625000  1
  Nd  Nd5  1  0.125000  0.625000  0.625000  1
  Nd  Nd6  1  0.625000  0.625000  0.125000  1
  Eu  Eu7  1  0.125000  0.125000  0.625000  1
  Te  Te8  1  0.377113  0.869932  0.375842  1
  Te  Te9  1  0.872887  0.380068  0.874158  1
  Te  Te10  1  0.872638  0.872638  0.382085  1
  Te  Te11  1  0.872887  0.872887  0.874158  1
  Te  Te12  1  0.869932  0.377113  0.375842  1
  Te  Te13  1  0.377362  0.377362  0.867915  1
  Te  Te14  1  0.377113  0.377113  0.375842  1
  Te  Te15  1  0.380068  0.872887  0.874158  1
