# generated using pymatgen
data_Sr(PtO3)2
_symmetry_space_group_name_H-M   'P 1'
_cell_length_a   5.33066401
_cell_length_b   5.33089503
_cell_length_c   10.71949601
_cell_angle_alpha   89.99553256
_cell_angle_beta   90.00486698
_cell_angle_gamma   119.99957052
_symmetry_Int_Tables_number   1
_chemical_formula_structural   Sr(PtO3)2
_chemical_formula_sum   'Sr2 Pt4 O12'
_cell_volume   263.80821587
_cell_formula_units_Z   2
loop_
 _symmetry_equiv_pos_site_id
 _symmetry_equiv_pos_as_xyz
  1  'x, y, z'
loop_
 _atom_site_type_symbol
 _atom_site_label
 _atom_site_symmetry_multiplicity
 _atom_site_fract_x
 _atom_site_fract_y
 _atom_site_fract_z
 _atom_site_occupancy
  Sr  Sr0  1  0.000003  0.000003  0.999962  1
  Sr  Sr1  1  0.000005  0.000006  0.500021  1
  Pt  Pt2  1  0.666658  0.333325  0.750025  1
  Pt  Pt3  1  0.333345  0.666677  0.249977  1
  Pt  Pt4  1  0.666657  0.333320  0.249977  1
  Pt  Pt5  1  0.333339  0.666676  0.750024  1
  O  O6  1  0.628209  0.628232  0.351346  1
  O  O7  1  0.628231  0.628211  0.851503  1
  O  O8  1  0.000045  0.371798  0.351341  1
  O  O9  1  0.999997  0.371776  0.851502  1
  O  O10  1  0.371768  0.999963  0.351345  1
  O  O11  1  0.371792  0.000009  0.851505  1
  O  O12  1  0.628178  0.999960  0.148601  1
  O  O13  1  0.628234  0.000016  0.648555  1
  O  O14  1  0.371770  0.371814  0.148602  1
  O  O15  1  0.371767  0.371769  0.648557  1
  O  O16  1  0.000025  0.628223  0.148605  1
  O  O17  1  0.999979  0.628220  0.648555  1
