# generated using pymatgen
data_TbPaNi2Sn
_symmetry_space_group_name_H-M   'P 1'
_cell_length_a   7.40225588
_cell_length_b   7.40268658
_cell_length_c   3.61970900
_cell_angle_alpha   90.00000000
_cell_angle_beta   90.00000000
_cell_angle_gamma   93.55564719
_symmetry_Int_Tables_number   1
_chemical_formula_structural   TbPaNi2Sn
_chemical_formula_sum   'Tb2 Pa2 Ni4 Sn2'
_cell_volume   197.96586260
_cell_formula_units_Z   2
loop_
 _symmetry_equiv_pos_site_id
 _symmetry_equiv_pos_as_xyz
  1  'x, y, z'
loop_
 _atom_site_type_symbol
 _atom_site_label
 _atom_site_symmetry_multiplicity
 _atom_site_fract_x
 _atom_site_fract_y
 _atom_site_fract_z
 _atom_site_occupancy
  Tb  Tb0  1  0.174528  0.325474  0.500000  1
  Tb  Tb1  1  0.825473  0.674533  0.500000  1
  Pa  Pa2  1  0.675653  0.175649  0.500000  1
  Pa  Pa3  1  0.324375  0.824376  0.500000  1
  Ni  Ni4  1  0.867237  0.367237  0.000000  1
  Ni  Ni5  1  0.132865  0.632866  0.000000  1
  Ni  Ni6  1  0.384341  0.115518  0.000000  1
  Ni  Ni7  1  0.615534  0.884337  0.000000  1
  Sn  Sn8  1  0.499972  0.500026  0.000000  1
  Sn  Sn9  1  0.000022  0.999986  0.000000  1
