# generated using pymatgen
data_Sr3La(Ge3Pd)2
_symmetry_space_group_name_H-M   'P 1'
_cell_length_a   8.70132700
_cell_length_b   8.70132705
_cell_length_c   8.90913100
_cell_angle_alpha   90.00000000
_cell_angle_beta   90.00000000
_cell_angle_gamma   120.00000360
_symmetry_Int_Tables_number   1
_chemical_formula_structural   Sr3La(Ge3Pd)2
_chemical_formula_sum   'Sr6 La2 Ge12 Pd4'
_cell_volume   584.16689717
_cell_formula_units_Z   2
loop_
 _symmetry_equiv_pos_site_id
 _symmetry_equiv_pos_as_xyz
  1  'x, y, z'
loop_
 _atom_site_type_symbol
 _atom_site_label
 _atom_site_symmetry_multiplicity
 _atom_site_fract_x
 _atom_site_fract_y
 _atom_site_fract_z
 _atom_site_occupancy
  Sr  Sr0  1  0.499901  0.500099  0.750000  1
  Sr  Sr1  1  0.500099  0.499901  0.250000  1
  Sr  Sr2  1  0.000199  0.500099  0.750000  1
  Sr  Sr3  1  0.999801  0.499901  0.250000  1
  Sr  Sr4  1  0.499901  0.999801  0.750000  1
  Sr  Sr5  1  0.500099  0.000199  0.250000  1
  La  La6  1  0.000000  0.000000  0.750000  1
  La  La7  1  0.000000  0.000000  0.250000  1
  Ge  Ge8  1  0.834236  0.165764  0.001846  1
  Ge  Ge9  1  0.165764  0.834236  0.998154  1
  Ge  Ge10  1  0.331528  0.165764  0.001846  1
  Ge  Ge11  1  0.165764  0.834236  0.501846  1
  Ge  Ge12  1  0.668472  0.834236  0.998154  1
  Ge  Ge13  1  0.834236  0.165764  0.498154  1
  Ge  Ge14  1  0.834236  0.668472  0.001846  1
  Ge  Ge15  1  0.668472  0.834236  0.501846  1
  Ge  Ge16  1  0.165764  0.331528  0.998154  1
  Ge  Ge17  1  0.331528  0.165764  0.498154  1
  Ge  Ge18  1  0.165764  0.331528  0.501846  1
  Ge  Ge19  1  0.834236  0.668472  0.498154  1
  Pd  Pd20  1  0.666667  0.333333  0.997860  1
  Pd  Pd21  1  0.333333  0.666667  0.002140  1
  Pd  Pd22  1  0.333333  0.666667  0.497860  1
  Pd  Pd23  1  0.666667  0.333333  0.502140  1
