# generated using pymatgen
data_TmWN2
_symmetry_space_group_name_H-M   'P 1'
_cell_length_a   3.17155600
_cell_length_b   5.66462900
_cell_length_c   10.47982400
_cell_angle_alpha   90.00000000
_cell_angle_beta   90.00000000
_cell_angle_gamma   90.00000000
_symmetry_Int_Tables_number   1
_chemical_formula_structural   TmWN2
_chemical_formula_sum   'Tm4 W4 N8'
_cell_volume   188.27724925
_cell_formula_units_Z   4
loop_
 _symmetry_equiv_pos_site_id
 _symmetry_equiv_pos_as_xyz
  1  'x, y, z'
loop_
 _atom_site_type_symbol
 _atom_site_label
 _atom_site_symmetry_multiplicity
 _atom_site_fract_x
 _atom_site_fract_y
 _atom_site_fract_z
 _atom_site_occupancy
  Tm  Tm0  1  0.250000  0.580875  0.354340  1
  Tm  Tm1  1  0.250000  0.080875  0.145660  1
  Tm  Tm2  1  0.750000  0.419125  0.645660  1
  Tm  Tm3  1  0.750000  0.919125  0.854340  1
  W  W4  1  0.250000  0.931443  0.595183  1
  W  W5  1  0.250000  0.431443  0.904817  1
  W  W6  1  0.750000  0.068557  0.404817  1
  W  W7  1  0.750000  0.568557  0.095183  1
  N  N8  1  0.250000  0.662799  0.747881  1
  N  N9  1  0.250000  0.162799  0.752119  1
  N  N10  1  0.750000  0.337201  0.252119  1
  N  N11  1  0.750000  0.837201  0.247881  1
  N  N12  1  0.250000  0.266612  0.494592  1
  N  N13  1  0.250000  0.766612  0.005408  1
  N  N14  1  0.750000  0.733388  0.505408  1
  N  N15  1  0.750000  0.233388  0.994592  1
