# generated using pymatgen
data_Tb3Dy2Bi2Pb
_symmetry_space_group_name_H-M   'P 1'
_cell_length_a   9.20480701
_cell_length_b   9.18933291
_cell_length_c   6.45701800
_cell_angle_alpha   90.00000000
_cell_angle_beta   90.00000000
_cell_angle_gamma   119.94441035
_symmetry_Int_Tables_number   1
_chemical_formula_structural   Tb3Dy2Bi2Pb
_chemical_formula_sum   'Tb6 Dy4 Bi4 Pb2'
_cell_volume   473.26490751
_cell_formula_units_Z   2
loop_
 _symmetry_equiv_pos_site_id
 _symmetry_equiv_pos_as_xyz
  1  'x, y, z'
loop_
 _atom_site_type_symbol
 _atom_site_label
 _atom_site_symmetry_multiplicity
 _atom_site_fract_x
 _atom_site_fract_y
 _atom_site_fract_z
 _atom_site_occupancy
  Tb  Tb0  1  0.755679  0.758780  0.750000  1
  Tb  Tb1  1  0.244321  0.003101  0.750000  1
  Tb  Tb2  1  0.000000  0.240154  0.750000  1
  Tb  Tb3  1  0.242535  0.241980  0.250000  1
  Tb  Tb4  1  0.757465  0.999445  0.250000  1
  Tb  Tb5  1  0.000000  0.757857  0.250000  1
  Dy  Dy6  1  0.664660  0.331837  0.999189  1
  Dy  Dy7  1  0.335340  0.667178  0.999189  1
  Dy  Dy8  1  0.335340  0.667178  0.500811  1
  Dy  Dy9  1  0.664660  0.331837  0.500811  1
  Bi  Bi10  1  0.000000  0.610172  0.750000  1
  Bi  Bi11  1  0.610137  0.609109  0.250000  1
  Bi  Bi12  1  0.389863  0.998972  0.250000  1
  Bi  Bi13  1  0.000000  0.390257  0.250000  1
  Pb  Pb14  1  0.390488  0.391315  0.750000  1
  Pb  Pb15  1  0.609512  0.000827  0.750000  1
