# generated using pymatgen
data_Dy20Ir7PtRh4
_symmetry_space_group_name_H-M   'P 1'
_cell_length_a   10.91141688
_cell_length_b   10.91141680
_cell_length_c   6.36807000
_cell_angle_alpha   89.99264269
_cell_angle_beta   89.99264142
_cell_angle_gamma   89.86536315
_symmetry_Int_Tables_number   1
_chemical_formula_structural   Dy20Ir7PtRh4
_chemical_formula_sum   'Dy20 Ir7 Pt1 Rh4'
_cell_volume   758.17405159
_cell_formula_units_Z   1
loop_
 _symmetry_equiv_pos_site_id
 _symmetry_equiv_pos_as_xyz
  1  'x, y, z'
loop_
 _atom_site_type_symbol
 _atom_site_label
 _atom_site_symmetry_multiplicity
 _atom_site_fract_x
 _atom_site_fract_y
 _atom_site_fract_z
 _atom_site_occupancy
  Dy  Dy0  1  0.290301  0.089144  0.380339  1
  Dy  Dy1  1  0.290776  0.910594  0.879521  1
  Dy  Dy2  1  0.707389  0.087974  0.876327  1
  Dy  Dy3  1  0.708034  0.907939  0.381027  1
  Dy  Dy4  1  0.589171  0.790560  0.880443  1
  Dy  Dy5  1  0.585998  0.209719  0.380696  1
  Dy  Dy6  1  0.410454  0.790603  0.380224  1
  Dy  Dy7  1  0.410486  0.209338  0.880033  1
  Dy  Dy8  1  0.209440  0.410829  0.619557  1
  Dy  Dy9  1  0.209397  0.589546  0.119776  1
  Dy  Dy10  1  0.790281  0.414002  0.119304  1
  Dy  Dy11  1  0.790662  0.589514  0.619967  1
  Dy  Dy12  1  0.910856  0.709699  0.119661  1
  Dy  Dy13  1  0.912026  0.292611  0.623673  1
  Dy  Dy14  1  0.089406  0.709224  0.620479  1
  Dy  Dy15  1  0.092061  0.291966  0.118973  1
  Dy  Dy16  1  0.001197  0.998429  0.501264  1
  Dy  Dy17  1  0.001571  0.998803  0.998736  1
  Dy  Dy18  1  0.499779  0.499883  0.999765  1
  Dy  Dy19  1  0.500117  0.500221  0.500235  1
  Ir  Ir20  1  0.845950  0.846994  0.749969  1
  Ir  Ir21  1  0.153006  0.154050  0.750031  1
  Ir  Ir22  1  0.153971  0.846029  0.250000  1
  Ir  Ir23  1  0.655089  0.344911  0.750000  1
  Ir  Ir24  1  0.654273  0.653746  0.249718  1
  Ir  Ir25  1  0.346254  0.345727  0.250282  1
  Ir  Ir26  1  0.345914  0.654086  0.750000  1
  Pt  Pt27  1  0.845467  0.154533  0.250000  1
  Rh  Rh28  1  0.500697  0.000225  0.125253  1
  Rh  Rh29  1  0.500694  0.000490  0.624310  1
  Rh  Rh30  1  0.999510  0.499306  0.875690  1
  Rh  Rh31  1  0.999775  0.499303  0.374747  1
