# generated using pymatgen
data_Ho8Os3WC8
_symmetry_space_group_name_H-M   'P 1'
_cell_length_a   5.08426600
_cell_length_b   6.52072054
_cell_length_c   9.79385665
_cell_angle_alpha   89.71637573
_cell_angle_beta   90.00000000
_cell_angle_gamma   90.00000000
_symmetry_Int_Tables_number   1
_chemical_formula_structural   Ho8Os3WC8
_chemical_formula_sum   'Ho8 Os3 W1 C8'
_cell_volume   324.69251287
_cell_formula_units_Z   1
loop_
 _symmetry_equiv_pos_site_id
 _symmetry_equiv_pos_as_xyz
  1  'x, y, z'
loop_
 _atom_site_type_symbol
 _atom_site_label
 _atom_site_symmetry_multiplicity
 _atom_site_fract_x
 _atom_site_fract_y
 _atom_site_fract_z
 _atom_site_occupancy
  Ho  Ho0  1  0.250000  0.679857  0.554259  1
  Ho  Ho1  1  0.750000  0.321489  0.444550  1
  Ho  Ho2  1  0.750000  0.822579  0.055544  1
  Ho  Ho3  1  0.250000  0.181819  0.943984  1
  Ho  Ho4  1  0.250000  0.530864  0.213623  1
  Ho  Ho5  1  0.750000  0.467465  0.779999  1
  Ho  Ho6  1  0.750000  0.970667  0.716334  1
  Ho  Ho7  1  0.250000  0.029079  0.285232  1
  Os  Os8  1  0.750000  0.278270  0.135227  1
  Os  Os9  1  0.750000  0.777343  0.364323  1
  Os  Os10  1  0.250000  0.224004  0.632204  1
  W  W11  1  0.250000  0.721475  0.868095  1
  C  C12  1  0.250000  0.453787  0.759332  1
  C  C13  1  0.750000  0.542216  0.242331  1
  C  C14  1  0.750000  0.043273  0.259042  1
  C  C15  1  0.250000  0.958780  0.740053  1
  C  C16  1  0.250000  0.824625  0.057923  1
  C  C17  1  0.750000  0.174677  0.950032  1
  C  C18  1  0.750000  0.673830  0.551035  1
  C  C19  1  0.250000  0.323901  0.446878  1
