# generated using pymatgen
data_EuSc(Co5P3)2
_symmetry_space_group_name_H-M   'P 1'
_cell_length_a   3.62540900
_cell_length_b   10.26880000
_cell_length_c   11.71169700
_cell_angle_alpha   90.00000000
_cell_angle_beta   90.00000000
_cell_angle_gamma   90.00000000
_symmetry_Int_Tables_number   1
_chemical_formula_structural   EuSc(Co5P3)2
_chemical_formula_sum   'Eu2 Sc2 Co20 P12'
_cell_volume   436.01008222
_cell_formula_units_Z   2
loop_
 _symmetry_equiv_pos_site_id
 _symmetry_equiv_pos_as_xyz
  1  'x, y, z'
loop_
 _atom_site_type_symbol
 _atom_site_label
 _atom_site_symmetry_multiplicity
 _atom_site_fract_x
 _atom_site_fract_y
 _atom_site_fract_z
 _atom_site_occupancy
  Eu  Eu0  1  0.250000  0.583575  0.704202  1
  Eu  Eu1  1  0.250000  0.916425  0.204202  1
  Sc  Sc2  1  0.750000  0.416643  0.298151  1
  Sc  Sc3  1  0.750000  0.083357  0.798151  1
  Co  Co4  1  0.250000  0.716757  0.989556  1
  Co  Co5  1  0.250000  0.783243  0.489556  1
  Co  Co6  1  0.750000  0.282384  0.007002  1
  Co  Co7  1  0.750000  0.217616  0.507002  1
  Co  Co8  1  0.250000  0.405558  0.482182  1
  Co  Co9  1  0.250000  0.094442  0.982182  1
  Co  Co10  1  0.750000  0.590524  0.506948  1
  Co  Co11  1  0.750000  0.909476  0.006948  1
  Co  Co12  1  0.250000  0.221679  0.175649  1
  Co  Co13  1  0.250000  0.278322  0.675649  1
  Co  Co14  1  0.750000  0.781230  0.824016  1
  Co  Co15  1  0.750000  0.718770  0.324016  1
  Co  Co16  1  0.250000  0.886294  0.700158  1
  Co  Co17  1  0.250000  0.613706  0.200158  1
  Co  Co18  1  0.750000  0.122730  0.302724  1
  Co  Co19  1  0.750000  0.377270  0.802724  1
  Co  Co20  1  0.250000  0.463019  0.935768  1
  Co  Co21  1  0.250000  0.036981  0.435768  1
  Co  Co22  1  0.750000  0.528441  0.072490  1
  Co  Co23  1  0.750000  0.971559  0.572490  1
  P  P24  1  0.250000  0.417568  0.117250  1
  P  P25  1  0.250000  0.082432  0.617250  1
  P  P26  1  0.750000  0.580287  0.891633  1
  P  P27  1  0.750000  0.919713  0.391633  1
  P  P28  1  0.250000  0.266930  0.867302  1
  P  P29  1  0.250000  0.233070  0.367302  1
  P  P30  1  0.750000  0.727920  0.127688  1
  P  P31  1  0.750000  0.772080  0.627688  1
  P  P32  1  0.250000  0.598737  0.389423  1
  P  P33  1  0.250000  0.901263  0.889423  1
  P  P34  1  0.750000  0.396968  0.607860  1
  P  P35  1  0.750000  0.103032  0.107860  1
