# generated using pymatgen
data_Tm12InFe3Au
_symmetry_space_group_name_H-M   'P 1'
_cell_length_a   8.16419576
_cell_length_b   8.16419509
_cell_length_c   8.16419435
_cell_angle_alpha   107.30070321
_cell_angle_beta   110.26227111
_cell_angle_gamma   110.87286389
_symmetry_Int_Tables_number   1
_chemical_formula_structural   Tm12InFe3Au
_chemical_formula_sum   'Tm12 In1 Fe3 Au1'
_cell_volume   418.44643452
_cell_formula_units_Z   1
loop_
 _symmetry_equiv_pos_site_id
 _symmetry_equiv_pos_as_xyz
  1  'x, y, z'
loop_
 _atom_site_type_symbol
 _atom_site_label
 _atom_site_symmetry_multiplicity
 _atom_site_fract_x
 _atom_site_fract_y
 _atom_site_fract_z
 _atom_site_occupancy
  Tm  Tm0  1  0.188383  0.415323  0.226940  1
  Tm  Tm1  1  0.811617  0.584677  0.773060  1
  Tm  Tm2  1  0.188383  0.961444  0.773060  1
  Tm  Tm3  1  0.937626  0.192099  0.745526  1
  Tm  Tm4  1  0.811617  0.038556  0.226940  1
  Tm  Tm5  1  0.062374  0.807901  0.254474  1
  Tm  Tm6  1  0.446574  0.192099  0.254474  1
  Tm  Tm7  1  0.553426  0.807901  0.745526  1
  Tm  Tm8  1  0.309435  0.307758  0.617194  1
  Tm  Tm9  1  0.690565  0.692242  0.382806  1
  Tm  Tm10  1  0.690565  0.307758  0.998323  1
  Tm  Tm11  1  0.309435  0.692242  0.001677  1
  In  In12  1  0.000000  0.500000  0.500000  1
  Fe  Fe13  1  0.382763  0.382763  0.000000  1
  Fe  Fe14  1  0.617237  0.617237  0.000000  1
  Fe  Fe15  1  0.000000  0.000000  0.000000  1
  Au  Au16  1  0.500000  0.000000  0.500000  1
