# generated using pymatgen
data_ThMnAl3Cr3Re5
_symmetry_space_group_name_H-M   'P 1'
_cell_length_a   4.82622978
_cell_length_b   6.81276832
_cell_length_c   6.82332823
_cell_angle_alpha   83.44667719
_cell_angle_beta   69.47110109
_cell_angle_gamma   69.23414009
_symmetry_Int_Tables_number   1
_chemical_formula_structural   ThMnAl3Cr3Re5
_chemical_formula_sum   'Th1 Mn1 Al3 Cr3 Re5'
_cell_volume   196.44134014
_cell_formula_units_Z   1
loop_
 _symmetry_equiv_pos_site_id
 _symmetry_equiv_pos_as_xyz
  1  'x, y, z'
loop_
 _atom_site_type_symbol
 _atom_site_label
 _atom_site_symmetry_multiplicity
 _atom_site_fract_x
 _atom_site_fract_y
 _atom_site_fract_z
 _atom_site_occupancy
  Th  Th0  1  0.000795  0.999319  0.000034  1
  Mn  Mn1  1  0.003806  0.499207  0.000613  1
  Al  Al2  1  0.498572  0.233724  0.768584  1
  Al  Al3  1  0.728118  0.772116  0.776420  1
  Al  Al4  1  0.273671  0.225373  0.224471  1
  Cr  Cr5  1  0.999694  0.998756  0.498112  1
  Cr  Cr6  1  0.502178  0.998678  0.498775  1
  Cr  Cr7  1  0.497546  0.503381  0.002818  1
  Re  Re8  1  0.001235  0.358951  0.637696  1
  Re  Re9  1  0.997321  0.637873  0.362354  1
  Re  Re10  1  0.640065  0.355167  0.361980  1
  Re  Re11  1  0.359453  0.639919  0.644469  1
  Re  Re12  1  0.497546  0.777537  0.223673  1
