# generated using pymatgen
data_Cs2HfNp3O12
_symmetry_space_group_name_H-M   'P 1'
_cell_length_a   7.89972438
_cell_length_b   7.90060528
_cell_length_c   7.69097790
_cell_angle_alpha   90.00000074
_cell_angle_beta   59.10980332
_cell_angle_gamma   120.00368008
_symmetry_Int_Tables_number   1
_chemical_formula_structural   Cs2HfNp3O12
_chemical_formula_sum   'Cs2 Hf1 Np3 O12'
_cell_volume   334.76303625
_cell_formula_units_Z   1
loop_
 _symmetry_equiv_pos_site_id
 _symmetry_equiv_pos_as_xyz
  1  'x, y, z'
loop_
 _atom_site_type_symbol
 _atom_site_label
 _atom_site_symmetry_multiplicity
 _atom_site_fract_x
 _atom_site_fract_y
 _atom_site_fract_z
 _atom_site_occupancy
  Cs  Cs0  1  0.252766  0.130349  0.120426  1
  Cs  Cs1  1  0.747234  0.877582  0.879574  1
  Hf  Hf2  1  0.000000  0.503766  0.000000  1
  Np  Np3  1  0.499988  0.003739  0.500022  1
  Np  Np4  1  0.500012  0.503751  0.499978  1
  Np  Np5  1  0.000000  0.503771  0.500000  1
  O  O6  1  0.633586  0.820532  0.431682  1
  O  O7  1  0.873943  0.440731  0.811026  1
  O  O8  1  0.252037  0.818900  0.811046  1
  O  O9  1  0.251599  0.438450  0.431770  1
  O  O10  1  0.252012  0.440637  0.811024  1
  O  O11  1  0.251575  0.820648  0.431792  1
  O  O12  1  0.366414  0.186946  0.568318  1
  O  O13  1  0.126057  0.566788  0.188974  1
  O  O14  1  0.747988  0.188623  0.188976  1
  O  O15  1  0.748425  0.569073  0.568208  1
  O  O16  1  0.747963  0.566863  0.188954  1
  O  O17  1  0.748401  0.186850  0.568230  1
