# generated using pymatgen
data_Mn4MoP4Ru3
_symmetry_space_group_name_H-M   'P 1'
_cell_length_a   3.76166800
_cell_length_b   5.77776142
_cell_length_c   6.60033800
_cell_angle_alpha   90.13659145
_cell_angle_beta   90.00000000
_cell_angle_gamma   90.00000000
_symmetry_Int_Tables_number   1
_chemical_formula_structural   Mn4MoP4Ru3
_chemical_formula_sum   'Mn4 Mo1 P4 Ru3'
_cell_volume   143.45147204
_cell_formula_units_Z   1
loop_
 _symmetry_equiv_pos_site_id
 _symmetry_equiv_pos_as_xyz
  1  'x, y, z'
loop_
 _atom_site_type_symbol
 _atom_site_label
 _atom_site_symmetry_multiplicity
 _atom_site_fract_x
 _atom_site_fract_y
 _atom_site_fract_z
 _atom_site_occupancy
  Mn  Mn0  1  0.250000  0.860315  0.936778  1
  Mn  Mn1  1  0.250000  0.354921  0.566662  1
  Mn  Mn2  1  0.750000  0.140311  0.068439  1
  Mn  Mn3  1  0.750000  0.644945  0.431788  1
  Mo  Mo4  1  0.750000  0.519075  0.826206  1
  P  P5  1  0.250000  0.234395  0.883756  1
  P  P6  1  0.250000  0.734985  0.617155  1
  P  P7  1  0.750000  0.764208  0.117873  1
  P  P8  1  0.750000  0.269001  0.383376  1
  Ru  Ru9  1  0.250000  0.984296  0.336067  1
  Ru  Ru10  1  0.250000  0.473702  0.165980  1
  Ru  Ru11  1  0.750000  0.019845  0.665919  1
