# generated using pymatgen
data_Ho2UAlGa2Ir3
_symmetry_space_group_name_H-M   'P 1'
_cell_length_a   7.17350505
_cell_length_b   7.24397526
_cell_length_c   3.83860200
_cell_angle_alpha   90.00000000
_cell_angle_beta   90.00000000
_cell_angle_gamma   120.32548987
_symmetry_Int_Tables_number   1
_chemical_formula_structural   Ho2UAlGa2Ir3
_chemical_formula_sum   'Ho2 U1 Al1 Ga2 Ir3'
_cell_volume   172.17825322
_cell_formula_units_Z   1
loop_
 _symmetry_equiv_pos_site_id
 _symmetry_equiv_pos_as_xyz
  1  'x, y, z'
loop_
 _atom_site_type_symbol
 _atom_site_label
 _atom_site_symmetry_multiplicity
 _atom_site_fract_x
 _atom_site_fract_y
 _atom_site_fract_z
 _atom_site_occupancy
  Ho  Ho0  1  0.410864  0.413261  0.500000  1
  Ho  Ho1  1  0.589136  0.002398  0.500000  1
  U  U2  1  0.000000  0.582438  0.500000  1
  Al  Al3  1  0.000000  0.230517  0.000000  1
  Ga  Ga4  1  0.739671  0.751351  0.000000  1
  Ga  Ga5  1  0.260329  0.011679  0.000000  1
  Ir  Ir6  1  0.703845  0.360573  0.000000  1
  Ir  Ir7  1  0.296155  0.656727  0.000000  1
  Ir  Ir8  1  0.000000  0.991057  0.500000  1
