# generated using pymatgen
data_Y4Er5TmPt8
_symmetry_space_group_name_H-M   'P 1'
_cell_length_a   7.46122600
_cell_length_b   7.53758900
_cell_length_c   14.66874100
_cell_angle_alpha   90.00000000
_cell_angle_beta   90.00000000
_cell_angle_gamma   90.00000000
_symmetry_Int_Tables_number   1
_chemical_formula_structural   Y4Er5TmPt8
_chemical_formula_sum   'Y8 Er10 Tm2 Pt16'
_cell_volume   824.96493348
_cell_formula_units_Z   2
loop_
 _symmetry_equiv_pos_site_id
 _symmetry_equiv_pos_as_xyz
  1  'x, y, z'
loop_
 _atom_site_type_symbol
 _atom_site_label
 _atom_site_symmetry_multiplicity
 _atom_site_fract_x
 _atom_site_fract_y
 _atom_site_fract_z
 _atom_site_occupancy
  Y  Y0  1  0.998300  0.820173  0.406915  1
  Y  Y1  1  0.498300  0.679827  0.093085  1
  Y  Y2  1  0.501686  0.320207  0.592910  1
  Y  Y3  1  0.001686  0.179793  0.907090  1
  Y  Y4  1  0.001686  0.179793  0.592910  1
  Y  Y5  1  0.501686  0.320207  0.907090  1
  Y  Y6  1  0.498300  0.679827  0.406915  1
  Y  Y7  1  0.998300  0.820173  0.093085  1
  Er  Er8  1  0.818808  0.489022  0.750000  1
  Er  Er9  1  0.318808  0.010978  0.750000  1
  Er  Er10  1  0.656234  0.832446  0.622318  1
  Er  Er11  1  0.156234  0.667554  0.877682  1
  Er  Er12  1  0.843828  0.332354  0.377476  1
  Er  Er13  1  0.343828  0.167646  0.122524  1
  Er  Er14  1  0.343828  0.167646  0.377476  1
  Er  Er15  1  0.843828  0.332354  0.122524  1
  Er  Er16  1  0.156234  0.667554  0.622318  1
  Er  Er17  1  0.656234  0.832446  0.877682  1
  Tm  Tm18  1  0.681251  0.989061  0.250000  1
  Tm  Tm19  1  0.181251  0.510939  0.250000  1
  Pt  Pt20  1  0.816394  0.641963  0.250000  1
  Pt  Pt21  1  0.316394  0.858037  0.250000  1
  Pt  Pt22  1  0.683868  0.141642  0.750000  1
  Pt  Pt23  1  0.183868  0.358358  0.750000  1
  Pt  Pt24  1  0.546092  0.385304  0.250000  1
  Pt  Pt25  1  0.046092  0.114696  0.250000  1
  Pt  Pt26  1  0.953552  0.885369  0.750000  1
  Pt  Pt27  1  0.453552  0.614631  0.750000  1
  Pt  Pt28  1  0.817577  0.533421  0.542070  1
  Pt  Pt29  1  0.317577  0.966579  0.957930  1
  Pt  Pt30  1  0.682392  0.033376  0.457772  1
  Pt  Pt31  1  0.182392  0.466624  0.042228  1
  Pt  Pt32  1  0.182392  0.466624  0.457772  1
  Pt  Pt33  1  0.682392  0.033376  0.042228  1
  Pt  Pt34  1  0.317577  0.966579  0.542070  1
  Pt  Pt35  1  0.817577  0.533421  0.957930  1
