# generated using pymatgen
data_U2(B2Ir)3
_symmetry_space_group_name_H-M   'P 1'
_cell_length_a   3.68883300
_cell_length_b   5.96615636
_cell_length_c   5.96615551
_cell_angle_alpha   94.57355869
_cell_angle_beta   90.00000000
_cell_angle_gamma   90.00000000
_symmetry_Int_Tables_number   1
_chemical_formula_structural   U2(B2Ir)3
_chemical_formula_sum   'U2 B6 Ir3'
_cell_volume   130.88597142
_cell_formula_units_Z   1
loop_
 _symmetry_equiv_pos_site_id
 _symmetry_equiv_pos_as_xyz
  1  'x, y, z'
loop_
 _atom_site_type_symbol
 _atom_site_label
 _atom_site_symmetry_multiplicity
 _atom_site_fract_x
 _atom_site_fract_y
 _atom_site_fract_z
 _atom_site_occupancy
  U  U0  1  0.000000  0.272736  0.727264  1
  U  U1  1  0.000000  0.727264  0.272736  1
  B  B2  1  0.500000  0.916087  0.612237  1
  B  B3  1  0.500000  0.083913  0.387763  1
  B  B4  1  0.500000  0.612237  0.916087  1
  B  B5  1  0.500000  0.387763  0.083913  1
  B  B6  1  0.500000  0.604900  0.604900  1
  B  B7  1  0.500000  0.395100  0.395100  1
  Ir  Ir8  1  0.500000  0.000000  0.000000  1
  Ir  Ir9  1  0.000000  0.760835  0.760835  1
  Ir  Ir10  1  0.000000  0.239165  0.239165  1
