# generated using pymatgen
data_DyTm4FeSb2
_symmetry_space_group_name_H-M   'P 1'
_cell_length_a   7.75925400
_cell_length_b   8.74964200
_cell_length_c   12.04113100
_cell_angle_alpha   90.00000000
_cell_angle_beta   90.00000000
_cell_angle_gamma   90.00000000
_symmetry_Int_Tables_number   1
_chemical_formula_structural   DyTm4FeSb2
_chemical_formula_sum   'Dy4 Tm16 Fe4 Sb8'
_cell_volume   817.48074841
_cell_formula_units_Z   4
loop_
 _symmetry_equiv_pos_site_id
 _symmetry_equiv_pos_as_xyz
  1  'x, y, z'
loop_
 _atom_site_type_symbol
 _atom_site_label
 _atom_site_symmetry_multiplicity
 _atom_site_fract_x
 _atom_site_fract_y
 _atom_site_fract_z
 _atom_site_occupancy
  Dy  Dy0  1  0.622421  0.750000  0.307598  1
  Dy  Dy1  1  0.877579  0.750000  0.807598  1
  Dy  Dy2  1  0.377579  0.250000  0.692402  1
  Dy  Dy3  1  0.122421  0.250000  0.192402  1
  Tm  Tm4  1  0.155131  0.750000  0.204576  1
  Tm  Tm5  1  0.344869  0.750000  0.704576  1
  Tm  Tm6  1  0.844869  0.250000  0.795424  1
  Tm  Tm7  1  0.655131  0.250000  0.295424  1
  Tm  Tm8  1  0.448356  0.750000  0.995765  1
  Tm  Tm9  1  0.051644  0.750000  0.495765  1
  Tm  Tm10  1  0.551644  0.250000  0.004235  1
  Tm  Tm11  1  0.948356  0.250000  0.504235  1
  Tm  Tm12  1  0.824066  0.535810  0.064063  1
  Tm  Tm13  1  0.675934  0.964190  0.564063  1
  Tm  Tm14  1  0.175934  0.035810  0.935937  1
  Tm  Tm15  1  0.324066  0.464190  0.435937  1
  Tm  Tm16  1  0.175934  0.464190  0.935937  1
  Tm  Tm17  1  0.324066  0.035810  0.435937  1
  Tm  Tm18  1  0.824066  0.964190  0.064063  1
  Tm  Tm19  1  0.675934  0.535810  0.564063  1
  Fe  Fe20  1  0.428549  0.750000  0.489921  1
  Fe  Fe21  1  0.071451  0.750000  0.989921  1
  Fe  Fe22  1  0.571451  0.250000  0.510079  1
  Fe  Fe23  1  0.928549  0.250000  0.010079  1
  Sb  Sb24  1  0.929928  0.506964  0.328519  1
  Sb  Sb25  1  0.570072  0.993036  0.828519  1
  Sb  Sb26  1  0.070072  0.006964  0.671481  1
  Sb  Sb27  1  0.429928  0.493036  0.171481  1
  Sb  Sb28  1  0.070072  0.493036  0.671481  1
  Sb  Sb29  1  0.429928  0.006964  0.171481  1
  Sb  Sb30  1  0.929928  0.993036  0.328519  1
  Sb  Sb31  1  0.570072  0.506964  0.828519  1
