# generated using pymatgen
data_Ti5GaSn2Sb
_symmetry_space_group_name_H-M   'P 1'
_cell_length_a   8.25945223
_cell_length_b   8.24356333
_cell_length_c   5.55143800
_cell_angle_alpha   90.00000000
_cell_angle_beta   90.00000000
_cell_angle_gamma   119.93638960
_symmetry_Int_Tables_number   1
_chemical_formula_structural   Ti5GaSn2Sb
_chemical_formula_sum   'Ti10 Ga2 Sn4 Sb2'
_cell_volume   327.55208430
_cell_formula_units_Z   2
loop_
 _symmetry_equiv_pos_site_id
 _symmetry_equiv_pos_as_xyz
  1  'x, y, z'
loop_
 _atom_site_type_symbol
 _atom_site_label
 _atom_site_symmetry_multiplicity
 _atom_site_fract_x
 _atom_site_fract_y
 _atom_site_fract_z
 _atom_site_occupancy
  Ti  Ti0  1  0.731488  0.732739  0.750000  1
  Ti  Ti1  1  0.268512  0.001250  0.750000  1
  Ti  Ti2  1  0.000000  0.266848  0.750000  1
  Ti  Ti3  1  0.270107  0.269633  0.250000  1
  Ti  Ti4  1  0.729893  0.999526  0.250000  1
  Ti  Ti5  1  0.000000  0.731307  0.250000  1
  Ti  Ti6  1  0.665633  0.332309  0.000537  1
  Ti  Ti7  1  0.334367  0.666676  0.000537  1
  Ti  Ti8  1  0.334367  0.666676  0.499463  1
  Ti  Ti9  1  0.665633  0.332309  0.499463  1
  Ga  Ga10  1  0.000000  0.999385  0.001890  1
  Ga  Ga11  1  0.000000  0.999385  0.498110  1
  Sn  Sn12  1  0.000000  0.611409  0.750000  1
  Sn  Sn13  1  0.613738  0.612940  0.250000  1
  Sn  Sn14  1  0.386262  0.999201  0.250000  1
  Sn  Sn15  1  0.000000  0.388304  0.250000  1
  Sb  Sb16  1  0.390251  0.390178  0.750000  1
  Sb  Sb17  1  0.609749  0.999928  0.750000  1
