# generated using pymatgen
data_Sm(AlI4)3
_symmetry_space_group_name_H-M   'P 1'
_cell_length_a   11.70402700
_cell_length_b   11.70402664
_cell_length_c   20.32407100
_cell_angle_alpha   90.00000000
_cell_angle_beta   90.00000000
_cell_angle_gamma   120.00000385
_symmetry_Int_Tables_number   1
_chemical_formula_structural   Sm(AlI4)3
_chemical_formula_sum   'Sm3 Al9 I36'
_cell_volume   2411.08174406
_cell_formula_units_Z   3
loop_
 _symmetry_equiv_pos_site_id
 _symmetry_equiv_pos_as_xyz
  1  'x, y, z'
loop_
 _atom_site_type_symbol
 _atom_site_label
 _atom_site_symmetry_multiplicity
 _atom_site_fract_x
 _atom_site_fract_y
 _atom_site_fract_z
 _atom_site_occupancy
  Sm  Sm0  1  0.000000  0.734315  0.666667  1
  Sm  Sm1  1  0.734315  0.000000  0.333333  1
  Sm  Sm2  1  0.265685  0.265685  0.000000  1
  Al  Al3  1  0.902658  0.902658  0.500000  1
  Al  Al4  1  0.341023  0.703616  0.387386  1
  Al  Al5  1  0.296384  0.637407  0.720720  1
  Al  Al6  1  0.362593  0.658977  0.054053  1
  Al  Al7  1  0.097342  0.000000  0.833333  1
  Al  Al8  1  0.000000  0.097342  0.166667  1
  Al  Al9  1  0.703616  0.341023  0.612614  1
  Al  Al10  1  0.658977  0.362593  0.945947  1
  Al  Al11  1  0.637407  0.296384  0.279280  1
  I  I12  1  0.290023  0.508228  0.458003  1
  I  I13  1  0.218205  0.709977  0.124670  1
  I  I14  1  0.491772  0.781795  0.791337  1
  I  I15  1  0.715792  0.488704  0.712168  1
  I  I16  1  0.511296  0.227087  0.045502  1
  I  I17  1  0.772913  0.284208  0.378835  1
  I  I18  1  0.227087  0.511296  0.954498  1
  I  I19  1  0.284208  0.772913  0.621165  1
  I  I20  1  0.488704  0.715792  0.287832  1
  I  I21  1  0.924798  0.517487  0.555293  1
  I  I22  1  0.482513  0.407310  0.888627  1
  I  I23  1  0.592690  0.075202  0.221960  1
  I  I24  1  0.407310  0.482513  0.111373  1
  I  I25  1  0.075202  0.592690  0.778040  1
  I  I26  1  0.517487  0.924798  0.444707  1
  I  I27  1  0.125335  0.926995  0.531899  1
  I  I28  1  0.073005  0.198340  0.865232  1
  I  I29  1  0.801660  0.874665  0.198565  1
  I  I30  1  0.198340  0.073005  0.134768  1
  I  I31  1  0.874665  0.801660  0.801435  1
  I  I32  1  0.926995  0.125335  0.468101  1
  I  I33  1  0.230610  0.026839  0.728298  1
  I  I34  1  0.973161  0.203770  0.061632  1
  I  I35  1  0.796230  0.769390  0.394965  1
  I  I36  1  0.203770  0.973161  0.938368  1
  I  I37  1  0.769390  0.796230  0.605035  1
  I  I38  1  0.026839  0.230610  0.271702  1
  I  I39  1  0.148081  0.723215  0.348740  1
  I  I40  1  0.276785  0.424866  0.682073  1
  I  I41  1  0.575134  0.851919  0.015407  1
  I  I42  1  0.424866  0.276785  0.317927  1
  I  I43  1  0.851919  0.575134  0.984593  1
  I  I44  1  0.723215  0.148081  0.651260  1
  I  I45  1  0.508228  0.290023  0.541996  1
  I  I46  1  0.709977  0.218205  0.875330  1
  I  I47  1  0.781795  0.491772  0.208663  1
