# generated using pymatgen
data_HoThSc3Si7Pt9
_symmetry_space_group_name_H-M   'P 1'
_cell_length_a   10.07195300
_cell_length_b   10.07195311
_cell_length_c   4.01567500
_cell_angle_alpha   90.00000000
_cell_angle_beta   90.00000000
_cell_angle_gamma   120.00000293
_symmetry_Int_Tables_number   1
_chemical_formula_structural   HoThSc3Si7Pt9
_chemical_formula_sum   'Ho1 Th1 Sc3 Si7 Pt9'
_cell_volume   352.79023969
_cell_formula_units_Z   1
loop_
 _symmetry_equiv_pos_site_id
 _symmetry_equiv_pos_as_xyz
  1  'x, y, z'
loop_
 _atom_site_type_symbol
 _atom_site_label
 _atom_site_symmetry_multiplicity
 _atom_site_fract_x
 _atom_site_fract_y
 _atom_site_fract_z
 _atom_site_occupancy
  Ho  Ho0  1  0.000000  0.000000  0.000000  1
  Th  Th1  1  0.333333  0.666667  0.500000  1
  Sc  Sc2  1  0.891053  0.453669  0.500000  1
  Sc  Sc3  1  0.562617  0.108947  0.500000  1
  Sc  Sc4  1  0.546331  0.437383  0.500000  1
  Si  Si5  1  0.243518  0.192923  0.500000  1
  Si  Si6  1  0.807077  0.050596  0.500000  1
  Si  Si7  1  0.949404  0.756482  0.500000  1
  Si  Si8  1  0.563534  0.646206  0.000000  1
  Si  Si9  1  0.353794  0.917326  0.000000  1
  Si  Si10  1  0.082674  0.436466  0.000000  1
  Si  Si11  1  0.666667  0.333333  0.000000  1
  Pt  Pt12  1  0.217625  0.935450  0.500000  1
  Pt  Pt13  1  0.064550  0.282177  0.500000  1
  Pt  Pt14  1  0.717823  0.782375  0.500000  1
  Pt  Pt15  1  0.314504  0.415157  0.000000  1
  Pt  Pt16  1  0.584843  0.899347  0.000000  1
  Pt  Pt17  1  0.100653  0.685496  0.000000  1
  Pt  Pt18  1  0.382285  0.173888  0.000000  1
  Pt  Pt19  1  0.826112  0.208397  0.000000  1
  Pt  Pt20  1  0.791603  0.617715  0.000000  1
