# generated using pymatgen
data_Dy4Ho7ErRh4
_symmetry_space_group_name_H-M   'P 1'
_cell_length_a   6.25340925
_cell_length_b   7.14288702
_cell_length_c   9.45205018
_cell_angle_alpha   89.99606206
_cell_angle_beta   89.99690894
_cell_angle_gamma   90.00628945
_symmetry_Int_Tables_number   1
_chemical_formula_structural   Dy4Ho7ErRh4
_chemical_formula_sum   'Dy4 Ho7 Er1 Rh4'
_cell_volume   422.19846181
_cell_formula_units_Z   1
loop_
 _symmetry_equiv_pos_site_id
 _symmetry_equiv_pos_as_xyz
  1  'x, y, z'
loop_
 _atom_site_type_symbol
 _atom_site_label
 _atom_site_symmetry_multiplicity
 _atom_site_fract_x
 _atom_site_fract_y
 _atom_site_fract_z
 _atom_site_occupancy
  Dy  Dy0  1  0.866403  0.532172  0.250012  1
  Dy  Dy1  1  0.633589  0.032126  0.250025  1
  Dy  Dy2  1  0.133565  0.467855  0.749974  1
  Dy  Dy3  1  0.366431  0.967848  0.749975  1
  Ho  Ho4  1  0.329867  0.677664  0.063086  1
  Ho  Ho5  1  0.170133  0.177681  0.436936  1
  Ho  Ho6  1  0.670135  0.322318  0.563065  1
  Ho  Ho7  1  0.829871  0.822319  0.936910  1
  Ho  Ho8  1  0.670111  0.322332  0.936902  1
  Ho  Ho9  1  0.829852  0.822310  0.563051  1
  Ho  Ho10  1  0.329838  0.677695  0.436939  1
  Er  Er11  1  0.170158  0.177704  0.063094  1
  Rh  Rh12  1  0.060799  0.882124  0.250064  1
  Rh  Rh13  1  0.439276  0.382132  0.250022  1
  Rh  Rh14  1  0.939204  0.117860  0.749937  1
  Rh  Rh15  1  0.560770  0.617862  0.750009  1
