# generated using pymatgen
data_Dy17Ho3BiPb15
_symmetry_space_group_name_H-M   'P 1'
_cell_length_a   8.23552108
_cell_length_b   15.63339328
_cell_length_c   8.29550404
_cell_angle_alpha   90.07197456
_cell_angle_beta   89.85798796
_cell_angle_gamma   90.28124723
_symmetry_Int_Tables_number   1
_chemical_formula_structural   Dy17Ho3BiPb15
_chemical_formula_sum   'Dy17 Ho3 Bi1 Pb15'
_cell_volume   1068.02203565
_cell_formula_units_Z   1
loop_
 _symmetry_equiv_pos_site_id
 _symmetry_equiv_pos_as_xyz
  1  'x, y, z'
loop_
 _atom_site_type_symbol
 _atom_site_label
 _atom_site_symmetry_multiplicity
 _atom_site_fract_x
 _atom_site_fract_y
 _atom_site_fract_z
 _atom_site_occupancy
  Dy  Dy0  1  0.619907  0.621052  0.159967  1
  Dy  Dy1  1  0.122544  0.879122  0.341468  1
  Dy  Dy2  1  0.377116  0.121241  0.842009  1
  Dy  Dy3  1  0.879235  0.379018  0.655667  1
  Dy  Dy4  1  0.376190  0.379424  0.840840  1
  Dy  Dy5  1  0.876706  0.121370  0.658092  1
  Dy  Dy6  1  0.622529  0.878977  0.157891  1
  Dy  Dy7  1  0.121550  0.620659  0.341221  1
  Dy  Dy8  1  0.457536  0.602689  0.670338  1
  Dy  Dy9  1  0.963219  0.899679  0.825073  1
  Dy  Dy10  1  0.536680  0.100632  0.325403  1
  Dy  Dy11  1  0.043995  0.397335  0.176300  1
  Dy  Dy12  1  0.538896  0.398239  0.329675  1
  Dy  Dy13  1  0.036449  0.100544  0.175332  1
  Dy  Dy14  1  0.463725  0.899715  0.675561  1
  Dy  Dy15  1  0.964108  0.602205  0.823395  1
  Dy  Dy16  1  0.790475  0.750480  0.496943  1
  Ho  Ho17  1  0.290530  0.750090  0.003153  1
  Ho  Ho18  1  0.209437  0.249238  0.503111  1
  Ho  Ho19  1  0.709509  0.247725  0.997115  1
  Bi  Bi20  1  0.723096  0.455074  0.971682  1
  Pb  Pb21  1  0.219025  0.043084  0.533704  1
  Pb  Pb22  1  0.280588  0.956854  0.033318  1
  Pb  Pb23  1  0.778410  0.543352  0.469389  1
  Pb  Pb24  1  0.278219  0.543566  0.030559  1
  Pb  Pb25  1  0.781418  0.957232  0.465846  1
  Pb  Pb26  1  0.718364  0.043200  0.966661  1
  Pb  Pb27  1  0.220432  0.456533  0.531444  1
  Pb  Pb28  1  0.427093  0.750366  0.373271  1
  Pb  Pb29  1  0.927307  0.749298  0.125869  1
  Pb  Pb30  1  0.571969  0.250688  0.626839  1
  Pb  Pb31  1  0.072206  0.250871  0.873223  1
  Pb  Pb32  1  0.650451  0.749794  0.846748  1
  Pb  Pb33  1  0.151409  0.750843  0.653181  1
  Pb  Pb34  1  0.350437  0.250010  0.153644  1
  Pb  Pb35  1  0.849243  0.249799  0.346068  1
