# generated using pymatgen
data_Y2Er3Lu5(Si5Ir2)4
_symmetry_space_group_name_H-M   'P 1'
_cell_length_a   12.58286318
_cell_length_b   12.58362677
_cell_length_c   4.23086700
_cell_angle_alpha   90.00000000
_cell_angle_beta   90.00000000
_cell_angle_gamma   89.98966482
_symmetry_Int_Tables_number   1
_chemical_formula_structural   Y2Er3Lu5(Si5Ir2)4
_chemical_formula_sum   'Y2 Er3 Lu5 Si20 Ir8'
_cell_volume   669.90723637
_cell_formula_units_Z   1
loop_
 _symmetry_equiv_pos_site_id
 _symmetry_equiv_pos_as_xyz
  1  'x, y, z'
loop_
 _atom_site_type_symbol
 _atom_site_label
 _atom_site_symmetry_multiplicity
 _atom_site_fract_x
 _atom_site_fract_y
 _atom_site_fract_z
 _atom_site_occupancy
  Y  Y0  1  0.116393  0.616231  0.500000  1
  Y  Y1  1  0.615689  0.884287  0.500000  1
  Er  Er2  1  0.823505  0.676487  0.500000  1
  Er  Er3  1  0.883757  0.383576  0.500000  1
  Er  Er4  1  0.383829  0.116122  0.500000  1
  Lu  Lu5  1  0.499840  0.500177  0.000000  1
  Lu  Lu6  1  0.999842  0.000164  0.000000  1
  Lu  Lu7  1  0.676378  0.175701  0.500000  1
  Lu  Lu8  1  0.324354  0.823683  0.500000  1
  Lu  Lu9  1  0.176208  0.323792  0.500000  1
  Si  Si10  1  0.565928  0.066539  0.000000  1
  Si  Si11  1  0.433464  0.934072  0.000000  1
  Si  Si12  1  0.066462  0.433347  0.000000  1
  Si  Si13  1  0.934115  0.565683  0.000000  1
  Si  Si14  1  0.662468  0.701182  0.000000  1
  Si  Si15  1  0.336614  0.298714  0.000000  1
  Si  Si16  1  0.163873  0.799283  0.000000  1
  Si  Si17  1  0.836705  0.201407  0.000000  1
  Si  Si18  1  0.298783  0.663257  0.000000  1
  Si  Si19  1  0.700895  0.336084  0.000000  1
  Si  Si20  1  0.201259  0.163387  0.000000  1
  Si  Si21  1  0.798804  0.837536  0.000000  1
  Si  Si22  1  0.654142  0.502086  0.500000  1
  Si  Si23  1  0.345250  0.496040  0.500000  1
  Si  Si24  1  0.154254  0.995992  0.500000  1
  Si  Si25  1  0.845167  0.003414  0.500000  1
  Si  Si26  1  0.496636  0.654811  0.500000  1
  Si  Si27  1  0.504061  0.345721  0.500000  1
  Si  Si28  1  0.003959  0.154747  0.500000  1
  Si  Si29  1  0.997907  0.845855  0.500000  1
  Ir  Ir30  1  0.744460  0.521083  0.000000  1
  Ir  Ir31  1  0.255405  0.477492  0.000000  1
  Ir  Ir32  1  0.245248  0.978389  0.000000  1
  Ir  Ir33  1  0.755175  0.023015  0.000000  1
  Ir  Ir34  1  0.476976  0.744847  0.000000  1
  Ir  Ir35  1  0.521608  0.254751  0.000000  1
  Ir  Ir36  1  0.022102  0.245053  0.000000  1
  Ir  Ir37  1  0.978483  0.755992  0.000000  1
