# generated using pymatgen
data_Zr2TaRe2W
_symmetry_space_group_name_H-M   'P 1'
_cell_length_a   5.37484177
_cell_length_b   5.37484273
_cell_length_c   5.48535357
_cell_angle_alpha   59.84614364
_cell_angle_beta   59.84613626
_cell_angle_gamma   59.87920168
_symmetry_Int_Tables_number   1
_chemical_formula_structural   Zr2TaRe2W
_chemical_formula_sum   'Zr2 Ta1 Re2 W1'
_cell_volume   111.68914231
_cell_formula_units_Z   1
loop_
 _symmetry_equiv_pos_site_id
 _symmetry_equiv_pos_as_xyz
  1  'x, y, z'
loop_
 _atom_site_type_symbol
 _atom_site_label
 _atom_site_symmetry_multiplicity
 _atom_site_fract_x
 _atom_site_fract_y
 _atom_site_fract_z
 _atom_site_occupancy
  Zr  Zr0  1  0.748030  0.748030  0.753959  1
  Zr  Zr1  1  0.501970  0.501970  0.496041  1
  Ta  Ta2  1  0.125000  0.125000  0.625000  1
  Re  Re3  1  0.125000  0.625000  0.125000  1
  Re  Re4  1  0.625000  0.125000  0.125000  1
  W  W5  1  0.125000  0.125000  0.125000  1
