# generated using pymatgen
data_Dy2Y5(HoIn4)5
_symmetry_space_group_name_H-M   'P 1'
_cell_length_a   6.50054564
_cell_length_b   10.42257772
_cell_length_c   12.27280600
_cell_angle_alpha   90.04122957
_cell_angle_beta   89.95924408
_cell_angle_gamma   90.00368501
_symmetry_Int_Tables_number   1
_chemical_formula_structural   Dy2Y5(HoIn4)5
_chemical_formula_sum   'Dy2 Y5 Ho5 In20'
_cell_volume   831.51215182
_cell_formula_units_Z   1
loop_
 _symmetry_equiv_pos_site_id
 _symmetry_equiv_pos_as_xyz
  1  'x, y, z'
loop_
 _atom_site_type_symbol
 _atom_site_label
 _atom_site_symmetry_multiplicity
 _atom_site_fract_x
 _atom_site_fract_y
 _atom_site_fract_z
 _atom_site_occupancy
  Dy  Dy0  1  0.609618  0.006512  0.642195  1
  Dy  Dy1  1  0.109618  0.993339  0.857943  1
  Y  Y2  1  0.390567  0.506695  0.357937  1
  Y  Y3  1  0.109280  0.506645  0.858578  1
  Y  Y4  1  0.390620  0.993326  0.357935  1
  Y  Y5  1  0.890436  0.006777  0.142007  1
  Y  Y6  1  0.609605  0.493384  0.641990  1
  Ho  Ho7  1  0.349681  0.750238  0.055936  1
  Ho  Ho8  1  0.149550  0.750072  0.555840  1
  Ho  Ho9  1  0.649738  0.250182  0.944195  1
  Ho  Ho10  1  0.850201  0.249688  0.444119  1
  Ho  Ho11  1  0.890692  0.493244  0.141765  1
  In  In12  1  0.615696  0.749977  0.505000  1
  In  In13  1  0.883535  0.749338  0.005827  1
  In  In14  1  0.384327  0.249885  0.494963  1
  In  In15  1  0.115531  0.249975  0.994990  1
  In  In16  1  0.651804  0.749300  0.244913  1
  In  In17  1  0.849127  0.750264  0.745454  1
  In  In18  1  0.349105  0.249781  0.754678  1
  In  In19  1  0.150881  0.250622  0.254440  1
  In  In20  1  0.124986  0.749858  0.284052  1
  In  In21  1  0.374688  0.750100  0.783938  1
  In  In22  1  0.874736  0.249769  0.715972  1
  In  In23  1  0.626190  0.251013  0.215708  1
  In  In24  1  0.875464  0.543532  0.400405  1
  In  In25  1  0.625156  0.956069  0.901145  1
  In  In26  1  0.124701  0.043834  0.599040  1
  In  In27  1  0.374953  0.456397  0.098912  1
  In  In28  1  0.124656  0.456167  0.598866  1
  In  In29  1  0.375136  0.044113  0.098767  1
  In  In30  1  0.875205  0.956025  0.401178  1
  In  In31  1  0.624521  0.543874  0.901312  1
