# generated using pymatgen
data_LaNd2PBr3
_symmetry_space_group_name_H-M   'P 1'
_cell_length_a   10.37341955
_cell_length_b   10.37341926
_cell_length_c   10.37341939
_cell_angle_alpha   109.25465442
_cell_angle_beta   109.25465342
_cell_angle_gamma   109.90522660
_symmetry_Int_Tables_number   1
_chemical_formula_structural   LaNd2PBr3
_chemical_formula_sum   'La4 Nd8 P4 Br12'
_cell_volume   859.26123589
_cell_formula_units_Z   4
loop_
 _symmetry_equiv_pos_site_id
 _symmetry_equiv_pos_as_xyz
  1  'x, y, z'
loop_
 _atom_site_type_symbol
 _atom_site_label
 _atom_site_symmetry_multiplicity
 _atom_site_fract_x
 _atom_site_fract_y
 _atom_site_fract_z
 _atom_site_occupancy
  La  La0  1  0.488420  0.238420  0.476840  1
  La  La1  1  0.011580  0.488420  0.750000  1
  La  La2  1  0.261580  0.011580  0.023160  1
  La  La3  1  0.238420  0.261580  0.750000  1
  Nd  Nd4  1  0.470378  0.487513  0.235354  1
  Nd  Nd5  1  0.752158  0.235024  0.264646  1
  Nd  Nd6  1  0.747842  0.012487  0.482866  1
  Nd  Nd7  1  0.235024  0.470378  0.482866  1
  Nd  Nd8  1  0.264976  0.747842  0.235354  1
  Nd  Nd9  1  0.029622  0.264976  0.017134  1
  Nd  Nd10  1  0.012487  0.029622  0.264646  1
  Nd  Nd11  1  0.487513  0.752158  0.017134  1
  P  P12  1  0.250486  0.249514  0.250000  1
  P  P13  1  0.499514  0.000486  0.250000  1
  P  P14  1  0.000486  0.250486  0.500972  1
  P  P15  1  0.249514  0.499514  0.999028  1
  Br  Br16  1  0.257720  0.755838  0.744461  1
  Br  Br17  1  0.511376  0.513259  0.755539  1
  Br  Br18  1  0.988624  0.744162  0.001882  1
  Br  Br19  1  0.744162  0.242280  0.755539  1
  Br  Br20  1  0.986741  0.988624  0.744461  1
  Br  Br21  1  0.242280  0.986741  0.498118  1
  Br  Br22  1  0.755838  0.511376  0.498118  1
  Br  Br23  1  0.513259  0.257720  0.001882  1
  Br  Br24  1  0.753830  0.746170  0.250000  1
  Br  Br25  1  0.746170  0.996170  0.992341  1
  Br  Br26  1  0.996170  0.503830  0.250000  1
  Br  Br27  1  0.503830  0.753830  0.507659  1
