# generated using pymatgen
data_Tm4SiRu6W
_symmetry_space_group_name_H-M   'P 1'
_cell_length_a   5.54610309
_cell_length_b   5.11323282
_cell_length_c   8.91502200
_cell_angle_alpha   90.00000000
_cell_angle_beta   90.00000000
_cell_angle_gamma   122.90760938
_symmetry_Int_Tables_number   1
_chemical_formula_structural   Tm4SiRu6W
_chemical_formula_sum   'Tm4 Si1 Ru6 W1'
_cell_volume   212.25176530
_cell_formula_units_Z   1
loop_
 _symmetry_equiv_pos_site_id
 _symmetry_equiv_pos_as_xyz
  1  'x, y, z'
loop_
 _atom_site_type_symbol
 _atom_site_label
 _atom_site_symmetry_multiplicity
 _atom_site_fract_x
 _atom_site_fract_y
 _atom_site_fract_z
 _atom_site_occupancy
  Tm  Tm0  1  0.675057  0.350609  0.563611  1
  Tm  Tm1  1  0.331573  0.663363  0.431016  1
  Tm  Tm2  1  0.331573  0.663363  0.068984  1
  Tm  Tm3  1  0.675057  0.350609  0.936389  1
  Si  Si4  1  0.832515  0.663619  0.250000  1
  Ru  Ru5  1  0.007536  0.014833  0.495387  1
  Ru  Ru6  1  0.007536  0.014833  0.004613  1
  Ru  Ru7  1  0.174181  0.816782  0.750000  1
  Ru  Ru8  1  0.642508  0.817111  0.750000  1
  Ru  Ru9  1  0.824093  0.168928  0.250000  1
  Ru  Ru10  1  0.344790  0.169086  0.250000  1
  W  W11  1  0.153580  0.306864  0.750000  1
