# generated using pymatgen
data_Rb3InSnI6
_symmetry_space_group_name_H-M   'P 1'
_cell_length_a   10.19333858
_cell_length_b   10.19333928
_cell_length_c   10.19333892
_cell_angle_alpha   91.51469179
_cell_angle_beta   91.51469137
_cell_angle_gamma   91.51469763
_symmetry_Int_Tables_number   1
_chemical_formula_structural   Rb3InSnI6
_chemical_formula_sum   'Rb6 In2 Sn2 I12'
_cell_volume   1058.00008536
_cell_formula_units_Z   2
loop_
 _symmetry_equiv_pos_site_id
 _symmetry_equiv_pos_as_xyz
  1  'x, y, z'
loop_
 _atom_site_type_symbol
 _atom_site_label
 _atom_site_symmetry_multiplicity
 _atom_site_fract_x
 _atom_site_fract_y
 _atom_site_fract_z
 _atom_site_occupancy
  Rb  Rb0  1  0.250000  0.628097  0.871903  1
  Rb  Rb1  1  0.871903  0.250000  0.628097  1
  Rb  Rb2  1  0.628097  0.871903  0.250000  1
  Rb  Rb3  1  0.750000  0.371903  0.128097  1
  Rb  Rb4  1  0.128097  0.750000  0.371903  1
  Rb  Rb5  1  0.371903  0.128097  0.750000  1
  In  In6  1  0.250000  0.250000  0.250000  1
  In  In7  1  0.750000  0.750000  0.750000  1
  Sn  Sn8  1  0.000000  0.000000  0.000000  1
  Sn  Sn9  1  0.500000  0.500000  0.500000  1
  I  I10  1  0.549830  0.200531  0.418683  1
  I  I11  1  0.418683  0.549830  0.200531  1
  I  I12  1  0.200531  0.418683  0.549830  1
  I  I13  1  0.950170  0.081317  0.299469  1
  I  I14  1  0.299469  0.950170  0.081317  1
  I  I15  1  0.081317  0.299469  0.950170  1
  I  I16  1  0.450170  0.799469  0.581317  1
  I  I17  1  0.581317  0.450170  0.799469  1
  I  I18  1  0.799469  0.581317  0.450170  1
  I  I19  1  0.049830  0.918683  0.700531  1
  I  I20  1  0.918683  0.700531  0.049830  1
  I  I21  1  0.700531  0.049830  0.918683  1
