# generated using pymatgen
data_HfSc3Co20Si5P7
_symmetry_space_group_name_H-M   'P 1'
_cell_length_a   3.59590200
_cell_length_b   10.21429398
_cell_length_c   11.65128500
_cell_angle_alpha   90.13145475
_cell_angle_beta   90.00000000
_cell_angle_gamma   90.00000000
_symmetry_Int_Tables_number   1
_chemical_formula_structural   HfSc3Co20Si5P7
_chemical_formula_sum   'Hf1 Sc3 Co20 Si5 P7'
_cell_volume   427.94591271
_cell_formula_units_Z   1
loop_
 _symmetry_equiv_pos_site_id
 _symmetry_equiv_pos_as_xyz
  1  'x, y, z'
loop_
 _atom_site_type_symbol
 _atom_site_label
 _atom_site_symmetry_multiplicity
 _atom_site_fract_x
 _atom_site_fract_y
 _atom_site_fract_z
 _atom_site_occupancy
  Hf  Hf0  1  0.250000  0.580774  0.703683  1
  Sc  Sc1  1  0.250000  0.921368  0.201511  1
  Sc  Sc2  1  0.750000  0.416710  0.297907  1
  Sc  Sc3  1  0.750000  0.083932  0.796266  1
  Co  Co4  1  0.250000  0.719258  0.989843  1
  Co  Co5  1  0.250000  0.782196  0.489876  1
  Co  Co6  1  0.750000  0.278550  0.005971  1
  Co  Co7  1  0.750000  0.216729  0.502419  1
  Co  Co8  1  0.250000  0.407869  0.483306  1
  Co  Co9  1  0.250000  0.092893  0.985173  1
  Co  Co10  1  0.750000  0.591475  0.510890  1
  Co  Co11  1  0.750000  0.913009  0.010496  1
  Co  Co12  1  0.250000  0.220161  0.175697  1
  Co  Co13  1  0.250000  0.277817  0.676938  1
  Co  Co14  1  0.750000  0.786034  0.824939  1
  Co  Co15  1  0.750000  0.712713  0.324790  1
  Co  Co16  1  0.250000  0.885750  0.701016  1
  Co  Co17  1  0.250000  0.613798  0.200861  1
  Co  Co18  1  0.750000  0.118174  0.299092  1
  Co  Co19  1  0.750000  0.381590  0.803509  1
  Co  Co20  1  0.250000  0.462488  0.933727  1
  Co  Co21  1  0.250000  0.037433  0.432466  1
  Co  Co22  1  0.750000  0.525277  0.073978  1
  Co  Co23  1  0.750000  0.973917  0.572653  1
  Si  Si24  1  0.750000  0.585910  0.890365  1
  Si  Si25  1  0.750000  0.913985  0.388293  1
  Si  Si26  1  0.750000  0.733190  0.128206  1
  Si  Si27  1  0.750000  0.767987  0.628615  1
  Si  Si28  1  0.750000  0.400232  0.610383  1
  P  P29  1  0.250000  0.417890  0.116727  1
  P  P30  1  0.250000  0.081708  0.615385  1
  P  P31  1  0.250000  0.265954  0.868298  1
  P  P32  1  0.250000  0.233567  0.367672  1
  P  P33  1  0.250000  0.598040  0.389038  1
  P  P34  1  0.250000  0.902747  0.889419  1
  P  P35  1  0.750000  0.098874  0.110587  1
