# generated using pymatgen
data_WBr35
_symmetry_space_group_name_H-M   'P 1'
_cell_length_a   15.98197714
_cell_length_b   11.40028117
_cell_length_c   10.79188290
_cell_angle_alpha   88.81408430
_cell_angle_beta   66.02770613
_cell_angle_gamma   92.31545445
_symmetry_Int_Tables_number   1
_chemical_formula_structural   WBr35
_chemical_formula_sum   'W1 Br35'
_cell_volume   1793.71352714
_cell_formula_units_Z   1
loop_
 _symmetry_equiv_pos_site_id
 _symmetry_equiv_pos_as_xyz
  1  'x, y, z'
loop_
 _atom_site_type_symbol
 _atom_site_label
 _atom_site_symmetry_multiplicity
 _atom_site_fract_x
 _atom_site_fract_y
 _atom_site_fract_z
 _atom_site_occupancy
  W  W0  1  0.235208  0.447122  0.454985  1
  Br  Br1  1  0.516048  0.259038  0.502827  1
  Br  Br2  1  0.769252  0.572728  0.550750  1
  Br  Br3  1  0.502780  0.679744  0.747393  1
  Br  Br4  1  0.041501  0.889772  0.885917  1
  Br  Br5  1  0.888821  0.155167  0.996706  1
  Br  Br6  1  0.648542  0.315772  0.279046  1
  Br  Br7  1  0.621816  0.350379  0.825587  1
  Br  Br8  1  0.363727  0.743622  0.706856  1
  Br  Br9  1  0.339293  0.582311  0.249203  1
  Br  Br10  1  0.647441  0.142296  0.816412  1
  Br  Br11  1  0.895124  0.532689  0.329372  1
  Br  Br12  1  0.043193  0.960782  0.661502  1
  Br  Br13  1  0.892655  0.095407  0.233468  1
  Br  Br14  1  0.886041  0.219570  0.779128  1
  Br  Br15  1  0.656809  0.045965  0.250569  1
  Br  Br16  1  0.016610  0.817512  0.128082  1
  Br  Br17  1  0.370400  0.969003  0.713461  1
  Br  Br18  1  0.895125  0.306980  0.298335  1
  Br  Br19  1  0.861112  0.933140  0.732899  1
  Br  Br20  1  0.883638  0.674445  0.786070  1
  Br  Br21  1  0.319700  0.036514  0.304191  1
  Br  Br22  1  0.332878  0.301978  0.288992  1
  Br  Br23  1  0.640559  0.614388  0.791284  1
  Br  Br24  1  0.123997  0.426890  0.351419  1
  Br  Br25  1  0.694514  0.904017  0.788892  1
  Br  Br26  1  0.890357  0.461821  0.795477  1
  Br  Br27  1  0.500857  0.037746  0.267445  1
  Br  Br28  1  0.151618  0.298530  0.628982  1
  Br  Br29  1  0.669095  0.777234  0.261790  1
  Br  Br30  1  0.839430  0.800304  0.206092  1
  Br  Br31  1  0.373142  0.191906  0.721541  1
  Br  Br32  1  0.351210  0.472466  0.547866  1
  Br  Br33  1  0.654808  0.545867  0.274699  1
  Br  Br34  1  0.162852  0.622216  0.564498  1
  Br  Br35  1  0.319847  0.814680  0.278267  1
