# generated using pymatgen
data_Pr2Tc5(PIr)7
_symmetry_space_group_name_H-M   'P 1'
_cell_length_a   9.58479109
_cell_length_b   9.52599896
_cell_length_c   4.03224800
_cell_angle_alpha   90.00000000
_cell_angle_beta   90.00000000
_cell_angle_gamma   120.11828259
_symmetry_Int_Tables_number   1
_chemical_formula_structural   Pr2Tc5(PIr)7
_chemical_formula_sum   'Pr2 Tc5 P7 Ir7'
_cell_volume   318.45801262
_cell_formula_units_Z   1
loop_
 _symmetry_equiv_pos_site_id
 _symmetry_equiv_pos_as_xyz
  1  'x, y, z'
loop_
 _atom_site_type_symbol
 _atom_site_label
 _atom_site_symmetry_multiplicity
 _atom_site_fract_x
 _atom_site_fract_y
 _atom_site_fract_z
 _atom_site_occupancy
  Pr  Pr0  1  0.332606  0.668654  0.000000  1
  Pr  Pr1  1  0.669539  0.334825  0.500000  1
  Tc  Tc2  1  0.161951  0.897576  0.000000  1
  Tc  Tc3  1  0.111976  0.268599  0.000000  1
  Tc  Tc4  1  0.723718  0.834791  0.000000  1
  Tc  Tc5  1  0.872708  0.089734  0.500000  1
  Tc  Tc6  1  0.906164  0.778996  0.500000  1
  P  P7  1  0.419988  0.112186  0.000000  1
  P  P8  1  0.889333  0.300063  0.000000  1
  P  P9  1  0.701559  0.585243  0.000000  1
  P  P10  1  0.115705  0.720926  0.500000  1
  P  P11  1  0.278450  0.402456  0.500000  1
  P  P12  1  0.602483  0.882074  0.500000  1
  P  P13  1  0.990755  0.994376  0.000000  1
  Ir  Ir14  1  0.433454  0.362431  0.000000  1
  Ir  Ir15  1  0.637474  0.068517  0.000000  1
  Ir  Ir16  1  0.933938  0.568108  0.000000  1
  Ir  Ir17  1  0.391177  0.948116  0.500000  1
  Ir  Ir18  1  0.052566  0.443292  0.500000  1
  Ir  Ir19  1  0.551236  0.604262  0.500000  1
  Ir  Ir20  1  0.223223  0.134778  0.500000  1
