# generated using pymatgen
data_Dy2Si5IrOs2
_symmetry_space_group_name_H-M   'P 1'
_cell_length_a   8.11365909
_cell_length_b   8.11365842
_cell_length_c   5.80056723
_cell_angle_alpha   70.86197812
_cell_angle_beta   70.86198779
_cell_angle_gamma   94.01633625
_symmetry_Int_Tables_number   1
_chemical_formula_structural   Dy2Si5IrOs2
_chemical_formula_sum   'Dy4 Si10 Ir2 Os4'
_cell_volume   334.00696640
_cell_formula_units_Z   2
loop_
 _symmetry_equiv_pos_site_id
 _symmetry_equiv_pos_as_xyz
  1  'x, y, z'
loop_
 _atom_site_type_symbol
 _atom_site_label
 _atom_site_symmetry_multiplicity
 _atom_site_fract_x
 _atom_site_fract_y
 _atom_site_fract_z
 _atom_site_occupancy
  Dy  Dy0  1  0.866553  0.599516  0.757498  1
  Dy  Dy1  1  0.400484  0.133447  0.742502  1
  Dy  Dy2  1  0.130762  0.399333  0.246678  1
  Dy  Dy3  1  0.600667  0.869238  0.253322  1
  Si  Si4  1  0.063988  0.259409  0.837495  1
  Si  Si5  1  0.740591  0.936012  0.662505  1
  Si  Si6  1  0.934349  0.736712  0.166713  1
  Si  Si7  1  0.263288  0.065651  0.333287  1
  Si  Si8  1  0.207742  0.792258  0.750000  1
  Si  Si9  1  0.793053  0.206947  0.250000  1
  Si  Si10  1  0.514936  0.485064  0.750000  1
  Si  Si11  1  0.487249  0.512751  0.250000  1
  Si  Si12  1  0.772689  0.227311  0.750000  1
  Si  Si13  1  0.223635  0.776365  0.250000  1
  Ir  Ir14  1  0.255199  0.542163  0.629923  1
  Ir  Ir15  1  0.457837  0.744801  0.870077  1
  Os  Os16  1  0.742525  0.457596  0.368135  1
  Os  Os17  1  0.542404  0.257475  0.131865  1
  Os  Os18  1  0.005358  0.994642  0.750000  1
  Os  Os19  1  0.996690  0.003310  0.250000  1
