# generated using pymatgen
data_Sr6Tl2IrRhO12
_symmetry_space_group_name_H-M   'P 1'
_cell_length_a   6.90412181
_cell_length_b   6.90412231
_cell_length_c   6.90412183
_cell_angle_alpha   88.89847017
_cell_angle_beta   88.89846875
_cell_angle_gamma   88.89847252
_symmetry_Int_Tables_number   1
_chemical_formula_structural   Sr6Tl2IrRhO12
_chemical_formula_sum   'Sr6 Tl2 Ir1 Rh1 O12'
_cell_volume   328.91794790
_cell_formula_units_Z   1
loop_
 _symmetry_equiv_pos_site_id
 _symmetry_equiv_pos_as_xyz
  1  'x, y, z'
loop_
 _atom_site_type_symbol
 _atom_site_label
 _atom_site_symmetry_multiplicity
 _atom_site_fract_x
 _atom_site_fract_y
 _atom_site_fract_z
 _atom_site_occupancy
  Sr  Sr0  1  0.249697  0.615388  0.882835  1
  Sr  Sr1  1  0.882835  0.249697  0.615388  1
  Sr  Sr2  1  0.615388  0.882835  0.249697  1
  Sr  Sr3  1  0.750303  0.384612  0.117165  1
  Sr  Sr4  1  0.117165  0.750303  0.384612  1
  Sr  Sr5  1  0.384612  0.117165  0.750303  1
  Tl  Tl6  1  0.746515  0.746515  0.746515  1
  Tl  Tl7  1  0.253485  0.253485  0.253485  1
  Ir  Ir8  1  0.000000  0.000000  0.000000  1
  Rh  Rh9  1  0.500000  0.500000  0.500000  1
  O  O10  1  0.086142  0.283692  0.953939  1
  O  O11  1  0.953939  0.086142  0.283692  1
  O  O12  1  0.283692  0.953939  0.086142  1
  O  O13  1  0.414574  0.553509  0.214796  1
  O  O14  1  0.214796  0.414574  0.553509  1
  O  O15  1  0.553509  0.214796  0.414574  1
  O  O16  1  0.913858  0.716308  0.046061  1
  O  O17  1  0.046061  0.913858  0.716308  1
  O  O18  1  0.716308  0.046061  0.913858  1
  O  O19  1  0.585426  0.446491  0.785204  1
  O  O20  1  0.446491  0.785204  0.585426  1
  O  O21  1  0.785204  0.585426  0.446491  1
