# generated using pymatgen
data_PrYLu2(WO6)2
_symmetry_space_group_name_H-M   'P 1'
_cell_length_a   5.43203700
_cell_length_b   7.73178571
_cell_length_c   11.42514215
_cell_angle_alpha   75.83597985
_cell_angle_beta   90.00000000
_cell_angle_gamma   90.00000000
_symmetry_Int_Tables_number   1
_chemical_formula_structural   PrYLu2(WO6)2
_chemical_formula_sum   'Pr2 Y2 Lu4 W4 O24'
_cell_volume   465.26072275
_cell_formula_units_Z   2
loop_
 _symmetry_equiv_pos_site_id
 _symmetry_equiv_pos_as_xyz
  1  'x, y, z'
loop_
 _atom_site_type_symbol
 _atom_site_label
 _atom_site_symmetry_multiplicity
 _atom_site_fract_x
 _atom_site_fract_y
 _atom_site_fract_z
 _atom_site_occupancy
  Pr  Pr0  1  0.314140  0.500000  0.750000  1
  Pr  Pr1  1  0.685860  0.500000  0.250000  1
  Y  Y2  1  0.255303  0.000000  0.750000  1
  Y  Y3  1  0.744697  0.000000  0.250000  1
  Lu  Lu4  1  0.184162  0.796437  0.077851  1
  Lu  Lu5  1  0.184162  0.203563  0.422149  1
  Lu  Lu6  1  0.815838  0.203563  0.922149  1
  Lu  Lu7  1  0.815838  0.796437  0.577851  1
  W  W8  1  0.745542  0.728730  0.884645  1
  W  W9  1  0.254458  0.728730  0.384645  1
  W  W10  1  0.745542  0.271270  0.615355  1
  W  W11  1  0.254458  0.271270  0.115355  1
  O  O12  1  0.540661  0.159383  0.067178  1
  O  O13  1  0.047695  0.056321  0.101904  1
  O  O14  1  0.013151  0.722407  0.767964  1
  O  O15  1  0.459339  0.159383  0.567178  1
  O  O16  1  0.343778  0.491859  0.387826  1
  O  O17  1  0.952305  0.056321  0.601904  1
  O  O18  1  0.548674  0.796660  0.724680  1
  O  O19  1  0.451326  0.796660  0.224680  1
  O  O20  1  0.139912  0.642987  0.546546  1
  O  O21  1  0.047695  0.943679  0.398096  1
  O  O22  1  0.459339  0.840617  0.932822  1
  O  O23  1  0.451326  0.203340  0.275320  1
  O  O24  1  0.860088  0.357013  0.453454  1
  O  O25  1  0.656222  0.491859  0.887826  1
  O  O26  1  0.343778  0.508141  0.112174  1
  O  O27  1  0.952305  0.943679  0.898096  1
  O  O28  1  0.540661  0.840617  0.432822  1
  O  O29  1  0.986849  0.277593  0.232036  1
  O  O30  1  0.548674  0.203340  0.775320  1
  O  O31  1  0.860088  0.642987  0.046546  1
  O  O32  1  0.013151  0.277593  0.732036  1
  O  O33  1  0.139912  0.357013  0.953454  1
  O  O34  1  0.986849  0.722407  0.267964  1
  O  O35  1  0.656222  0.508141  0.612174  1
