# generated using pymatgen
data_Pr2GdBiO7
_symmetry_space_group_name_H-M   'P 1'
_cell_length_a   6.75959705
_cell_length_b   6.77669327
_cell_length_c   7.95933800
_cell_angle_alpha   106.89161796
_cell_angle_beta   89.86045598
_cell_angle_gamma   98.59070077
_symmetry_Int_Tables_number   1
_chemical_formula_structural   Pr2GdBiO7
_chemical_formula_sum   'Pr4 Gd2 Bi2 O14'
_cell_volume   344.63125032
_cell_formula_units_Z   2
loop_
 _symmetry_equiv_pos_site_id
 _symmetry_equiv_pos_as_xyz
  1  'x, y, z'
loop_
 _atom_site_type_symbol
 _atom_site_label
 _atom_site_symmetry_multiplicity
 _atom_site_fract_x
 _atom_site_fract_y
 _atom_site_fract_z
 _atom_site_occupancy
  Pr  Pr0  1  0.268327  0.538406  0.883194  1
  Pr  Pr1  1  0.731673  0.461594  0.116806  1
  Pr  Pr2  1  0.739365  0.478721  0.616009  1
  Pr  Pr3  1  0.260635  0.521279  0.383991  1
  Gd  Gd4  1  0.462706  0.004972  0.253385  1
  Gd  Gd5  1  0.537294  0.995028  0.746615  1
  Bi  Bi6  1  0.000000  0.000000  0.500000  1
  Bi  Bi7  1  0.000000  0.000000  0.000000  1
  O  O8  1  0.443611  0.653103  0.168993  1
  O  O9  1  0.556389  0.346897  0.831007  1
  O  O10  1  0.299677  0.932620  0.954372  1
  O  O11  1  0.700323  0.067380  0.045628  1
  O  O12  1  0.296193  0.931524  0.513255  1
  O  O13  1  0.703807  0.068476  0.486745  1
  O  O14  1  0.545173  0.355338  0.343715  1
  O  O15  1  0.454827  0.644662  0.656285  1
  O  O16  1  0.926402  0.672468  0.953674  1
  O  O17  1  0.073598  0.327532  0.046326  1
  O  O18  1  0.071628  0.337950  0.614412  1
  O  O19  1  0.928372  0.662050  0.385588  1
  O  O20  1  0.883344  0.916481  0.728471  1
  O  O21  1  0.116656  0.083519  0.271529  1
