# generated using pymatgen
data_Th3Sc13Cd4FeNi3
_symmetry_space_group_name_H-M   'P 1'
_cell_length_a   9.10910634
_cell_length_b   9.16674632
_cell_length_c   9.16674563
_cell_angle_alpha   59.65782616
_cell_angle_beta   59.73079436
_cell_angle_gamma   59.73079711
_symmetry_Int_Tables_number   1
_chemical_formula_structural   Th3Sc13Cd4FeNi3
_chemical_formula_sum   'Th3 Sc13 Cd4 Fe1 Ni3'
_cell_volume   537.63245636
_cell_formula_units_Z   1
loop_
 _symmetry_equiv_pos_site_id
 _symmetry_equiv_pos_as_xyz
  1  'x, y, z'
loop_
 _atom_site_type_symbol
 _atom_site_label
 _atom_site_symmetry_multiplicity
 _atom_site_fract_x
 _atom_site_fract_y
 _atom_site_fract_z
 _atom_site_occupancy
  Th  Th0  1  0.344258  0.352562  0.352562  1
  Th  Th1  1  0.339824  0.346395  0.957283  1
  Th  Th2  1  0.339824  0.957283  0.346395  1
  Sc  Sc3  1  0.947573  0.349753  0.349753  1
  Sc  Sc4  1  0.825837  0.185719  0.185719  1
  Sc  Sc5  1  0.187032  0.814357  0.814357  1
  Sc  Sc6  1  0.184908  0.818775  0.183395  1
  Sc  Sc7  1  0.813764  0.187463  0.810999  1
  Sc  Sc8  1  0.184908  0.183395  0.818775  1
  Sc  Sc9  1  0.813764  0.810999  0.187463  1
  Sc  Sc10  1  0.932654  0.566785  0.566785  1
  Sc  Sc11  1  0.560304  0.932011  0.932011  1
  Sc  Sc12  1  0.565792  0.931707  0.566595  1
  Sc  Sc13  1  0.931119  0.565484  0.934224  1
  Sc  Sc14  1  0.565792  0.566595  0.931707  1
  Sc  Sc15  1  0.931119  0.934224  0.565484  1
  Cd  Cd16  1  0.590044  0.581769  0.581769  1
  Cd  Cd17  1  0.592329  0.580771  0.245118  1
  Cd  Cd18  1  0.592329  0.245118  0.580771  1
  Cd  Cd19  1  0.242464  0.585558  0.585558  1
  Fe  Fe20  1  0.156080  0.136667  0.136667  1
  Ni  Ni21  1  0.137455  0.142038  0.582498  1
  Ni  Ni22  1  0.137455  0.582498  0.142038  1
  Ni  Ni23  1  0.583371  0.142079  0.142079  1
