# generated using pymatgen
data_Tm6SnB2Rh12Pb
_symmetry_space_group_name_H-M   'P 1'
_cell_length_a   5.79183200
_cell_length_b   5.79183231
_cell_length_c   13.84543600
_cell_angle_alpha   90.00000000
_cell_angle_beta   90.00000000
_cell_angle_gamma   119.99999825
_symmetry_Int_Tables_number   1
_chemical_formula_structural   Tm6SnB2Rh12Pb
_chemical_formula_sum   'Tm6 Sn1 B2 Rh12 Pb1'
_cell_volume   402.22513943
_cell_formula_units_Z   1
loop_
 _symmetry_equiv_pos_site_id
 _symmetry_equiv_pos_as_xyz
  1  'x, y, z'
loop_
 _atom_site_type_symbol
 _atom_site_label
 _atom_site_symmetry_multiplicity
 _atom_site_fract_x
 _atom_site_fract_y
 _atom_site_fract_z
 _atom_site_occupancy
  Tm  Tm0  1  0.000000  0.000000  0.750000  1
  Tm  Tm1  1  0.000000  0.000000  0.250000  1
  Tm  Tm2  1  0.333333  0.666667  0.412414  1
  Tm  Tm3  1  0.666667  0.333333  0.914244  1
  Tm  Tm4  1  0.666667  0.333333  0.585756  1
  Tm  Tm5  1  0.333333  0.666667  0.087586  1
  Sn  Sn6  1  0.666667  0.333333  0.250000  1
  B  B7  1  0.000000  0.000000  0.498520  1
  B  B8  1  0.000000  0.000000  0.001480  1
  Rh  Rh9  1  0.344293  0.172147  0.412414  1
  Rh  Rh10  1  0.827853  0.172147  0.412414  1
  Rh  Rh11  1  0.827853  0.655707  0.412414  1
  Rh  Rh12  1  0.171405  0.342808  0.915012  1
  Rh  Rh13  1  0.657192  0.828595  0.584988  1
  Rh  Rh14  1  0.657192  0.828595  0.915012  1
  Rh  Rh15  1  0.344293  0.172147  0.087586  1
  Rh  Rh16  1  0.171405  0.342808  0.584988  1
  Rh  Rh17  1  0.171405  0.828595  0.584988  1
  Rh  Rh18  1  0.827853  0.172147  0.087586  1
  Rh  Rh19  1  0.827853  0.655707  0.087586  1
  Rh  Rh20  1  0.171405  0.828595  0.915012  1
  Pb  Pb21  1  0.333333  0.666667  0.750000  1
