# generated using pymatgen
data_Er3Tm2In4CuPt
_symmetry_space_group_name_H-M   'P 1'
_cell_length_a   3.60089300
_cell_length_b   8.04349241
_cell_length_c   18.01354517
_cell_angle_alpha   90.06993209
_cell_angle_beta   90.00000000
_cell_angle_gamma   90.00000000
_symmetry_Int_Tables_number   1
_chemical_formula_structural   Er3Tm2In4CuPt
_chemical_formula_sum   'Er6 Tm4 In8 Cu2 Pt2'
_cell_volume   521.73952929
_cell_formula_units_Z   2
loop_
 _symmetry_equiv_pos_site_id
 _symmetry_equiv_pos_as_xyz
  1  'x, y, z'
loop_
 _atom_site_type_symbol
 _atom_site_label
 _atom_site_symmetry_multiplicity
 _atom_site_fract_x
 _atom_site_fract_y
 _atom_site_fract_z
 _atom_site_occupancy
  Er  Er0  1  0.000000  0.245905  0.219700  1
  Er  Er1  1  0.000000  0.754095  0.780300  1
  Er  Er2  1  0.000000  0.259707  0.720339  1
  Er  Er3  1  0.000000  0.740293  0.279661  1
  Er  Er4  1  0.000000  0.000000  0.000000  1
  Er  Er5  1  0.000000  0.500000  0.500000  1
  Tm  Tm6  1  0.000000  0.117308  0.415092  1
  Tm  Tm7  1  0.000000  0.882692  0.584908  1
  Tm  Tm8  1  0.000000  0.383435  0.915501  1
  Tm  Tm9  1  0.000000  0.616565  0.084499  1
  In  In10  1  0.500000  0.421438  0.352223  1
  In  In11  1  0.500000  0.578562  0.647777  1
  In  In12  1  0.500000  0.074847  0.849820  1
  In  In13  1  0.500000  0.925153  0.150180  1
  In  In14  1  0.500000  0.292160  0.066276  1
  In  In15  1  0.500000  0.707840  0.933724  1
  In  In16  1  0.500000  0.206752  0.567677  1
  In  In17  1  0.500000  0.793248  0.432323  1
  Cu  Cu18  1  0.500000  0.026206  0.302349  1
  Cu  Cu19  1  0.500000  0.973794  0.697651  1
  Pt  Pt20  1  0.500000  0.473246  0.802666  1
  Pt  Pt21  1  0.500000  0.526754  0.197334  1
