# generated using pymatgen
data_Rb4Ti(TeSe)2
_symmetry_space_group_name_H-M   'P 1'
_cell_length_a   9.06061200
_cell_length_b   10.74494000
_cell_length_c   15.66098700
_cell_angle_alpha   90.00000000
_cell_angle_beta   90.00000000
_cell_angle_gamma   90.00000000
_symmetry_Int_Tables_number   1
_chemical_formula_structural   Rb4Ti(TeSe)2
_chemical_formula_sum   'Rb16 Ti4 Te8 Se8'
_cell_volume   1524.68685798
_cell_formula_units_Z   4
loop_
 _symmetry_equiv_pos_site_id
 _symmetry_equiv_pos_as_xyz
  1  'x, y, z'
loop_
 _atom_site_type_symbol
 _atom_site_label
 _atom_site_symmetry_multiplicity
 _atom_site_fract_x
 _atom_site_fract_y
 _atom_site_fract_z
 _atom_site_occupancy
  Rb  Rb0  1  0.500000  0.500000  0.500000  1
  Rb  Rb1  1  0.148407  0.455711  0.275608  1
  Rb  Rb2  1  0.148407  0.044289  0.275608  1
  Rb  Rb3  1  0.991385  0.750000  0.435088  1
  Rb  Rb4  1  0.008615  0.250000  0.564912  1
  Rb  Rb5  1  0.648407  0.955711  0.224392  1
  Rb  Rb6  1  0.351593  0.044289  0.775608  1
  Rb  Rb7  1  0.851593  0.955711  0.724392  1
  Rb  Rb8  1  0.351593  0.455711  0.775608  1
  Rb  Rb9  1  0.000000  0.500000  0.000000  1
  Rb  Rb10  1  0.491385  0.250000  0.064912  1
  Rb  Rb11  1  0.648407  0.544289  0.224392  1
  Rb  Rb12  1  0.508615  0.750000  0.935088  1
  Rb  Rb13  1  0.000000  0.000000  0.000000  1
  Rb  Rb14  1  0.851593  0.544289  0.724392  1
  Rb  Rb15  1  0.500000  0.000000  0.500000  1
  Ti  Ti16  1  0.739638  0.250000  0.837758  1
  Ti  Ti17  1  0.760362  0.250000  0.337758  1
  Ti  Ti18  1  0.239638  0.750000  0.662242  1
  Ti  Ti19  1  0.260362  0.750000  0.162242  1
  Te  Te20  1  0.533896  0.750000  0.671618  1
  Te  Te21  1  0.466104  0.250000  0.328382  1
  Te  Te22  1  0.366098  0.750000  0.322227  1
  Te  Te23  1  0.133902  0.750000  0.822227  1
  Te  Te24  1  0.033896  0.250000  0.828382  1
  Te  Te25  1  0.966104  0.750000  0.171618  1
  Te  Te26  1  0.633902  0.250000  0.677773  1
  Te  Te27  1  0.866098  0.250000  0.177773  1
  Se  Se28  1  0.842042  0.434699  0.407824  1
  Se  Se29  1  0.657958  0.065301  0.907824  1
  Se  Se30  1  0.342042  0.934699  0.092176  1
  Se  Se31  1  0.342042  0.565301  0.092176  1
  Se  Se32  1  0.157958  0.565301  0.592176  1
  Se  Se33  1  0.842042  0.065301  0.407824  1
  Se  Se34  1  0.157958  0.934699  0.592176  1
  Se  Se35  1  0.657958  0.434699  0.907824  1
