# generated using pymatgen
data_YEr2(CdHg2)3
_symmetry_space_group_name_H-M   'P 1'
_cell_length_a   5.10171130
_cell_length_b   7.05047800
_cell_length_c   15.54852492
_cell_angle_alpha   90.00000000
_cell_angle_beta   90.03936057
_cell_angle_gamma   90.00000000
_symmetry_Int_Tables_number   1
_chemical_formula_structural   YEr2(CdHg2)3
_chemical_formula_sum   'Y2 Er4 Cd6 Hg12'
_cell_volume   559.27258619
_cell_formula_units_Z   2
loop_
 _symmetry_equiv_pos_site_id
 _symmetry_equiv_pos_as_xyz
  1  'x, y, z'
loop_
 _atom_site_type_symbol
 _atom_site_label
 _atom_site_symmetry_multiplicity
 _atom_site_fract_x
 _atom_site_fract_y
 _atom_site_fract_z
 _atom_site_occupancy
  Y  Y0  1  0.000066  0.000000  0.666718  1
  Y  Y1  1  0.500124  0.500000  0.833316  1
  Er  Er2  1  0.999913  0.000000  0.999644  1
  Er  Er3  1  0.499896  0.500000  0.166623  1
  Er  Er4  1  0.999917  0.000000  0.333664  1
  Er  Er5  1  0.500098  0.500000  0.500137  1
  Cd  Cd6  1  0.000039  0.500000  0.999783  1
  Cd  Cd7  1  0.499884  0.000000  0.166963  1
  Cd  Cd8  1  0.999978  0.500000  0.333288  1
  Cd  Cd9  1  0.499967  0.000000  0.500002  1
  Cd  Cd10  1  0.000070  0.500000  0.666772  1
  Cd  Cd11  1  0.500065  0.000000  0.833142  1
  Hg  Hg12  1  0.500021  0.250878  0.000859  1
  Hg  Hg13  1  0.500021  0.749121  0.000859  1
  Hg  Hg14  1  0.000014  0.247829  0.166719  1
  Hg  Hg15  1  0.000014  0.752172  0.166719  1
  Hg  Hg16  1  0.499802  0.252130  0.333525  1
  Hg  Hg17  1  0.499802  0.747871  0.333525  1
  Hg  Hg18  1  0.999977  0.249201  0.499041  1
  Hg  Hg19  1  0.999977  0.750800  0.499041  1
  Hg  Hg20  1  0.499984  0.253326  0.665642  1
  Hg  Hg21  1  0.499984  0.746675  0.665642  1
  Hg  Hg22  1  0.000193  0.246786  0.834189  1
  Hg  Hg23  1  0.000193  0.753215  0.834189  1
