# generated using pymatgen
data_Tm5GaCoSb
_symmetry_space_group_name_H-M   'P 1'
_cell_length_a   8.40441566
_cell_length_b   8.40441580
_cell_length_c   8.58121092
_cell_angle_alpha   125.40968694
_cell_angle_beta   125.40968870
_cell_angle_gamma   79.44289842
_symmetry_Int_Tables_number   1
_chemical_formula_structural   Tm5GaCoSb
_chemical_formula_sum   'Tm10 Ga2 Co2 Sb2'
_cell_volume   391.87873347
_cell_formula_units_Z   2
loop_
 _symmetry_equiv_pos_site_id
 _symmetry_equiv_pos_as_xyz
  1  'x, y, z'
loop_
 _atom_site_type_symbol
 _atom_site_label
 _atom_site_symmetry_multiplicity
 _atom_site_fract_x
 _atom_site_fract_y
 _atom_site_fract_z
 _atom_site_occupancy
  Tm  Tm0  1  0.000000  0.000000  0.000000  1
  Tm  Tm1  1  0.500000  0.500000  0.000000  1
  Tm  Tm2  1  0.782422  0.282422  0.790904  1
  Tm  Tm3  1  0.217578  0.717578  0.209096  1
  Tm  Tm4  1  0.491518  0.991518  0.209096  1
  Tm  Tm5  1  0.313300  0.455179  0.500000  1
  Tm  Tm6  1  0.044821  0.186700  0.500000  1
  Tm  Tm7  1  0.508482  0.008482  0.790904  1
  Tm  Tm8  1  0.686700  0.544821  0.500000  1
  Tm  Tm9  1  0.955179  0.813300  0.500000  1
  Ga  Ga10  1  0.135128  0.635128  0.770258  1
  Ga  Ga11  1  0.864872  0.364872  0.229742  1
  Co  Co12  1  0.630962  0.869038  0.500000  1
  Co  Co13  1  0.369038  0.130962  0.500000  1
  Sb  Sb14  1  0.250000  0.250000  0.000000  1
  Sb  Sb15  1  0.750000  0.750000  0.000000  1
