# generated using pymatgen
data_Tb5In4NiIr
_symmetry_space_group_name_H-M   'P 1'
_cell_length_a   3.63481600
_cell_length_b   8.12372833
_cell_length_c   18.22194986
_cell_angle_alpha   90.03382742
_cell_angle_beta   90.00000000
_cell_angle_gamma   90.00000000
_symmetry_Int_Tables_number   1
_chemical_formula_structural   Tb5In4NiIr
_chemical_formula_sum   'Tb10 In8 Ni2 Ir2'
_cell_volume   538.06233744
_cell_formula_units_Z   2
loop_
 _symmetry_equiv_pos_site_id
 _symmetry_equiv_pos_as_xyz
  1  'x, y, z'
loop_
 _atom_site_type_symbol
 _atom_site_label
 _atom_site_symmetry_multiplicity
 _atom_site_fract_x
 _atom_site_fract_y
 _atom_site_fract_z
 _atom_site_occupancy
  Tb  Tb0  1  0.000000  0.500000  0.500000  1
  Tb  Tb1  1  0.000000  0.000000  0.000000  1
  Tb  Tb2  1  0.000000  0.741946  0.278798  1
  Tb  Tb3  1  0.000000  0.258054  0.721202  1
  Tb  Tb4  1  0.000000  0.749135  0.777572  1
  Tb  Tb5  1  0.000000  0.250865  0.222428  1
  Tb  Tb6  1  0.000000  0.617712  0.087833  1
  Tb  Tb7  1  0.000000  0.382288  0.912167  1
  Tb  Tb8  1  0.000000  0.883717  0.588762  1
  Tb  Tb9  1  0.000000  0.116283  0.411238  1
  In  In10  1  0.500000  0.707238  0.930607  1
  In  In11  1  0.500000  0.292762  0.069393  1
  In  In12  1  0.500000  0.795531  0.431446  1
  In  In13  1  0.500000  0.204469  0.568554  1
  In  In14  1  0.500000  0.572180  0.648834  1
  In  In15  1  0.500000  0.427820  0.351166  1
  In  In16  1  0.500000  0.929802  0.152476  1
  In  In17  1  0.500000  0.070198  0.847524  1
  Ni  Ni18  1  0.500000  0.979442  0.695277  1
  Ni  Ni19  1  0.500000  0.020558  0.304723  1
  Ir  Ir20  1  0.500000  0.521793  0.196443  1
  Ir  Ir21  1  0.500000  0.478207  0.803557  1
