# generated using pymatgen
data_HfSc3(VRe3)2
_symmetry_space_group_name_H-M   'P 1'
_cell_length_a   5.17810466
_cell_length_b   5.25823216
_cell_length_c   8.58859100
_cell_angle_alpha   90.00000000
_cell_angle_beta   89.95411340
_cell_angle_gamma   120.51323650
_symmetry_Int_Tables_number   1
_chemical_formula_structural   HfSc3(VRe3)2
_chemical_formula_sum   'Hf1 Sc3 V2 Re6'
_cell_volume   201.46220767
_cell_formula_units_Z   1
loop_
 _symmetry_equiv_pos_site_id
 _symmetry_equiv_pos_as_xyz
  1  'x, y, z'
loop_
 _atom_site_type_symbol
 _atom_site_label
 _atom_site_symmetry_multiplicity
 _atom_site_fract_x
 _atom_site_fract_y
 _atom_site_fract_z
 _atom_site_occupancy
  Hf  Hf0  1  0.331560  0.665780  0.439651  1
  Sc  Sc1  1  0.668765  0.334382  0.939778  1
  Sc  Sc2  1  0.667910  0.333954  0.561811  1
  Sc  Sc3  1  0.330502  0.665252  0.060702  1
  V  V4  1  0.667816  0.833908  0.749382  1
  V  V5  1  0.332840  0.166421  0.250088  1
  Re  Re6  1  0.824083  0.170239  0.250026  1
  Re  Re7  1  0.176218  0.346179  0.749380  1
  Re  Re8  1  0.176218  0.830039  0.749380  1
  Re  Re9  1  0.824083  0.653844  0.250026  1
  Re  Re10  1  0.000683  0.000341  0.499871  1
  Re  Re11  1  0.999321  0.999661  0.999905  1
