# generated using pymatgen
data_DyHoLu2(B6Os)2
_symmetry_space_group_name_H-M   'P 1'
_cell_length_a   3.61697200
_cell_length_b   9.07246700
_cell_length_c   11.45940600
_cell_angle_alpha   90.00267882
_cell_angle_beta   90.00000000
_cell_angle_gamma   90.00000000
_symmetry_Int_Tables_number   1
_chemical_formula_structural   DyHoLu2(B6Os)2
_chemical_formula_sum   'Dy2 Ho2 Lu4 B24 Os4'
_cell_volume   376.03879317
_cell_formula_units_Z   2
loop_
 _symmetry_equiv_pos_site_id
 _symmetry_equiv_pos_as_xyz
  1  'x, y, z'
loop_
 _atom_site_type_symbol
 _atom_site_label
 _atom_site_symmetry_multiplicity
 _atom_site_fract_x
 _atom_site_fract_y
 _atom_site_fract_z
 _atom_site_occupancy
  Dy  Dy0  1  0.000000  0.321383  0.413995  1
  Dy  Dy1  1  0.000000  0.678617  0.586005  1
  Ho  Ho2  1  0.000000  0.821331  0.085925  1
  Ho  Ho3  1  0.000000  0.178669  0.914075  1
  Lu  Lu4  1  0.000000  0.944258  0.373063  1
  Lu  Lu5  1  0.000000  0.055742  0.626937  1
  Lu  Lu6  1  0.000000  0.444258  0.126779  1
  Lu  Lu7  1  0.000000  0.555742  0.873221  1
  B  B8  1  0.500000  0.554399  0.432864  1
  B  B9  1  0.500000  0.445601  0.567136  1
  B  B10  1  0.500000  0.054248  0.066883  1
  B  B11  1  0.500000  0.945752  0.933117  1
  B  B12  1  0.500000  0.749781  0.419515  1
  B  B13  1  0.500000  0.250219  0.580485  1
  B  B14  1  0.500000  0.249640  0.080218  1
  B  B15  1  0.500000  0.750360  0.919782  1
  B  B16  1  0.500000  0.792209  0.265943  1
  B  B17  1  0.500000  0.207791  0.734056  1
  B  B18  1  0.500000  0.292056  0.233767  1
  B  B19  1  0.500000  0.707944  0.766234  1
  B  B20  1  0.500000  0.630988  0.184309  1
  B  B21  1  0.500000  0.369012  0.815691  1
  B  B22  1  0.500000  0.130796  0.315471  1
  B  B23  1  0.500000  0.869204  0.684529  1
  B  B24  1  0.500000  0.982413  0.213562  1
  B  B25  1  0.500000  0.017587  0.786438  1
  B  B26  1  0.500000  0.482641  0.286203  1
  B  B27  1  0.500000  0.517359  0.713797  1
  B  B28  1  0.500000  0.604498  0.028762  1
  B  B29  1  0.500000  0.395502  0.971238  1
  B  B30  1  0.500000  0.104119  0.471335  1
  B  B31  1  0.500000  0.895881  0.528665  1
  Os  Os32  1  0.000000  0.638358  0.320239  1
  Os  Os33  1  0.000000  0.361642  0.679761  1
  Os  Os34  1  0.000000  0.138042  0.179396  1
  Os  Os35  1  0.000000  0.861958  0.820604  1
