# generated using pymatgen
data_MgPa4InPt4
_symmetry_space_group_name_H-M   'P 1'
_cell_length_a   7.81410400
_cell_length_b   7.81410400
_cell_length_c   3.67511600
_cell_angle_alpha   90.00000000
_cell_angle_beta   90.00000000
_cell_angle_gamma   90.00000000
_symmetry_Int_Tables_number   1
_chemical_formula_structural   MgPa4InPt4
_chemical_formula_sum   'Mg1 Pa4 In1 Pt4'
_cell_volume   224.40339635
_cell_formula_units_Z   1
loop_
 _symmetry_equiv_pos_site_id
 _symmetry_equiv_pos_as_xyz
  1  'x, y, z'
loop_
 _atom_site_type_symbol
 _atom_site_label
 _atom_site_symmetry_multiplicity
 _atom_site_fract_x
 _atom_site_fract_y
 _atom_site_fract_z
 _atom_site_occupancy
  Mg  Mg0  1  0.000000  0.000000  0.000000  1
  Pa  Pa1  1  0.674315  0.171950  0.500000  1
  Pa  Pa2  1  0.171950  0.325685  0.500000  1
  Pa  Pa3  1  0.325685  0.828050  0.500000  1
  Pa  Pa4  1  0.828050  0.674315  0.500000  1
  In  In5  1  0.500000  0.500000  0.000000  1
  Pt  Pt6  1  0.871743  0.365425  0.000000  1
  Pt  Pt7  1  0.634575  0.871743  0.000000  1
  Pt  Pt8  1  0.128257  0.634575  0.000000  1
  Pt  Pt9  1  0.365425  0.128257  0.000000  1
