# generated using pymatgen
data_La4Ce3O12
_symmetry_space_group_name_H-M   'P 1'
_cell_length_a   6.89157758
_cell_length_b   6.87784334
_cell_length_c   6.82837268
_cell_angle_alpha   99.66998446
_cell_angle_beta   98.84178570
_cell_angle_gamma   99.59719427
_symmetry_Int_Tables_number   1
_chemical_formula_structural   La4Ce3O12
_chemical_formula_sum   'La4 Ce3 O12'
_cell_volume   309.04886638
_cell_formula_units_Z   1
loop_
 _symmetry_equiv_pos_site_id
 _symmetry_equiv_pos_as_xyz
  1  'x, y, z'
loop_
 _atom_site_type_symbol
 _atom_site_label
 _atom_site_symmetry_multiplicity
 _atom_site_fract_x
 _atom_site_fract_y
 _atom_site_fract_z
 _atom_site_occupancy
  La  La0  1  0.860908  0.699491  0.395238  1
  La  La1  1  0.397950  0.863497  0.699261  1
  La  La2  1  0.700783  0.395965  0.861123  1
  La  La3  1  0.138209  0.297723  0.602253  1
  Ce  Ce4  1  0.601426  0.138445  0.302366  1
  Ce  Ce5  1  0.301487  0.603688  0.137849  1
  Ce  Ce6  1  0.002579  0.003522  0.005694  1
  O  O7  1  0.065366  0.934439  0.690200  1
  O  O8  1  0.688739  0.066093  0.937588  1
  O  O9  1  0.940489  0.687838  0.062758  1
  O  O10  1  0.921386  0.065595  0.313231  1
  O  O11  1  0.319716  0.937465  0.080244  1
  O  O12  1  0.077878  0.321846  0.950175  1
  O  O13  1  0.560526  0.828520  0.395398  1
  O  O14  1  0.187994  0.584090  0.418926  1
  O  O15  1  0.565278  0.421519  0.184363  1
  O  O16  1  0.440623  0.178163  0.569719  1
  O  O17  1  0.819307  0.403165  0.553848  1
  O  O18  1  0.409354  0.568936  0.839764  1
