# generated using pymatgen
data_Hf2Nb4FeB4Ru9
_symmetry_space_group_name_H-M   'P 1'
_cell_length_a   9.39212078
_cell_length_b   9.39212085
_cell_length_c   3.06646000
_cell_angle_alpha   90.00000000
_cell_angle_beta   90.00000000
_cell_angle_gamma   89.67586040
_symmetry_Int_Tables_number   1
_chemical_formula_structural   Hf2Nb4FeB4Ru9
_chemical_formula_sum   'Hf2 Nb4 Fe1 B4 Ru9'
_cell_volume   270.49403652
_cell_formula_units_Z   1
loop_
 _symmetry_equiv_pos_site_id
 _symmetry_equiv_pos_as_xyz
  1  'x, y, z'
loop_
 _atom_site_type_symbol
 _atom_site_label
 _atom_site_symmetry_multiplicity
 _atom_site_fract_x
 _atom_site_fract_y
 _atom_site_fract_z
 _atom_site_occupancy
  Hf  Hf0  1  0.822207  0.677793  0.000000  1
  Hf  Hf1  1  0.177793  0.322207  0.000000  1
  Nb  Nb2  1  0.329259  0.829259  0.000000  1
  Nb  Nb3  1  0.670741  0.170741  0.000000  1
  Nb  Nb4  1  0.500000  0.500000  0.000000  1
  Nb  Nb5  1  0.000000  0.000000  0.000000  1
  Fe  Fe6  1  0.500000  0.000000  0.500000  1
  B  B7  1  0.612084  0.887916  0.000000  1
  B  B8  1  0.387916  0.112084  0.000000  1
  B  B9  1  0.121917  0.621917  0.000000  1
  B  B10  1  0.878083  0.378083  0.000000  1
  Ru  Ru11  1  0.565823  0.724556  0.500000  1
  Ru  Ru12  1  0.434177  0.275444  0.500000  1
  Ru  Ru13  1  0.072850  0.783348  0.500000  1
  Ru  Ru14  1  0.927150  0.216652  0.500000  1
  Ru  Ru15  1  0.283348  0.572850  0.500000  1
  Ru  Ru16  1  0.716652  0.427150  0.500000  1
  Ru  Ru17  1  0.224556  0.065823  0.500000  1
  Ru  Ru18  1  0.775444  0.934177  0.500000  1
  Ru  Ru19  1  0.000000  0.500000  0.500000  1
