# generated using pymatgen
data_La2PrDy2(Sn5Rh2)2
_symmetry_space_group_name_H-M   'P 1'
_cell_length_a   14.26533700
_cell_length_b   14.26533700
_cell_length_c   4.59225700
_cell_angle_alpha   90.00000000
_cell_angle_beta   90.00000000
_cell_angle_gamma   90.00000000
_symmetry_Int_Tables_number   1
_chemical_formula_structural   La2PrDy2(Sn5Rh2)2
_chemical_formula_sum   'La4 Pr2 Dy4 Sn20 Rh8'
_cell_volume   934.52356347
_cell_formula_units_Z   2
loop_
 _symmetry_equiv_pos_site_id
 _symmetry_equiv_pos_as_xyz
  1  'x, y, z'
loop_
 _atom_site_type_symbol
 _atom_site_label
 _atom_site_symmetry_multiplicity
 _atom_site_fract_x
 _atom_site_fract_y
 _atom_site_fract_z
 _atom_site_occupancy
  La  La0  1  0.888791  0.388791  0.500000  1
  La  La1  1  0.111209  0.611209  0.500000  1
  La  La2  1  0.388791  0.111209  0.500000  1
  La  La3  1  0.611209  0.888791  0.500000  1
  Pr  Pr4  1  0.500000  0.500000  0.000000  1
  Pr  Pr5  1  0.000000  0.000000  0.000000  1
  Dy  Dy6  1  0.676776  0.176776  0.500000  1
  Dy  Dy7  1  0.323224  0.823224  0.500000  1
  Dy  Dy8  1  0.176776  0.323224  0.500000  1
  Dy  Dy9  1  0.823224  0.676776  0.500000  1
  Sn  Sn10  1  0.570683  0.070683  0.000000  1
  Sn  Sn11  1  0.429317  0.929317  0.000000  1
  Sn  Sn12  1  0.070683  0.429317  0.000000  1
  Sn  Sn13  1  0.929317  0.570683  0.000000  1
  Sn  Sn14  1  0.654691  0.697599  0.000000  1
  Sn  Sn15  1  0.345309  0.302401  0.000000  1
  Sn  Sn16  1  0.154691  0.802401  0.000000  1
  Sn  Sn17  1  0.845309  0.197599  0.000000  1
  Sn  Sn18  1  0.302401  0.654691  0.000000  1
  Sn  Sn19  1  0.697599  0.345309  0.000000  1
  Sn  Sn20  1  0.197599  0.154691  0.000000  1
  Sn  Sn21  1  0.802401  0.845309  0.000000  1
  Sn  Sn22  1  0.664100  0.506593  0.500000  1
  Sn  Sn23  1  0.335900  0.493407  0.500000  1
  Sn  Sn24  1  0.164100  0.993407  0.500000  1
  Sn  Sn25  1  0.835900  0.006593  0.500000  1
  Sn  Sn26  1  0.493407  0.664100  0.500000  1
  Sn  Sn27  1  0.506593  0.335900  0.500000  1
  Sn  Sn28  1  0.006593  0.164100  0.500000  1
  Sn  Sn29  1  0.993407  0.835900  0.500000  1
  Rh  Rh30  1  0.746926  0.529131  0.000000  1
  Rh  Rh31  1  0.253074  0.470869  0.000000  1
  Rh  Rh32  1  0.246926  0.970869  0.000000  1
  Rh  Rh33  1  0.753074  0.029131  0.000000  1
  Rh  Rh34  1  0.470869  0.746926  0.000000  1
  Rh  Rh35  1  0.529131  0.253074  0.000000  1
  Rh  Rh36  1  0.029131  0.246926  0.000000  1
  Rh  Rh37  1  0.970869  0.753074  0.000000  1
