# generated using pymatgen
data_Ho9Tm(Al2Ru3)2
_symmetry_space_group_name_H-M   'P 1'
_cell_length_a   8.30563768
_cell_length_b   8.30563659
_cell_length_c   8.30563701
_cell_angle_alpha   109.47121806
_cell_angle_beta   109.47121457
_cell_angle_gamma   109.47123441
_symmetry_Int_Tables_number   1
_chemical_formula_structural   Ho9Tm(Al2Ru3)2
_chemical_formula_sum   'Ho9 Tm1 Al4 Ru6'
_cell_volume   441.05925106
_cell_formula_units_Z   1
loop_
 _symmetry_equiv_pos_site_id
 _symmetry_equiv_pos_as_xyz
  1  'x, y, z'
loop_
 _atom_site_type_symbol
 _atom_site_label
 _atom_site_symmetry_multiplicity
 _atom_site_fract_x
 _atom_site_fract_y
 _atom_site_fract_z
 _atom_site_occupancy
  Ho  Ho0  1  0.477862  0.156198  0.225198  1
  Ho  Ho1  1  0.156198  0.225198  0.477862  1
  Ho  Ho2  1  0.225198  0.477862  0.156198  1
  Ho  Ho3  1  0.409113  0.692626  0.906697  1
  Ho  Ho4  1  0.692626  0.906697  0.409113  1
  Ho  Ho5  1  0.906697  0.409113  0.692626  1
  Ho  Ho6  1  0.657788  0.088516  0.838283  1
  Ho  Ho7  1  0.088516  0.838283  0.657788  1
  Ho  Ho8  1  0.838283  0.657788  0.088516  1
  Tm  Tm9  1  0.616415  0.616415  0.616415  1
  Al  Al10  1  0.408424  0.318090  0.910004  1
  Al  Al11  1  0.318090  0.910004  0.408424  1
  Al  Al12  1  0.910004  0.408424  0.318090  1
  Al  Al13  1  0.994402  0.994402  0.994402  1
  Ru  Ru14  1  0.034740  0.158081  0.784418  1
  Ru  Ru15  1  0.158081  0.784418  0.034740  1
  Ru  Ru16  1  0.784418  0.034740  0.158081  1
  Ru  Ru17  1  0.659450  0.530795  0.282902  1
  Ru  Ru18  1  0.530795  0.282902  0.659450  1
  Ru  Ru19  1  0.282902  0.659450  0.530795  1
