# generated using pymatgen
data_SrMn2BPO7
_symmetry_space_group_name_H-M   'P 1'
_cell_length_a   9.26202300
_cell_length_b   6.77070152
_cell_length_c   10.44047260
_cell_angle_alpha   68.16911985
_cell_angle_beta   90.00000000
_cell_angle_gamma   90.00000000
_symmetry_Int_Tables_number   1
_chemical_formula_structural   SrMn2BPO7
_chemical_formula_sum   'Sr4 Mn8 B4 P4 O28'
_cell_volume   607.77281016
_cell_formula_units_Z   4
loop_
 _symmetry_equiv_pos_site_id
 _symmetry_equiv_pos_as_xyz
  1  'x, y, z'
loop_
 _atom_site_type_symbol
 _atom_site_label
 _atom_site_symmetry_multiplicity
 _atom_site_fract_x
 _atom_site_fract_y
 _atom_site_fract_z
 _atom_site_occupancy
  Sr  Sr0  1  0.700880  0.163459  0.478127  1
  Sr  Sr1  1  0.200880  0.836541  0.021873  1
  Sr  Sr2  1  0.299120  0.836541  0.521873  1
  Sr  Sr3  1  0.799120  0.163459  0.978127  1
  Mn  Mn4  1  0.817384  0.705654  0.857043  1
  Mn  Mn5  1  0.317384  0.294346  0.642957  1
  Mn  Mn6  1  0.182616  0.294346  0.142957  1
  Mn  Mn7  1  0.682616  0.705654  0.357043  1
  Mn  Mn8  1  0.056997  0.428346  0.378587  1
  Mn  Mn9  1  0.556997  0.571654  0.121413  1
  Mn  Mn10  1  0.943003  0.571654  0.621413  1
  Mn  Mn11  1  0.443003  0.428346  0.878587  1
  B  B12  1  0.622717  0.535043  0.671456  1
  B  B13  1  0.122717  0.464957  0.828544  1
  B  B14  1  0.377283  0.464957  0.328544  1
  B  B15  1  0.877283  0.535043  0.171456  1
  P  P16  1  0.007741  0.040709  0.689769  1
  P  P17  1  0.507741  0.959291  0.810231  1
  P  P18  1  0.992259  0.959291  0.310231  1
  P  P19  1  0.492259  0.040709  0.189769  1
  O  O20  1  0.955445  0.266255  0.592126  1
  O  O21  1  0.455445  0.733745  0.907874  1
  O  O22  1  0.044555  0.733745  0.407874  1
  O  O23  1  0.544555  0.266255  0.092126  1
  O  O24  1  0.980675  0.991775  0.846365  1
  O  O25  1  0.480675  0.008225  0.653635  1
  O  O26  1  0.019325  0.008225  0.153635  1
  O  O27  1  0.519325  0.991775  0.346365  1
  O  O28  1  0.910873  0.882199  0.649183  1
  O  O29  1  0.410873  0.117801  0.850817  1
  O  O30  1  0.089127  0.117801  0.350817  1
  O  O31  1  0.589127  0.882199  0.149183  1
  O  O32  1  0.669620  0.491171  0.806796  1
  O  O33  1  0.169620  0.508829  0.693204  1
  O  O34  1  0.330380  0.508829  0.193204  1
  O  O35  1  0.830380  0.491171  0.306796  1
  O  O36  1  0.974781  0.461796  0.850409  1
  O  O37  1  0.474781  0.538204  0.649591  1
  O  O38  1  0.025219  0.538204  0.149591  1
  O  O39  1  0.525219  0.461796  0.350409  1
  O  O40  1  0.170819  0.014784  0.668223  1
  O  O41  1  0.670819  0.985216  0.831777  1
  O  O42  1  0.829181  0.985216  0.331777  1
  O  O43  1  0.329181  0.014784  0.168223  1
  O  O44  1  0.777843  0.572597  0.066962  1
  O  O45  1  0.277843  0.427403  0.433038  1
  O  O46  1  0.222157  0.427403  0.933038  1
  O  O47  1  0.722157  0.572597  0.566962  1
