# generated using pymatgen
data_NdNp(TaS2)6
_symmetry_space_group_name_H-M   'P 1'
_cell_length_a   5.80734100
_cell_length_b   5.80734053
_cell_length_c   14.51728900
_cell_angle_alpha   90.00000000
_cell_angle_beta   90.00000000
_cell_angle_gamma   120.00000839
_symmetry_Int_Tables_number   1
_chemical_formula_structural   NdNp(TaS2)6
_chemical_formula_sum   'Nd1 Np1 Ta6 S12'
_cell_volume   424.00476596
_cell_formula_units_Z   1
loop_
 _symmetry_equiv_pos_site_id
 _symmetry_equiv_pos_as_xyz
  1  'x, y, z'
loop_
 _atom_site_type_symbol
 _atom_site_label
 _atom_site_symmetry_multiplicity
 _atom_site_fract_x
 _atom_site_fract_y
 _atom_site_fract_z
 _atom_site_occupancy
  Nd  Nd0  1  0.000000  0.000000  0.500000  1
  Np  Np1  1  0.000000  0.000000  0.000000  1
  Ta  Ta2  1  0.333333  0.666667  0.249808  1
  Ta  Ta3  1  0.666667  0.333333  0.750192  1
  Ta  Ta4  1  0.666667  0.333333  0.249808  1
  Ta  Ta5  1  0.333333  0.666667  0.750192  1
  Ta  Ta6  1  0.000000  0.000000  0.250868  1
  Ta  Ta7  1  0.000000  0.000000  0.749132  1
  S  S8  1  0.334844  0.000000  0.141127  1
  S  S9  1  0.000000  0.334844  0.141127  1
  S  S10  1  0.665156  0.665156  0.141127  1
  S  S11  1  0.338263  0.338263  0.640924  1
  S  S12  1  0.661737  0.661737  0.359076  1
  S  S13  1  0.661737  0.000000  0.640924  1
  S  S14  1  0.000000  0.661737  0.640924  1
  S  S15  1  0.000000  0.665156  0.858873  1
  S  S16  1  0.334844  0.334844  0.858873  1
  S  S17  1  0.000000  0.338263  0.359076  1
  S  S18  1  0.338263  0.000000  0.359076  1
  S  S19  1  0.665156  0.000000  0.858873  1
