# generated using pymatgen
data_YHo19(FeHg3)2
_symmetry_space_group_name_H-M   'P 1'
_cell_length_a   9.52677100
_cell_length_b   9.52677137
_cell_length_c   9.57092700
_cell_angle_alpha   90.00000000
_cell_angle_beta   90.00000000
_cell_angle_gamma   119.99998828
_symmetry_Int_Tables_number   1
_chemical_formula_structural   YHo19(FeHg3)2
_chemical_formula_sum   'Y1 Ho19 Fe2 Hg6'
_cell_volume   752.27417961
_cell_formula_units_Z   1
loop_
 _symmetry_equiv_pos_site_id
 _symmetry_equiv_pos_as_xyz
  1  'x, y, z'
loop_
 _atom_site_type_symbol
 _atom_site_label
 _atom_site_symmetry_multiplicity
 _atom_site_fract_x
 _atom_site_fract_y
 _atom_site_fract_z
 _atom_site_occupancy
  Y  Y0  1  0.000000  0.000000  0.000000  1
  Ho  Ho1  1  0.000000  0.000000  0.500000  1
  Ho  Ho2  1  0.541715  0.458285  0.249982  1
  Ho  Ho3  1  0.541715  0.083431  0.249982  1
  Ho  Ho4  1  0.916569  0.458285  0.249982  1
  Ho  Ho5  1  0.458285  0.541715  0.750018  1
  Ho  Ho6  1  0.458285  0.916569  0.750018  1
  Ho  Ho7  1  0.083431  0.541715  0.750018  1
  Ho  Ho8  1  0.212157  0.787843  0.435641  1
  Ho  Ho9  1  0.212157  0.424315  0.435641  1
  Ho  Ho10  1  0.575685  0.787843  0.435641  1
  Ho  Ho11  1  0.787843  0.212157  0.564359  1
  Ho  Ho12  1  0.787843  0.575685  0.564359  1
  Ho  Ho13  1  0.424315  0.212157  0.564359  1
  Ho  Ho14  1  0.787751  0.212249  0.935655  1
  Ho  Ho15  1  0.787751  0.575501  0.935655  1
  Ho  Ho16  1  0.424499  0.212249  0.935655  1
  Ho  Ho17  1  0.212249  0.787751  0.064345  1
  Ho  Ho18  1  0.212249  0.424499  0.064345  1
  Ho  Ho19  1  0.575501  0.787751  0.064345  1
  Fe  Fe20  1  0.333333  0.666667  0.249996  1
  Fe  Fe21  1  0.666667  0.333333  0.750004  1
  Hg  Hg22  1  0.881746  0.118254  0.250149  1
  Hg  Hg23  1  0.881746  0.763492  0.250149  1
  Hg  Hg24  1  0.236508  0.118254  0.250149  1
  Hg  Hg25  1  0.118254  0.881746  0.749851  1
  Hg  Hg26  1  0.118254  0.236508  0.749851  1
  Hg  Hg27  1  0.763492  0.881746  0.749851  1
