# generated using pymatgen
data_Eu(PuSe2)2
_symmetry_space_group_name_H-M   'P 1'
_cell_length_a   7.69257269
_cell_length_b   7.69257401
_cell_length_c   7.69257300
_cell_angle_alpha   109.54264604
_cell_angle_beta   109.43552270
_cell_angle_gamma   109.43551934
_symmetry_Int_Tables_number   1
_chemical_formula_structural   Eu(PuSe2)2
_chemical_formula_sum   'Eu2 Pu4 Se8'
_cell_volume   350.42292286
_cell_formula_units_Z   2
loop_
 _symmetry_equiv_pos_site_id
 _symmetry_equiv_pos_as_xyz
  1  'x, y, z'
loop_
 _atom_site_type_symbol
 _atom_site_label
 _atom_site_symmetry_multiplicity
 _atom_site_fract_x
 _atom_site_fract_y
 _atom_site_fract_z
 _atom_site_occupancy
  Eu  Eu0  1  0.250000  0.625000  0.375000  1
  Eu  Eu1  1  0.750000  0.875000  0.125000  1
  Pu  Pu2  1  0.872785  0.122785  0.750000  1
  Pu  Pu3  1  0.372785  0.250000  0.622785  1
  Pu  Pu4  1  0.627215  0.377215  0.250000  1
  Pu  Pu5  1  0.127215  0.750000  0.877215  1
  Se  Se6  1  0.500065  0.004714  0.854265  1
  Se  Se7  1  0.499935  0.004650  0.354199  1
  Se  Se8  1  0.150450  0.145735  0.145801  1
  Se  Se9  1  0.000065  0.354265  0.504714  1
  Se  Se10  1  0.650450  0.645801  0.645735  1
  Se  Se11  1  0.849550  0.495286  0.995350  1
  Se  Se12  1  0.349550  0.495350  0.995286  1
  Se  Se13  1  0.999935  0.854199  0.504650  1
