# generated using pymatgen
data_La15Yb5Si15Sn
_symmetry_space_group_name_H-M   'P 1'
_cell_length_a   7.92978323
_cell_length_b   7.95050140
_cell_length_c   15.42226200
_cell_angle_alpha   89.94732723
_cell_angle_beta   90.09202261
_cell_angle_gamma   90.05783792
_symmetry_Int_Tables_number   1
_chemical_formula_structural   La15Yb5Si15Sn
_chemical_formula_sum   'La15 Yb5 Si15 Sn1'
_cell_volume   972.30595636
_cell_formula_units_Z   1
loop_
 _symmetry_equiv_pos_site_id
 _symmetry_equiv_pos_as_xyz
  1  'x, y, z'
loop_
 _atom_site_type_symbol
 _atom_site_label
 _atom_site_symmetry_multiplicity
 _atom_site_fract_x
 _atom_site_fract_y
 _atom_site_fract_z
 _atom_site_occupancy
  La  La0  1  0.481177  0.373958  0.125849  1
  La  La1  1  0.969432  0.134508  0.628163  1
  La  La2  1  0.875651  0.019496  0.877587  1
  La  La3  1  0.122764  0.984044  0.373237  1
  La  La4  1  0.522332  0.617888  0.628336  1
  La  La5  1  0.374407  0.481610  0.874840  1
  La  La6  1  0.626961  0.515050  0.370860  1
  La  La7  1  0.017350  0.875735  0.121846  1
  La  La8  1  0.628162  0.991060  0.443481  1
  La  La9  1  0.379082  0.009604  0.949251  1
  La  La10  1  0.986917  0.616543  0.553141  1
  La  La11  1  0.489521  0.879059  0.196420  1
  La  La12  1  0.518770  0.129803  0.705218  1
  La  La13  1  0.880965  0.489444  0.805548  1
  La  La14  1  0.119360  0.508089  0.299894  1
  Yb  Yb15  1  0.010017  0.381238  0.052355  1
  Yb  Yb16  1  0.307757  0.315607  0.498567  1
  Yb  Yb17  1  0.190264  0.806897  0.755793  1
  Yb  Yb18  1  0.809848  0.192304  0.246443  1
  Yb  Yb19  1  0.693103  0.689393  0.000380  1
  Si  Si20  1  0.707964  0.077835  0.059932  1
  Si  Si21  1  0.920427  0.286803  0.438925  1
  Si  Si22  1  0.419247  0.209924  0.309111  1
  Si  Si23  1  0.580556  0.787409  0.811356  1
  Si  Si24  1  0.211120  0.421250  0.691102  1
  Si  Si25  1  0.784306  0.582797  0.189098  1
  Si  Si26  1  0.081814  0.714388  0.941451  1
  Si  Si27  1  0.803740  0.827726  0.706234  1
  Si  Si28  1  0.200026  0.166345  0.201592  1
  Si  Si29  1  0.831948  0.801201  0.293688  1
  Si  Si30  1  0.330518  0.690005  0.446546  1
  Si  Si31  1  0.666161  0.299168  0.953688  1
  Si  Si32  1  0.695117  0.330800  0.541632  1
  Si  Si33  1  0.302837  0.669101  0.047635  1
  Si  Si34  1  0.172559  0.196524  0.796338  1
  Sn  Sn35  1  0.287821  0.927392  0.564461  1
