# generated using pymatgen
data_Rb3FeH7
_symmetry_space_group_name_H-M   'P 1'
_cell_length_a   6.00978221
_cell_length_b   5.98803431
_cell_length_c   6.25250320
_cell_angle_alpha   60.79448567
_cell_angle_beta   119.27818257
_cell_angle_gamma   90.97251457
_symmetry_Int_Tables_number   1
_chemical_formula_structural   Rb3FeH7
_chemical_formula_sum   'Rb3 Fe1 H7'
_cell_volume   163.89335447
_cell_formula_units_Z   1
loop_
 _symmetry_equiv_pos_site_id
 _symmetry_equiv_pos_as_xyz
  1  'x, y, z'
loop_
 _atom_site_type_symbol
 _atom_site_label
 _atom_site_symmetry_multiplicity
 _atom_site_fract_x
 _atom_site_fract_y
 _atom_site_fract_z
 _atom_site_occupancy
  Rb  Rb0  1  0.543626  0.400556  0.642076  1
  Rb  Rb1  1  0.783279  0.641334  0.143221  1
  Rb  Rb2  1  0.043949  0.897960  0.644610  1
  Fe  Fe3  1  0.301093  0.153040  0.145159  1
  H  H4  1  0.112123  0.338246  0.785961  1
  H  H5  1  0.410633  0.930218  0.130410  1
  H  H6  1  0.089126  0.280148  0.161637  1
  H  H7  1  0.552206  0.193850  0.140602  1
  H  H8  1  0.109840  0.970533  0.148378  1
  H  H9  1  0.488002  0.966647  0.504138  1
  H  H10  1  0.362266  0.403563  0.145589  1
