# generated using pymatgen
data_Tm2Al8ZnPd3
_symmetry_space_group_name_H-M   'P 1'
_cell_length_a   7.57831800
_cell_length_b   7.57831794
_cell_length_c   9.47476200
_cell_angle_alpha   90.00000000
_cell_angle_beta   90.00000000
_cell_angle_gamma   119.17789392
_symmetry_Int_Tables_number   1
_chemical_formula_structural   Tm2Al8ZnPd3
_chemical_formula_sum   'Tm4 Al16 Zn2 Pd6'
_cell_volume   475.09782081
_cell_formula_units_Z   2
loop_
 _symmetry_equiv_pos_site_id
 _symmetry_equiv_pos_as_xyz
  1  'x, y, z'
loop_
 _atom_site_type_symbol
 _atom_site_label
 _atom_site_symmetry_multiplicity
 _atom_site_fract_x
 _atom_site_fract_y
 _atom_site_fract_z
 _atom_site_occupancy
  Tm  Tm0  1  0.994741  0.671566  0.250000  1
  Tm  Tm1  1  0.005259  0.328434  0.750000  1
  Tm  Tm2  1  0.671566  0.994741  0.250000  1
  Tm  Tm3  1  0.328434  0.005259  0.750000  1
  Al  Al4  1  0.000598  0.332650  0.078575  1
  Al  Al5  1  0.999402  0.667350  0.921425  1
  Al  Al6  1  0.999402  0.667350  0.578575  1
  Al  Al7  1  0.332650  0.000598  0.421425  1
  Al  Al8  1  0.000598  0.332650  0.421425  1
  Al  Al9  1  0.667350  0.999402  0.578575  1
  Al  Al10  1  0.667350  0.999402  0.921425  1
  Al  Al11  1  0.332650  0.000598  0.078575  1
  Al  Al12  1  0.332243  0.332243  0.557778  1
  Al  Al13  1  0.667757  0.667757  0.442222  1
  Al  Al14  1  0.667757  0.667757  0.057778  1
  Al  Al15  1  0.332243  0.332243  0.942222  1
  Al  Al16  1  0.337903  0.546290  0.250000  1
  Al  Al17  1  0.662097  0.453710  0.750000  1
  Al  Al18  1  0.546290  0.337903  0.250000  1
  Al  Al19  1  0.453710  0.662097  0.750000  1
  Zn  Zn20  1  0.137396  0.137396  0.250000  1
  Zn  Zn21  1  0.862604  0.862604  0.750000  1
  Pd  Pd22  1  0.672644  0.327356  0.000000  1
  Pd  Pd23  1  0.327356  0.672644  0.000000  1
  Pd  Pd24  1  0.327356  0.672644  0.500000  1
  Pd  Pd25  1  0.672644  0.327356  0.500000  1
  Pd  Pd26  1  0.000000  0.000000  0.000000  1
  Pd  Pd27  1  0.000000  0.000000  0.500000  1
