# generated using pymatgen
data_Ba5LaOs3O16
_symmetry_space_group_name_H-M   'P 1'
_cell_length_a   6.09302405
_cell_length_b   6.11439363
_cell_length_c   10.82289993
_cell_angle_alpha   93.44680365
_cell_angle_beta   93.25610251
_cell_angle_gamma   90.05675669
_symmetry_Int_Tables_number   1
_chemical_formula_structural   Ba5LaOs3O16
_chemical_formula_sum   'Ba5 La1 Os3 O16'
_cell_volume   401.82566947
_cell_formula_units_Z   1
loop_
 _symmetry_equiv_pos_site_id
 _symmetry_equiv_pos_as_xyz
  1  'x, y, z'
loop_
 _atom_site_type_symbol
 _atom_site_label
 _atom_site_symmetry_multiplicity
 _atom_site_fract_x
 _atom_site_fract_y
 _atom_site_fract_z
 _atom_site_occupancy
  Ba  Ba0  1  0.511747  0.026238  0.209798  1
  Ba  Ba1  1  0.027879  0.504441  0.212165  1
  Ba  Ba2  1  0.999986  0.999984  0.499978  1
  Ba  Ba3  1  0.972099  0.495583  0.787869  1
  Ba  Ba4  1  0.488280  0.973743  0.790228  1
  La  La5  1  0.500002  0.500001  0.999990  1
  Os  Os6  1  0.000015  0.000014  0.999994  1
  Os  Os7  1  0.559866  0.559645  0.396317  1
  Os  Os8  1  0.440120  0.440336  0.603730  1
  O  O9  1  0.739758  0.191675  0.002438  1
  O  O10  1  0.812139  0.744976  0.021450  1
  O  O11  1  0.044397  0.046134  0.170078  1
  O  O12  1  0.476659  0.474047  0.213050  1
  O  O13  1  0.759213  0.759568  0.334948  1
  O  O14  1  0.319142  0.745180  0.378132  1
  O  O15  1  0.750051  0.322148  0.379037  1
  O  O16  1  0.328817  0.325621  0.438468  1
  O  O17  1  0.671178  0.674387  0.561514  1
  O  O18  1  0.249929  0.677875  0.620966  1
  O  O19  1  0.680883  0.254817  0.621867  1
  O  O20  1  0.240802  0.240446  0.665041  1
  O  O21  1  0.523333  0.525946  0.786964  1
  O  O22  1  0.955595  0.953848  0.829908  1
  O  O23  1  0.187857  0.255010  0.978538  1
  O  O24  1  0.260249  0.808326  0.997546  1
