# generated using pymatgen
data_Sm5Y2CoBr12
_symmetry_space_group_name_H-M   'P 1'
_cell_length_a   9.34724015
_cell_length_b   9.37541334
_cell_length_c   9.40243247
_cell_angle_alpha   107.13763113
_cell_angle_beta   106.58608015
_cell_angle_gamma   106.81629220
_symmetry_Int_Tables_number   1
_chemical_formula_structural   Sm5Y2CoBr12
_chemical_formula_sum   'Sm5 Y2 Co1 Br12'
_cell_volume   689.05189186
_cell_formula_units_Z   1
loop_
 _symmetry_equiv_pos_site_id
 _symmetry_equiv_pos_as_xyz
  1  'x, y, z'
loop_
 _atom_site_type_symbol
 _atom_site_label
 _atom_site_symmetry_multiplicity
 _atom_site_fract_x
 _atom_site_fract_y
 _atom_site_fract_z
 _atom_site_occupancy
  Sm  Sm0  1  0.020562  0.098571  0.303073  1
  Sm  Sm1  1  0.097229  0.303888  0.022018  1
  Sm  Sm2  1  0.306053  0.022123  0.099118  1
  Sm  Sm3  1  0.980473  0.900820  0.696602  1
  Sm  Sm4  1  0.899639  0.694680  0.976933  1
  Y  Y5  1  0.498696  0.501128  0.500093  1
  Y  Y6  1  0.699632  0.977315  0.901910  1
  Co  Co7  1  0.000762  0.999211  0.999773  1
  Br  Br8  1  0.170731  0.463791  0.386561  1
  Br  Br9  1  0.463311  0.387906  0.173707  1
  Br  Br10  1  0.386155  0.173286  0.462706  1
  Br  Br11  1  0.826310  0.535869  0.613145  1
  Br  Br12  1  0.535877  0.618186  0.827686  1
  Br  Br13  1  0.614776  0.831080  0.543022  1
  Br  Br14  1  0.678144  0.067689  0.215401  1
  Br  Br15  1  0.070554  0.222482  0.680912  1
  Br  Br16  1  0.222100  0.679664  0.070561  1
  Br  Br17  1  0.327642  0.932007  0.780030  1
  Br  Br18  1  0.929174  0.777088  0.319227  1
  Br  Br19  1  0.772180  0.313215  0.927523  1
