# generated using pymatgen
data_U3PaH15
_symmetry_space_group_name_H-M   'P 1'
_cell_length_a   7.55471698
_cell_length_b   7.54928002
_cell_length_c   7.54366362
_cell_angle_alpha   109.48889917
_cell_angle_beta   109.51809488
_cell_angle_gamma   109.45146293
_symmetry_Int_Tables_number   1
_chemical_formula_structural   U3PaH15
_chemical_formula_sum   'U6 Pa2 H30'
_cell_volume   331.01198842
_cell_formula_units_Z   2
loop_
 _symmetry_equiv_pos_site_id
 _symmetry_equiv_pos_as_xyz
  1  'x, y, z'
loop_
 _atom_site_type_symbol
 _atom_site_label
 _atom_site_symmetry_multiplicity
 _atom_site_fract_x
 _atom_site_fract_y
 _atom_site_fract_z
 _atom_site_occupancy
  U  U0  1  0.001415  0.084918  0.501050  1
  U  U1  1  0.083628  0.499216  0.000160  1
  U  U2  1  0.000365  0.583868  0.498950  1
  U  U3  1  0.583468  0.499056  0.999840  1
  U  U4  1  0.498645  0.999762  0.582675  1
  U  U5  1  0.415970  0.417087  0.417325  1
  Pa  Pa6  1  0.917295  0.917120  0.917103  1
  Pa  Pa7  1  0.500192  0.000017  0.082897  1
  H  H8  1  0.651594  0.968092  0.370185  1
  H  H9  1  0.218611  0.315312  0.848681  1
  H  H10  1  0.184100  0.402977  0.532030  1
  H  H11  1  0.096832  0.280240  0.129197  1
  H  H12  1  0.281181  0.129067  0.097256  1
  H  H13  1  0.129463  0.097298  0.280981  1
  H  H14  1  0.467634  0.151043  0.870803  1
  H  H15  1  0.718157  0.347401  0.815545  1
  H  H16  1  0.624234  0.373861  0.249515  1
  H  H17  1  0.250056  0.624946  0.375188  1
  H  H18  1  0.750085  0.875385  0.124605  1
  H  H19  1  0.125480  0.750780  0.875395  1
  H  H20  1  0.374868  0.249758  0.624812  1
  H  H21  1  0.874719  0.124346  0.750485  1
  H  H22  1  0.781409  0.597907  0.629815  1
  H  H23  1  0.315673  0.848775  0.217651  1
  H  H24  1  0.371247  0.652770  0.968358  1
  H  H25  1  0.967986  0.370845  0.651993  1
  H  H26  1  0.531688  0.183537  0.401753  1
  H  H27  1  0.402613  0.531857  0.184455  1
  H  H28  1  0.847482  0.217851  0.314819  1
  H  H29  1  0.902889  0.684411  0.031642  1
  H  H30  1  0.815993  0.718851  0.348007  1
  H  H31  1  0.152071  0.870947  0.467970  1
  H  H32  1  0.683924  0.031810  0.902744  1
  H  H33  1  0.348482  0.816318  0.719019  1
  H  H34  1  0.869929  0.466630  0.151319  1
  H  H35  1  0.629935  0.781785  0.598247  1
  H  H36  1  0.598021  0.631124  0.782349  1
  H  H37  1  0.032665  0.903034  0.685181  1
