# generated using pymatgen
data_Eu3TiSb5
_symmetry_space_group_name_H-M   'P 1'
_cell_length_a   9.51627900
_cell_length_b   9.51627894
_cell_length_c   6.29600600
_cell_angle_alpha   90.00000000
_cell_angle_beta   90.00000000
_cell_angle_gamma   120.00000370
_symmetry_Int_Tables_number   1
_chemical_formula_structural   Eu3TiSb5
_chemical_formula_sum   'Eu6 Ti2 Sb10'
_cell_volume   493.77611496
_cell_formula_units_Z   2
loop_
 _symmetry_equiv_pos_site_id
 _symmetry_equiv_pos_as_xyz
  1  'x, y, z'
loop_
 _atom_site_type_symbol
 _atom_site_label
 _atom_site_symmetry_multiplicity
 _atom_site_fract_x
 _atom_site_fract_y
 _atom_site_fract_z
 _atom_site_occupancy
  Eu  Eu0  1  0.613857  0.000000  0.750000  1
  Eu  Eu1  1  0.386143  0.000000  0.250000  1
  Eu  Eu2  1  0.000000  0.613857  0.750000  1
  Eu  Eu3  1  0.000000  0.386143  0.250000  1
  Eu  Eu4  1  0.386143  0.386143  0.750000  1
  Eu  Eu5  1  0.613857  0.613857  0.250000  1
  Ti  Ti6  1  0.000000  0.000000  0.500000  1
  Ti  Ti7  1  0.000000  0.000000  0.000000  1
  Sb  Sb8  1  0.247517  0.000000  0.750000  1
  Sb  Sb9  1  0.752483  0.000000  0.250000  1
  Sb  Sb10  1  0.000000  0.247517  0.750000  1
  Sb  Sb11  1  0.000000  0.752483  0.250000  1
  Sb  Sb12  1  0.752483  0.752483  0.750000  1
  Sb  Sb13  1  0.247517  0.247517  0.250000  1
  Sb  Sb14  1  0.333333  0.666667  0.500000  1
  Sb  Sb15  1  0.666667  0.333333  0.500000  1
  Sb  Sb16  1  0.666667  0.333333  0.000000  1
  Sb  Sb17  1  0.333333  0.666667  0.000000  1
