# generated using pymatgen
data_Ac4MgOs
_symmetry_space_group_name_H-M   'P 1'
_cell_length_a   10.58535173
_cell_length_b   10.58535094
_cell_length_c   10.58535100
_cell_angle_alpha   60.00000294
_cell_angle_beta   60.00000539
_cell_angle_gamma   60.00000114
_symmetry_Int_Tables_number   1
_chemical_formula_structural   Ac4MgOs
_chemical_formula_sum   'Ac16 Mg4 Os4'
_cell_volume   838.68881409
_cell_formula_units_Z   4
loop_
 _symmetry_equiv_pos_site_id
 _symmetry_equiv_pos_as_xyz
  1  'x, y, z'
loop_
 _atom_site_type_symbol
 _atom_site_label
 _atom_site_symmetry_multiplicity
 _atom_site_fract_x
 _atom_site_fract_y
 _atom_site_fract_z
 _atom_site_occupancy
  Ac  Ac0  1  0.343596  0.343596  0.343596  1
  Ac  Ac1  1  0.343596  0.343596  0.969211  1
  Ac  Ac2  1  0.343596  0.969211  0.343596  1
  Ac  Ac3  1  0.969211  0.343596  0.343596  1
  Ac  Ac4  1  0.812405  0.187595  0.187595  1
  Ac  Ac5  1  0.187595  0.812405  0.812405  1
  Ac  Ac6  1  0.187595  0.812405  0.187595  1
  Ac  Ac7  1  0.812405  0.187595  0.812405  1
  Ac  Ac8  1  0.187595  0.187595  0.812405  1
  Ac  Ac9  1  0.812405  0.812405  0.187595  1
  Ac  Ac10  1  0.939832  0.560168  0.560168  1
  Ac  Ac11  1  0.560168  0.939832  0.939832  1
  Ac  Ac12  1  0.560168  0.939832  0.560168  1
  Ac  Ac13  1  0.939832  0.560168  0.939832  1
  Ac  Ac14  1  0.560168  0.560168  0.939832  1
  Ac  Ac15  1  0.939832  0.939832  0.560168  1
  Mg  Mg16  1  0.577325  0.577325  0.577325  1
  Mg  Mg17  1  0.577325  0.577325  0.268024  1
  Mg  Mg18  1  0.577325  0.268024  0.577325  1
  Mg  Mg19  1  0.268024  0.577325  0.577325  1
  Os  Os20  1  0.138114  0.138114  0.138114  1
  Os  Os21  1  0.138114  0.138114  0.585660  1
  Os  Os22  1  0.138114  0.585660  0.138114  1
  Os  Os23  1  0.585660  0.138114  0.138114  1
