# generated using pymatgen
data_YbTm3(FeB4)4
_symmetry_space_group_name_H-M   'P 1'
_cell_length_a   3.33843600
_cell_length_b   5.86018302
_cell_length_c   11.33204700
_cell_angle_alpha   89.95089720
_cell_angle_beta   90.00000000
_cell_angle_gamma   90.00000000
_symmetry_Int_Tables_number   1
_chemical_formula_structural   YbTm3(FeB4)4
_chemical_formula_sum   'Yb1 Tm3 Fe4 B16'
_cell_volume   221.69834057
_cell_formula_units_Z   1
loop_
 _symmetry_equiv_pos_site_id
 _symmetry_equiv_pos_as_xyz
  1  'x, y, z'
loop_
 _atom_site_type_symbol
 _atom_site_label
 _atom_site_symmetry_multiplicity
 _atom_site_fract_x
 _atom_site_fract_y
 _atom_site_fract_z
 _atom_site_occupancy
  Yb  Yb0  1  0.000000  0.627257  0.349606  1
  Tm  Tm1  1  0.000000  0.373114  0.649793  1
  Tm  Tm2  1  0.000000  0.127165  0.151310  1
  Tm  Tm3  1  0.000000  0.873224  0.849477  1
  Fe  Fe4  1  0.000000  0.634253  0.087135  1
  Fe  Fe5  1  0.000000  0.366079  0.911454  1
  Fe  Fe6  1  0.000000  0.132718  0.413360  1
  Fe  Fe7  1  0.000000  0.867436  0.588532  1
  B  B8  1  0.500000  0.782426  0.183715  1
  B  B9  1  0.500000  0.216836  0.815894  1
  B  B10  1  0.500000  0.282445  0.316506  1
  B  B11  1  0.500000  0.716573  0.683431  1
  B  B12  1  0.500000  0.861988  0.031437  1
  B  B13  1  0.500000  0.138305  0.968333  1
  B  B14  1  0.500000  0.361528  0.468429  1
  B  B15  1  0.500000  0.638465  0.531817  1
  B  B16  1  0.500000  0.887533  0.453822  1
  B  B17  1  0.500000  0.111559  0.546087  1
  B  B18  1  0.500000  0.388646  0.046409  1
  B  B19  1  0.500000  0.611780  0.953449  1
  B  B20  1  0.500000  0.976965  0.309694  1
  B  B21  1  0.500000  0.024094  0.690752  1
  B  B22  1  0.500000  0.475897  0.190532  1
  B  B23  1  0.500000  0.523714  0.809026  1
