# generated using pymatgen
data_Dy7ErGa12Ir3Au
_symmetry_space_group_name_H-M   'P 1'
_cell_length_a   7.11625104
_cell_length_b   8.88853105
_cell_length_c   8.87946258
_cell_angle_alpha   120.03378829
_cell_angle_beta   89.98930966
_cell_angle_gamma   90.00000144
_symmetry_Int_Tables_number   1
_chemical_formula_structural   Dy7ErGa12Ir3Au
_chemical_formula_sum   'Dy7 Er1 Ga12 Ir3 Au1'
_cell_volume   486.23989753
_cell_formula_units_Z   1
loop_
 _symmetry_equiv_pos_site_id
 _symmetry_equiv_pos_as_xyz
  1  'x, y, z'
loop_
 _atom_site_type_symbol
 _atom_site_label
 _atom_site_symmetry_multiplicity
 _atom_site_fract_x
 _atom_site_fract_y
 _atom_site_fract_z
 _atom_site_occupancy
  Dy  Dy0  1  0.757761  0.000028  0.000056  1
  Dy  Dy1  1  0.251152  0.999972  0.999944  1
  Dy  Dy2  1  0.748338  0.471900  0.527957  1
  Dy  Dy3  1  0.244184  0.518367  0.481405  1
  Dy  Dy4  1  0.748338  0.056058  0.527957  1
  Dy  Dy5  1  0.244184  0.963037  0.481405  1
  Dy  Dy6  1  0.748515  0.472121  0.944240  1
  Er  Er7  1  0.243400  0.518416  0.036833  1
  Ga  Ga8  1  0.948861  0.828832  0.171103  1
  Ga  Ga9  1  0.047197  0.169486  0.831078  1
  Ga  Ga10  1  0.948861  0.342273  0.171103  1
  Ga  Ga11  1  0.451528  0.169517  0.831332  1
  Ga  Ga12  1  0.047197  0.661589  0.831078  1
  Ga  Ga13  1  0.548041  0.835889  0.164139  1
  Ga  Ga14  1  0.948595  0.828718  0.657435  1
  Ga  Ga15  1  0.451528  0.661815  0.831332  1
  Ga  Ga16  1  0.046510  0.169218  0.338437  1
  Ga  Ga17  1  0.548041  0.328250  0.164139  1
  Ga  Ga18  1  0.452186  0.169055  0.338110  1
  Ga  Ga19  1  0.548214  0.835794  0.671587  1
  Ir  Ir20  1  0.982046  0.666114  0.332228  1
  Ir  Ir21  1  0.033258  0.333697  0.667394  1
  Ir  Ir22  1  0.466289  0.333665  0.667331  1
  Au  Au23  1  0.545769  0.666188  0.332375  1
