# generated using pymatgen
data_Yb6Tc2HN6
_symmetry_space_group_name_H-M   'P 1'
_cell_length_a   6.04340593
_cell_length_b   6.04340594
_cell_length_c   6.04340671
_cell_angle_alpha   95.89067166
_cell_angle_beta   95.89068812
_cell_angle_gamma   95.89068639
_symmetry_Int_Tables_number   1
_chemical_formula_structural   Yb6Tc2HN6
_chemical_formula_sum   'Yb6 Tc2 H1 N6'
_cell_volume   216.96394996
_cell_formula_units_Z   1
loop_
 _symmetry_equiv_pos_site_id
 _symmetry_equiv_pos_as_xyz
  1  'x, y, z'
loop_
 _atom_site_type_symbol
 _atom_site_label
 _atom_site_symmetry_multiplicity
 _atom_site_fract_x
 _atom_site_fract_y
 _atom_site_fract_z
 _atom_site_occupancy
  Yb  Yb0  1  0.628443  0.115225  0.786280  1
  Yb  Yb1  1  0.115225  0.786280  0.628443  1
  Yb  Yb2  1  0.786280  0.628443  0.115225  1
  Yb  Yb3  1  0.371557  0.884775  0.213720  1
  Yb  Yb4  1  0.884775  0.213720  0.371557  1
  Yb  Yb5  1  0.213720  0.371557  0.884775  1
  Tc  Tc6  1  0.624553  0.624553  0.624553  1
  Tc  Tc7  1  0.375447  0.375447  0.375447  1
  H  H8  1  0.000000  0.000000  0.000000  1
  N  N9  1  0.733017  0.864528  0.466927  1
  N  N10  1  0.864528  0.466927  0.733017  1
  N  N11  1  0.466927  0.733017  0.864528  1
  N  N12  1  0.266983  0.135472  0.533073  1
  N  N13  1  0.135472  0.533073  0.266983  1
  N  N14  1  0.533073  0.266983  0.135472  1
