# generated using pymatgen
data_Rb2Ho5ErF20
_symmetry_space_group_name_H-M   'P 1'
_cell_length_a   8.22275619
_cell_length_b   8.22275565
_cell_length_c   8.22991900
_cell_angle_alpha   59.97091591
_cell_angle_beta   59.97091516
_cell_angle_gamma   60.05799586
_symmetry_Int_Tables_number   1
_chemical_formula_structural   Rb2Ho5ErF20
_chemical_formula_sum   'Rb2 Ho5 Er1 F20'
_cell_volume   393.47226362
_cell_formula_units_Z   1
loop_
 _symmetry_equiv_pos_site_id
 _symmetry_equiv_pos_as_xyz
  1  'x, y, z'
loop_
 _atom_site_type_symbol
 _atom_site_label
 _atom_site_symmetry_multiplicity
 _atom_site_fract_x
 _atom_site_fract_y
 _atom_site_fract_z
 _atom_site_occupancy
  Rb  Rb0  1  0.750165  0.750165  0.749841  1
  Rb  Rb1  1  0.250166  0.250166  0.249842  1
  Ho  Ho2  1  0.240454  0.759720  0.240279  1
  Ho  Ho3  1  0.759720  0.240454  0.240279  1
  Ho  Ho4  1  0.240454  0.759719  0.759547  1
  Ho  Ho5  1  0.240323  0.240323  0.759675  1
  Ho  Ho6  1  0.759719  0.240454  0.759547  1
  Er  Er7  1  0.759807  0.759807  0.240202  1
  F  F8  1  0.829624  0.170367  0.500001  1
  F  F9  1  0.499954  0.170535  0.829460  1
  F  F10  1  0.828877  0.500930  0.171126  1
  F  F11  1  0.499955  0.170529  0.500046  1
  F  F12  1  0.828884  0.500932  0.499066  1
  F  F13  1  0.170535  0.499954  0.829460  1
  F  F14  1  0.500932  0.828884  0.499066  1
  F  F15  1  0.499993  0.499993  0.170376  1
  F  F16  1  0.889683  0.330951  0.889682  1
  F  F17  1  0.110318  0.110318  0.669046  1
  F  F18  1  0.669374  0.109298  0.110663  1
  F  F19  1  0.110320  0.110320  0.110313  1
  F  F20  1  0.330951  0.889683  0.889682  1
  F  F21  1  0.889336  0.889336  0.890705  1
  F  F22  1  0.889339  0.889339  0.330624  1
  F  F23  1  0.109298  0.669374  0.110663  1
  F  F24  1  0.170367  0.829624  0.500001  1
  F  F25  1  0.500930  0.828877  0.171126  1
  F  F26  1  0.170529  0.499955  0.500046  1
  F  F27  1  0.499994  0.499994  0.829634  1
