# generated using pymatgen
data_Nd8Ho12Si13Sn3
_symmetry_space_group_name_H-M   'P 1'
_cell_length_a   7.57981300
_cell_length_b   7.90537309
_cell_length_c   14.90585000
_cell_angle_alpha   90.00000000
_cell_angle_beta   90.00000000
_cell_angle_gamma   90.10164718
_symmetry_Int_Tables_number   1
_chemical_formula_structural   Nd8Ho12Si13Sn3
_chemical_formula_sum   'Nd8 Ho12 Si13 Sn3'
_cell_volume   893.17575469
_cell_formula_units_Z   1
loop_
 _symmetry_equiv_pos_site_id
 _symmetry_equiv_pos_as_xyz
  1  'x, y, z'
loop_
 _atom_site_type_symbol
 _atom_site_label
 _atom_site_symmetry_multiplicity
 _atom_site_fract_x
 _atom_site_fract_y
 _atom_site_fract_z
 _atom_site_occupancy
  Nd  Nd0  1  0.975464  0.826713  0.088454  1
  Nd  Nd1  1  0.475472  0.673614  0.410451  1
  Nd  Nd2  1  0.518731  0.327709  0.905924  1
  Nd  Nd3  1  0.032590  0.183517  0.597814  1
  Nd  Nd4  1  0.032590  0.183517  0.902186  1
  Nd  Nd5  1  0.518731  0.327709  0.594076  1
  Nd  Nd6  1  0.475472  0.673614  0.089549  1
  Nd  Nd7  1  0.975464  0.826713  0.411546  1
  Ho  Ho8  1  0.655870  0.005635  0.250000  1
  Ho  Ho9  1  0.155521  0.494191  0.250000  1
  Ho  Ho10  1  0.855450  0.502063  0.750000  1
  Ho  Ho11  1  0.337838  0.008540  0.750000  1
  Ho  Ho12  1  0.678359  0.815612  0.878186  1
  Ho  Ho13  1  0.186021  0.675926  0.622580  1
  Ho  Ho14  1  0.817012  0.317384  0.118810  1
  Ho  Ho15  1  0.317954  0.181651  0.380888  1
  Ho  Ho16  1  0.317954  0.181651  0.119112  1
  Ho  Ho17  1  0.817012  0.317384  0.381190  1
  Ho  Ho18  1  0.186021  0.675926  0.877420  1
  Ho  Ho19  1  0.678359  0.815612  0.621814  1
  Si  Si20  1  0.232753  0.378357  0.750000  1
  Si  Si21  1  0.020417  0.127077  0.250000  1
  Si  Si22  1  0.520513  0.372772  0.250000  1
  Si  Si23  1  0.477702  0.610447  0.750000  1
  Si  Si24  1  0.978822  0.872734  0.750000  1
  Si  Si25  1  0.856672  0.528451  0.958535  1
  Si  Si26  1  0.354616  0.969171  0.541288  1
  Si  Si27  1  0.641815  0.028149  0.039242  1
  Si  Si28  1  0.142400  0.471385  0.459660  1
  Si  Si29  1  0.142400  0.471385  0.040340  1
  Si  Si30  1  0.641815  0.028149  0.460758  1
  Si  Si31  1  0.354616  0.969171  0.958712  1
  Si  Si32  1  0.856672  0.528451  0.541465  1
  Sn  Sn33  1  0.772496  0.631017  0.250000  1
  Sn  Sn34  1  0.271603  0.868570  0.250000  1
  Sn  Sn35  1  0.726804  0.130034  0.750000  1
