# generated using pymatgen
data_Sc22Ga3Tc5
_symmetry_space_group_name_H-M   'P 1'
_cell_length_a   9.57149871
_cell_length_b   9.70980197
_cell_length_c   9.70141559
_cell_angle_alpha   59.08696028
_cell_angle_beta   59.54377292
_cell_angle_gamma   60.41192650
_symmetry_Int_Tables_number   1
_chemical_formula_structural   Sc22Ga3Tc5
_chemical_formula_sum   'Sc22 Ga3 Tc5'
_cell_volume   632.74543472
_cell_formula_units_Z   1
loop_
 _symmetry_equiv_pos_site_id
 _symmetry_equiv_pos_as_xyz
  1  'x, y, z'
loop_
 _atom_site_type_symbol
 _atom_site_label
 _atom_site_symmetry_multiplicity
 _atom_site_fract_x
 _atom_site_fract_y
 _atom_site_fract_z
 _atom_site_occupancy
  Sc  Sc0  1  0.802335  0.808073  0.197663  1
  Sc  Sc1  1  0.196402  0.803597  0.196399  1
  Sc  Sc2  1  0.799962  0.194087  0.200033  1
  Sc  Sc3  1  0.197665  0.191927  0.802337  1
  Sc  Sc4  1  0.803598  0.196403  0.803601  1
  Sc  Sc5  1  0.200038  0.805913  0.799967  1
  Sc  Sc6  1  0.612046  0.613261  0.151360  1
  Sc  Sc7  1  0.618438  0.152121  0.608356  1
  Sc  Sc8  1  0.151360  0.623333  0.612045  1
  Sc  Sc9  1  0.608362  0.621082  0.618438  1
  Sc  Sc10  1  0.387954  0.386739  0.848640  1
  Sc  Sc11  1  0.381562  0.847879  0.391644  1
  Sc  Sc12  1  0.848640  0.376667  0.387955  1
  Sc  Sc13  1  0.391638  0.378918  0.381562  1
  Sc  Sc14  1  0.837276  0.853461  0.472624  1
  Sc  Sc15  1  0.829875  0.470224  0.849588  1
  Sc  Sc16  1  0.472620  0.836636  0.837287  1
  Sc  Sc17  1  0.849584  0.850313  0.829882  1
  Sc  Sc18  1  0.162724  0.146539  0.527376  1
  Sc  Sc19  1  0.170125  0.529776  0.150412  1
  Sc  Sc20  1  0.527380  0.163364  0.162713  1
  Sc  Sc21  1  0.150416  0.149687  0.170118  1
  Ga  Ga22  1  0.000000  0.500000  0.500000  1
  Ga  Ga23  1  0.000000  0.500000  0.000000  1
  Ga  Ga24  1  0.500000  0.000000  0.000000  1
  Tc  Tc25  1  0.000000  0.000000  0.000000  1
  Tc  Tc26  1  0.500000  0.500000  0.500000  1
  Tc  Tc27  1  0.000000  0.000000  0.500000  1
  Tc  Tc28  1  0.500000  0.000000  0.500000  1
  Tc  Tc29  1  0.500000  0.500000  0.000000  1
