# generated using pymatgen
data_Zr3Ti2Sn3
_symmetry_space_group_name_H-M   'P 1'
_cell_length_a   8.36335800
_cell_length_b   8.36335844
_cell_length_c   5.59603800
_cell_angle_alpha   90.00000000
_cell_angle_beta   90.00000000
_cell_angle_gamma   119.99999825
_symmetry_Int_Tables_number   1
_chemical_formula_structural   Zr3Ti2Sn3
_chemical_formula_sum   'Zr6 Ti4 Sn6'
_cell_volume   338.97892044
_cell_formula_units_Z   2
loop_
 _symmetry_equiv_pos_site_id
 _symmetry_equiv_pos_as_xyz
  1  'x, y, z'
loop_
 _atom_site_type_symbol
 _atom_site_label
 _atom_site_symmetry_multiplicity
 _atom_site_fract_x
 _atom_site_fract_y
 _atom_site_fract_z
 _atom_site_occupancy
  Zr  Zr0  1  0.241198  0.000000  0.250000  1
  Zr  Zr1  1  0.241198  0.241198  0.750000  1
  Zr  Zr2  1  0.000000  0.758802  0.750000  1
  Zr  Zr3  1  0.000000  0.241198  0.250000  1
  Zr  Zr4  1  0.758802  0.758802  0.250000  1
  Zr  Zr5  1  0.758802  0.000000  0.750000  1
  Ti  Ti6  1  0.333333  0.666667  0.000000  1
  Ti  Ti7  1  0.666667  0.333333  0.500000  1
  Ti  Ti8  1  0.666667  0.333333  0.000000  1
  Ti  Ti9  1  0.333333  0.666667  0.500000  1
  Sn  Sn10  1  0.599445  0.000000  0.250000  1
  Sn  Sn11  1  0.599445  0.599445  0.750000  1
  Sn  Sn12  1  0.000000  0.400555  0.750000  1
  Sn  Sn13  1  0.000000  0.599445  0.250000  1
  Sn  Sn14  1  0.400555  0.400555  0.250000  1
  Sn  Sn15  1  0.400555  0.000000  0.750000  1
