# generated using pymatgen
data_Er5Tm(Cu3Sb4)2
_symmetry_space_group_name_H-M   'P 1'
_cell_length_a   8.26622511
_cell_length_b   8.26622409
_cell_length_c   8.26622400
_cell_angle_alpha   109.47008824
_cell_angle_beta   109.47348228
_cell_angle_gamma   109.47009020
_symmetry_Int_Tables_number   1
_chemical_formula_structural   Er5Tm(Cu3Sb4)2
_chemical_formula_sum   'Er5 Tm1 Cu6 Sb8'
_cell_volume   434.81016384
_cell_formula_units_Z   1
loop_
 _symmetry_equiv_pos_site_id
 _symmetry_equiv_pos_as_xyz
  1  'x, y, z'
loop_
 _atom_site_type_symbol
 _atom_site_label
 _atom_site_symmetry_multiplicity
 _atom_site_fract_x
 _atom_site_fract_y
 _atom_site_fract_z
 _atom_site_occupancy
  Er  Er0  1  0.625000  0.750000  0.375000  1
  Er  Er1  1  0.249998  0.124999  0.874998  1
  Er  Er2  1  0.749999  0.375001  0.624999  1
  Er  Er3  1  0.125002  0.875000  0.250001  1
  Er  Er4  1  0.375001  0.625000  0.750002  1
  Tm  Tm5  1  0.875000  0.250000  0.125000  1
  Cu  Cu6  1  0.375000  0.250000  0.625000  1
  Cu  Cu7  1  0.125000  0.750000  0.875000  1
  Cu  Cu8  1  0.250019  0.625020  0.375013  1
  Cu  Cu9  1  0.749993  0.874980  0.124999  1
  Cu  Cu10  1  0.624987  0.375006  0.250007  1
  Cu  Cu11  1  0.875001  0.124994  0.749981  1
  Sb  Sb12  1  0.659819  0.500005  0.999997  1
  Sb  Sb13  1  0.499992  0.999995  0.659815  1
  Sb  Sb14  1  0.000007  0.659839  0.500014  1
  Sb  Sb15  1  0.840174  0.840161  0.840168  1
  Sb  Sb16  1  0.499986  0.999994  0.159826  1
  Sb  Sb17  1  0.159832  0.500006  0.999993  1
  Sb  Sb18  1  0.000003  0.159822  0.500008  1
  Sb  Sb19  1  0.340185  0.340178  0.340181  1
