# generated using pymatgen
data_LiZr6Al15Pt7
_symmetry_space_group_name_H-M   'P 1'
_cell_length_a   8.78751146
_cell_length_b   8.78751153
_cell_length_c   8.77230360
_cell_angle_alpha   59.94263573
_cell_angle_beta   59.94263407
_cell_angle_gamma   59.99999891
_symmetry_Int_Tables_number   1
_chemical_formula_structural   LiZr6Al15Pt7
_chemical_formula_sum   'Li1 Zr6 Al15 Pt7'
_cell_volume   478.57868758
_cell_formula_units_Z   1
loop_
 _symmetry_equiv_pos_site_id
 _symmetry_equiv_pos_as_xyz
  1  'x, y, z'
loop_
 _atom_site_type_symbol
 _atom_site_label
 _atom_site_symmetry_multiplicity
 _atom_site_fract_x
 _atom_site_fract_y
 _atom_site_fract_z
 _atom_site_occupancy
  Li  Li0  1  0.880377  0.880377  0.358870  1
  Zr  Zr1  1  0.685120  0.685120  0.314850  1
  Zr  Zr2  1  0.314911  0.685120  0.314850  1
  Zr  Zr3  1  0.685120  0.314911  0.314850  1
  Zr  Zr4  1  0.314903  0.314903  0.685173  1
  Zr  Zr5  1  0.685022  0.314903  0.685173  1
  Zr  Zr6  1  0.314903  0.685022  0.685173  1
  Al  Al7  1  0.879634  0.359815  0.880918  1
  Al  Al8  1  0.359815  0.879634  0.880918  1
  Al  Al9  1  0.879634  0.879634  0.880918  1
  Al  Al10  1  0.120063  0.120063  0.639811  1
  Al  Al11  1  0.115472  0.643718  0.125338  1
  Al  Al12  1  0.643718  0.115472  0.125338  1
  Al  Al13  1  0.115472  0.115472  0.125338  1
  Al  Al14  1  0.663723  0.663723  0.008833  1
  Al  Al15  1  0.669046  0.002859  0.659050  1
  Al  Al16  1  0.002859  0.669046  0.659050  1
  Al  Al17  1  0.669046  0.669046  0.659050  1
  Al  Al18  1  0.334960  0.334960  0.995120  1
  Al  Al19  1  0.336763  0.992547  0.333927  1
  Al  Al20  1  0.992547  0.336763  0.333927  1
  Al  Al21  1  0.336763  0.336763  0.333927  1
  Pt  Pt22  1  0.002572  0.002572  0.992284  1
  Pt  Pt23  1  0.002068  0.002068  0.505447  1
  Pt  Pt24  1  0.490418  0.002068  0.505447  1
  Pt  Pt25  1  0.002068  0.490418  0.505447  1
  Pt  Pt26  1  0.501125  0.501125  0.996992  1
  Pt  Pt27  1  0.000759  0.501125  0.996992  1
  Pt  Pt28  1  0.501125  0.000759  0.996992  1
