# generated using pymatgen
data_PuThNiB10
_symmetry_space_group_name_H-M   'P 1'
_cell_length_a   4.16031600
_cell_length_b   5.60204365
_cell_length_c   11.13070769
_cell_angle_alpha   90.25194673
_cell_angle_beta   90.00000000
_cell_angle_gamma   90.00000000
_symmetry_Int_Tables_number   1
_chemical_formula_structural   PuThNiB10
_chemical_formula_sum   'Pu2 Th2 Ni2 B20'
_cell_volume   259.41279094
_cell_formula_units_Z   2
loop_
 _symmetry_equiv_pos_site_id
 _symmetry_equiv_pos_as_xyz
  1  'x, y, z'
loop_
 _atom_site_type_symbol
 _atom_site_label
 _atom_site_symmetry_multiplicity
 _atom_site_fract_x
 _atom_site_fract_y
 _atom_site_fract_z
 _atom_site_occupancy
  Pu  Pu0  1  0.500000  0.313228  0.861612  1
  Pu  Pu1  1  0.500000  0.686772  0.138388  1
  Th  Th2  1  0.500000  0.808937  0.639313  1
  Th  Th3  1  0.500000  0.191063  0.360687  1
  Ni  Ni4  1  0.000000  0.500000  0.500000  1
  Ni  Ni5  1  0.000000  0.000000  0.000000  1
  B  B6  1  0.000000  0.125635  0.540992  1
  B  B7  1  0.000000  0.874365  0.459008  1
  B  B8  1  0.000000  0.625540  0.960671  1
  B  B9  1  0.000000  0.374460  0.039329  1
  B  B10  1  0.000000  0.154492  0.699071  1
  B  B11  1  0.000000  0.845508  0.300929  1
  B  B12  1  0.301461  0.202018  0.112470  1
  B  B13  1  0.301461  0.797982  0.887530  1
  B  B14  1  0.698666  0.702627  0.384492  1
  B  B15  1  0.698666  0.297373  0.615508  1
  B  B16  1  0.698539  0.797982  0.887530  1
  B  B17  1  0.698539  0.202018  0.112470  1
  B  B18  1  0.301334  0.297373  0.615508  1
  B  B19  1  0.301334  0.702627  0.384492  1
  B  B20  1  0.000000  0.033368  0.186708  1
  B  B21  1  0.000000  0.966632  0.813292  1
  B  B22  1  0.000000  0.534507  0.311047  1
  B  B23  1  0.000000  0.465493  0.688953  1
  B  B24  1  0.000000  0.345214  0.196206  1
  B  B25  1  0.000000  0.654786  0.803794  1
