# generated using pymatgen
data_Er3As2S
_symmetry_space_group_name_H-M   'P 1'
_cell_length_a   6.95080126
_cell_length_b   6.95080018
_cell_length_c   6.95080000
_cell_angle_alpha   146.12099903
_cell_angle_beta   131.82344898
_cell_angle_gamma   60.19471241
_symmetry_Int_Tables_number   1
_chemical_formula_structural   Er3As2S
_chemical_formula_sum   'Er3 As2 S1'
_cell_volume   138.20183545
_cell_formula_units_Z   1
loop_
 _symmetry_equiv_pos_site_id
 _symmetry_equiv_pos_as_xyz
  1  'x, y, z'
loop_
 _atom_site_type_symbol
 _atom_site_label
 _atom_site_symmetry_multiplicity
 _atom_site_fract_x
 _atom_site_fract_y
 _atom_site_fract_z
 _atom_site_occupancy
  Er  Er0  1  0.500000  0.000000  0.500000  1
  Er  Er1  1  0.167275  0.667275  0.500000  1
  Er  Er2  1  0.832725  0.332725  0.500000  1
  As  As3  1  0.666369  0.666369  0.000000  1
  As  As4  1  0.333631  0.333631  0.000000  1
  S  S5  1  0.000000  0.000000  0.000000  1
