# generated using pymatgen
data_Tm2ScUAs6Ru7
_symmetry_space_group_name_H-M   'P 1'
_cell_length_a   7.14397394
_cell_length_b   7.20739116
_cell_length_c   7.14397344
_cell_angle_alpha   109.55539659
_cell_angle_beta   109.31770345
_cell_angle_gamma   109.55539118
_symmetry_Int_Tables_number   1
_chemical_formula_structural   Tm2ScUAs6Ru7
_chemical_formula_sum   'Tm2 Sc1 U1 As6 Ru7'
_cell_volume   283.10955026
_cell_formula_units_Z   1
loop_
 _symmetry_equiv_pos_site_id
 _symmetry_equiv_pos_as_xyz
  1  'x, y, z'
loop_
 _atom_site_type_symbol
 _atom_site_label
 _atom_site_symmetry_multiplicity
 _atom_site_fract_x
 _atom_site_fract_y
 _atom_site_fract_z
 _atom_site_occupancy
  Tm  Tm0  1  0.000000  0.000000  0.500000  1
  Tm  Tm1  1  0.500000  0.000000  0.000000  1
  Sc  Sc2  1  0.500000  0.500000  0.500000  1
  U  U3  1  0.000000  0.500000  0.000000  1
  As  As4  1  0.317160  0.006891  0.317160  1
  As  As5  1  0.003557  0.313526  0.316823  1
  As  As6  1  0.996443  0.686474  0.683177  1
  As  As7  1  0.316823  0.313526  0.003557  1
  As  As8  1  0.683177  0.686474  0.996443  1
  As  As9  1  0.682840  0.993109  0.682840  1
  Ru  Ru10  1  0.751437  0.500000  0.248563  1
  Ru  Ru11  1  0.492281  0.742963  0.248058  1
  Ru  Ru12  1  0.507719  0.257037  0.751942  1
  Ru  Ru13  1  0.751942  0.257037  0.507719  1
  Ru  Ru14  1  0.248058  0.742963  0.492281  1
  Ru  Ru15  1  0.248563  0.500000  0.751437  1
  Ru  Ru16  1  0.000000  0.000000  0.000000  1
