# generated using pymatgen
data_Tb2RuC2
_symmetry_space_group_name_H-M   'P 1'
_cell_length_a   5.14827900
_cell_length_b   6.47460300
_cell_length_c   9.84309600
_cell_angle_alpha   90.00000000
_cell_angle_beta   90.00000000
_cell_angle_gamma   90.00000000
_symmetry_Int_Tables_number   1
_chemical_formula_structural   Tb2RuC2
_chemical_formula_sum   'Tb8 Ru4 C8'
_cell_volume   328.10053572
_cell_formula_units_Z   4
loop_
 _symmetry_equiv_pos_site_id
 _symmetry_equiv_pos_as_xyz
  1  'x, y, z'
loop_
 _atom_site_type_symbol
 _atom_site_label
 _atom_site_symmetry_multiplicity
 _atom_site_fract_x
 _atom_site_fract_y
 _atom_site_fract_z
 _atom_site_occupancy
  Tb  Tb0  1  0.750000  0.819892  0.053513  1
  Tb  Tb1  1  0.250000  0.680108  0.553513  1
  Tb  Tb2  1  0.750000  0.319892  0.446487  1
  Tb  Tb3  1  0.250000  0.180108  0.946487  1
  Tb  Tb4  1  0.750000  0.473162  0.783296  1
  Tb  Tb5  1  0.250000  0.026838  0.283296  1
  Tb  Tb6  1  0.750000  0.973162  0.716704  1
  Tb  Tb7  1  0.250000  0.526838  0.216704  1
  Ru  Ru8  1  0.750000  0.278674  0.135927  1
  Ru  Ru9  1  0.250000  0.221326  0.635927  1
  Ru  Ru10  1  0.750000  0.778674  0.364073  1
  Ru  Ru11  1  0.250000  0.721326  0.864073  1
  C  C12  1  0.750000  0.175772  0.948913  1
  C  C13  1  0.250000  0.824228  0.051087  1
  C  C14  1  0.750000  0.675772  0.551087  1
  C  C15  1  0.250000  0.324228  0.448913  1
  C  C16  1  0.750000  0.042200  0.257098  1
  C  C17  1  0.250000  0.457800  0.757098  1
  C  C18  1  0.750000  0.542200  0.242902  1
  C  C19  1  0.250000  0.957800  0.742902  1
