# generated using pymatgen
data_Ho3Co9(SiB2)2
_symmetry_space_group_name_H-M   'P 1'
_cell_length_a   5.10849300
_cell_length_b   5.10850109
_cell_length_c   9.33871200
_cell_angle_alpha   89.99988133
_cell_angle_beta   90.00009567
_cell_angle_gamma   120.00205740
_symmetry_Int_Tables_number   1
_chemical_formula_structural   Ho3Co9(SiB2)2
_chemical_formula_sum   'Ho3 Co9 Si2 B4'
_cell_volume   211.05463928
_cell_formula_units_Z   1
loop_
 _symmetry_equiv_pos_site_id
 _symmetry_equiv_pos_as_xyz
  1  'x, y, z'
loop_
 _atom_site_type_symbol
 _atom_site_label
 _atom_site_symmetry_multiplicity
 _atom_site_fract_x
 _atom_site_fract_y
 _atom_site_fract_z
 _atom_site_occupancy
  Ho  Ho0  1  0.999982  0.999999  0.000046  1
  Ho  Ho1  1  0.999995  0.000000  0.338573  1
  Ho  Ho2  1  0.000001  0.999999  0.661435  1
  Co  Co3  1  0.499998  0.000000  0.499985  1
  Co  Co4  1  0.499998  0.500001  0.499980  1
  Co  Co5  1  0.999997  0.500000  0.499969  1
  Co  Co6  1  0.499992  0.000000  0.196314  1
  Co  Co7  1  0.499991  0.500001  0.196315  1
  Co  Co8  1  0.999991  0.500001  0.196311  1
  Co  Co9  1  0.499999  0.000000  0.803697  1
  Co  Co10  1  0.499999  0.500001  0.803700  1
  Co  Co11  1  0.999998  0.499999  0.803700  1
  Si  Si12  1  0.333389  0.666732  0.000007  1
  Si  Si13  1  0.666587  0.333267  0.000006  1
  B  B14  1  0.333312  0.666661  0.345755  1
  B  B15  1  0.666675  0.333339  0.345754  1
  B  B16  1  0.666679  0.333347  0.654226  1
  B  B17  1  0.333318  0.666653  0.654226  1
