# generated using pymatgen
data_Eu2YTaO6
_symmetry_space_group_name_H-M   'P 1'
_cell_length_a   5.94889700
_cell_length_b   5.79448027
_cell_length_c   10.07929956
_cell_angle_alpha   55.21127916
_cell_angle_beta   90.00000000
_cell_angle_gamma   90.00000000
_symmetry_Int_Tables_number   1
_chemical_formula_structural   Eu2YTaO6
_chemical_formula_sum   'Eu4 Y2 Ta2 O12'
_cell_volume   285.34007931
_cell_formula_units_Z   2
loop_
 _symmetry_equiv_pos_site_id
 _symmetry_equiv_pos_as_xyz
  1  'x, y, z'
loop_
 _atom_site_type_symbol
 _atom_site_label
 _atom_site_symmetry_multiplicity
 _atom_site_fract_x
 _atom_site_fract_y
 _atom_site_fract_z
 _atom_site_occupancy
  Eu  Eu0  1  0.451380  0.263433  0.750604  1
  Eu  Eu1  1  0.951380  0.736567  0.749396  1
  Eu  Eu2  1  0.048620  0.263433  0.250604  1
  Eu  Eu3  1  0.548620  0.736567  0.249396  1
  Y  Y4  1  0.000000  0.000000  0.000000  1
  Y  Y5  1  0.500000  0.000000  0.500000  1
  Ta  Ta6  1  0.500000  0.500000  0.000000  1
  Ta  Ta7  1  0.000000  0.500000  0.500000  1
  O  O8  1  0.721749  0.633846  0.554803  1
  O  O9  1  0.221749  0.366154  0.945197  1
  O  O10  1  0.278251  0.366154  0.445197  1
  O  O11  1  0.778251  0.633846  0.054803  1
  O  O12  1  0.192835  0.730196  0.548960  1
  O  O13  1  0.692835  0.269804  0.951040  1
  O  O14  1  0.807165  0.269804  0.451040  1
  O  O15  1  0.307165  0.730196  0.048960  1
  O  O16  1  0.032347  0.169154  0.733815  1
  O  O17  1  0.532347  0.830846  0.766185  1
  O  O18  1  0.967653  0.830846  0.266185  1
  O  O19  1  0.467653  0.169154  0.233815  1
