# generated using pymatgen
data_PrSmHo4(Co3P2)6
_symmetry_space_group_name_H-M   'P 1'
_cell_length_a   3.71759200
_cell_length_b   10.55291500
_cell_length_c   12.23733000
_cell_angle_alpha   90.00000000
_cell_angle_beta   90.00000000
_cell_angle_gamma   90.00000000
_symmetry_Int_Tables_number   1
_chemical_formula_structural   PrSmHo4(Co3P2)6
_chemical_formula_sum   'Pr1 Sm1 Ho4 Co18 P12'
_cell_volume   480.08798442
_cell_formula_units_Z   1
loop_
 _symmetry_equiv_pos_site_id
 _symmetry_equiv_pos_as_xyz
  1  'x, y, z'
loop_
 _atom_site_type_symbol
 _atom_site_label
 _atom_site_symmetry_multiplicity
 _atom_site_fract_x
 _atom_site_fract_y
 _atom_site_fract_z
 _atom_site_occupancy
  Pr  Pr0  1  0.500000  0.000000  0.477783  1
  Sm  Sm1  1  0.000000  0.500000  0.521674  1
  Ho  Ho2  1  0.500000  0.817442  0.204752  1
  Ho  Ho3  1  0.500000  0.182558  0.204752  1
  Ho  Ho4  1  0.000000  0.682184  0.794928  1
  Ho  Ho5  1  0.000000  0.317816  0.794928  1
  Co  Co6  1  0.000000  0.500000  0.986621  1
  Co  Co7  1  0.500000  0.000000  0.013076  1
  Co  Co8  1  0.500000  0.298255  0.428989  1
  Co  Co9  1  0.500000  0.701745  0.428989  1
  Co  Co10  1  0.000000  0.205129  0.571102  1
  Co  Co11  1  0.000000  0.794871  0.571102  1
  Co  Co12  1  0.500000  0.879004  0.712845  1
  Co  Co13  1  0.500000  0.120996  0.712845  1
  Co  Co14  1  0.000000  0.620131  0.287506  1
  Co  Co15  1  0.000000  0.379869  0.287506  1
  Co  Co16  1  0.500000  0.333428  0.995024  1
  Co  Co17  1  0.500000  0.666572  0.995024  1
  Co  Co18  1  0.000000  0.166855  0.004991  1
  Co  Co19  1  0.000000  0.833145  0.004991  1
  Co  Co20  1  0.500000  0.500000  0.157163  1
  Co  Co21  1  0.000000  0.000000  0.843865  1
  Co  Co22  1  0.500000  0.500000  0.705874  1
  Co  Co23  1  0.000000  0.000000  0.292916  1
  P  P24  1  0.500000  0.309132  0.617239  1
  P  P25  1  0.500000  0.690868  0.617239  1
  P  P26  1  0.000000  0.193675  0.382058  1
  P  P27  1  0.000000  0.806325  0.382058  1
  P  P28  1  0.500000  0.500000  0.883589  1
  P  P29  1  0.000000  0.000000  0.115802  1
  P  P30  1  0.500000  0.846216  0.894262  1
  P  P31  1  0.500000  0.153784  0.894262  1
  P  P32  1  0.000000  0.653315  0.105940  1
  P  P33  1  0.000000  0.346685  0.105940  1
  P  P34  1  0.500000  0.500000  0.340854  1
  P  P35  1  0.000000  0.000000  0.661511  1
