# generated using pymatgen
data_SmTaB6Ru
_symmetry_space_group_name_H-M   'P 1'
_cell_length_a   3.51986700
_cell_length_b   9.04743900
_cell_length_c   11.36523400
_cell_angle_alpha   90.00000000
_cell_angle_beta   90.00000000
_cell_angle_gamma   90.00000000
_symmetry_Int_Tables_number   1
_chemical_formula_structural   SmTaB6Ru
_chemical_formula_sum   'Sm4 Ta4 B24 Ru4'
_cell_volume   361.93476401
_cell_formula_units_Z   4
loop_
 _symmetry_equiv_pos_site_id
 _symmetry_equiv_pos_as_xyz
  1  'x, y, z'
loop_
 _atom_site_type_symbol
 _atom_site_label
 _atom_site_symmetry_multiplicity
 _atom_site_fract_x
 _atom_site_fract_y
 _atom_site_fract_z
 _atom_site_occupancy
  Sm  Sm0  1  0.000000  0.323867  0.414013  1
  Sm  Sm1  1  0.000000  0.676133  0.585987  1
  Sm  Sm2  1  0.000000  0.823867  0.085987  1
  Sm  Sm3  1  0.000000  0.176133  0.914013  1
  Ta  Ta4  1  0.000000  0.946997  0.375182  1
  Ta  Ta5  1  0.000000  0.053003  0.624818  1
  Ta  Ta6  1  0.000000  0.446997  0.124818  1
  Ta  Ta7  1  0.000000  0.553003  0.875182  1
  B  B8  1  0.500000  0.555744  0.432454  1
  B  B9  1  0.500000  0.444256  0.567546  1
  B  B10  1  0.500000  0.055744  0.067546  1
  B  B11  1  0.500000  0.944256  0.932454  1
  B  B12  1  0.500000  0.755928  0.417004  1
  B  B13  1  0.500000  0.244072  0.582996  1
  B  B14  1  0.500000  0.255928  0.082996  1
  B  B15  1  0.500000  0.744072  0.917004  1
  B  B16  1  0.500000  0.799231  0.263600  1
  B  B17  1  0.500000  0.200769  0.736400  1
  B  B18  1  0.500000  0.299231  0.236400  1
  B  B19  1  0.500000  0.700769  0.763600  1
  B  B20  1  0.500000  0.629335  0.181075  1
  B  B21  1  0.500000  0.370665  0.818925  1
  B  B22  1  0.500000  0.129335  0.318925  1
  B  B23  1  0.500000  0.870665  0.681075  1
  B  B24  1  0.500000  0.982558  0.215278  1
  B  B25  1  0.500000  0.017442  0.784722  1
  B  B26  1  0.500000  0.482558  0.284722  1
  B  B27  1  0.500000  0.517442  0.715278  1
  B  B28  1  0.500000  0.598630  0.025820  1
  B  B29  1  0.500000  0.401370  0.974180  1
  B  B30  1  0.500000  0.098630  0.474180  1
  B  B31  1  0.500000  0.901370  0.525820  1
  Ru  Ru32  1  0.000000  0.645148  0.316316  1
  Ru  Ru33  1  0.000000  0.354852  0.683684  1
  Ru  Ru34  1  0.000000  0.145148  0.183684  1
  Ru  Ru35  1  0.000000  0.854852  0.816316  1
