# generated using pymatgen
data_HoTh2Sc(AsPt)4
_symmetry_space_group_name_H-M   'P 1'
_cell_length_a   4.29449000
_cell_length_b   4.29449049
_cell_length_c   15.36826900
_cell_angle_alpha   90.00000000
_cell_angle_beta   90.00000000
_cell_angle_gamma   119.99999624
_symmetry_Int_Tables_number   1
_chemical_formula_structural   HoTh2Sc(AsPt)4
_chemical_formula_sum   'Ho1 Th2 Sc1 As4 Pt4'
_cell_volume   245.45893341
_cell_formula_units_Z   1
loop_
 _symmetry_equiv_pos_site_id
 _symmetry_equiv_pos_as_xyz
  1  'x, y, z'
loop_
 _atom_site_type_symbol
 _atom_site_label
 _atom_site_symmetry_multiplicity
 _atom_site_fract_x
 _atom_site_fract_y
 _atom_site_fract_z
 _atom_site_occupancy
  Ho  Ho0  1  0.000000  0.000000  0.750000  1
  Th  Th1  1  0.000000  0.000000  0.496307  1
  Th  Th2  1  0.000000  0.000000  0.003693  1
  Sc  Sc3  1  0.000000  0.000000  0.250000  1
  As  As4  1  0.333333  0.666667  0.883201  1
  As  As5  1  0.666667  0.333333  0.121393  1
  As  As6  1  0.666667  0.333333  0.378607  1
  As  As7  1  0.333333  0.666667  0.616799  1
  Pt  Pt8  1  0.333333  0.666667  0.347733  1
  Pt  Pt9  1  0.666667  0.333333  0.641625  1
  Pt  Pt10  1  0.666667  0.333333  0.858375  1
  Pt  Pt11  1  0.333333  0.666667  0.152267  1
