# generated using pymatgen
data_Tm2Ga10Tc2Os
_symmetry_space_group_name_H-M   'P 1'
_cell_length_a   9.02479500
_cell_length_b   9.02479500
_cell_length_c   6.28001000
_cell_angle_alpha   90.00000000
_cell_angle_beta   90.00000000
_cell_angle_gamma   90.00000000
_symmetry_Int_Tables_number   1
_chemical_formula_structural   Tm2Ga10Tc2Os
_chemical_formula_sum   'Tm4 Ga20 Tc4 Os2'
_cell_volume   511.48750216
_cell_formula_units_Z   2
loop_
 _symmetry_equiv_pos_site_id
 _symmetry_equiv_pos_as_xyz
  1  'x, y, z'
loop_
 _atom_site_type_symbol
 _atom_site_label
 _atom_site_symmetry_multiplicity
 _atom_site_fract_x
 _atom_site_fract_y
 _atom_site_fract_z
 _atom_site_occupancy
  Tm  Tm0  1  0.183326  0.316674  0.000000  1
  Tm  Tm1  1  0.683326  0.183326  0.000000  1
  Tm  Tm2  1  0.816674  0.683326  0.000000  1
  Tm  Tm3  1  0.316674  0.816674  0.000000  1
  Ga  Ga4  1  0.500000  0.000000  0.284717  1
  Ga  Ga5  1  0.500000  0.000000  0.715283  1
  Ga  Ga6  1  0.294109  0.560483  0.708642  1
  Ga  Ga7  1  0.000000  0.500000  0.284717  1
  Ga  Ga8  1  0.000000  0.500000  0.715283  1
  Ga  Ga9  1  0.060483  0.794109  0.708642  1
  Ga  Ga10  1  0.205891  0.060483  0.291358  1
  Ga  Ga11  1  0.060483  0.794109  0.291358  1
  Ga  Ga12  1  0.705891  0.439517  0.708642  1
  Ga  Ga13  1  0.205891  0.060483  0.708642  1
  Ga  Ga14  1  0.939517  0.205891  0.708642  1
  Ga  Ga15  1  0.705891  0.439517  0.291358  1
  Ga  Ga16  1  0.560483  0.705891  0.291358  1
  Ga  Ga17  1  0.939517  0.205891  0.291358  1
  Ga  Ga18  1  0.560483  0.705891  0.708642  1
  Ga  Ga19  1  0.794109  0.939517  0.291358  1
  Ga  Ga20  1  0.439517  0.294109  0.708642  1
  Ga  Ga21  1  0.794109  0.939517  0.708642  1
  Ga  Ga22  1  0.439517  0.294109  0.291358  1
  Ga  Ga23  1  0.294109  0.560483  0.291358  1
  Tc  Tc24  1  0.178930  0.321070  0.500000  1
  Tc  Tc25  1  0.321070  0.821070  0.500000  1
  Tc  Tc26  1  0.821070  0.678930  0.500000  1
  Tc  Tc27  1  0.678930  0.178930  0.500000  1
  Os  Os28  1  0.000000  0.000000  0.000000  1
  Os  Os29  1  0.500000  0.500000  0.000000  1
