# generated using pymatgen
data_La2ZnGaPd2
_symmetry_space_group_name_H-M   'P 1'
_cell_length_a   7.20895900
_cell_length_b   4.55569000
_cell_length_c   8.03314600
_cell_angle_alpha   90.00000000
_cell_angle_beta   90.00000000
_cell_angle_gamma   90.00000000
_symmetry_Int_Tables_number   1
_chemical_formula_structural   La2ZnGaPd2
_chemical_formula_sum   'La4 Zn2 Ga2 Pd4'
_cell_volume   263.82283313
_cell_formula_units_Z   2
loop_
 _symmetry_equiv_pos_site_id
 _symmetry_equiv_pos_as_xyz
  1  'x, y, z'
loop_
 _atom_site_type_symbol
 _atom_site_label
 _atom_site_symmetry_multiplicity
 _atom_site_fract_x
 _atom_site_fract_y
 _atom_site_fract_z
 _atom_site_occupancy
  La  La0  1  0.031935  0.250000  0.307440  1
  La  La1  1  0.531935  0.250000  0.192560  1
  La  La2  1  0.966191  0.750000  0.692684  1
  La  La3  1  0.466191  0.750000  0.807316  1
  Zn  Zn4  1  0.344601  0.750000  0.427850  1
  Zn  Zn5  1  0.844601  0.750000  0.072150  1
  Ga  Ga6  1  0.653711  0.250000  0.568882  1
  Ga  Ga7  1  0.153711  0.250000  0.931118  1
  Pd  Pd8  1  0.274888  0.250000  0.609063  1
  Pd  Pd9  1  0.774888  0.250000  0.890937  1
  Pd  Pd10  1  0.728673  0.750000  0.395380  1
  Pd  Pd11  1  0.228673  0.750000  0.104620  1
