# generated using pymatgen
data_Sr5PrBiWO12
_symmetry_space_group_name_H-M   'P 1'
_cell_length_a   6.96544552
_cell_length_b   7.03129885
_cell_length_c   7.00055969
_cell_angle_alpha   91.74009191
_cell_angle_beta   92.02359893
_cell_angle_gamma   92.11137231
_symmetry_Int_Tables_number   1
_chemical_formula_structural   Sr5PrBiWO12
_chemical_formula_sum   'Sr5 Pr1 Bi1 W1 O12'
_cell_volume   342.24170090
_cell_formula_units_Z   1
loop_
 _symmetry_equiv_pos_site_id
 _symmetry_equiv_pos_as_xyz
  1  'x, y, z'
loop_
 _atom_site_type_symbol
 _atom_site_label
 _atom_site_symmetry_multiplicity
 _atom_site_fract_x
 _atom_site_fract_y
 _atom_site_fract_z
 _atom_site_occupancy
  Sr  Sr0  1  0.441621  0.932992  0.745515  1
  Sr  Sr1  1  0.741950  0.438110  0.940005  1
  Sr  Sr2  1  0.256053  0.564070  0.064630  1
  Sr  Sr3  1  0.562167  0.064545  0.258697  1
  Sr  Sr4  1  0.935981  0.744824  0.434406  1
  Pr  Pr5  1  0.065983  0.255966  0.564385  1
  Bi  Bi6  1  0.001530  0.001702  0.999166  1
  W  W7  1  0.500698  0.498470  0.500774  1
  O  O8  1  0.067527  0.293818  0.913361  1
  O  O9  1  0.071240  0.944712  0.700081  1
  O  O10  1  0.456299  0.570851  0.767379  1
  O  O11  1  0.710924  0.071959  0.937614  1
  O  O12  1  0.224781  0.535474  0.429397  1
  O  O13  1  0.414948  0.229068  0.547425  1
  O  O14  1  0.572369  0.762472  0.453778  1
  O  O15  1  0.771509  0.444720  0.572309  1
  O  O16  1  0.291629  0.931620  0.065909  1
  O  O17  1  0.542160  0.423291  0.234935  1
  O  O18  1  0.939413  0.078177  0.299743  1
  O  O19  1  0.931216  0.713157  0.070490  1
