# generated using pymatgen
data_Hf2ZrTi2Sn3N
_symmetry_space_group_name_H-M   'P 1'
_cell_length_a   8.27476288
_cell_length_b   8.27476177
_cell_length_c   5.59201300
_cell_angle_alpha   90.00000000
_cell_angle_beta   90.00000000
_cell_angle_gamma   120.12444354
_symmetry_Int_Tables_number   1
_chemical_formula_structural   Hf2ZrTi2Sn3N
_chemical_formula_sum   'Hf4 Zr2 Ti4 Sn6 N2'
_cell_volume   331.17984571
_cell_formula_units_Z   2
loop_
 _symmetry_equiv_pos_site_id
 _symmetry_equiv_pos_as_xyz
  1  'x, y, z'
loop_
 _atom_site_type_symbol
 _atom_site_label
 _atom_site_symmetry_multiplicity
 _atom_site_fract_x
 _atom_site_fract_y
 _atom_site_fract_z
 _atom_site_occupancy
  Hf  Hf0  1  0.779246  0.779246  0.750000  1
  Hf  Hf1  1  0.222974  0.000746  0.750000  1
  Hf  Hf2  1  0.000746  0.222974  0.750000  1
  Hf  Hf3  1  0.220333  0.220333  0.250000  1
  Zr  Zr4  1  0.773734  0.999136  0.250000  1
  Zr  Zr5  1  0.999136  0.773734  0.250000  1
  Ti  Ti6  1  0.666412  0.333268  0.999779  1
  Ti  Ti7  1  0.333268  0.666412  0.999779  1
  Ti  Ti8  1  0.333268  0.666412  0.500221  1
  Ti  Ti9  1  0.666412  0.333268  0.500221  1
  Sn  Sn10  1  0.410827  0.410827  0.750000  1
  Sn  Sn11  1  0.589604  0.999879  0.750000  1
  Sn  Sn12  1  0.999879  0.589604  0.750000  1
  Sn  Sn13  1  0.588244  0.588244  0.250000  1
  Sn  Sn14  1  0.409424  0.000510  0.250000  1
  Sn  Sn15  1  0.000510  0.409424  0.250000  1
  N  N16  1  0.002991  0.002991  0.996062  1
  N  N17  1  0.002991  0.002991  0.503938  1
