# generated using pymatgen
data_Tb2Y2Zn4Ir3Pd
_symmetry_space_group_name_H-M   'P 1'
_cell_length_a   4.10974300
_cell_length_b   7.01189908
_cell_length_c   8.13907207
_cell_angle_alpha   90.16678628
_cell_angle_beta   90.00000000
_cell_angle_gamma   90.00000000
_symmetry_Int_Tables_number   1
_chemical_formula_structural   Tb2Y2Zn4Ir3Pd
_chemical_formula_sum   'Tb2 Y2 Zn4 Ir3 Pd1'
_cell_volume   234.54348571
_cell_formula_units_Z   1
loop_
 _symmetry_equiv_pos_site_id
 _symmetry_equiv_pos_as_xyz
  1  'x, y, z'
loop_
 _atom_site_type_symbol
 _atom_site_label
 _atom_site_symmetry_multiplicity
 _atom_site_fract_x
 _atom_site_fract_y
 _atom_site_fract_z
 _atom_site_occupancy
  Tb  Tb0  1  0.750000  0.964427  0.683673  1
  Tb  Tb1  1  0.750000  0.470199  0.809583  1
  Y  Y2  1  0.250000  0.029155  0.322513  1
  Y  Y3  1  0.250000  0.544853  0.185056  1
  Zn  Zn4  1  0.250000  0.640361  0.565606  1
  Zn  Zn5  1  0.250000  0.137742  0.932509  1
  Zn  Zn6  1  0.750000  0.359846  0.435871  1
  Zn  Zn7  1  0.750000  0.858066  0.066470  1
  Ir  Ir8  1  0.250000  0.257279  0.620833  1
  Ir  Ir9  1  0.250000  0.758674  0.881186  1
  Ir  Ir10  1  0.750000  0.739941  0.378571  1
  Pd  Pd11  1  0.750000  0.239456  0.118132  1
