# generated using pymatgen
data_TbSm(Sc4Bi3)2
_symmetry_space_group_name_H-M   'P 1'
_cell_length_a   7.92034500
_cell_length_b   9.06725200
_cell_length_c   11.60460300
_cell_angle_alpha   90.00000000
_cell_angle_beta   90.00000000
_cell_angle_gamma   90.00000000
_symmetry_Int_Tables_number   1
_chemical_formula_structural   TbSm(Sc4Bi3)2
_chemical_formula_sum   'Tb2 Sm2 Sc16 Bi12'
_cell_volume   833.39343085
_cell_formula_units_Z   2
loop_
 _symmetry_equiv_pos_site_id
 _symmetry_equiv_pos_as_xyz
  1  'x, y, z'
loop_
 _atom_site_type_symbol
 _atom_site_label
 _atom_site_symmetry_multiplicity
 _atom_site_fract_x
 _atom_site_fract_y
 _atom_site_fract_z
 _atom_site_occupancy
  Tb  Tb0  1  0.683913  0.750000  0.781179  1
  Tb  Tb1  1  0.183913  0.750000  0.718821  1
  Sm  Sm2  1  0.316617  0.250000  0.219342  1
  Sm  Sm3  1  0.816617  0.250000  0.280658  1
  Sc  Sc4  1  0.348111  0.750000  0.220828  1
  Sc  Sc5  1  0.848111  0.750000  0.279172  1
  Sc  Sc6  1  0.651730  0.250000  0.778848  1
  Sc  Sc7  1  0.151730  0.250000  0.721152  1
  Sc  Sc8  1  0.692696  0.567293  0.062587  1
  Sc  Sc9  1  0.192696  0.932707  0.437413  1
  Sc  Sc10  1  0.307108  0.067209  0.937022  1
  Sc  Sc11  1  0.807108  0.432791  0.562978  1
  Sc  Sc12  1  0.307108  0.432791  0.937022  1
  Sc  Sc13  1  0.807108  0.067209  0.562978  1
  Sc  Sc14  1  0.692696  0.932707  0.062587  1
  Sc  Sc15  1  0.192696  0.567293  0.437413  1
  Sc  Sc16  1  0.481876  0.250000  0.489161  1
  Sc  Sc17  1  0.981876  0.250000  0.010839  1
  Sc  Sc18  1  0.518056  0.750000  0.511551  1
  Sc  Sc19  1  0.018056  0.750000  0.988449  1
  Bi  Bi20  1  0.402345  0.750000  0.967551  1
  Bi  Bi21  1  0.902345  0.750000  0.532449  1
  Bi  Bi22  1  0.598403  0.250000  0.030717  1
  Bi  Bi23  1  0.098403  0.250000  0.469283  1
  Bi  Bi24  1  0.563451  0.987373  0.329488  1
  Bi  Bi25  1  0.063451  0.512627  0.170512  1
  Bi  Bi26  1  0.436219  0.489413  0.671195  1
  Bi  Bi27  1  0.936219  0.010587  0.828805  1
  Bi  Bi28  1  0.436219  0.010587  0.671195  1
  Bi  Bi29  1  0.936219  0.489413  0.828805  1
  Bi  Bi30  1  0.563451  0.512627  0.329488  1
  Bi  Bi31  1  0.063451  0.987373  0.170512  1
