# generated using pymatgen
data_La17Pr3Si15Pd
_symmetry_space_group_name_H-M   'P 1'
_cell_length_a   8.01792288
_cell_length_b   8.01904240
_cell_length_c   15.53069590
_cell_angle_alpha   89.90680093
_cell_angle_beta   89.55624552
_cell_angle_gamma   90.13391732
_symmetry_Int_Tables_number   1
_chemical_formula_structural   La17Pr3Si15Pd
_chemical_formula_sum   'La17 Pr3 Si15 Pd1'
_cell_volume   998.52858310
_cell_formula_units_Z   1
loop_
 _symmetry_equiv_pos_site_id
 _symmetry_equiv_pos_as_xyz
  1  'x, y, z'
loop_
 _atom_site_type_symbol
 _atom_site_label
 _atom_site_symmetry_multiplicity
 _atom_site_fract_x
 _atom_site_fract_y
 _atom_site_fract_z
 _atom_site_occupancy
  La  La0  1  0.307251  0.307605  0.998445  1
  La  La1  1  0.193113  0.806442  0.249899  1
  La  La2  1  0.808396  0.186944  0.752078  1
  La  La3  1  0.690300  0.685803  0.499119  1
  La  La4  1  0.374873  0.009980  0.447640  1
  La  La5  1  0.492200  0.871417  0.697699  1
  La  La6  1  0.509789  0.122079  0.197334  1
  La  La7  1  0.877201  0.488459  0.301225  1
  La  La8  1  0.121861  0.514309  0.801049  1
  La  La9  1  0.627771  0.988068  0.949048  1
  La  La10  1  0.002003  0.380387  0.551174  1
  La  La11  1  0.989798  0.624208  0.052497  1
  La  La12  1  0.135404  0.987894  0.875138  1
  La  La13  1  0.517102  0.631628  0.126626  1
  La  La14  1  0.477056  0.365616  0.627819  1
  La  La15  1  0.629263  0.519481  0.874512  1
  La  La16  1  0.371216  0.481464  0.373075  1
  Pr  Pr17  1  0.872150  0.019198  0.376388  1
  Pr  Pr18  1  0.981102  0.126730  0.124795  1
  Pr  Pr19  1  0.018336  0.874539  0.622051  1
  Si  Si20  1  0.332250  0.698143  0.951961  1
  Si  Si21  1  0.664414  0.300481  0.452916  1
  Si  Si22  1  0.699270  0.334511  0.049458  1
  Si  Si23  1  0.301302  0.668362  0.547530  1
  Si  Si24  1  0.805675  0.833266  0.204069  1
  Si  Si25  1  0.165813  0.195790  0.296801  1
  Si  Si26  1  0.837188  0.803535  0.796086  1
  Si  Si27  1  0.287478  0.922811  0.058332  1
  Si  Si28  1  0.581171  0.790193  0.309788  1
  Si  Si29  1  0.432192  0.208561  0.812474  1
  Si  Si30  1  0.789059  0.581229  0.690131  1
  Si  Si31  1  0.209236  0.419502  0.190368  1
  Si  Si32  1  0.705781  0.074789  0.558299  1
  Si  Si33  1  0.919853  0.288708  0.942611  1
  Si  Si34  1  0.078398  0.715037  0.441929  1
  Pd  Pd35  1  0.194733  0.172833  0.699634  1
