# generated using pymatgen
data_La4Al4CuIr3
_symmetry_space_group_name_H-M   'P 1'
_cell_length_a   4.30612400
_cell_length_b   7.20613758
_cell_length_c   16.53578841
_cell_angle_alpha   89.90823147
_cell_angle_beta   90.00000000
_cell_angle_gamma   90.00000000
_symmetry_Int_Tables_number   1
_chemical_formula_structural   La4Al4CuIr3
_chemical_formula_sum   'La8 Al8 Cu2 Ir6'
_cell_volume   513.11348757
_cell_formula_units_Z   2
loop_
 _symmetry_equiv_pos_site_id
 _symmetry_equiv_pos_as_xyz
  1  'x, y, z'
loop_
 _atom_site_type_symbol
 _atom_site_label
 _atom_site_symmetry_multiplicity
 _atom_site_fract_x
 _atom_site_fract_y
 _atom_site_fract_z
 _atom_site_occupancy
  La  La0  1  0.750000  0.848905  0.942506  1
  La  La1  1  0.250000  0.151095  0.057494  1
  La  La2  1  0.250000  0.654452  0.439804  1
  La  La3  1  0.750000  0.345548  0.560196  1
  La  La4  1  0.750000  0.987143  0.719648  1
  La  La5  1  0.250000  0.012857  0.280352  1
  La  La6  1  0.250000  0.522029  0.223122  1
  La  La7  1  0.750000  0.477971  0.776878  1
  Al  Al8  1  0.750000  0.836928  0.146900  1
  Al  Al9  1  0.250000  0.163072  0.853100  1
  Al  Al10  1  0.250000  0.653505  0.645253  1
  Al  Al11  1  0.750000  0.346495  0.354747  1
  Al  Al12  1  0.750000  0.993242  0.438441  1
  Al  Al13  1  0.250000  0.006758  0.561559  1
  Al  Al14  1  0.250000  0.504315  0.939654  1
  Al  Al15  1  0.750000  0.495685  0.060346  1
  Cu  Cu16  1  0.250000  0.772708  0.818338  1
  Cu  Cu17  1  0.750000  0.227292  0.181662  1
  Ir  Ir18  1  0.750000  0.785838  0.572696  1
  Ir  Ir19  1  0.250000  0.214162  0.427304  1
  Ir  Ir20  1  0.250000  0.713363  0.070076  1
  Ir  Ir21  1  0.750000  0.286637  0.929924  1
  Ir  Ir22  1  0.750000  0.726775  0.317215  1
  Ir  Ir23  1  0.250000  0.273225  0.682785  1
