# generated using pymatgen
data_Ta2Ti(CrP)3
_symmetry_space_group_name_H-M   'P 1'
_cell_length_a   6.46995613
_cell_length_b   6.43516307
_cell_length_c   3.29301200
_cell_angle_alpha   90.00000000
_cell_angle_beta   90.00000000
_cell_angle_gamma   119.82226099
_symmetry_Int_Tables_number   1
_chemical_formula_structural   Ta2Ti(CrP)3
_chemical_formula_sum   'Ta2 Ti1 Cr3 P3'
_cell_volume   118.94875005
_cell_formula_units_Z   1
loop_
 _symmetry_equiv_pos_site_id
 _symmetry_equiv_pos_as_xyz
  1  'x, y, z'
loop_
 _atom_site_type_symbol
 _atom_site_label
 _atom_site_symmetry_multiplicity
 _atom_site_fract_x
 _atom_site_fract_y
 _atom_site_fract_z
 _atom_site_occupancy
  Ta  Ta0  1  0.405004  0.403618  0.500000  1
  Ta  Ta1  1  0.594996  0.998614  0.500000  1
  Ti  Ti2  1  0.000000  0.595659  0.500000  1
  Cr  Cr3  1  0.000000  0.251721  0.000000  1
  Cr  Cr4  1  0.251555  0.000045  0.000000  1
  Cr  Cr5  1  0.748445  0.748490  0.000000  1
  P  P6  1  0.673836  0.338935  0.000000  1
  P  P7  1  0.326164  0.665100  0.000000  1
  P  P8  1  0.000000  0.997817  0.500000  1
