# generated using pymatgen
data_SrTh3(Al8Pt3)3
_symmetry_space_group_name_H-M   'P 1'
_cell_length_a   7.61338668
_cell_length_b   7.63148456
_cell_length_c   13.32147743
_cell_angle_alpha   84.51216853
_cell_angle_beta   79.03134786
_cell_angle_gamma   59.93565717
_symmetry_Int_Tables_number   1
_chemical_formula_structural   SrTh3(Al8Pt3)3
_chemical_formula_sum   'Sr1 Th3 Al24 Pt9'
_cell_volume   657.62855816
_cell_formula_units_Z   1
loop_
 _symmetry_equiv_pos_site_id
 _symmetry_equiv_pos_as_xyz
  1  'x, y, z'
loop_
 _atom_site_type_symbol
 _atom_site_label
 _atom_site_symmetry_multiplicity
 _atom_site_fract_x
 _atom_site_fract_y
 _atom_site_fract_z
 _atom_site_occupancy
  Sr  Sr0  1  0.394139  0.168160  0.808182  1
  Th  Th1  1  0.604523  0.832313  0.193823  1
  Th  Th2  1  0.734541  0.498209  0.806167  1
  Th  Th3  1  0.265465  0.501410  0.193699  1
  Al  Al4  1  0.687127  0.834862  0.945937  1
  Al  Al5  1  0.312318  0.166470  0.052926  1
  Al  Al6  1  0.145700  0.833749  0.559901  1
  Al  Al7  1  0.854039  0.166040  0.439811  1
  Al  Al8  1  0.481381  0.166810  0.557664  1
  Al  Al9  1  0.518471  0.833696  0.442718  1
  Al  Al10  1  0.211959  0.165409  0.335369  1
  Al  Al11  1  0.783974  0.837919  0.664006  1
  Al  Al12  1  0.436408  0.505643  0.663752  1
  Al  Al13  1  0.564553  0.489854  0.335606  1
  Al  Al14  1  0.115011  0.156323  0.662600  1
  Al  Al15  1  0.888387  0.844265  0.336870  1
  Al  Al16  1  0.348319  0.502417  0.946342  1
  Al  Al17  1  0.651360  0.496899  0.053789  1
  Al  Al18  1  0.015387  0.164366  0.956001  1
  Al  Al19  1  0.985033  0.835335  0.044241  1
  Al  Al20  1  0.186775  0.499894  0.442479  1
  Al  Al21  1  0.814092  0.499558  0.556995  1
  Al  Al22  1  0.738005  0.164147  0.183980  1
  Al  Al23  1  0.266159  0.830515  0.816470  1
  Al  Al24  1  0.056736  0.637418  0.815061  1
  Al  Al25  1  0.937697  0.364982  0.185368  1
  Al  Al26  1  0.863955  0.040281  0.815807  1
  Al  Al27  1  0.138487  0.963339  0.184476  1
  Pt  Pt28  1  0.118008  0.495694  0.636380  1
  Pt  Pt29  1  0.880104  0.508062  0.361228  1
  Pt  Pt30  1  0.656450  0.171141  0.002279  1
  Pt  Pt31  1  0.342796  0.827648  0.002938  1
  Pt  Pt32  1  0.538212  0.166675  0.361114  1
  Pt  Pt33  1  0.461602  0.830424  0.636381  1
  Pt  Pt34  1  0.783378  0.173329  0.635131  1
  Pt  Pt35  1  0.221435  0.825163  0.361876  1
  Pt  Pt36  1  0.998011  0.501578  0.002629  1
