# generated using pymatgen
data_NbB3Mo
_symmetry_space_group_name_H-M   'P 1'
_cell_length_a   9.73781884
_cell_length_b   9.73781977
_cell_length_c   3.10389400
_cell_angle_alpha   90.00000000
_cell_angle_beta   90.00000000
_cell_angle_gamma   160.50610137
_symmetry_Int_Tables_number   1
_chemical_formula_structural   NbB3Mo
_chemical_formula_sum   'Nb2 B6 Mo2'
_cell_volume   98.21887145
_cell_formula_units_Z   2
loop_
 _symmetry_equiv_pos_site_id
 _symmetry_equiv_pos_as_xyz
  1  'x, y, z'
loop_
 _atom_site_type_symbol
 _atom_site_label
 _atom_site_symmetry_multiplicity
 _atom_site_fract_x
 _atom_site_fract_y
 _atom_site_fract_z
 _atom_site_occupancy
  Nb  Nb0  1  0.929128  0.070869  0.250001  1
  Nb  Nb1  1  0.070869  0.929128  0.749999  1
  B  B2  1  0.618232  0.381765  0.250001  1
  B  B3  1  0.523569  0.476428  0.250001  1
  B  B4  1  0.330989  0.669008  0.250001  1
  B  B5  1  0.669008  0.330989  0.749999  1
  B  B6  1  0.476428  0.523569  0.749999  1
  B  B7  1  0.381765  0.618232  0.749999  1
  Mo  Mo8  1  0.202471  0.797526  0.250001  1
  Mo  Mo9  1  0.797526  0.202471  0.749999  1
