# generated using pymatgen
data_Dy3Y2Er(BO3)6
_symmetry_space_group_name_H-M   'P 1'
_cell_length_a   6.58109543
_cell_length_b   6.58753835
_cell_length_c   9.62787240
_cell_angle_alpha   70.40190823
_cell_angle_beta   70.40079419
_cell_angle_gamma   60.03221268
_symmetry_Int_Tables_number   1
_chemical_formula_structural   Dy3Y2Er(BO3)6
_chemical_formula_sum   'Dy3 Y2 Er1 B6 O18'
_cell_volume   333.36179075
_cell_formula_units_Z   1
loop_
 _symmetry_equiv_pos_site_id
 _symmetry_equiv_pos_as_xyz
  1  'x, y, z'
loop_
 _atom_site_type_symbol
 _atom_site_label
 _atom_site_symmetry_multiplicity
 _atom_site_fract_x
 _atom_site_fract_y
 _atom_site_fract_z
 _atom_site_occupancy
  Dy  Dy0  1  0.170614  0.657699  0.999347  1
  Dy  Dy1  1  0.342821  0.829020  0.500670  1
  Dy  Dy2  1  0.829362  0.342303  0.000611  1
  Y  Y3  1  0.000294  0.499838  0.500002  1
  Y  Y4  1  0.500028  0.000006  0.000043  1
  Er  Er5  1  0.657499  0.170858  0.499370  1
  B  B6  1  0.917575  0.843565  0.746127  1
  B  B7  1  0.158145  0.082126  0.752748  1
  B  B8  1  0.081184  0.157063  0.253858  1
  B  B9  1  0.842430  0.918487  0.247487  1
  B  B10  1  0.676580  0.323071  0.749416  1
  B  B11  1  0.324104  0.675688  0.250352  1
  O  O12  1  0.964928  0.784495  0.602387  1
  O  O13  1  0.217180  0.033798  0.896738  1
  O  O14  1  0.032335  0.216819  0.397616  1
  O  O15  1  0.782799  0.966243  0.103667  1
  O  O16  1  0.870725  0.685658  0.887969  1
  O  O17  1  0.316852  0.129440  0.611488  1
  O  O18  1  0.128965  0.314576  0.112056  1
  O  O19  1  0.684728  0.871968  0.389205  1
  O  O20  1  0.518727  0.385177  0.891320  1
  O  O21  1  0.614633  0.480234  0.607611  1
  O  O22  1  0.481418  0.614623  0.108267  1
  O  O23  1  0.387515  0.516507  0.391661  1
  O  O24  1  0.916776  0.299028  0.752046  1
  O  O25  1  0.700344  0.083900  0.746479  1
  O  O26  1  0.083477  0.700827  0.247989  1
  O  O27  1  0.298974  0.916028  0.252993  1
  O  O28  1  0.134721  0.865966  0.749433  1
  O  O29  1  0.864268  0.134988  0.251045  1
