# generated using pymatgen
data_RbNd6(CI6)2
_symmetry_space_group_name_H-M   'P 1'
_cell_length_a   9.71820068
_cell_length_b   9.69162442
_cell_length_c   10.19821957
_cell_angle_alpha   72.20397021
_cell_angle_beta   70.98122261
_cell_angle_gamma   72.78530819
_symmetry_Int_Tables_number   1
_chemical_formula_structural   RbNd6(CI6)2
_chemical_formula_sum   'Rb1 Nd6 C2 I12'
_cell_volume   843.81559538
_cell_formula_units_Z   1
loop_
 _symmetry_equiv_pos_site_id
 _symmetry_equiv_pos_as_xyz
  1  'x, y, z'
loop_
 _atom_site_type_symbol
 _atom_site_label
 _atom_site_symmetry_multiplicity
 _atom_site_fract_x
 _atom_site_fract_y
 _atom_site_fract_z
 _atom_site_occupancy
  Rb  Rb0  1  0.000000  0.499998  0.000000  1
  Nd  Nd1  1  0.475563  0.108263  0.193594  1
  Nd  Nd2  1  0.770446  0.031428  0.410737  1
  Nd  Nd3  1  0.589781  0.731482  0.475403  1
  Nd  Nd4  1  0.410217  0.268518  0.524599  1
  Nd  Nd5  1  0.229556  0.968572  0.589262  1
  Nd  Nd6  1  0.524440  0.891734  0.806412  1
  C  C7  1  0.494071  0.024158  0.429093  1
  C  C8  1  0.505935  0.975846  0.570908  1
  I  I9  1  0.801203  0.160093  0.078516  1
  I  I10  1  0.587105  0.777651  0.142263  1
  I  I11  1  0.351329  0.435544  0.220893  1
  I  I12  1  0.135700  0.070291  0.291529  1
  I  I13  1  0.928153  0.717984  0.354012  1
  I  I14  1  0.718844  0.366824  0.430151  1
  I  I15  1  0.281154  0.633177  0.569849  1
  I  I16  1  0.071846  0.282016  0.645987  1
  I  I17  1  0.864301  0.929710  0.708470  1
  I  I18  1  0.648669  0.564455  0.779105  1
  I  I19  1  0.412892  0.222348  0.857737  1
  I  I20  1  0.198798  0.839907  0.921481  1
