# generated using pymatgen
data_Ac8Ho12Si15Se
_symmetry_space_group_name_H-M   'P 1'
_cell_length_a   7.78149934
_cell_length_b   7.94684228
_cell_length_c   15.14569600
_cell_angle_alpha   89.84035142
_cell_angle_beta   86.99408823
_cell_angle_gamma   90.24583795
_symmetry_Int_Tables_number   1
_chemical_formula_structural   Ac8Ho12Si15Se
_chemical_formula_sum   'Ac8 Ho12 Si15 Se1'
_cell_volume   935.28333771
_cell_formula_units_Z   1
loop_
 _symmetry_equiv_pos_site_id
 _symmetry_equiv_pos_as_xyz
  1  'x, y, z'
loop_
 _atom_site_type_symbol
 _atom_site_label
 _atom_site_symmetry_multiplicity
 _atom_site_fract_x
 _atom_site_fract_y
 _atom_site_fract_z
 _atom_site_occupancy
  Ac  Ac0  1  0.002517  0.825423  0.099894  1
  Ac  Ac1  1  0.481799  0.674115  0.399969  1
  Ac  Ac2  1  0.494258  0.318791  0.901249  1
  Ac  Ac3  1  0.017618  0.171721  0.600217  1
  Ac  Ac4  1  0.998914  0.175711  0.901552  1
  Ac  Ac5  1  0.516000  0.325519  0.599044  1
  Ac  Ac6  1  0.498298  0.684153  0.100409  1
  Ac  Ac7  1  0.982042  0.823608  0.400413  1
  Ho  Ho8  1  0.667806  0.003055  0.246011  1
  Ho  Ho9  1  0.167215  0.498598  0.244678  1
  Ho  Ho10  1  0.833553  0.500088  0.746075  1
  Ho  Ho11  1  0.330343  0.998258  0.753866  1
  Ho  Ho12  1  0.647158  0.840687  0.876040  1
  Ho  Ho13  1  0.173704  0.675775  0.624968  1
  Ho  Ho14  1  0.850996  0.332938  0.122593  1
  Ho  Ho15  1  0.325961  0.175437  0.375777  1
  Ho  Ho16  1  0.350775  0.165504  0.122125  1
  Ho  Ho17  1  0.827902  0.323558  0.376092  1
  Ho  Ho18  1  0.156887  0.663838  0.879898  1
  Ho  Ho19  1  0.673944  0.824573  0.625318  1
  Si  Si20  1  0.791429  0.614183  0.251225  1
  Si  Si21  1  0.292857  0.884242  0.251895  1
  Si  Si22  1  0.704479  0.119935  0.748858  1
  Si  Si23  1  0.204783  0.382488  0.749651  1
  Si  Si24  1  0.042153  0.130040  0.250864  1
  Si  Si25  1  0.544701  0.372021  0.250834  1
  Si  Si26  1  0.458532  0.628137  0.750826  1
  Si  Si27  1  0.959170  0.866009  0.751593  1
  Si  Si28  1  0.359681  0.965756  0.540578  1
  Si  Si29  1  0.689333  0.044955  0.044284  1
  Si  Si30  1  0.142169  0.465500  0.460593  1
  Si  Si31  1  0.193574  0.456776  0.047132  1
  Si  Si32  1  0.641924  0.032530  0.459993  1
  Si  Si33  1  0.311891  0.957558  0.953140  1
  Si  Si34  1  0.859207  0.530916  0.541771  1
  Se  Se35  1  0.806425  0.547604  0.950569  1
