# generated using pymatgen
data_PrN6
_symmetry_space_group_name_H-M   'P 1'
_cell_length_a   6.07727318
_cell_length_b   3.93605308
_cell_length_c   9.30370302
_cell_angle_alpha   78.75887652
_cell_angle_beta   88.63392355
_cell_angle_gamma   40.47765825
_symmetry_Int_Tables_number   1
_chemical_formula_structural   PrN6
_chemical_formula_sum   'Pr1 N6'
_cell_volume   138.96368277
_cell_formula_units_Z   1
loop_
 _symmetry_equiv_pos_site_id
 _symmetry_equiv_pos_as_xyz
  1  'x, y, z'
loop_
 _atom_site_type_symbol
 _atom_site_label
 _atom_site_symmetry_multiplicity
 _atom_site_fract_x
 _atom_site_fract_y
 _atom_site_fract_z
 _atom_site_occupancy
  Pr  Pr0  1  0.299436  0.932468  0.604672  1
  N  N1  1  0.522643  0.425154  0.020414  1
  N  N2  1  0.093733  0.260270  0.190702  1
  N  N3  1  0.902504  0.933546  0.607084  1
  N  N4  1  0.457701  0.583114  0.894952  1
  N  N5  1  0.695372  0.937294  0.602451  1
  N  N6  1  0.158413  0.168502  0.315296  1
