# generated using pymatgen
data_U8TaS17
_symmetry_space_group_name_H-M   'P 1'
_cell_length_a   7.77449468
_cell_length_b   7.77449433
_cell_length_c   10.34977159
_cell_angle_alpha   81.17608512
_cell_angle_beta   81.17608780
_cell_angle_gamma   65.53016161
_symmetry_Int_Tables_number   1
_chemical_formula_structural   U8TaS17
_chemical_formula_sum   'U8 Ta1 S17'
_cell_volume   559.82583651
_cell_formula_units_Z   1
loop_
 _symmetry_equiv_pos_site_id
 _symmetry_equiv_pos_as_xyz
  1  'x, y, z'
loop_
 _atom_site_type_symbol
 _atom_site_label
 _atom_site_symmetry_multiplicity
 _atom_site_fract_x
 _atom_site_fract_y
 _atom_site_fract_z
 _atom_site_occupancy
  U  U0  1  0.816565  0.299966  0.298953  1
  U  U1  1  0.299966  0.816565  0.298953  1
  U  U2  1  0.183435  0.700034  0.701047  1
  U  U3  1  0.700034  0.183435  0.701047  1
  U  U4  1  0.204789  0.204789  0.539837  1
  U  U5  1  0.795211  0.795211  0.460163  1
  U  U6  1  0.686232  0.686232  0.985699  1
  U  U7  1  0.313768  0.313768  0.014301  1
  Ta  Ta8  1  0.000000  0.000000  0.000000  1
  S  S9  1  0.820973  0.432486  0.535390  1
  S  S10  1  0.432486  0.820973  0.535390  1
  S  S11  1  0.179027  0.567514  0.464610  1
  S  S12  1  0.567514  0.179027  0.464610  1
  S  S13  1  0.934939  0.328853  0.026539  1
  S  S14  1  0.328853  0.934939  0.026539  1
  S  S15  1  0.065061  0.671147  0.973461  1
  S  S16  1  0.671147  0.065061  0.973461  1
  S  S17  1  0.211874  0.211874  0.273894  1
  S  S18  1  0.788126  0.788126  0.726106  1
  S  S19  1  0.063484  0.063484  0.767290  1
  S  S20  1  0.936516  0.936516  0.232710  1
  S  S21  1  0.302275  0.302275  0.755132  1
  S  S22  1  0.697725  0.697725  0.244868  1
  S  S23  1  0.521928  0.521928  0.834719  1
  S  S24  1  0.478072  0.478072  0.165281  1
  S  S25  1  0.000000  0.000000  0.500000  1
