# generated using pymatgen
data_Li6AcEuUN6
_symmetry_space_group_name_H-M   'P 1'
_cell_length_a   6.37533100
_cell_length_b   6.37533246
_cell_length_c   5.47444200
_cell_angle_alpha   90.00000000
_cell_angle_beta   90.00000000
_cell_angle_gamma   120.00001559
_symmetry_Int_Tables_number   1
_chemical_formula_structural   Li6AcEuUN6
_chemical_formula_sum   'Li6 Ac1 Eu1 U1 N6'
_cell_volume   192.69746320
_cell_formula_units_Z   1
loop_
 _symmetry_equiv_pos_site_id
 _symmetry_equiv_pos_as_xyz
  1  'x, y, z'
loop_
 _atom_site_type_symbol
 _atom_site_label
 _atom_site_symmetry_multiplicity
 _atom_site_fract_x
 _atom_site_fract_y
 _atom_site_fract_z
 _atom_site_occupancy
  Li  Li0  1  0.905943  0.589700  0.584698  1
  Li  Li1  1  0.410300  0.316243  0.584698  1
  Li  Li2  1  0.683757  0.094057  0.584698  1
  Li  Li3  1  0.072645  0.380213  0.408719  1
  Li  Li4  1  0.619787  0.692432  0.408719  1
  Li  Li5  1  0.307568  0.927355  0.408719  1
  Ac  Ac6  1  0.000000  0.000000  0.991115  1
  Eu  Eu7  1  0.333333  0.666667  0.966459  1
  U  U8  1  0.666667  0.333333  0.026612  1
  N  N9  1  0.981971  0.626343  0.231919  1
  N  N10  1  0.373657  0.355628  0.231919  1
  N  N11  1  0.644372  0.018029  0.231919  1
  N  N12  1  0.954783  0.345991  0.779935  1
  N  N13  1  0.654009  0.608792  0.779935  1
  N  N14  1  0.391208  0.045217  0.779935  1
