# generated using pymatgen
data_LiHf3(Ni4P3)2
_symmetry_space_group_name_H-M   'P 1'
_cell_length_a   11.99380423
_cell_length_b   11.98747456
_cell_length_c   3.64930400
_cell_angle_alpha   90.00000000
_cell_angle_beta   90.00000000
_cell_angle_gamma   119.98255341
_symmetry_Int_Tables_number   1
_chemical_formula_structural   LiHf3(Ni4P3)2
_chemical_formula_sum   'Li2 Hf6 Ni16 P12'
_cell_volume   454.46626656
_cell_formula_units_Z   2
loop_
 _symmetry_equiv_pos_site_id
 _symmetry_equiv_pos_as_xyz
  1  'x, y, z'
loop_
 _atom_site_type_symbol
 _atom_site_label
 _atom_site_symmetry_multiplicity
 _atom_site_fract_x
 _atom_site_fract_y
 _atom_site_fract_z
 _atom_site_occupancy
  Li  Li0  1  0.441930  0.440911  0.000000  1
  Li  Li1  1  0.558070  0.998980  0.000000  1
  Hf  Hf2  1  0.816262  0.820145  0.500000  1
  Hf  Hf3  1  0.000000  0.176668  0.500000  1
  Hf  Hf4  1  0.337246  0.669343  0.000000  1
  Hf  Hf5  1  0.662754  0.332095  0.000000  1
  Hf  Hf6  1  0.000000  0.553512  0.000000  1
  Hf  Hf7  1  0.183738  0.003883  0.500000  1
  Ni  Ni8  1  0.622150  0.817650  0.000000  1
  Ni  Ni9  1  0.377850  0.195499  0.000000  1
  Ni  Ni10  1  0.000000  0.726471  0.500000  1
  Ni  Ni11  1  0.281976  0.282005  0.500000  1
  Ni  Ni12  1  0.871934  0.352067  0.500000  1
  Ni  Ni13  1  0.718024  0.000029  0.500000  1
  Ni  Ni14  1  0.816422  0.627961  0.000000  1
  Ni  Ni15  1  0.183578  0.811538  0.000000  1
  Ni  Ni16  1  0.359852  0.877139  0.500000  1
  Ni  Ni17  1  0.128066  0.480133  0.500000  1
  Ni  Ni18  1  0.640148  0.517286  0.500000  1
  Ni  Ni19  1  0.000000  0.001232  0.000000  1
  Ni  Ni20  1  0.520241  0.642935  0.500000  1
  Ni  Ni21  1  0.479759  0.122693  0.500000  1
  Ni  Ni22  1  0.197955  0.378545  0.000000  1
  Ni  Ni23  1  0.802045  0.180591  0.000000  1
  P  P24  1  0.000000  0.345567  0.000000  1
  P  P25  1  0.826223  0.514840  0.500000  1
  P  P26  1  0.682833  0.167755  0.500000  1
  P  P27  1  0.178702  0.177686  0.000000  1
  P  P28  1  0.641083  0.642365  0.000000  1
  P  P29  1  0.821298  0.998983  0.000000  1
  P  P30  1  0.517081  0.830493  0.500000  1
  P  P31  1  0.173777  0.688616  0.500000  1
  P  P32  1  0.358917  0.001283  0.000000  1
  P  P33  1  0.482919  0.313413  0.500000  1
  P  P34  1  0.000000  0.824763  0.000000  1
  P  P35  1  0.317167  0.484921  0.500000  1
