# generated using pymatgen
data_Ce5Sc3Ti11Si16Mo
_symmetry_space_group_name_H-M   'P 1'
_cell_length_a   6.95497718
_cell_length_b   6.95120204
_cell_length_c   12.77360700
_cell_angle_alpha   89.94545890
_cell_angle_beta   90.08788406
_cell_angle_gamma   89.97116051
_symmetry_Int_Tables_number   1
_chemical_formula_structural   Ce5Sc3Ti11Si16Mo
_chemical_formula_sum   'Ce5 Sc3 Ti11 Si16 Mo1'
_cell_volume   617.54471326
_cell_formula_units_Z   1
loop_
 _symmetry_equiv_pos_site_id
 _symmetry_equiv_pos_as_xyz
  1  'x, y, z'
loop_
 _atom_site_type_symbol
 _atom_site_label
 _atom_site_symmetry_multiplicity
 _atom_site_fract_x
 _atom_site_fract_y
 _atom_site_fract_z
 _atom_site_occupancy
  Ce  Ce0  1  0.838884  0.494071  0.285273  1
  Ce  Ce1  1  0.162068  0.501268  0.780602  1
  Ce  Ce2  1  0.666989  0.989559  0.968438  1
  Ce  Ce3  1  0.006269  0.338797  0.532697  1
  Ce  Ce4  1  0.989738  0.666179  0.034086  1
  Sc  Sc5  1  0.342956  0.999800  0.467464  1
  Sc  Sc6  1  0.500937  0.841393  0.717369  1
  Sc  Sc7  1  0.495747  0.159780  0.216143  1
  Ti  Ti8  1  0.172519  0.827030  0.249060  1
  Ti  Ti9  1  0.828621  0.173671  0.749096  1
  Ti  Ti10  1  0.673211  0.674235  0.497934  1
  Ti  Ti11  1  0.156640  0.002670  0.875600  1
  Ti  Ti12  1  0.494811  0.655686  0.126080  1
  Ti  Ti13  1  0.499500  0.346597  0.624689  1
  Ti  Ti14  1  0.652644  0.489813  0.875156  1
  Ti  Ti15  1  0.347369  0.509720  0.374575  1
  Ti  Ti16  1  0.845515  0.998556  0.377420  1
  Ti  Ti17  1  0.008824  0.156098  0.125354  1
  Ti  Ti18  1  0.990938  0.846404  0.622393  1
  Si  Si19  1  0.210713  0.119317  0.681697  1
  Si  Si20  1  0.371013  0.701093  0.933724  1
  Si  Si21  1  0.619846  0.288975  0.433627  1
  Si  Si22  1  0.694726  0.365612  0.068698  1
  Si  Si23  1  0.304645  0.643602  0.565859  1
  Si  Si24  1  0.791220  0.879957  0.189340  1
  Si  Si25  1  0.142650  0.196335  0.316573  1
  Si  Si26  1  0.865779  0.798689  0.809866  1
  Si  Si27  1  0.294417  0.959301  0.067329  1
  Si  Si28  1  0.539821  0.802712  0.316485  1
  Si  Si29  1  0.456853  0.200410  0.813573  1
  Si  Si30  1  0.782293  0.548439  0.683372  1
  Si  Si31  1  0.215499  0.449271  0.184722  1
  Si  Si32  1  0.697813  0.041873  0.566215  1
  Si  Si33  1  0.956459  0.288717  0.935318  1
  Si  Si34  1  0.053303  0.718272  0.435000  1
  Mo  Mo35  1  0.328768  0.326098  0.999173  1
