# generated using pymatgen
data_LiTb6Co17P12
_symmetry_space_group_name_H-M   'P 1'
_cell_length_a   3.70935600
_cell_length_b   10.52837500
_cell_length_c   12.19453200
_cell_angle_alpha   90.00000000
_cell_angle_beta   90.00000000
_cell_angle_gamma   90.00000000
_symmetry_Int_Tables_number   1
_chemical_formula_structural   LiTb6Co17P12
_chemical_formula_sum   'Li1 Tb6 Co17 P12'
_cell_volume   476.23904542
_cell_formula_units_Z   1
loop_
 _symmetry_equiv_pos_site_id
 _symmetry_equiv_pos_as_xyz
  1  'x, y, z'
loop_
 _atom_site_type_symbol
 _atom_site_label
 _atom_site_symmetry_multiplicity
 _atom_site_fract_x
 _atom_site_fract_y
 _atom_site_fract_z
 _atom_site_occupancy
  Li  Li0  1  0.500000  0.500000  0.151233  1
  Tb  Tb1  1  0.000000  0.500000  0.522666  1
  Tb  Tb2  1  0.500000  0.000000  0.478784  1
  Tb  Tb3  1  0.500000  0.819049  0.206514  1
  Tb  Tb4  1  0.500000  0.180951  0.206514  1
  Tb  Tb5  1  0.000000  0.682439  0.794176  1
  Tb  Tb6  1  0.000000  0.317561  0.794176  1
  Co  Co7  1  0.000000  0.000000  0.840303  1
  Co  Co8  1  0.500000  0.500000  0.704279  1
  Co  Co9  1  0.000000  0.000000  0.296476  1
  Co  Co10  1  0.000000  0.500000  0.985947  1
  Co  Co11  1  0.500000  0.000000  0.012242  1
  Co  Co12  1  0.500000  0.330981  0.995140  1
  Co  Co13  1  0.500000  0.669019  0.995140  1
  Co  Co14  1  0.000000  0.164838  0.003075  1
  Co  Co15  1  0.000000  0.835162  0.003075  1
  Co  Co16  1  0.500000  0.296327  0.432060  1
  Co  Co17  1  0.500000  0.703673  0.432060  1
  Co  Co18  1  0.000000  0.201954  0.570696  1
  Co  Co19  1  0.000000  0.798046  0.570696  1
  Co  Co20  1  0.500000  0.880177  0.709429  1
  Co  Co21  1  0.500000  0.119823  0.709429  1
  Co  Co22  1  0.000000  0.621823  0.292870  1
  Co  Co23  1  0.000000  0.378177  0.292870  1
  P  P24  1  0.500000  0.500000  0.884727  1
  P  P25  1  0.000000  0.000000  0.116477  1
  P  P26  1  0.500000  0.500000  0.344648  1
  P  P27  1  0.000000  0.000000  0.656324  1
  P  P28  1  0.500000  0.309346  0.616491  1
  P  P29  1  0.500000  0.690654  0.616491  1
  P  P30  1  0.000000  0.190055  0.385483  1
  P  P31  1  0.000000  0.809945  0.385483  1
  P  P32  1  0.500000  0.848044  0.892116  1
  P  P33  1  0.500000  0.151956  0.892116  1
  P  P34  1  0.000000  0.656817  0.104898  1
  P  P35  1  0.000000  0.343183  0.104898  1
