# generated using pymatgen
data_Nd5DyCd23Se
_symmetry_space_group_name_H-M   'P 1'
_cell_length_a   10.06205027
_cell_length_b   10.06205067
_cell_length_c   9.98073400
_cell_angle_alpha   60.26697640
_cell_angle_beta   60.26697510
_cell_angle_gamma   59.46605601
_symmetry_Int_Tables_number   1
_chemical_formula_structural   Nd5DyCd23Se
_chemical_formula_sum   'Nd5 Dy1 Cd23 Se1'
_cell_volume   714.43745336
_cell_formula_units_Z   1
loop_
 _symmetry_equiv_pos_site_id
 _symmetry_equiv_pos_as_xyz
  1  'x, y, z'
loop_
 _atom_site_type_symbol
 _atom_site_label
 _atom_site_symmetry_multiplicity
 _atom_site_fract_x
 _atom_site_fract_y
 _atom_site_fract_z
 _atom_site_occupancy
  Nd  Nd0  1  0.210409  0.789562  0.210438  1
  Nd  Nd1  1  0.789562  0.210409  0.210438  1
  Nd  Nd2  1  0.204722  0.204722  0.795278  1
  Nd  Nd3  1  0.789562  0.210409  0.789591  1
  Nd  Nd4  1  0.210409  0.789562  0.789591  1
  Dy  Dy5  1  0.797526  0.797526  0.202474  1
  Cd  Cd6  1  0.835279  0.835279  0.493483  1
  Cd  Cd7  1  0.831602  0.498836  0.834781  1
  Cd  Cd8  1  0.498836  0.831602  0.834781  1
  Cd  Cd9  1  0.835279  0.835279  0.835957  1
  Cd  Cd10  1  0.165219  0.165219  0.501164  1
  Cd  Cd11  1  0.164043  0.506517  0.164721  1
  Cd  Cd12  1  0.506517  0.164043  0.164721  1
  Cd  Cd13  1  0.165219  0.165219  0.168398  1
  Cd  Cd14  1  0.623990  0.623990  0.137328  1
  Cd  Cd15  1  0.619348  0.133636  0.623508  1
  Cd  Cd16  1  0.133636  0.619348  0.623508  1
  Cd  Cd17  1  0.623990  0.623990  0.614691  1
  Cd  Cd18  1  0.376492  0.376492  0.866364  1
  Cd  Cd19  1  0.385309  0.862672  0.376010  1
  Cd  Cd20  1  0.862672  0.385309  0.376010  1
  Cd  Cd21  1  0.376492  0.376492  0.380652  1
  Cd  Cd22  1  0.999228  0.999228  0.500772  1
  Cd  Cd23  1  0.500090  0.999709  0.499910  1
  Cd  Cd24  1  0.999709  0.500090  0.499910  1
  Cd  Cd25  1  0.499228  0.499228  0.000772  1
  Cd  Cd26  1  0.999709  0.500090  0.000291  1
  Cd  Cd27  1  0.500090  0.999709  0.000291  1
  Cd  Cd28  1  0.497915  0.497915  0.502085  1
  Se  Se29  1  0.997915  0.997915  0.002085  1
