# generated using pymatgen
data_Ho2TmLu5Au4
_symmetry_space_group_name_H-M   'P 1'
_cell_length_a   4.84565100
_cell_length_b   7.04704104
_cell_length_c   8.82315717
_cell_angle_alpha   89.95744250
_cell_angle_beta   90.00000000
_cell_angle_gamma   90.00000000
_symmetry_Int_Tables_number   1
_chemical_formula_structural   Ho2TmLu5Au4
_chemical_formula_sum   'Ho2 Tm1 Lu5 Au4'
_cell_volume   301.28868954
_cell_formula_units_Z   1
loop_
 _symmetry_equiv_pos_site_id
 _symmetry_equiv_pos_as_xyz
  1  'x, y, z'
loop_
 _atom_site_type_symbol
 _atom_site_label
 _atom_site_symmetry_multiplicity
 _atom_site_fract_x
 _atom_site_fract_y
 _atom_site_fract_z
 _atom_site_occupancy
  Ho  Ho0  1  0.250000  0.982796  0.321140  1
  Ho  Ho1  1  0.750000  0.517156  0.821441  1
  Tm  Tm2  1  0.750000  0.017490  0.678203  1
  Lu  Lu3  1  0.250000  0.850787  0.923058  1
  Lu  Lu4  1  0.250000  0.350833  0.576554  1
  Lu  Lu5  1  0.750000  0.149667  0.076914  1
  Lu  Lu6  1  0.750000  0.648913  0.422320  1
  Lu  Lu7  1  0.250000  0.482504  0.177994  1
  Au  Au8  1  0.250000  0.254993  0.898714  1
  Au  Au9  1  0.250000  0.755548  0.602773  1
  Au  Au10  1  0.750000  0.743934  0.102888  1
  Au  Au11  1  0.750000  0.245378  0.398002  1
