# generated using pymatgen
data_DyTm4(FeB3)2
_symmetry_space_group_name_H-M   'P 1'
_cell_length_a   8.18466825
_cell_length_b   8.18466811
_cell_length_c   8.18466733
_cell_angle_alpha   38.47197174
_cell_angle_beta   38.47197482
_cell_angle_gamma   38.47196008
_symmetry_Int_Tables_number   1
_chemical_formula_structural   DyTm4(FeB3)2
_chemical_formula_sum   'Dy1 Tm4 Fe2 B6'
_cell_volume   190.65636153
_cell_formula_units_Z   1
loop_
 _symmetry_equiv_pos_site_id
 _symmetry_equiv_pos_as_xyz
  1  'x, y, z'
loop_
 _atom_site_type_symbol
 _atom_site_label
 _atom_site_symmetry_multiplicity
 _atom_site_fract_x
 _atom_site_fract_y
 _atom_site_fract_z
 _atom_site_occupancy
  Dy  Dy0  1  0.000000  0.000000  0.000000  1
  Tm  Tm1  1  0.583217  0.583217  0.583217  1
  Tm  Tm2  1  0.416783  0.416783  0.416783  1
  Tm  Tm3  1  0.749093  0.749093  0.749093  1
  Tm  Tm4  1  0.250907  0.250907  0.250907  1
  Fe  Fe5  1  0.882923  0.882923  0.882923  1
  Fe  Fe6  1  0.117077  0.117077  0.117077  1
  B  B7  1  0.500000  0.831700  0.168300  1
  B  B8  1  0.168300  0.500000  0.831700  1
  B  B9  1  0.831700  0.168300  0.500000  1
  B  B10  1  0.500000  0.168300  0.831700  1
  B  B11  1  0.831700  0.500000  0.168300  1
  B  B12  1  0.168300  0.831700  0.500000  1
