# generated using pymatgen
data_Nb8Re3Mo4Os
_symmetry_space_group_name_H-M   'P 1'
_cell_length_a   6.46163500
_cell_length_b   4.55790400
_cell_length_c   9.08885600
_cell_angle_alpha   90.00000000
_cell_angle_beta   90.00076583
_cell_angle_gamma   90.00000000
_symmetry_Int_Tables_number   1
_chemical_formula_structural   Nb8Re3Mo4Os
_chemical_formula_sum   'Nb8 Re3 Mo4 Os1'
_cell_volume   267.68055166
_cell_formula_units_Z   1
loop_
 _symmetry_equiv_pos_site_id
 _symmetry_equiv_pos_as_xyz
  1  'x, y, z'
loop_
 _atom_site_type_symbol
 _atom_site_label
 _atom_site_symmetry_multiplicity
 _atom_site_fract_x
 _atom_site_fract_y
 _atom_site_fract_z
 _atom_site_occupancy
  Nb  Nb0  1  0.499968  0.750001  0.125232  1
  Nb  Nb1  1  0.000474  0.750001  0.125241  1
  Nb  Nb2  1  0.500641  0.250000  0.374994  1
  Nb  Nb3  1  0.999765  0.250000  0.375007  1
  Nb  Nb4  1  0.000051  0.750001  0.624748  1
  Nb  Nb5  1  0.499538  0.750001  0.624773  1
  Nb  Nb6  1  0.000164  0.250000  0.874998  1
  Nb  Nb7  1  0.499403  0.250000  0.875007  1
  Re  Re8  1  0.250175  0.250000  0.124413  1
  Re  Re9  1  0.750176  0.750001  0.374994  1
  Re  Re10  1  0.249824  0.250000  0.625587  1
  Mo  Mo11  1  0.750171  0.250000  0.124678  1
  Mo  Mo12  1  0.250169  0.750001  0.375004  1
  Mo  Mo13  1  0.749833  0.250000  0.625319  1
  Mo  Mo14  1  0.249829  0.750001  0.875001  1
  Os  Os15  1  0.749816  0.750001  0.875003  1
