# generated using pymatgen
data_Tm3Ta(Co4P3)2
_symmetry_space_group_name_H-M   'P 1'
_cell_length_a   3.68762200
_cell_length_b   10.60620300
_cell_length_c   12.28786300
_cell_angle_alpha   90.00000000
_cell_angle_beta   90.00000000
_cell_angle_gamma   90.00000000
_symmetry_Int_Tables_number   1
_chemical_formula_structural   Tm3Ta(Co4P3)2
_chemical_formula_sum   'Tm6 Ta2 Co16 P12'
_cell_volume   480.59881218
_cell_formula_units_Z   2
loop_
 _symmetry_equiv_pos_site_id
 _symmetry_equiv_pos_as_xyz
  1  'x, y, z'
loop_
 _atom_site_type_symbol
 _atom_site_label
 _atom_site_symmetry_multiplicity
 _atom_site_fract_x
 _atom_site_fract_y
 _atom_site_fract_z
 _atom_site_occupancy
  Tm  Tm0  1  0.000000  0.500000  0.527201  1
  Tm  Tm1  1  0.500000  0.000000  0.472799  1
  Tm  Tm2  1  0.500000  0.820954  0.205329  1
  Tm  Tm3  1  0.500000  0.179046  0.205329  1
  Tm  Tm4  1  0.000000  0.679046  0.794671  1
  Tm  Tm5  1  0.000000  0.320954  0.794671  1
  Ta  Ta6  1  0.500000  0.500000  0.157346  1
  Ta  Ta7  1  0.000000  0.000000  0.842654  1
  Co  Co8  1  0.500000  0.500000  0.701653  1
  Co  Co9  1  0.000000  0.000000  0.298347  1
  Co  Co10  1  0.000000  0.500000  0.986341  1
  Co  Co11  1  0.500000  0.000000  0.013659  1
  Co  Co12  1  0.500000  0.332789  0.991802  1
  Co  Co13  1  0.500000  0.667211  0.991802  1
  Co  Co14  1  0.000000  0.167211  0.008198  1
  Co  Co15  1  0.000000  0.832789  0.008198  1
  Co  Co16  1  0.500000  0.295413  0.432459  1
  Co  Co17  1  0.500000  0.704587  0.432459  1
  Co  Co18  1  0.000000  0.204587  0.567541  1
  Co  Co19  1  0.000000  0.795413  0.567541  1
  Co  Co20  1  0.500000  0.877020  0.705093  1
  Co  Co21  1  0.500000  0.122980  0.705093  1
  Co  Co22  1  0.000000  0.622980  0.294907  1
  Co  Co23  1  0.000000  0.377020  0.294907  1
  P  P24  1  0.500000  0.500000  0.880485  1
  P  P25  1  0.000000  0.000000  0.119515  1
  P  P26  1  0.500000  0.500000  0.358214  1
  P  P27  1  0.000000  0.000000  0.641786  1
  P  P28  1  0.500000  0.312386  0.615982  1
  P  P29  1  0.500000  0.687614  0.615982  1
  P  P30  1  0.000000  0.187614  0.384018  1
  P  P31  1  0.000000  0.812386  0.384018  1
  P  P32  1  0.500000  0.840377  0.892053  1
  P  P33  1  0.500000  0.159623  0.892053  1
  P  P34  1  0.000000  0.659623  0.107947  1
  P  P35  1  0.000000  0.340377  0.107947  1
