# generated using pymatgen
data_KSr2Nb3O9
_symmetry_space_group_name_H-M   'P 1'
_cell_length_a   5.76391900
_cell_length_b   5.76391937
_cell_length_c   7.04886700
_cell_angle_alpha   90.00000000
_cell_angle_beta   90.00000000
_cell_angle_gamma   119.99999211
_symmetry_Int_Tables_number   1
_chemical_formula_structural   KSr2Nb3O9
_chemical_formula_sum   'K1 Sr2 Nb3 O9'
_cell_volume   202.80831126
_cell_formula_units_Z   1
loop_
 _symmetry_equiv_pos_site_id
 _symmetry_equiv_pos_as_xyz
  1  'x, y, z'
loop_
 _atom_site_type_symbol
 _atom_site_label
 _atom_site_symmetry_multiplicity
 _atom_site_fract_x
 _atom_site_fract_y
 _atom_site_fract_z
 _atom_site_occupancy
  K  K0  1  0.000000  0.000000  0.000000  1
  Sr  Sr1  1  0.666667  0.333333  0.329624  1
  Sr  Sr2  1  0.333333  0.666667  0.670376  1
  Nb  Nb3  1  0.000000  0.000000  0.500000  1
  Nb  Nb4  1  0.666667  0.333333  0.835384  1
  Nb  Nb5  1  0.333333  0.666667  0.164616  1
  O  O6  1  0.831200  0.168800  0.661928  1
  O  O7  1  0.500000  0.500000  0.000000  1
  O  O8  1  0.168800  0.831200  0.338072  1
  O  O9  1  0.662400  0.831200  0.338072  1
  O  O10  1  0.337600  0.168800  0.661928  1
  O  O11  1  0.000000  0.500000  0.000000  1
  O  O12  1  0.831200  0.662400  0.661928  1
  O  O13  1  0.500000  0.000000  0.000000  1
  O  O14  1  0.168800  0.337600  0.338072  1
