# generated using pymatgen
data_Dy4C2Br3
_symmetry_space_group_name_H-M   'P 1'
_cell_length_a   3.69375500
_cell_length_b   10.74875700
_cell_length_c   20.42050900
_cell_angle_alpha   90.00000000
_cell_angle_beta   90.00000000
_cell_angle_gamma   90.00000000
_symmetry_Int_Tables_number   1
_chemical_formula_structural   Dy4C2Br3
_chemical_formula_sum   'Dy16 C8 Br12'
_cell_volume   810.76108268
_cell_formula_units_Z   4
loop_
 _symmetry_equiv_pos_site_id
 _symmetry_equiv_pos_as_xyz
  1  'x, y, z'
loop_
 _atom_site_type_symbol
 _atom_site_label
 _atom_site_symmetry_multiplicity
 _atom_site_fract_x
 _atom_site_fract_y
 _atom_site_fract_z
 _atom_site_occupancy
  Dy  Dy0  1  0.250000  0.864260  0.579757  1
  Dy  Dy1  1  0.750000  0.135740  0.420243  1
  Dy  Dy2  1  0.750000  0.635740  0.079757  1
  Dy  Dy3  1  0.250000  0.364260  0.920243  1
  Dy  Dy4  1  0.250000  0.863262  0.744087  1
  Dy  Dy5  1  0.750000  0.136738  0.255913  1
  Dy  Dy6  1  0.750000  0.636738  0.244087  1
  Dy  Dy7  1  0.250000  0.363262  0.755913  1
  Dy  Dy8  1  0.250000  0.870438  0.168260  1
  Dy  Dy9  1  0.750000  0.129562  0.831740  1
  Dy  Dy10  1  0.750000  0.629562  0.668260  1
  Dy  Dy11  1  0.250000  0.370438  0.331740  1
  Dy  Dy12  1  0.250000  0.902386  0.328394  1
  Dy  Dy13  1  0.750000  0.097614  0.671606  1
  Dy  Dy14  1  0.750000  0.597614  0.828394  1
  Dy  Dy15  1  0.250000  0.402386  0.171606  1
  C  C16  1  0.250000  0.612487  0.750019  1
  C  C17  1  0.750000  0.387513  0.249981  1
  C  C18  1  0.750000  0.887513  0.250019  1
  C  C19  1  0.250000  0.112487  0.749981  1
  C  C20  1  0.250000  0.635196  0.155677  1
  C  C21  1  0.750000  0.364804  0.844323  1
  C  C22  1  0.750000  0.864804  0.655677  1
  C  C23  1  0.250000  0.135196  0.344323  1
  Br  Br24  1  0.250000  0.611305  0.554054  1
  Br  Br25  1  0.750000  0.388695  0.445946  1
  Br  Br26  1  0.750000  0.888695  0.054054  1
  Br  Br27  1  0.250000  0.111305  0.945946  1
  Br  Br28  1  0.250000  0.626700  0.952696  1
  Br  Br29  1  0.750000  0.373300  0.047304  1
  Br  Br30  1  0.750000  0.873300  0.452696  1
  Br  Br31  1  0.250000  0.126700  0.547304  1
  Br  Br32  1  0.250000  0.638194  0.357018  1
  Br  Br33  1  0.750000  0.361806  0.642982  1
  Br  Br34  1  0.750000  0.861806  0.857018  1
  Br  Br35  1  0.250000  0.138194  0.142982  1
