# generated using pymatgen
data_Mg3Fe(WO3)8
_symmetry_space_group_name_H-M   'P 1'
_cell_length_a   6.64720643
_cell_length_b   6.63172942
_cell_length_c   10.71434008
_cell_angle_alpha   71.97536041
_cell_angle_beta   71.92704118
_cell_angle_gamma   90.00191857
_symmetry_Int_Tables_number   1
_chemical_formula_structural   Mg3Fe(WO3)8
_chemical_formula_sum   'Mg3 Fe1 W8 O24'
_cell_volume   424.56010758
_cell_formula_units_Z   1
loop_
 _symmetry_equiv_pos_site_id
 _symmetry_equiv_pos_as_xyz
  1  'x, y, z'
loop_
 _atom_site_type_symbol
 _atom_site_label
 _atom_site_symmetry_multiplicity
 _atom_site_fract_x
 _atom_site_fract_y
 _atom_site_fract_z
 _atom_site_occupancy
  Mg  Mg0  1  0.250438  0.750406  0.499126  1
  Mg  Mg1  1  0.749560  0.249594  0.500875  1
  Mg  Mg2  1  0.500005  0.499996  0.999998  1
  Fe  Fe3  1  0.000003  0.000009  0.999992  1
  W  W4  1  0.418006  0.918050  0.163902  1
  W  W5  1  0.917331  0.417385  0.165309  1
  W  W6  1  0.082673  0.582611  0.834694  1
  W  W7  1  0.581985  0.081948  0.836098  1
  W  W8  1  0.168705  0.168605  0.662661  1
  W  W9  1  0.668025  0.667959  0.664012  1
  W  W10  1  0.331974  0.332041  0.335988  1
  W  W11  1  0.831299  0.831398  0.337338  1
  O  O12  1  0.558763  0.749823  0.500315  1
  O  O13  1  0.059054  0.250153  0.499707  1
  O  O14  1  0.940945  0.749848  0.500294  1
  O  O15  1  0.441239  0.250179  0.499683  1
  O  O16  1  0.500016  0.190944  0.999992  1
  O  O17  1  0.999991  0.690090  0.000010  1
  O  O18  1  0.499985  0.809054  0.000008  1
  O  O19  1  0.000006  0.309907  0.999993  1
  O  O20  1  0.702397  0.911295  0.177544  1
  O  O21  1  0.206142  0.413368  0.173359  1
  O  O22  1  0.120024  0.911277  0.177530  1
  O  O23  1  0.620464  0.413337  0.173358  1
  O  O24  1  0.793863  0.586638  0.826638  1
  O  O25  1  0.297599  0.088700  0.822458  1
  O  O26  1  0.379536  0.586654  0.826649  1
  O  O27  1  0.879976  0.088732  0.822462  1
  O  O28  1  0.163566  0.869563  0.672894  1
  O  O29  1  0.663430  0.370646  0.673150  1
  O  O30  1  0.163573  0.457445  0.672914  1
  O  O31  1  0.663470  0.956168  0.673146  1
  O  O32  1  0.336560  0.629354  0.326851  1
  O  O33  1  0.836442  0.130437  0.327110  1
  O  O34  1  0.336516  0.043833  0.326853  1
  O  O35  1  0.836441  0.542556  0.327088  1
