# generated using pymatgen
data_Sc8Ni3Ir4Ru
_symmetry_space_group_name_H-M   'P 1'
_cell_length_a   6.49366701
_cell_length_b   4.51701400
_cell_length_c   9.03930601
_cell_angle_alpha   90.00000000
_cell_angle_beta   90.00599643
_cell_angle_gamma   89.99997463
_symmetry_Int_Tables_number   1
_chemical_formula_structural   Sc8Ni3Ir4Ru
_chemical_formula_sum   'Sc8 Ni3 Ir4 Ru1'
_cell_volume   265.14078502
_cell_formula_units_Z   1
loop_
 _symmetry_equiv_pos_site_id
 _symmetry_equiv_pos_as_xyz
  1  'x, y, z'
loop_
 _atom_site_type_symbol
 _atom_site_label
 _atom_site_symmetry_multiplicity
 _atom_site_fract_x
 _atom_site_fract_y
 _atom_site_fract_z
 _atom_site_occupancy
  Sc  Sc0  1  0.500685  0.750000  0.124932  1
  Sc  Sc1  1  0.999318  0.750000  0.124933  1
  Sc  Sc2  1  0.499978  0.250000  0.375934  1
  Sc  Sc3  1  0.000051  0.250000  0.375960  1
  Sc  Sc4  1  0.001041  0.750000  0.624941  1
  Sc  Sc5  1  0.499005  0.750000  0.624923  1
  Sc  Sc6  1  0.000113  0.250000  0.874089  1
  Sc  Sc7  1  0.499929  0.250000  0.874118  1
  Ni  Ni8  1  0.249858  0.750000  0.375170  1
  Ni  Ni9  1  0.749848  0.250000  0.625510  1
  Ni  Ni10  1  0.250142  0.750000  0.874623  1
  Ir  Ir11  1  0.250017  0.250000  0.124975  1
  Ir  Ir12  1  0.749985  0.750000  0.377796  1
  Ir  Ir13  1  0.250046  0.250000  0.624964  1
  Ir  Ir14  1  0.749991  0.750000  0.872099  1
  Ru  Ru15  1  0.749990  0.250000  0.125031  1
