# generated using pymatgen
data_Cd2Ga3FeCl16
_symmetry_space_group_name_H-M   'P 1'
_cell_length_a   7.03751009
_cell_length_b   7.24249172
_cell_length_c   13.34417953
_cell_angle_alpha   87.05305087
_cell_angle_beta   90.29698490
_cell_angle_gamma   90.23488124
_symmetry_Int_Tables_number   1
_chemical_formula_structural   Cd2Ga3FeCl16
_chemical_formula_sum   'Cd2 Ga3 Fe1 Cl16'
_cell_volume   679.22736605
_cell_formula_units_Z   1
loop_
 _symmetry_equiv_pos_site_id
 _symmetry_equiv_pos_as_xyz
  1  'x, y, z'
loop_
 _atom_site_type_symbol
 _atom_site_label
 _atom_site_symmetry_multiplicity
 _atom_site_fract_x
 _atom_site_fract_y
 _atom_site_fract_z
 _atom_site_occupancy
  Cd  Cd0  1  0.756196  0.078742  0.816056  1
  Cd  Cd1  1  0.246804  0.076591  0.315103  1
  Ga  Ga2  1  0.065236  0.224560  0.076938  1
  Ga  Ga3  1  0.571485  0.637285  0.776224  1
  Ga  Ga4  1  0.428704  0.636792  0.275630  1
  Fe  Fe5  1  0.933565  0.218673  0.579025  1
  Cl  Cl6  1  0.419125  0.612613  0.638597  1
  Cl  Cl7  1  0.581093  0.612364  0.139062  1
  Cl  Cl8  1  0.871086  0.737458  0.760657  1
  Cl  Cl9  1  0.128624  0.732782  0.260289  1
  Cl  Cl10  1  0.936910  0.480929  0.496813  1
  Cl  Cl11  1  0.061818  0.484522  0.994366  1
  Cl  Cl12  1  0.914332  0.001064  0.997534  1
  Cl  Cl13  1  0.086895  0.004852  0.494014  1
  Cl  Cl14  1  0.637731  0.129072  0.619224  1
  Cl  Cl15  1  0.357348  0.126032  0.119672  1
  Cl  Cl16  1  0.568071  0.374387  0.873720  1
  Cl  Cl17  1  0.432383  0.375553  0.374434  1
  Cl  Cl18  1  0.454085  0.865918  0.865789  1
  Cl  Cl19  1  0.548567  0.866417  0.365237  1
  Cl  Cl20  1  0.937299  0.226929  0.231555  1
  Cl  Cl21  1  0.062642  0.231269  0.734464  1
