# generated using pymatgen
data_Hf10Cu2Sn5Bi
_symmetry_space_group_name_H-M   'P 1'
_cell_length_a   8.63810500
_cell_length_b   8.61988275
_cell_length_c   5.81612500
_cell_angle_alpha   90.00000000
_cell_angle_beta   90.00000000
_cell_angle_gamma   120.06995069
_symmetry_Int_Tables_number   1
_chemical_formula_structural   Hf10Cu2Sn5Bi
_chemical_formula_sum   'Hf10 Cu2 Sn5 Bi1'
_cell_volume   374.78107112
_cell_formula_units_Z   1
loop_
 _symmetry_equiv_pos_site_id
 _symmetry_equiv_pos_as_xyz
  1  'x, y, z'
loop_
 _atom_site_type_symbol
 _atom_site_label
 _atom_site_symmetry_multiplicity
 _atom_site_fract_x
 _atom_site_fract_y
 _atom_site_fract_z
 _atom_site_occupancy
  Hf  Hf0  1  0.329575  0.662561  0.998325  1
  Hf  Hf1  1  0.667015  0.337439  0.501675  1
  Hf  Hf2  1  0.667015  0.337439  0.998325  1
  Hf  Hf3  1  0.329575  0.662561  0.501675  1
  Hf  Hf4  1  0.259839  0.000000  0.250000  1
  Hf  Hf5  1  0.264247  0.265102  0.750000  1
  Hf  Hf6  1  0.999145  0.734898  0.750000  1
  Hf  Hf7  1  0.007446  0.268193  0.250000  1
  Hf  Hf8  1  0.739253  0.731807  0.250000  1
  Hf  Hf9  1  0.737058  0.000000  0.750000  1
  Cu  Cu10  1  0.999842  0.000000  0.998413  1
  Cu  Cu11  1  0.999842  0.000000  0.501587  1
  Sn  Sn12  1  0.613163  0.615057  0.750000  1
  Sn  Sn13  1  0.998106  0.384943  0.750000  1
  Sn  Sn14  1  0.000905  0.612759  0.250000  1
  Sn  Sn15  1  0.388145  0.387241  0.250000  1
  Sn  Sn16  1  0.385377  0.000000  0.750000  1
  Bi  Bi17  1  0.614452  0.000000  0.250000  1
