# generated using pymatgen
data_Sc4V4Co16Si7P5
_symmetry_space_group_name_H-M   'P 1'
_cell_length_a   3.62434500
_cell_length_b   10.29202765
_cell_length_c   11.84815463
_cell_angle_alpha   90.12063736
_cell_angle_beta   90.00000000
_cell_angle_gamma   90.00000000
_symmetry_Int_Tables_number   1
_chemical_formula_structural   Sc4V4Co16Si7P5
_chemical_formula_sum   'Sc4 V4 Co16 Si7 P5'
_cell_volume   441.95721312
_cell_formula_units_Z   1
loop_
 _symmetry_equiv_pos_site_id
 _symmetry_equiv_pos_as_xyz
  1  'x, y, z'
loop_
 _atom_site_type_symbol
 _atom_site_label
 _atom_site_symmetry_multiplicity
 _atom_site_fract_x
 _atom_site_fract_y
 _atom_site_fract_z
 _atom_site_occupancy
  Sc  Sc0  1  0.250000  0.578239  0.703827  1
  Sc  Sc1  1  0.250000  0.926245  0.203113  1
  Sc  Sc2  1  0.750000  0.427046  0.297120  1
  Sc  Sc3  1  0.750000  0.073391  0.796593  1
  V  V4  1  0.250000  0.700028  0.992630  1
  V  V5  1  0.250000  0.798661  0.494862  1
  V  V6  1  0.750000  0.299604  0.006678  1
  V  V7  1  0.750000  0.200952  0.507622  1
  Co  Co8  1  0.250000  0.412127  0.487294  1
  Co  Co9  1  0.250000  0.089253  0.986072  1
  Co  Co10  1  0.750000  0.594032  0.516807  1
  Co  Co11  1  0.750000  0.908952  0.010996  1
  Co  Co12  1  0.250000  0.212177  0.169973  1
  Co  Co13  1  0.250000  0.287682  0.669601  1
  Co  Co14  1  0.750000  0.784376  0.824912  1
  Co  Co15  1  0.750000  0.712431  0.330611  1
  Co  Co16  1  0.250000  0.878791  0.702315  1
  Co  Co17  1  0.250000  0.619630  0.203870  1
  Co  Co18  1  0.750000  0.118506  0.296506  1
  Co  Co19  1  0.750000  0.381040  0.796006  1
  Co  Co20  1  0.250000  0.462802  0.932653  1
  Co  Co21  1  0.250000  0.035597  0.433252  1
  Co  Co22  1  0.750000  0.536086  0.068187  1
  Co  Co23  1  0.750000  0.961222  0.569001  1
  Si  Si24  1  0.250000  0.419891  0.119688  1
  Si  Si25  1  0.250000  0.080336  0.619526  1
  Si  Si26  1  0.750000  0.578622  0.881717  1
  Si  Si27  1  0.750000  0.919604  0.380859  1
  Si  Si28  1  0.250000  0.260856  0.859634  1
  Si  Si29  1  0.250000  0.238941  0.360643  1
  Si  Si30  1  0.750000  0.738890  0.139724  1
  P  P31  1  0.750000  0.763082  0.638596  1
  P  P32  1  0.250000  0.597170  0.391465  1
  P  P33  1  0.250000  0.902991  0.890610  1
  P  P34  1  0.750000  0.405152  0.609094  1
  P  P35  1  0.750000  0.095594  0.107943  1
