# generated using pymatgen
data_Tb16MgTl(AgRh2)2
_symmetry_space_group_name_H-M   'P 1'
_cell_length_a   9.68412645
_cell_length_b   9.69412539
_cell_length_c   9.69412517
_cell_angle_alpha   59.65453810
_cell_angle_beta   59.65942417
_cell_angle_gamma   59.65942699
_symmetry_Int_Tables_number   1
_chemical_formula_structural   Tb16MgTl(AgRh2)2
_chemical_formula_sum   'Tb16 Mg1 Tl1 Ag2 Rh4'
_cell_volume   638.51751236
_cell_formula_units_Z   1
loop_
 _symmetry_equiv_pos_site_id
 _symmetry_equiv_pos_as_xyz
  1  'x, y, z'
loop_
 _atom_site_type_symbol
 _atom_site_label
 _atom_site_symmetry_multiplicity
 _atom_site_fract_x
 _atom_site_fract_y
 _atom_site_fract_z
 _atom_site_occupancy
  Tb  Tb0  1  0.348447  0.347621  0.347621  1
  Tb  Tb1  1  0.349609  0.349730  0.953473  1
  Tb  Tb2  1  0.349609  0.953473  0.349730  1
  Tb  Tb3  1  0.942594  0.352870  0.352870  1
  Tb  Tb4  1  0.809144  0.188732  0.188732  1
  Tb  Tb5  1  0.189009  0.810704  0.810704  1
  Tb  Tb6  1  0.186218  0.811462  0.187377  1
  Tb  Tb7  1  0.809266  0.189967  0.809415  1
  Tb  Tb8  1  0.186218  0.187377  0.811462  1
  Tb  Tb9  1  0.809266  0.809415  0.189967  1
  Tb  Tb10  1  0.939006  0.564595  0.564595  1
  Tb  Tb11  1  0.562124  0.937809  0.937809  1
  Tb  Tb12  1  0.562502  0.943004  0.564943  1
  Tb  Tb13  1  0.935356  0.563618  0.938863  1
  Tb  Tb14  1  0.562502  0.564943  0.943004  1
  Tb  Tb15  1  0.935356  0.938863  0.563618  1
  Mg  Mg16  1  0.282870  0.569313  0.569313  1
  Tl  Tl17  1  0.583734  0.582903  0.582903  1
  Ag  Ag18  1  0.581736  0.584637  0.245835  1
  Ag  Ag19  1  0.581736  0.245835  0.584637  1
  Rh  Rh20  1  0.138768  0.143624  0.143624  1
  Rh  Rh21  1  0.141435  0.144444  0.571833  1
  Rh  Rh22  1  0.141435  0.571833  0.144444  1
  Rh  Rh23  1  0.572062  0.143228  0.143228  1
