# generated using pymatgen
data_Nd3Sm2Sb3Cl
_symmetry_space_group_name_H-M   'P 1'
_cell_length_a   9.37918100
_cell_length_b   9.37918124
_cell_length_c   6.57394900
_cell_angle_alpha   90.00000000
_cell_angle_beta   90.00000000
_cell_angle_gamma   120.00000268
_symmetry_Int_Tables_number   1
_chemical_formula_structural   Nd3Sm2Sb3Cl
_chemical_formula_sum   'Nd6 Sm4 Sb6 Cl2'
_cell_volume   500.82591775
_cell_formula_units_Z   2
loop_
 _symmetry_equiv_pos_site_id
 _symmetry_equiv_pos_as_xyz
  1  'x, y, z'
loop_
 _atom_site_type_symbol
 _atom_site_label
 _atom_site_symmetry_multiplicity
 _atom_site_fract_x
 _atom_site_fract_y
 _atom_site_fract_z
 _atom_site_occupancy
  Nd  Nd0  1  0.269000  0.000000  0.250000  1
  Nd  Nd1  1  0.731000  0.000000  0.750000  1
  Nd  Nd2  1  0.000000  0.269000  0.250000  1
  Nd  Nd3  1  0.000000  0.731000  0.750000  1
  Nd  Nd4  1  0.731000  0.731000  0.250000  1
  Nd  Nd5  1  0.269000  0.269000  0.750000  1
  Sm  Sm6  1  0.333333  0.666667  0.000000  1
  Sm  Sm7  1  0.666667  0.333333  0.000000  1
  Sm  Sm8  1  0.666667  0.333333  0.500000  1
  Sm  Sm9  1  0.333333  0.666667  0.500000  1
  Sb  Sb10  1  0.614060  0.000000  0.250000  1
  Sb  Sb11  1  0.385940  0.000000  0.750000  1
  Sb  Sb12  1  0.000000  0.614060  0.250000  1
  Sb  Sb13  1  0.000000  0.385940  0.750000  1
  Sb  Sb14  1  0.385940  0.385940  0.250000  1
  Sb  Sb15  1  0.614060  0.614060  0.750000  1
  Cl  Cl16  1  0.000000  0.000000  0.000000  1
  Cl  Cl17  1  0.000000  0.000000  0.500000  1
