# generated using pymatgen
data_Sm(Ga2Au)2
_symmetry_space_group_name_H-M   'P 1'
_cell_length_a   4.49896900
_cell_length_b   6.85502400
_cell_length_c   17.65218000
_cell_angle_alpha   90.00000000
_cell_angle_beta   90.00000000
_cell_angle_gamma   90.00000000
_symmetry_Int_Tables_number   1
_chemical_formula_structural   Sm(Ga2Au)2
_chemical_formula_sum   'Sm4 Ga16 Au8'
_cell_volume   544.40277168
_cell_formula_units_Z   4
loop_
 _symmetry_equiv_pos_site_id
 _symmetry_equiv_pos_as_xyz
  1  'x, y, z'
loop_
 _atom_site_type_symbol
 _atom_site_label
 _atom_site_symmetry_multiplicity
 _atom_site_fract_x
 _atom_site_fract_y
 _atom_site_fract_z
 _atom_site_occupancy
  Sm  Sm0  1  0.750000  0.980616  0.641358  1
  Sm  Sm1  1  0.250000  0.480616  0.858642  1
  Sm  Sm2  1  0.750000  0.519384  0.141358  1
  Sm  Sm3  1  0.250000  0.019384  0.358642  1
  Ga  Ga4  1  0.250000  0.232444  0.185141  1
  Ga  Ga5  1  0.250000  0.472505  0.431616  1
  Ga  Ga6  1  0.250000  0.027495  0.931616  1
  Ga  Ga7  1  0.250000  0.829984  0.181560  1
  Ga  Ga8  1  0.250000  0.670016  0.681560  1
  Ga  Ga9  1  0.250000  0.267556  0.685141  1
  Ga  Ga10  1  0.250000  0.147847  0.537583  1
  Ga  Ga11  1  0.750000  0.972505  0.068384  1
  Ga  Ga12  1  0.750000  0.170016  0.818440  1
  Ga  Ga13  1  0.250000  0.352153  0.037583  1
  Ga  Ga14  1  0.750000  0.852153  0.462417  1
  Ga  Ga15  1  0.750000  0.647847  0.962417  1
  Ga  Ga16  1  0.750000  0.767556  0.814859  1
  Ga  Ga17  1  0.750000  0.527495  0.568384  1
  Ga  Ga18  1  0.750000  0.329984  0.318440  1
  Ga  Ga19  1  0.750000  0.732444  0.314859  1
  Au  Au20  1  0.250000  0.963151  0.782306  1
  Au  Au21  1  0.750000  0.036849  0.217694  1
  Au  Au22  1  0.250000  0.536849  0.282306  1
  Au  Au23  1  0.250000  0.753355  0.532499  1
  Au  Au24  1  0.250000  0.746645  0.032499  1
  Au  Au25  1  0.750000  0.246645  0.467501  1
  Au  Au26  1  0.750000  0.253355  0.967501  1
  Au  Au27  1  0.750000  0.463151  0.717694  1
