# generated using pymatgen
data_Yb6Zn16Ir7
_symmetry_space_group_name_H-M   'P 1'
_cell_length_a   8.93457345
_cell_length_b   8.93457330
_cell_length_c   8.93457400
_cell_angle_alpha   60.00000481
_cell_angle_beta   60.00000537
_cell_angle_gamma   60.00000515
_symmetry_Int_Tables_number   1
_chemical_formula_structural   Yb6Zn16Ir7
_chemical_formula_sum   'Yb6 Zn16 Ir7'
_cell_volume   504.32040739
_cell_formula_units_Z   1
loop_
 _symmetry_equiv_pos_site_id
 _symmetry_equiv_pos_as_xyz
  1  'x, y, z'
loop_
 _atom_site_type_symbol
 _atom_site_label
 _atom_site_symmetry_multiplicity
 _atom_site_fract_x
 _atom_site_fract_y
 _atom_site_fract_z
 _atom_site_occupancy
  Yb  Yb0  1  0.219092  0.780908  0.780908  1
  Yb  Yb1  1  0.780908  0.219092  0.219092  1
  Yb  Yb2  1  0.780908  0.219092  0.780908  1
  Yb  Yb3  1  0.780908  0.780908  0.219092  1
  Yb  Yb4  1  0.219092  0.780908  0.219092  1
  Yb  Yb5  1  0.219092  0.219092  0.780908  1
  Zn  Zn6  1  0.831160  0.831160  0.831160  1
  Zn  Zn7  1  0.831160  0.831160  0.506521  1
  Zn  Zn8  1  0.506521  0.831160  0.831160  1
  Zn  Zn9  1  0.831160  0.506521  0.831160  1
  Zn  Zn10  1  0.168840  0.168840  0.168840  1
  Zn  Zn11  1  0.168840  0.168840  0.493479  1
  Zn  Zn12  1  0.168840  0.493479  0.168840  1
  Zn  Zn13  1  0.493479  0.168840  0.168840  1
  Zn  Zn14  1  0.621340  0.621340  0.621340  1
  Zn  Zn15  1  0.621340  0.621340  0.135980  1
  Zn  Zn16  1  0.135980  0.621340  0.621340  1
  Zn  Zn17  1  0.621340  0.135980  0.621340  1
  Zn  Zn18  1  0.378660  0.378660  0.378660  1
  Zn  Zn19  1  0.378660  0.378660  0.864020  1
  Zn  Zn20  1  0.378660  0.864020  0.378660  1
  Zn  Zn21  1  0.864020  0.378660  0.378660  1
  Ir  Ir22  1  0.500000  0.500000  0.500000  1
  Ir  Ir23  1  0.000000  0.500000  0.500000  1
  Ir  Ir24  1  0.500000  0.000000  0.000000  1
  Ir  Ir25  1  0.500000  0.000000  0.500000  1
  Ir  Ir26  1  0.500000  0.500000  0.000000  1
  Ir  Ir27  1  0.000000  0.500000  0.000000  1
  Ir  Ir28  1  0.000000  0.000000  0.500000  1
