# generated using pymatgen
data_Sc13Al9Rh8
_symmetry_space_group_name_H-M   'P 1'
_cell_length_a   9.12863465
_cell_length_b   9.12863367
_cell_length_c   9.12863501
_cell_angle_alpha   59.64089006
_cell_angle_beta   59.64089400
_cell_angle_gamma   59.64089961
_symmetry_Int_Tables_number   1
_chemical_formula_structural   Sc13Al9Rh8
_chemical_formula_sum   'Sc13 Al9 Rh8'
_cell_volume   533.51184599
_cell_formula_units_Z   1
loop_
 _symmetry_equiv_pos_site_id
 _symmetry_equiv_pos_as_xyz
  1  'x, y, z'
loop_
 _atom_site_type_symbol
 _atom_site_label
 _atom_site_symmetry_multiplicity
 _atom_site_fract_x
 _atom_site_fract_y
 _atom_site_fract_z
 _atom_site_occupancy
  Sc  Sc0  1  0.214682  0.214682  0.786163  1
  Sc  Sc1  1  0.786163  0.214682  0.214682  1
  Sc  Sc2  1  0.214682  0.786163  0.214682  1
  Sc  Sc3  1  0.801684  0.801684  0.175054  1
  Sc  Sc4  1  0.175054  0.801684  0.801684  1
  Sc  Sc5  1  0.801684  0.175054  0.801684  1
  Sc  Sc6  1  0.381649  0.381649  0.381649  1
  Sc  Sc7  1  0.381015  0.861844  0.381015  1
  Sc  Sc8  1  0.861844  0.381015  0.381015  1
  Sc  Sc9  1  0.381015  0.381015  0.861844  1
  Sc  Sc10  1  0.836917  0.482253  0.836917  1
  Sc  Sc11  1  0.482253  0.836917  0.836917  1
  Sc  Sc12  1  0.836917  0.836917  0.482253  1
  Al  Al13  1  0.159172  0.159172  0.159172  1
  Al  Al14  1  0.162166  0.517906  0.162166  1
  Al  Al15  1  0.517906  0.162166  0.162166  1
  Al  Al16  1  0.162166  0.162166  0.517906  1
  Al  Al17  1  0.615647  0.615647  0.615647  1
  Al  Al18  1  0.619665  0.146262  0.619665  1
  Al  Al19  1  0.146262  0.619665  0.619665  1
  Al  Al20  1  0.619665  0.619665  0.146262  1
  Al  Al21  1  0.826766  0.826766  0.826766  1
  Rh  Rh22  1  0.002873  0.002873  0.499722  1
  Rh  Rh23  1  0.499722  0.002873  0.002873  1
  Rh  Rh24  1  0.002873  0.499722  0.002873  1
  Rh  Rh25  1  0.495747  0.495747  0.009968  1
  Rh  Rh26  1  0.009968  0.495747  0.495747  1
  Rh  Rh27  1  0.495747  0.009968  0.495747  1
  Rh  Rh28  1  0.500410  0.500410  0.500410  1
  Rh  Rh29  1  0.007684  0.007684  0.007684  1
