# generated using pymatgen
data_Sc8Mn7Si16Ru5
_symmetry_space_group_name_H-M   'P 1'
_cell_length_a   9.82223855
_cell_length_b   9.81822765
_cell_length_c   13.21911851
_cell_angle_alpha   53.84489801
_cell_angle_beta   53.87356461
_cell_angle_gamma   30.60873665
_symmetry_Int_Tables_number   1
_chemical_formula_structural   Sc8Mn7Si16Ru5
_chemical_formula_sum   'Sc8 Mn7 Si16 Ru5'
_cell_volume   513.61856605
_cell_formula_units_Z   1
loop_
 _symmetry_equiv_pos_site_id
 _symmetry_equiv_pos_as_xyz
  1  'x, y, z'
loop_
 _atom_site_type_symbol
 _atom_site_label
 _atom_site_symmetry_multiplicity
 _atom_site_fract_x
 _atom_site_fract_y
 _atom_site_fract_z
 _atom_site_occupancy
  Sc  Sc0  1  0.036273  0.288821  0.646307  1
  Sc  Sc1  1  0.712057  0.961778  0.854213  1
  Sc  Sc2  1  0.963628  0.711875  0.355939  1
  Sc  Sc3  1  0.286524  0.039249  0.143275  1
  Sc  Sc4  1  0.297204  0.567184  0.640503  1
  Sc  Sc5  1  0.432532  0.703548  0.859477  1
  Sc  Sc6  1  0.703845  0.430538  0.360717  1
  Sc  Sc7  1  0.568736  0.296499  0.139096  1
  Mn  Mn8  1  0.895182  0.144210  0.586442  1
  Mn  Mn9  1  0.856954  0.102901  0.914635  1
  Mn  Mn10  1  0.102834  0.855748  0.414770  1
  Mn  Mn11  1  0.144681  0.897440  0.084708  1
  Mn  Mn12  1  0.834882  0.646369  0.772908  1
  Mn  Mn13  1  0.353949  0.164701  0.726734  1
  Mn  Mn14  1  0.165288  0.353147  0.225396  1
  Si  Si15  1  0.965447  0.254436  0.895986  1
  Si  Si16  1  0.745768  0.034283  0.604347  1
  Si  Si17  1  0.040716  0.743882  0.101701  1
  Si  Si18  1  0.247263  0.966992  0.399514  1
  Si  Si19  1  0.136718  0.392593  0.893559  1
  Si  Si20  1  0.606639  0.864399  0.605840  1
  Si  Si21  1  0.865067  0.605565  0.102194  1
  Si  Si22  1  0.387352  0.141750  0.398663  1
  Si  Si23  1  0.080442  0.581026  0.567351  1
  Si  Si24  1  0.419065  0.919543  0.932489  1
  Si  Si25  1  0.922352  0.414408  0.435431  1
  Si  Si26  1  0.588051  0.076365  0.061056  1
  Si  Si27  1  0.625892  0.373713  0.750343  1
  Si  Si28  1  0.374399  0.626604  0.249430  1
  Si  Si29  1  0.113546  0.886307  0.750176  1
  Si  Si30  1  0.885753  0.114145  0.249645  1
  Ru  Ru31  1  0.644381  0.837048  0.274622  1
  Ru  Ru32  1  0.247598  0.505198  0.938090  1
  Ru  Ru33  1  0.494534  0.751758  0.564735  1
  Ru  Ru34  1  0.750630  0.496484  0.061286  1
  Ru  Ru35  1  0.503819  0.249494  0.438417  1
