# generated using pymatgen
data_Y2ZnOsRu2
_symmetry_space_group_name_H-M   'P 1'
_cell_length_a   5.38599236
_cell_length_b   5.38599279
_cell_length_c   8.88388300
_cell_angle_alpha   90.00000000
_cell_angle_beta   90.00000000
_cell_angle_gamma   121.94259781
_symmetry_Int_Tables_number   1
_chemical_formula_structural   Y2ZnOsRu2
_chemical_formula_sum   'Y4 Zn2 Os2 Ru4'
_cell_volume   218.68872487
_cell_formula_units_Z   2
loop_
 _symmetry_equiv_pos_site_id
 _symmetry_equiv_pos_as_xyz
  1  'x, y, z'
loop_
 _atom_site_type_symbol
 _atom_site_label
 _atom_site_symmetry_multiplicity
 _atom_site_fract_x
 _atom_site_fract_y
 _atom_site_fract_z
 _atom_site_occupancy
  Y  Y0  1  0.338251  0.661749  0.431160  1
  Y  Y1  1  0.669862  0.330138  0.557775  1
  Y  Y2  1  0.669862  0.330138  0.942225  1
  Y  Y3  1  0.338251  0.661749  0.068840  1
  Zn  Zn4  1  0.159300  0.345438  0.750000  1
  Zn  Zn5  1  0.654562  0.840700  0.750000  1
  Os  Os6  1  0.833950  0.666035  0.250000  1
  Os  Os7  1  0.333965  0.166050  0.250000  1
  Ru  Ru8  1  0.010272  0.989728  0.500999  1
  Ru  Ru9  1  0.010272  0.989728  0.999001  1
  Ru  Ru10  1  0.823301  0.176699  0.250000  1
  Ru  Ru11  1  0.158151  0.841849  0.750000  1
