# generated using pymatgen
data_Yb6Y2Si12Pd3Rh
_symmetry_space_group_name_H-M   'P 1'
_cell_length_a   8.24163200
_cell_length_b   8.24163091
_cell_length_c   8.12933300
_cell_angle_alpha   90.00000000
_cell_angle_beta   90.00000000
_cell_angle_gamma   119.99999635
_symmetry_Int_Tables_number   1
_chemical_formula_structural   Yb6Y2Si12Pd3Rh
_chemical_formula_sum   'Yb6 Y2 Si12 Pd3 Rh1'
_cell_volume   478.20260949
_cell_formula_units_Z   1
loop_
 _symmetry_equiv_pos_site_id
 _symmetry_equiv_pos_as_xyz
  1  'x, y, z'
loop_
 _atom_site_type_symbol
 _atom_site_label
 _atom_site_symmetry_multiplicity
 _atom_site_fract_x
 _atom_site_fract_y
 _atom_site_fract_z
 _atom_site_occupancy
  Yb  Yb0  1  0.499721  0.999441  0.247364  1
  Yb  Yb1  1  0.496366  0.992732  0.752738  1
  Yb  Yb2  1  0.000559  0.500279  0.247364  1
  Yb  Yb3  1  0.007268  0.503634  0.752738  1
  Yb  Yb4  1  0.499721  0.500279  0.247364  1
  Yb  Yb5  1  0.496366  0.503634  0.752738  1
  Y  Y6  1  0.000000  0.000000  0.249847  1
  Y  Y7  1  0.000000  0.000000  0.749698  1
  Si  Si8  1  0.167223  0.334446  0.002156  1
  Si  Si9  1  0.836605  0.673208  0.998177  1
  Si  Si10  1  0.665554  0.832777  0.002156  1
  Si  Si11  1  0.835613  0.671224  0.502203  1
  Si  Si12  1  0.326792  0.163395  0.998177  1
  Si  Si13  1  0.163761  0.327522  0.497517  1
  Si  Si14  1  0.167223  0.832777  0.002156  1
  Si  Si15  1  0.328776  0.164387  0.502203  1
  Si  Si16  1  0.836605  0.163395  0.998177  1
  Si  Si17  1  0.672478  0.836239  0.497517  1
  Si  Si18  1  0.835613  0.164387  0.502203  1
  Si  Si19  1  0.163761  0.836239  0.497517  1
  Pd  Pd20  1  0.666667  0.333333  0.998851  1
  Pd  Pd21  1  0.666667  0.333333  0.501012  1
  Pd  Pd22  1  0.333333  0.666667  0.498800  1
  Rh  Rh23  1  0.333333  0.666667  0.001333  1
