# generated using pymatgen
data_SmGd(B4Mo)2
_symmetry_space_group_name_H-M   'P 1'
_cell_length_a   6.07179018
_cell_length_b   11.74171728
_cell_length_c   3.66301300
_cell_angle_alpha   90.00000000
_cell_angle_beta   90.00000000
_cell_angle_gamma   89.92863138
_symmetry_Int_Tables_number   1
_chemical_formula_structural   SmGd(B4Mo)2
_chemical_formula_sum   'Sm2 Gd2 B16 Mo4'
_cell_volume   261.14787564
_cell_formula_units_Z   2
loop_
 _symmetry_equiv_pos_site_id
 _symmetry_equiv_pos_as_xyz
  1  'x, y, z'
loop_
 _atom_site_type_symbol
 _atom_site_label
 _atom_site_symmetry_multiplicity
 _atom_site_fract_x
 _atom_site_fract_y
 _atom_site_fract_z
 _atom_site_occupancy
  Sm  Sm0  1  0.626199  0.349669  0.000000  1
  Sm  Sm1  1  0.373801  0.650331  0.000000  1
  Gd  Gd2  1  0.126212  0.149880  0.000000  1
  Gd  Gd3  1  0.873788  0.850120  0.000000  1
  B  B4  1  0.785649  0.185062  0.500000  1
  B  B5  1  0.214351  0.814938  0.500000  1
  B  B6  1  0.283955  0.313841  0.500000  1
  B  B7  1  0.716045  0.686159  0.500000  1
  B  B8  1  0.865671  0.032032  0.500000  1
  B  B9  1  0.134329  0.967968  0.500000  1
  B  B10  1  0.364772  0.467815  0.500000  1
  B  B11  1  0.635228  0.532185  0.500000  1
  B  B12  1  0.887279  0.453183  0.500000  1
  B  B13  1  0.112721  0.546817  0.500000  1
  B  B14  1  0.386202  0.047006  0.500000  1
  B  B15  1  0.613798  0.952994  0.500000  1
  B  B16  1  0.976589  0.307075  0.500000  1
  B  B17  1  0.023411  0.692925  0.500000  1
  B  B18  1  0.474920  0.192025  0.500000  1
  B  B19  1  0.525080  0.807975  0.500000  1
  Mo  Mo20  1  0.628949  0.083028  0.000000  1
  Mo  Mo21  1  0.371051  0.916972  0.000000  1
  Mo  Mo22  1  0.128585  0.416512  0.000000  1
  Mo  Mo23  1  0.871415  0.583488  0.000000  1
