# generated using pymatgen
data_Ta6Nb7Se26
_symmetry_space_group_name_H-M   'P 1'
_cell_length_a   9.20622633
_cell_length_b   9.83398541
_cell_length_c   11.53230369
_cell_angle_alpha   72.18776019
_cell_angle_beta   74.31011160
_cell_angle_gamma   83.23946858
_symmetry_Int_Tables_number   1
_chemical_formula_structural   Ta6Nb7Se26
_chemical_formula_sum   'Ta6 Nb7 Se26'
_cell_volume   956.28086198
_cell_formula_units_Z   1
loop_
 _symmetry_equiv_pos_site_id
 _symmetry_equiv_pos_as_xyz
  1  'x, y, z'
loop_
 _atom_site_type_symbol
 _atom_site_label
 _atom_site_symmetry_multiplicity
 _atom_site_fract_x
 _atom_site_fract_y
 _atom_site_fract_z
 _atom_site_occupancy
  Ta  Ta0  1  0.151106  0.488061  0.359912  1
  Ta  Ta1  1  0.848894  0.511939  0.640088  1
  Ta  Ta2  1  0.488483  0.360181  0.151430  1
  Ta  Ta3  1  0.511517  0.639819  0.848570  1
  Ta  Ta4  1  0.641272  0.849140  0.512167  1
  Ta  Ta5  1  0.358728  0.150860  0.487833  1
  Nb  Nb6  1  0.000000  0.000000  0.000000  1
  Nb  Nb7  1  0.213431  0.718436  0.068905  1
  Nb  Nb8  1  0.786569  0.281564  0.931095  1
  Nb  Nb9  1  0.718921  0.069392  0.212959  1
  Nb  Nb10  1  0.281079  0.930608  0.787041  1
  Nb  Nb11  1  0.931398  0.787239  0.281235  1
  Nb  Nb12  1  0.068602  0.212761  0.718765  1
  Se  Se13  1  0.929816  0.724818  0.081853  1
  Se  Se14  1  0.070184  0.275182  0.918147  1
  Se  Se15  1  0.705023  0.022306  0.009127  1
  Se  Se16  1  0.294977  0.977694  0.990873  1
  Se  Se17  1  0.002056  0.948952  0.784410  1
  Se  Se18  1  0.997944  0.051048  0.215590  1
  Se  Se19  1  0.633074  0.800361  0.311867  1
  Se  Se20  1  0.366926  0.199639  0.688133  1
  Se  Se21  1  0.780540  0.253639  0.709468  1
  Se  Se22  1  0.219460  0.746361  0.290532  1
  Se  Se23  1  0.233800  0.651097  0.857730  1
  Se  Se24  1  0.766200  0.348903  0.142270  1
  Se  Se25  1  0.868917  0.506775  0.400036  1
  Se  Se26  1  0.131083  0.493225  0.599964  1
  Se  Se27  1  0.489589  0.349255  0.936595  1
  Se  Se28  1  0.510411  0.650745  0.063405  1
  Se  Se29  1  0.332851  0.885328  0.556934  1
  Se  Se30  1  0.667149  0.114672  0.443066  1
  Se  Se31  1  0.185283  0.426632  0.161290  1
  Se  Se32  1  0.814717  0.573368  0.838710  1
  Se  Se33  1  0.410352  0.110043  0.252654  1
  Se  Se34  1  0.589648  0.889957  0.747346  1
  Se  Se35  1  0.091842  0.201320  0.478040  1
  Se  Se36  1  0.908158  0.798680  0.521960  1
  Se  Se37  1  0.563030  0.580119  0.630762  1
  Se  Se38  1  0.436970  0.419881  0.369238  1
