# generated using pymatgen
data_Ag2Mo(OF2)2
_symmetry_space_group_name_H-M   'P 1'
_cell_length_a   8.45902649
_cell_length_b   8.45902661
_cell_length_c   6.25859900
_cell_angle_alpha   90.00000000
_cell_angle_beta   90.00000000
_cell_angle_gamma   141.97788509
_symmetry_Int_Tables_number   1
_chemical_formula_structural   Ag2Mo(OF2)2
_chemical_formula_sum   'Ag4 Mo2 O4 F8'
_cell_volume   275.85086481
_cell_formula_units_Z   2
loop_
 _symmetry_equiv_pos_site_id
 _symmetry_equiv_pos_as_xyz
  1  'x, y, z'
loop_
 _atom_site_type_symbol
 _atom_site_label
 _atom_site_symmetry_multiplicity
 _atom_site_fract_x
 _atom_site_fract_y
 _atom_site_fract_z
 _atom_site_occupancy
  Ag  Ag0  1  0.375871  0.569386  0.250000  1
  Ag  Ag1  1  0.569386  0.375871  0.750000  1
  Ag  Ag2  1  0.796877  0.249764  0.250000  1
  Ag  Ag3  1  0.249764  0.796877  0.750000  1
  Mo  Mo4  1  0.115357  0.891260  0.250000  1
  Mo  Mo5  1  0.891260  0.115357  0.750000  1
  O  O6  1  0.098814  0.289601  0.970068  1
  O  O7  1  0.289601  0.098814  0.029932  1
  O  O8  1  0.289601  0.098814  0.470068  1
  O  O9  1  0.098814  0.289601  0.529932  1
  F  F10  1  0.835393  0.819514  0.250000  1
  F  F11  1  0.819514  0.835393  0.750000  1
  F  F12  1  0.887048  0.576263  0.042950  1
  F  F13  1  0.576263  0.887048  0.957050  1
  F  F14  1  0.576263  0.887048  0.542950  1
  F  F15  1  0.887048  0.576263  0.457050  1
  F  F16  1  0.304033  0.836091  0.250000  1
  F  F17  1  0.836091  0.304033  0.750000  1
