# generated using pymatgen
data_Pr2Cr3Re14C3
_symmetry_space_group_name_H-M   'P 1'
_cell_length_a   6.98468204
_cell_length_b   6.98468204
_cell_length_c   6.98468329
_cell_angle_alpha   82.79558798
_cell_angle_beta   82.79557373
_cell_angle_gamma   82.79557905
_symmetry_Int_Tables_number   1
_chemical_formula_structural   Pr2Cr3Re14C3
_chemical_formula_sum   'Pr2 Cr3 Re14 C3'
_cell_volume   333.30509391
_cell_formula_units_Z   1
loop_
 _symmetry_equiv_pos_site_id
 _symmetry_equiv_pos_as_xyz
  1  'x, y, z'
loop_
 _atom_site_type_symbol
 _atom_site_label
 _atom_site_symmetry_multiplicity
 _atom_site_fract_x
 _atom_site_fract_y
 _atom_site_fract_z
 _atom_site_occupancy
  Pr  Pr0  1  0.647853  0.647853  0.647853  1
  Pr  Pr1  1  0.352147  0.352147  0.352147  1
  Cr  Cr2  1  0.000000  0.000000  0.500000  1
  Cr  Cr3  1  0.500000  0.000000  0.000000  1
  Cr  Cr4  1  0.000000  0.500000  0.000000  1
  Re  Re5  1  0.721382  0.278618  0.000000  1
  Re  Re6  1  0.000000  0.721382  0.278618  1
  Re  Re7  1  0.278618  0.000000  0.721382  1
  Re  Re8  1  0.000000  0.278618  0.721382  1
  Re  Re9  1  0.721382  0.000000  0.278618  1
  Re  Re10  1  0.278618  0.721382  0.000000  1
  Re  Re11  1  0.343789  0.343789  0.866627  1
  Re  Re12  1  0.866627  0.343789  0.343789  1
  Re  Re13  1  0.343789  0.866627  0.343789  1
  Re  Re14  1  0.656211  0.656211  0.133373  1
  Re  Re15  1  0.133373  0.656211  0.656211  1
  Re  Re16  1  0.656211  0.133373  0.656211  1
  Re  Re17  1  0.901041  0.901041  0.901041  1
  Re  Re18  1  0.098959  0.098959  0.098959  1
  C  C19  1  0.500000  0.500000  0.000000  1
  C  C20  1  0.000000  0.500000  0.500000  1
  C  C21  1  0.500000  0.000000  0.500000  1
