# generated using pymatgen
data_K3Ba3InSb4
_symmetry_space_group_name_H-M   'P 1'
_cell_length_a   11.25480600
_cell_length_b   11.25480658
_cell_length_c   8.41886200
_cell_angle_alpha   90.00000000
_cell_angle_beta   90.00000000
_cell_angle_gamma   120.00000418
_symmetry_Int_Tables_number   1
_chemical_formula_structural   K3Ba3InSb4
_chemical_formula_sum   'K6 Ba6 In2 Sb8'
_cell_volume   923.54923576
_cell_formula_units_Z   2
loop_
 _symmetry_equiv_pos_site_id
 _symmetry_equiv_pos_as_xyz
  1  'x, y, z'
loop_
 _atom_site_type_symbol
 _atom_site_label
 _atom_site_symmetry_multiplicity
 _atom_site_fract_x
 _atom_site_fract_y
 _atom_site_fract_z
 _atom_site_occupancy
  K  K0  1  0.860183  0.139817  0.546640  1
  K  K1  1  0.279634  0.139817  0.546640  1
  K  K2  1  0.860183  0.720366  0.546640  1
  K  K3  1  0.139817  0.860183  0.046640  1
  K  K4  1  0.720366  0.860183  0.046640  1
  K  K5  1  0.139817  0.279634  0.046640  1
  Ba  Ba6  1  0.478183  0.521817  0.733129  1
  Ba  Ba7  1  0.043633  0.521817  0.733129  1
  Ba  Ba8  1  0.478183  0.956367  0.733129  1
  Ba  Ba9  1  0.521817  0.478183  0.233129  1
  Ba  Ba10  1  0.956367  0.478183  0.233129  1
  Ba  Ba11  1  0.521817  0.043633  0.233129  1
  In  In12  1  0.666667  0.333333  0.856851  1
  In  In13  1  0.333333  0.666667  0.356851  1
  Sb  Sb14  1  0.807682  0.192318  0.962008  1
  Sb  Sb15  1  0.384637  0.192318  0.962008  1
  Sb  Sb16  1  0.807682  0.615363  0.962008  1
  Sb  Sb17  1  0.192318  0.807682  0.462008  1
  Sb  Sb18  1  0.615363  0.807682  0.462008  1
  Sb  Sb19  1  0.192318  0.384637  0.462008  1
  Sb  Sb20  1  0.666667  0.333333  0.503181  1
  Sb  Sb21  1  0.333333  0.666667  0.003181  1
