# generated using pymatgen
data_YbMoF6
_symmetry_space_group_name_H-M   'P 1'
_cell_length_a   5.93658717
_cell_length_b   5.93658675
_cell_length_c   5.93658700
_cell_angle_alpha   56.51307307
_cell_angle_beta   56.51307336
_cell_angle_gamma   56.51305972
_symmetry_Int_Tables_number   1
_chemical_formula_structural   YbMoF6
_chemical_formula_sum   'Yb1 Mo1 F6'
_cell_volume   136.02054926
_cell_formula_units_Z   1
loop_
 _symmetry_equiv_pos_site_id
 _symmetry_equiv_pos_as_xyz
  1  'x, y, z'
loop_
 _atom_site_type_symbol
 _atom_site_label
 _atom_site_symmetry_multiplicity
 _atom_site_fract_x
 _atom_site_fract_y
 _atom_site_fract_z
 _atom_site_occupancy
  Yb  Yb0  1  0.500000  0.500000  0.500000  1
  Mo  Mo1  1  0.000000  0.000000  0.000000  1
  F  F2  1  0.860590  0.230938  0.668399  1
  F  F3  1  0.230938  0.668399  0.860590  1
  F  F4  1  0.331601  0.139410  0.769062  1
  F  F5  1  0.769062  0.331601  0.139410  1
  F  F6  1  0.139410  0.769062  0.331601  1
  F  F7  1  0.668399  0.860590  0.230938  1
