# generated using pymatgen
data_Ac5Sm(BO3)6
_symmetry_space_group_name_H-M   'P 1'
_cell_length_a   6.96903738
_cell_length_b   6.97953774
_cell_length_c   10.12478500
_cell_angle_alpha   70.18734050
_cell_angle_beta   70.17867094
_cell_angle_gamma   60.02609997
_symmetry_Int_Tables_number   1
_chemical_formula_structural   Ac5Sm(BO3)6
_chemical_formula_sum   'Ac5 Sm1 B6 O18'
_cell_volume   392.55364897
_cell_formula_units_Z   1
loop_
 _symmetry_equiv_pos_site_id
 _symmetry_equiv_pos_as_xyz
  1  'x, y, z'
loop_
 _atom_site_type_symbol
 _atom_site_label
 _atom_site_symmetry_multiplicity
 _atom_site_fract_x
 _atom_site_fract_y
 _atom_site_fract_z
 _atom_site_occupancy
  Ac  Ac0  1  0.995892  0.502010  0.499998  1
  Ac  Ac1  1  0.500552  0.999379  0.999891  1
  Ac  Ac2  1  0.830087  0.342947  0.000731  1
  Ac  Ac3  1  0.651349  0.173973  0.499246  1
  Ac  Ac4  1  0.172092  0.656516  0.999357  1
  Sm  Sm5  1  0.339093  0.830462  0.500658  1
  B  B6  1  0.085035  0.142177  0.257213  1
  B  B7  1  0.849017  0.917148  0.249905  1
  B  B8  1  0.923088  0.853873  0.742800  1
  B  B9  1  0.149006  0.078432  0.747787  1
  B  B10  1  0.311635  0.690792  0.254515  1
  B  B11  1  0.685095  0.316222  0.747755  1
  O  O12  1  0.043633  0.202110  0.391486  1
  O  O13  1  0.788739  0.962755  0.114308  1
  O  O14  1  0.971890  0.790409  0.608428  1
  O  O15  1  0.214360  0.036653  0.881429  1
  O  O16  1  0.127662  0.298475  0.123152  1
  O  O17  1  0.688208  0.871958  0.380897  1
  O  O18  1  0.874592  0.700376  0.876722  1
  O  O19  1  0.302095  0.119014  0.612950  1
  O  O20  1  0.467595  0.621771  0.121332  1
  O  O21  1  0.375106  0.541344  0.389089  1
  O  O22  1  0.533237  0.377008  0.883102  1
  O  O23  1  0.610392  0.479317  0.617355  1
  O  O24  1  0.082253  0.716235  0.250398  1
  O  O25  1  0.288604  0.915054  0.258120  1
  O  O26  1  0.916730  0.284418  0.749490  1
  O  O27  1  0.715982  0.085596  0.745399  1
  O  O28  1  0.879502  0.117648  0.252902  1
  O  O29  1  0.127481  0.875932  0.743588  1
