# generated using pymatgen
data_La7Pr5(GaRh)8
_symmetry_space_group_name_H-M   'P 1'
_cell_length_a   5.74269907
_cell_length_b   8.37085211
_cell_length_c   13.74063010
_cell_angle_alpha   90.01043809
_cell_angle_beta   90.00866179
_cell_angle_gamma   90.01557416
_symmetry_Int_Tables_number   1
_chemical_formula_structural   La7Pr5(GaRh)8
_chemical_formula_sum   'La7 Pr5 Ga8 Rh8'
_cell_volume   660.52969750
_cell_formula_units_Z   1
loop_
 _symmetry_equiv_pos_site_id
 _symmetry_equiv_pos_as_xyz
  1  'x, y, z'
loop_
 _atom_site_type_symbol
 _atom_site_label
 _atom_site_symmetry_multiplicity
 _atom_site_fract_x
 _atom_site_fract_y
 _atom_site_fract_z
 _atom_site_occupancy
  La  La0  1  0.149082  0.398411  0.095672  1
  La  La1  1  0.850711  0.601910  0.904638  1
  La  La2  1  0.850731  0.601427  0.595662  1
  La  La3  1  0.850763  0.898537  0.403980  1
  La  La4  1  0.148853  0.398380  0.404075  1
  La  La5  1  0.148934  0.101567  0.595645  1
  La  La6  1  0.149222  0.100693  0.904714  1
  Pr  Pr7  1  0.634633  0.255161  0.249561  1
  Pr  Pr8  1  0.365580  0.744250  0.750152  1
  Pr  Pr9  1  0.365892  0.756294  0.249623  1
  Pr  Pr10  1  0.634580  0.244284  0.750000  1
  Pr  Pr11  1  0.853525  0.897219  0.098121  1
  Ga  Ga12  1  0.137269  0.106658  0.249360  1
  Ga  Ga13  1  0.860896  0.892894  0.749924  1
  Ga  Ga14  1  0.861347  0.607874  0.249438  1
  Ga  Ga15  1  0.138834  0.392605  0.750032  1
  Ga  Ga16  1  0.631874  0.249231  0.000382  1
  Ga  Ga17  1  0.369465  0.750829  0.000572  1
  Ga  Ga18  1  0.368063  0.749974  0.499956  1
  Ga  Ga19  1  0.631753  0.250020  0.500018  1
  Rh  Rh20  1  0.359559  0.032013  0.090490  1
  Rh  Rh21  1  0.638155  0.969332  0.908284  1
  Rh  Rh22  1  0.639200  0.968998  0.590750  1
  Rh  Rh23  1  0.639458  0.531342  0.409027  1
  Rh  Rh24  1  0.360454  0.031003  0.409222  1
  Rh  Rh25  1  0.361009  0.469093  0.590785  1
  Rh  Rh26  1  0.360692  0.469352  0.909325  1
  Rh  Rh27  1  0.639466  0.530648  0.090592  1
