# generated using pymatgen
data_CaHoPdPtO7
_symmetry_space_group_name_H-M   'P 1'
_cell_length_a   7.24553001
_cell_length_b   7.23989992
_cell_length_c   7.24552800
_cell_angle_alpha   60.02569287
_cell_angle_beta   59.97593675
_cell_angle_gamma   60.02570049
_symmetry_Int_Tables_number   1
_chemical_formula_structural   CaHoPdPtO7
_chemical_formula_sum   'Ca2 Ho2 Pd2 Pt2 O14'
_cell_volume   268.81112199
_cell_formula_units_Z   2
loop_
 _symmetry_equiv_pos_site_id
 _symmetry_equiv_pos_as_xyz
  1  'x, y, z'
loop_
 _atom_site_type_symbol
 _atom_site_label
 _atom_site_symmetry_multiplicity
 _atom_site_fract_x
 _atom_site_fract_y
 _atom_site_fract_z
 _atom_site_occupancy
  Ca  Ca0  1  0.625000  0.625000  0.625000  1
  Ca  Ca1  1  0.625000  0.125000  0.625000  1
  Ho  Ho2  1  0.625000  0.625000  0.125000  1
  Ho  Ho3  1  0.125000  0.625000  0.625000  1
  Pd  Pd4  1  0.125000  0.125000  0.125000  1
  Pd  Pd5  1  0.125000  0.625000  0.125000  1
  Pt  Pt6  1  0.625000  0.125000  0.125000  1
  Pt  Pt7  1  0.125000  0.125000  0.625000  1
  O  O8  1  0.045185  0.458751  0.460558  1
  O  O9  1  0.789442  0.791249  0.204815  1
  O  O10  1  0.789442  0.214493  0.204815  1
  O  O11  1  0.455029  0.044971  0.455029  1
  O  O12  1  0.755938  0.744062  0.755938  1
  O  O13  1  0.045185  0.035507  0.460558  1
  O  O14  1  0.035725  0.464275  0.035725  1
  O  O15  1  0.794971  0.205029  0.794971  1
  O  O16  1  0.214275  0.785725  0.214275  1
  O  O17  1  0.204815  0.214493  0.789442  1
  O  O18  1  0.494062  0.505938  0.494062  1
  O  O19  1  0.460558  0.035507  0.045185  1
  O  O20  1  0.460558  0.458751  0.045185  1
  O  O21  1  0.204815  0.791249  0.789442  1
