# generated using pymatgen
data_Sm3Th(Re2Si)8
_symmetry_space_group_name_H-M   'P 1'
_cell_length_a   4.15596500
_cell_length_b   7.32630476
_cell_length_c   15.51186525
_cell_angle_alpha   90.26923852
_cell_angle_beta   90.00000000
_cell_angle_gamma   90.00000000
_symmetry_Int_Tables_number   1
_chemical_formula_structural   Sm3Th(Re2Si)8
_chemical_formula_sum   'Sm3 Th1 Re16 Si8'
_cell_volume   472.29798249
_cell_formula_units_Z   1
loop_
 _symmetry_equiv_pos_site_id
 _symmetry_equiv_pos_as_xyz
  1  'x, y, z'
loop_
 _atom_site_type_symbol
 _atom_site_label
 _atom_site_symmetry_multiplicity
 _atom_site_fract_x
 _atom_site_fract_y
 _atom_site_fract_z
 _atom_site_occupancy
  Sm  Sm0  1  0.000000  0.577773  0.118773  1
  Sm  Sm1  1  0.000000  0.418943  0.883614  1
  Sm  Sm2  1  0.500000  0.080782  0.379782  1
  Th  Th3  1  0.500000  0.921024  0.618876  1
  Re  Re4  1  0.000000  0.137949  0.051350  1
  Re  Re5  1  0.000000  0.856730  0.948602  1
  Re  Re6  1  0.500000  0.645637  0.447764  1
  Re  Re7  1  0.500000  0.365614  0.550198  1
  Re  Re8  1  0.000000  0.735008  0.320527  1
  Re  Re9  1  0.000000  0.265831  0.678694  1
  Re  Re10  1  0.500000  0.233935  0.177817  1
  Re  Re11  1  0.500000  0.762706  0.823334  1
  Re  Re12  1  0.000000  0.433953  0.416780  1
  Re  Re13  1  0.000000  0.575149  0.580226  1
  Re  Re14  1  0.500000  0.929871  0.081697  1
  Re  Re15  1  0.500000  0.066242  0.918662  1
  Re  Re16  1  0.000000  0.988301  0.205394  1
  Re  Re17  1  0.000000  0.010306  0.794816  1
  Re  Re18  1  0.500000  0.489121  0.293565  1
  Re  Re19  1  0.500000  0.506666  0.706810  1
  Si  Si20  1  0.000000  0.835504  0.474317  1
  Si  Si21  1  0.000000  0.174818  0.522396  1
  Si  Si22  1  0.500000  0.329930  0.023923  1
  Si  Si23  1  0.500000  0.665616  0.977689  1
  Si  Si24  1  0.000000  0.290635  0.272390  1
  Si  Si25  1  0.000000  0.701627  0.729709  1
  Si  Si26  1  0.500000  0.790214  0.226317  1
  Si  Si27  1  0.500000  0.210116  0.775977  1
