# generated using pymatgen
data_Nd20Si15Te
_symmetry_space_group_name_H-M   'P 1'
_cell_length_a   7.88776861
_cell_length_b   7.92178297
_cell_length_c   15.25845631
_cell_angle_alpha   89.44969959
_cell_angle_beta   90.26059925
_cell_angle_gamma   90.14461194
_symmetry_Int_Tables_number   1
_chemical_formula_structural   Nd20Si15Te
_chemical_formula_sum   'Nd20 Si15 Te1'
_cell_volume   953.37078748
_cell_formula_units_Z   1
loop_
 _symmetry_equiv_pos_site_id
 _symmetry_equiv_pos_as_xyz
  1  'x, y, z'
loop_
 _atom_site_type_symbol
 _atom_site_label
 _atom_site_symmetry_multiplicity
 _atom_site_fract_x
 _atom_site_fract_y
 _atom_site_fract_z
 _atom_site_occupancy
  Nd  Nd0  1  0.481455  0.370984  0.125174  1
  Nd  Nd1  1  0.971836  0.138346  0.629035  1
  Nd  Nd2  1  0.870558  0.018853  0.876440  1
  Nd  Nd3  1  0.127872  0.977490  0.373726  1
  Nd  Nd4  1  0.520467  0.622948  0.625245  1
  Nd  Nd5  1  0.371244  0.481721  0.875330  1
  Nd  Nd6  1  0.633743  0.515823  0.371851  1
  Nd  Nd7  1  0.019442  0.872205  0.123298  1
  Nd  Nd8  1  0.629109  0.988583  0.443571  1
  Nd  Nd9  1  0.379858  0.010314  0.947967  1
  Nd  Nd10  1  0.988567  0.619702  0.552995  1
  Nd  Nd11  1  0.488233  0.878237  0.197983  1
  Nd  Nd12  1  0.519619  0.134715  0.707221  1
  Nd  Nd13  1  0.878101  0.490192  0.804944  1
  Nd  Nd14  1  0.118080  0.505573  0.299004  1
  Nd  Nd15  1  0.010060  0.379168  0.053193  1
  Nd  Nd16  1  0.307290  0.322182  0.498233  1
  Nd  Nd17  1  0.188792  0.806937  0.758094  1
  Nd  Nd18  1  0.810300  0.188539  0.248241  1
  Nd  Nd19  1  0.688691  0.690599  0.000270  1
  Si  Si20  1  0.712348  0.077914  0.059949  1
  Si  Si21  1  0.923205  0.282089  0.439788  1
  Si  Si22  1  0.424710  0.205813  0.309871  1
  Si  Si23  1  0.575714  0.788415  0.809333  1
  Si  Si24  1  0.211211  0.425864  0.690216  1
  Si  Si25  1  0.786587  0.578033  0.188413  1
  Si  Si26  1  0.074596  0.711204  0.942424  1
  Si  Si27  1  0.804783  0.831197  0.701065  1
  Si  Si28  1  0.196639  0.166289  0.201862  1
  Si  Si29  1  0.830992  0.806485  0.296477  1
  Si  Si30  1  0.332370  0.677467  0.435021  1
  Si  Si31  1  0.667392  0.303708  0.951146  1
  Si  Si32  1  0.691692  0.329306  0.545634  1
  Si  Si33  1  0.304856  0.668361  0.049131  1
  Si  Si34  1  0.168431  0.195963  0.800160  1
  Te  Te35  1  0.291157  0.938783  0.567695  1
