# generated using pymatgen
data_HoEr2Ga5Ni
_symmetry_space_group_name_H-M   'P 1'
_cell_length_a   6.86543601
_cell_length_b   6.86465062
_cell_length_c   4.22888000
_cell_angle_alpha   90.00000000
_cell_angle_beta   90.00000000
_cell_angle_gamma   119.99621650
_symmetry_Int_Tables_number   1
_chemical_formula_structural   HoEr2Ga5Ni
_chemical_formula_sum   'Ho1 Er2 Ga5 Ni1'
_cell_volume   172.60728116
_cell_formula_units_Z   1
loop_
 _symmetry_equiv_pos_site_id
 _symmetry_equiv_pos_as_xyz
  1  'x, y, z'
loop_
 _atom_site_type_symbol
 _atom_site_label
 _atom_site_symmetry_multiplicity
 _atom_site_fract_x
 _atom_site_fract_y
 _atom_site_fract_z
 _atom_site_occupancy
  Ho  Ho0  1  0.000000  0.594132  0.000000  1
  Er  Er1  1  0.594162  0.999992  0.000000  1
  Er  Er2  1  0.405838  0.405830  0.000000  1
  Ga  Ga3  1  0.235659  0.000029  0.500000  1
  Ga  Ga4  1  0.000000  0.235621  0.500000  1
  Ga  Ga5  1  0.666592  0.333286  0.500000  1
  Ga  Ga6  1  0.333407  0.666692  0.500000  1
  Ga  Ga7  1  0.764341  0.764371  0.500000  1
  Ni  Ni8  1  0.000000  0.000049  0.000000  1
