# generated using pymatgen
data_Na5Si12Ir19
_symmetry_space_group_name_H-M   'P 1'
_cell_length_a   12.75046000
_cell_length_b   12.75046113
_cell_length_c   3.99716600
_cell_angle_alpha   90.00000000
_cell_angle_beta   90.00000000
_cell_angle_gamma   120.00000225
_symmetry_Int_Tables_number   1
_chemical_formula_structural   Na5Si12Ir19
_chemical_formula_sum   'Na5 Si12 Ir19'
_cell_volume   562.77468213
_cell_formula_units_Z   1
loop_
 _symmetry_equiv_pos_site_id
 _symmetry_equiv_pos_as_xyz
  1  'x, y, z'
loop_
 _atom_site_type_symbol
 _atom_site_label
 _atom_site_symmetry_multiplicity
 _atom_site_fract_x
 _atom_site_fract_y
 _atom_site_fract_z
 _atom_site_occupancy
  Na  Na0  1  0.000000  0.816683  0.500000  1
  Na  Na1  1  0.183317  0.183317  0.500000  1
  Na  Na2  1  0.816683  0.000000  0.500000  1
  Na  Na3  1  0.333333  0.666667  0.000000  1
  Na  Na4  1  0.666667  0.333333  0.000000  1
  Si  Si5  1  0.000000  0.182823  0.000000  1
  Si  Si6  1  0.817177  0.817177  0.000000  1
  Si  Si7  1  0.182823  0.000000  0.000000  1
  Si  Si8  1  0.519356  0.687326  0.500000  1
  Si  Si9  1  0.312674  0.832030  0.500000  1
  Si  Si10  1  0.167970  0.480644  0.500000  1
  Si  Si11  1  0.480644  0.167970  0.500000  1
  Si  Si12  1  0.687326  0.519356  0.500000  1
  Si  Si13  1  0.832030  0.312674  0.500000  1
  Si  Si14  1  0.000000  0.630043  0.000000  1
  Si  Si15  1  0.369957  0.369957  0.000000  1
  Si  Si16  1  0.630043  0.000000  0.000000  1
  Ir  Ir17  1  0.000000  0.282920  0.500000  1
  Ir  Ir18  1  0.717080  0.717080  0.500000  1
  Ir  Ir19  1  0.282920  0.000000  0.500000  1
  Ir  Ir20  1  0.621768  0.806364  0.000000  1
  Ir  Ir21  1  0.193636  0.815404  0.000000  1
  Ir  Ir22  1  0.184596  0.378232  0.000000  1
  Ir  Ir23  1  0.378232  0.184596  0.000000  1
  Ir  Ir24  1  0.806364  0.621768  0.000000  1
  Ir  Ir25  1  0.815404  0.193636  0.000000  1
  Ir  Ir26  1  0.513971  0.874564  0.500000  1
  Ir  Ir27  1  0.125436  0.639406  0.500000  1
  Ir  Ir28  1  0.360594  0.486029  0.500000  1
  Ir  Ir29  1  0.486029  0.360594  0.500000  1
  Ir  Ir30  1  0.874564  0.513971  0.500000  1
  Ir  Ir31  1  0.639406  0.125436  0.500000  1
  Ir  Ir32  1  0.000000  0.000000  0.000000  1
  Ir  Ir33  1  0.000000  0.445907  0.000000  1
  Ir  Ir34  1  0.554093  0.554093  0.000000  1
  Ir  Ir35  1  0.445907  0.000000  0.000000  1
