# generated using pymatgen
data_Lu4Al18ZnOs4Rh
_symmetry_space_group_name_H-M   'P 1'
_cell_length_a   7.57145064
_cell_length_b   7.57145102
_cell_length_c   9.46590162
_cell_angle_alpha   90.06703349
_cell_angle_beta   90.06703012
_cell_angle_gamma   119.95128864
_symmetry_Int_Tables_number   1
_chemical_formula_structural   Lu4Al18ZnOs4Rh
_chemical_formula_sum   'Lu4 Al18 Zn1 Os4 Rh1'
_cell_volume   470.17832800
_cell_formula_units_Z   1
loop_
 _symmetry_equiv_pos_site_id
 _symmetry_equiv_pos_as_xyz
  1  'x, y, z'
loop_
 _atom_site_type_symbol
 _atom_site_label
 _atom_site_symmetry_multiplicity
 _atom_site_fract_x
 _atom_site_fract_y
 _atom_site_fract_z
 _atom_site_occupancy
  Lu  Lu0  1  0.998755  0.667786  0.249764  1
  Lu  Lu1  1  0.001245  0.332214  0.750236  1
  Lu  Lu2  1  0.667786  0.998755  0.249764  1
  Lu  Lu3  1  0.332214  0.001245  0.750236  1
  Al  Al4  1  0.128302  0.128302  0.254542  1
  Al  Al5  1  0.871698  0.871698  0.745458  1
  Al  Al6  1  0.001600  0.341635  0.075866  1
  Al  Al7  1  0.998400  0.658365  0.924134  1
  Al  Al8  1  0.999081  0.664643  0.571215  1
  Al  Al9  1  0.335357  0.000919  0.428785  1
  Al  Al10  1  0.000919  0.335357  0.428785  1
  Al  Al11  1  0.664643  0.999081  0.571215  1
  Al  Al12  1  0.658365  0.998400  0.924134  1
  Al  Al13  1  0.341635  0.001600  0.075866  1
  Al  Al14  1  0.336041  0.336041  0.551018  1
  Al  Al15  1  0.663959  0.663959  0.448982  1
  Al  Al16  1  0.657943  0.657943  0.054075  1
  Al  Al17  1  0.342057  0.342057  0.945925  1
  Al  Al18  1  0.336496  0.549290  0.250058  1
  Al  Al19  1  0.663504  0.450710  0.749942  1
  Al  Al20  1  0.549290  0.336496  0.250058  1
  Al  Al21  1  0.450710  0.663504  0.749942  1
  Zn  Zn22  1  0.000000  0.000000  0.000000  1
  Os  Os23  1  0.672790  0.327210  0.000000  1
  Os  Os24  1  0.327210  0.672790  0.000000  1
  Os  Os25  1  0.327129  0.672871  0.500000  1
  Os  Os26  1  0.672871  0.327129  0.500000  1
  Rh  Rh27  1  0.000000  0.000000  0.500000  1
