# generated using pymatgen
data_Lu7Zr(Nb3Si4)4
_symmetry_space_group_name_H-M   'P 1'
_cell_length_a   6.80245622
_cell_length_b   6.99926351
_cell_length_c   13.30216229
_cell_angle_alpha   89.92096037
_cell_angle_beta   90.04546500
_cell_angle_gamma   90.01421313
_symmetry_Int_Tables_number   1
_chemical_formula_structural   Lu7Zr(Nb3Si4)4
_chemical_formula_sum   'Lu7 Zr1 Nb12 Si16'
_cell_volume   633.34417179
_cell_formula_units_Z   1
loop_
 _symmetry_equiv_pos_site_id
 _symmetry_equiv_pos_as_xyz
  1  'x, y, z'
loop_
 _atom_site_type_symbol
 _atom_site_label
 _atom_site_symmetry_multiplicity
 _atom_site_fract_x
 _atom_site_fract_y
 _atom_site_fract_z
 _atom_site_occupancy
  Lu  Lu0  1  0.000619  0.826416  0.904601  1
  Lu  Lu1  1  0.499005  0.326427  0.095505  1
  Lu  Lu2  1  0.999230  0.173211  0.404856  1
  Lu  Lu3  1  0.499502  0.327701  0.405194  1
  Lu  Lu4  1  0.998814  0.173220  0.095572  1
  Lu  Lu5  1  0.500948  0.672849  0.904701  1
  Lu  Lu6  1  0.999175  0.825887  0.594873  1
  Zr  Zr7  1  0.502141  0.675015  0.598051  1
  Nb  Nb8  1  0.661078  0.174525  0.624627  1
  Nb  Nb9  1  0.163309  0.325065  0.874210  1
  Nb  Nb10  1  0.338000  0.825502  0.125378  1
  Nb  Nb11  1  0.838297  0.675309  0.374769  1
  Nb  Nb12  1  0.338918  0.824066  0.375232  1
  Nb  Nb13  1  0.838509  0.675018  0.125378  1
  Nb  Nb14  1  0.661591  0.174784  0.873829  1
  Nb  Nb15  1  0.163794  0.326369  0.624696  1
  Nb  Nb16  1  0.835426  0.494527  0.749269  1
  Nb  Nb17  1  0.336483  0.005658  0.748618  1
  Nb  Nb18  1  0.164089  0.505853  0.250323  1
  Nb  Nb19  1  0.663300  0.993003  0.250332  1
  Si  Si20  1  0.665336  0.962321  0.460923  1
  Si  Si21  1  0.165524  0.535489  0.040186  1
  Si  Si22  1  0.333615  0.036054  0.960015  1
  Si  Si23  1  0.829756  0.465374  0.539878  1
  Si  Si24  1  0.335021  0.033591  0.540260  1
  Si  Si25  1  0.834693  0.463986  0.959806  1
  Si  Si26  1  0.665693  0.964389  0.040193  1
  Si  Si27  1  0.167814  0.536068  0.460820  1
  Si  Si28  1  0.458959  0.382734  0.749009  1
  Si  Si29  1  0.958004  0.120517  0.749425  1
  Si  Si30  1  0.541940  0.618730  0.249713  1
  Si  Si31  1  0.042146  0.880419  0.250038  1
  Si  Si32  1  0.702445  0.867695  0.749573  1
  Si  Si33  1  0.203815  0.632917  0.749682  1
  Si  Si34  1  0.296735  0.131775  0.250260  1
  Si  Si35  1  0.796277  0.367535  0.250206  1
