# generated using pymatgen
data_Ac2LaIn3Cu2Ir
_symmetry_space_group_name_H-M   'P 1'
_cell_length_a   7.89715631
_cell_length_b   7.86781907
_cell_length_c   4.20113000
_cell_angle_alpha   90.00000000
_cell_angle_beta   90.00000000
_cell_angle_gamma   119.60000943
_symmetry_Int_Tables_number   1
_chemical_formula_structural   Ac2LaIn3Cu2Ir
_chemical_formula_sum   'Ac2 La1 In3 Cu2 Ir1'
_cell_volume   226.96465600
_cell_formula_units_Z   1
loop_
 _symmetry_equiv_pos_site_id
 _symmetry_equiv_pos_as_xyz
  1  'x, y, z'
loop_
 _atom_site_type_symbol
 _atom_site_label
 _atom_site_symmetry_multiplicity
 _atom_site_fract_x
 _atom_site_fract_y
 _atom_site_fract_z
 _atom_site_occupancy
  Ac  Ac0  1  0.411883  0.423141  0.500000  1
  Ac  Ac1  1  0.575676  0.988168  0.500000  1
  La  La2  1  0.018084  0.591406  0.500000  1
  In  In3  1  0.768307  0.756669  0.000000  1
  In  In4  1  0.997245  0.245475  0.000000  1
  In  In5  1  0.233899  0.995352  0.000000  1
  Cu  Cu6  1  0.999983  0.998313  0.500000  1
  Cu  Cu7  1  0.674215  0.338633  0.000000  1
  Ir  Ir8  1  0.320708  0.662842  0.000000  1
