# generated using pymatgen
data_Pr4AgAs8Au3
_symmetry_space_group_name_H-M   'P 1'
_cell_length_a   5.84477800
_cell_length_b   5.89985300
_cell_length_c   20.88155200
_cell_angle_alpha   90.00000000
_cell_angle_beta   90.00000000
_cell_angle_gamma   90.00000000
_symmetry_Int_Tables_number   1
_chemical_formula_structural   Pr4AgAs8Au3
_chemical_formula_sum   'Pr8 Ag2 As16 Au6'
_cell_volume   720.06546978
_cell_formula_units_Z   2
loop_
 _symmetry_equiv_pos_site_id
 _symmetry_equiv_pos_as_xyz
  1  'x, y, z'
loop_
 _atom_site_type_symbol
 _atom_site_label
 _atom_site_symmetry_multiplicity
 _atom_site_fract_x
 _atom_site_fract_y
 _atom_site_fract_z
 _atom_site_occupancy
  Pr  Pr0  1  0.248653  0.986344  0.619998  1
  Pr  Pr1  1  0.748653  0.013656  0.380002  1
  Pr  Pr2  1  0.751347  0.986344  0.880002  1
  Pr  Pr3  1  0.251347  0.013656  0.119998  1
  Pr  Pr4  1  0.751570  0.484569  0.616033  1
  Pr  Pr5  1  0.251570  0.515431  0.383967  1
  Pr  Pr6  1  0.248430  0.484569  0.883967  1
  Pr  Pr7  1  0.748430  0.515431  0.116033  1
  Ag  Ag8  1  0.500000  0.731002  0.750000  1
  Ag  Ag9  1  0.000000  0.268998  0.250000  1
  As  As10  1  0.750102  0.986065  0.660927  1
  As  As11  1  0.250102  0.013935  0.339073  1
  As  As12  1  0.249898  0.986065  0.839073  1
  As  As13  1  0.749898  0.013935  0.160927  1
  As  As14  1  0.249916  0.485768  0.659511  1
  As  As15  1  0.749916  0.514232  0.340489  1
  As  As16  1  0.750084  0.485768  0.840489  1
  As  As17  1  0.250084  0.514232  0.159511  1
  As  As18  1  0.028563  0.220774  0.500680  1
  As  As19  1  0.528563  0.779226  0.499320  1
  As  As20  1  0.971437  0.220774  0.999320  1
  As  As21  1  0.471437  0.779226  0.000680  1
  As  As22  1  0.971336  0.779083  0.499244  1
  As  As23  1  0.471336  0.220917  0.500756  1
  As  As24  1  0.028664  0.779083  0.000756  1
  As  As25  1  0.528664  0.220917  0.999244  1
  Au  Au26  1  0.500000  0.269062  0.250000  1
  Au  Au27  1  0.000000  0.730938  0.750000  1
  Au  Au28  1  0.500000  0.233866  0.750000  1
  Au  Au29  1  0.000000  0.766134  0.250000  1
  Au  Au30  1  0.500000  0.765932  0.250000  1
  Au  Au31  1  0.000000  0.234068  0.750000  1
