# generated using pymatgen
data_RbCrSe2O7
_symmetry_space_group_name_H-M   'P 1'
_cell_length_a   5.47813977
_cell_length_b   5.47834016
_cell_length_c   14.72675304
_cell_angle_alpha   79.25465163
_cell_angle_beta   100.73915420
_cell_angle_gamma   120.02050776
_symmetry_Int_Tables_number   1
_chemical_formula_structural   RbCrSe2O7
_chemical_formula_sum   'Rb2 Cr2 Se4 O14'
_cell_volume   373.70848914
_cell_formula_units_Z   2
loop_
 _symmetry_equiv_pos_site_id
 _symmetry_equiv_pos_as_xyz
  1  'x, y, z'
loop_
 _atom_site_type_symbol
 _atom_site_label
 _atom_site_symmetry_multiplicity
 _atom_site_fract_x
 _atom_site_fract_y
 _atom_site_fract_z
 _atom_site_occupancy
  Rb  Rb0  1  0.000000  0.000000  0.000000  1
  Rb  Rb1  1  0.499999  0.500000  0.500000  1
  Cr  Cr2  1  0.097100  0.903253  0.291663  1
  Cr  Cr3  1  0.902900  0.096748  0.708337  1
  Se  Se4  1  0.386992  0.613457  0.161232  1
  Se  Se5  1  0.770887  0.229689  0.312685  1
  Se  Se6  1  0.229113  0.770312  0.687316  1
  Se  Se7  1  0.613006  0.386543  0.838768  1
  O  O8  1  0.349045  0.651426  0.047223  1
  O  O9  1  0.734704  0.768757  0.198117  1
  O  O10  1  0.231614  0.265650  0.198110  1
  O  O11  1  0.231546  0.768856  0.198080  1
  O  O12  1  0.951542  0.049244  0.370295  1
  O  O13  1  0.951642  0.533099  0.370335  1
  O  O14  1  0.467640  0.049058  0.370390  1
  O  O15  1  0.532359  0.950942  0.629610  1
  O  O16  1  0.048356  0.466899  0.629665  1
  O  O17  1  0.048456  0.950756  0.629705  1
  O  O18  1  0.768455  0.231144  0.801920  1
  O  O19  1  0.768387  0.734349  0.801890  1
  O  O20  1  0.265296  0.231244  0.801883  1
  O  O21  1  0.650953  0.348574  0.952777  1
