# generated using pymatgen
data_Tb10SiPb6
_symmetry_space_group_name_H-M   'P 1'
_cell_length_a   6.62738400
_cell_length_b   9.16032201
_cell_length_c   9.16037300
_cell_angle_alpha   119.99981942
_cell_angle_beta   90.00021613
_cell_angle_gamma   89.99957294
_symmetry_Int_Tables_number   1
_chemical_formula_structural   Tb10SiPb6
_chemical_formula_sum   'Tb10 Si1 Pb6'
_cell_volume   481.61217290
_cell_formula_units_Z   1
loop_
 _symmetry_equiv_pos_site_id
 _symmetry_equiv_pos_as_xyz
  1  'x, y, z'
loop_
 _atom_site_type_symbol
 _atom_site_label
 _atom_site_symmetry_multiplicity
 _atom_site_fract_x
 _atom_site_fract_y
 _atom_site_fract_z
 _atom_site_occupancy
  Tb  Tb0  1  0.500000  0.333322  0.666646  1
  Tb  Tb1  1  0.500000  0.666678  0.333354  1
  Tb  Tb2  1  0.000000  0.666657  0.333314  1
  Tb  Tb3  1  0.000000  0.333343  0.666686  1
  Tb  Tb4  1  0.744612  0.249710  0.000000  1
  Tb  Tb5  1  0.744597  0.750283  0.750278  1
  Tb  Tb6  1  0.744597  0.000004  0.249722  1
  Tb  Tb7  1  0.255387  0.750290  0.000000  1
  Tb  Tb8  1  0.255402  0.249717  0.249723  1
  Tb  Tb9  1  0.255402  0.999995  0.750277  1
  Si  Si10  1  0.499999  0.000001  0.000000  1
  Pb  Pb11  1  0.749705  0.608560  0.000000  1
  Pb  Pb12  1  0.749749  0.391452  0.391465  1
  Pb  Pb13  1  0.749749  0.999988  0.608535  1
  Pb  Pb14  1  0.250294  0.391439  0.000000  1
  Pb  Pb15  1  0.250252  0.608548  0.608536  1
  Pb  Pb16  1  0.250252  0.000011  0.391464  1
