# generated using pymatgen
data_YbEr11(Si3Ir)4
_symmetry_space_group_name_H-M   'P 1'
_cell_length_a   4.20778400
_cell_length_b   10.56540836
_cell_length_c   12.17860400
_cell_angle_alpha   89.94230513
_cell_angle_beta   90.00000000
_cell_angle_gamma   90.00000000
_symmetry_Int_Tables_number   1
_chemical_formula_structural   YbEr11(Si3Ir)4
_chemical_formula_sum   'Yb1 Er11 Si12 Ir4'
_cell_volume   541.42339055
_cell_formula_units_Z   1
loop_
 _symmetry_equiv_pos_site_id
 _symmetry_equiv_pos_as_xyz
  1  'x, y, z'
loop_
 _atom_site_type_symbol
 _atom_site_label
 _atom_site_symmetry_multiplicity
 _atom_site_fract_x
 _atom_site_fract_y
 _atom_site_fract_z
 _atom_site_occupancy
  Yb  Yb0  1  0.750000  0.159699  0.698255  1
  Er  Er1  1  0.250000  0.879702  0.020647  1
  Er  Er2  1  0.250000  0.620116  0.519964  1
  Er  Er3  1  0.750000  0.119736  0.977979  1
  Er  Er4  1  0.750000  0.378485  0.480467  1
  Er  Er5  1  0.250000  0.919764  0.604587  1
  Er  Er6  1  0.250000  0.580611  0.103661  1
  Er  Er7  1  0.750000  0.081082  0.395199  1
  Er  Er8  1  0.750000  0.418894  0.896016  1
  Er  Er9  1  0.250000  0.659238  0.800991  1
  Er  Er10  1  0.250000  0.841016  0.300849  1
  Er  Er11  1  0.750000  0.340604  0.199005  1
  Si  Si12  1  0.250000  0.010327  0.821636  1
  Si  Si13  1  0.250000  0.488490  0.321020  1
  Si  Si14  1  0.750000  0.989203  0.178354  1
  Si  Si15  1  0.750000  0.511368  0.679140  1
  Si  Si16  1  0.250000  0.247394  0.841708  1
  Si  Si17  1  0.250000  0.253806  0.340747  1
  Si  Si18  1  0.750000  0.753310  0.159127  1
  Si  Si19  1  0.750000  0.748099  0.659093  1
  Si  Si20  1  0.250000  0.199557  0.540824  1
  Si  Si21  1  0.250000  0.300214  0.043963  1
  Si  Si22  1  0.750000  0.800512  0.457077  1
  Si  Si23  1  0.750000  0.699206  0.957102  1
  Ir  Ir24  1  0.250000  0.391671  0.680236  1
  Ir  Ir25  1  0.250000  0.110379  0.180417  1
  Ir  Ir26  1  0.750000  0.610590  0.320142  1
  Ir  Ir27  1  0.750000  0.886927  0.821792  1
