# generated using pymatgen
data_Mn3Zn2N
_symmetry_space_group_name_H-M   'P 1'
_cell_length_a   6.44004200
_cell_length_b   6.44004200
_cell_length_c   6.44004200
_cell_angle_alpha   90.00000000
_cell_angle_beta   90.00000000
_cell_angle_gamma   90.00000000
_symmetry_Int_Tables_number   1
_chemical_formula_structural   Mn3Zn2N
_chemical_formula_sum   'Mn12 Zn8 N4'
_cell_volume   267.09520971
_cell_formula_units_Z   4
loop_
 _symmetry_equiv_pos_site_id
 _symmetry_equiv_pos_as_xyz
  1  'x, y, z'
loop_
 _atom_site_type_symbol
 _atom_site_label
 _atom_site_symmetry_multiplicity
 _atom_site_fract_x
 _atom_site_fract_y
 _atom_site_fract_z
 _atom_site_occupancy
  Mn  Mn0  1  0.793543  0.956457  0.375000  1
  Mn  Mn1  1  0.706457  0.043543  0.875000  1
  Mn  Mn2  1  0.206457  0.456457  0.125000  1
  Mn  Mn3  1  0.293543  0.543543  0.625000  1
  Mn  Mn4  1  0.956457  0.375000  0.793543  1
  Mn  Mn5  1  0.043543  0.875000  0.706457  1
  Mn  Mn6  1  0.456457  0.125000  0.206457  1
  Mn  Mn7  1  0.543543  0.625000  0.293543  1
  Mn  Mn8  1  0.375000  0.793543  0.956457  1
  Mn  Mn9  1  0.875000  0.706457  0.043543  1
  Mn  Mn10  1  0.125000  0.206457  0.456457  1
  Mn  Mn11  1  0.625000  0.293543  0.543543  1
  Zn  Zn12  1  0.181851  0.818149  0.318149  1
  Zn  Zn13  1  0.318149  0.181851  0.818149  1
  Zn  Zn14  1  0.818149  0.318149  0.181851  1
  Zn  Zn15  1  0.681851  0.681851  0.681851  1
  Zn  Zn16  1  0.568149  0.431851  0.931851  1
  Zn  Zn17  1  0.431851  0.931851  0.568149  1
  Zn  Zn18  1  0.931851  0.568149  0.431851  1
  Zn  Zn19  1  0.068149  0.068149  0.068149  1
  N  N20  1  0.875000  0.125000  0.625000  1
  N  N21  1  0.625000  0.875000  0.125000  1
  N  N22  1  0.125000  0.625000  0.875000  1
  N  N23  1  0.375000  0.375000  0.375000  1
