# generated using pymatgen
data_Ti3AlPd2N
_symmetry_space_group_name_H-M   'P 1'
_cell_length_a   8.19752757
_cell_length_b   8.19752767
_cell_length_c   8.19752800
_cell_angle_alpha   59.99999866
_cell_angle_beta   59.99999827
_cell_angle_gamma   59.99999458
_symmetry_Int_Tables_number   1
_chemical_formula_structural   Ti3AlPd2N
_chemical_formula_sum   'Ti12 Al4 Pd8 N4'
_cell_volume   389.52349670
_cell_formula_units_Z   4
loop_
 _symmetry_equiv_pos_site_id
 _symmetry_equiv_pos_as_xyz
  1  'x, y, z'
loop_
 _atom_site_type_symbol
 _atom_site_label
 _atom_site_symmetry_multiplicity
 _atom_site_fract_x
 _atom_site_fract_y
 _atom_site_fract_z
 _atom_site_occupancy
  Ti  Ti0  1  0.817606  0.817606  0.182394  1
  Ti  Ti1  1  0.182394  0.182394  0.817606  1
  Ti  Ti2  1  0.817606  0.182394  0.817606  1
  Ti  Ti3  1  0.182394  0.817606  0.182394  1
  Ti  Ti4  1  0.182394  0.817606  0.817606  1
  Ti  Ti5  1  0.817606  0.182394  0.182394  1
  Ti  Ti6  1  0.432394  0.432394  0.067606  1
  Ti  Ti7  1  0.067606  0.067606  0.432394  1
  Ti  Ti8  1  0.432394  0.067606  0.432394  1
  Ti  Ti9  1  0.067606  0.432394  0.067606  1
  Ti  Ti10  1  0.067606  0.432394  0.432394  1
  Ti  Ti11  1  0.432394  0.067606  0.067606  1
  Al  Al12  1  0.125000  0.625000  0.625000  1
  Al  Al13  1  0.625000  0.125000  0.625000  1
  Al  Al14  1  0.625000  0.625000  0.125000  1
  Al  Al15  1  0.625000  0.625000  0.625000  1
  Pd  Pd16  1  0.767550  0.410817  0.410817  1
  Pd  Pd17  1  0.410817  0.767550  0.410817  1
  Pd  Pd18  1  0.410817  0.410817  0.767550  1
  Pd  Pd19  1  0.410817  0.410817  0.410817  1
  Pd  Pd20  1  0.482450  0.839183  0.839183  1
  Pd  Pd21  1  0.839183  0.482450  0.839183  1
  Pd  Pd22  1  0.839183  0.839183  0.482450  1
  Pd  Pd23  1  0.839183  0.839183  0.839183  1
  N  N24  1  0.625000  0.125000  0.125000  1
  N  N25  1  0.125000  0.625000  0.125000  1
  N  N26  1  0.125000  0.125000  0.625000  1
  N  N27  1  0.125000  0.125000  0.125000  1
