# generated using pymatgen
data_UAl10TcRh
_symmetry_space_group_name_H-M   'P 1'
_cell_length_a   6.85673125
_cell_length_b   6.85621230
_cell_length_c   9.12848170
_cell_angle_alpha   90.95595480
_cell_angle_beta   90.95458040
_cell_angle_gamma   97.46338658
_symmetry_Int_Tables_number   1
_chemical_formula_structural   UAl10TcRh
_chemical_formula_sum   'U2 Al20 Tc2 Rh2'
_cell_volume   425.36932751
_cell_formula_units_Z   2
loop_
 _symmetry_equiv_pos_site_id
 _symmetry_equiv_pos_as_xyz
  1  'x, y, z'
loop_
 _atom_site_type_symbol
 _atom_site_label
 _atom_site_symmetry_multiplicity
 _atom_site_fract_x
 _atom_site_fract_y
 _atom_site_fract_z
 _atom_site_occupancy
  U  U0  1  0.124423  0.875552  0.250012  1
  U  U1  1  0.875577  0.124448  0.749988  1
  Al  Al2  1  0.221803  0.479083  0.753845  1
  Al  Al3  1  0.375985  0.622222  0.051678  1
  Al  Al4  1  0.844324  0.154113  0.398891  1
  Al  Al5  1  0.140000  0.408056  0.250872  1
  Al  Al6  1  0.520916  0.778191  0.746108  1
  Al  Al7  1  0.624015  0.377778  0.948322  1
  Al  Al8  1  0.778197  0.520917  0.246155  1
  Al  Al9  1  0.622202  0.375964  0.551703  1
  Al  Al10  1  0.155676  0.845887  0.601109  1
  Al  Al11  1  0.591935  0.860012  0.249148  1
  Al  Al12  1  0.408065  0.139988  0.750852  1
  Al  Al13  1  0.479084  0.221809  0.253892  1
  Al  Al14  1  0.778295  0.777621  0.498900  1
  Al  Al15  1  0.777659  0.778375  0.998881  1
  Al  Al16  1  0.860000  0.591944  0.749128  1
  Al  Al17  1  0.845870  0.155644  0.101142  1
  Al  Al18  1  0.377798  0.624036  0.448297  1
  Al  Al19  1  0.154130  0.844356  0.898858  1
  Al  Al20  1  0.222341  0.221625  0.001119  1
  Al  Al21  1  0.221705  0.222379  0.501100  1
  Tc  Tc22  1  0.000000  0.500000  0.000000  1
  Tc  Tc23  1  0.500000  0.000000  0.500000  1
  Rh  Rh24  1  0.000000  0.500000  0.500000  1
  Rh  Rh25  1  0.500000  0.000000  0.000000  1
