# generated using pymatgen
data_Y2TmRuI3
_symmetry_space_group_name_H-M   'P 1'
_cell_length_a   4.22910600
_cell_length_b   8.85028000
_cell_length_c   12.26098374
_cell_angle_alpha   85.88735625
_cell_angle_beta   90.00000000
_cell_angle_gamma   90.00000000
_symmetry_Int_Tables_number   1
_chemical_formula_structural   Y2TmRuI3
_chemical_formula_sum   'Y4 Tm2 Ru2 I6'
_cell_volume   457.73185648
_cell_formula_units_Z   2
loop_
 _symmetry_equiv_pos_site_id
 _symmetry_equiv_pos_as_xyz
  1  'x, y, z'
loop_
 _atom_site_type_symbol
 _atom_site_label
 _atom_site_symmetry_multiplicity
 _atom_site_fract_x
 _atom_site_fract_y
 _atom_site_fract_z
 _atom_site_occupancy
  Y  Y0  1  0.750000  0.098116  0.683794  1
  Y  Y1  1  0.250000  0.901884  0.316206  1
  Y  Y2  1  0.250000  0.261363  0.897843  1
  Y  Y3  1  0.750000  0.738637  0.102157  1
  Tm  Tm4  1  0.750000  0.128341  0.124749  1
  Tm  Tm5  1  0.250000  0.871659  0.875251  1
  Ru  Ru6  1  0.750000  0.050706  0.908532  1
  Ru  Ru7  1  0.250000  0.949294  0.091468  1
  I  I8  1  0.250000  0.354280  0.636137  1
  I  I9  1  0.750000  0.645720  0.363863  1
  I  I10  1  0.750000  0.143715  0.392517  1
  I  I11  1  0.250000  0.856285  0.607483  1
  I  I12  1  0.250000  0.425594  0.133306  1
  I  I13  1  0.750000  0.574406  0.866694  1
