# generated using pymatgen
data_Er2Mn4Fe2Co6P7
_symmetry_space_group_name_H-M   'P 1'
_cell_length_a   9.03237103
_cell_length_b   9.02338091
_cell_length_c   3.60532700
_cell_angle_alpha   90.00000000
_cell_angle_beta   90.00000000
_cell_angle_gamma   119.80368114
_symmetry_Int_Tables_number   1
_chemical_formula_structural   Er2Mn4Fe2Co6P7
_chemical_formula_sum   'Er2 Mn4 Fe2 Co6 P7'
_cell_volume   254.97763950
_cell_formula_units_Z   1
loop_
 _symmetry_equiv_pos_site_id
 _symmetry_equiv_pos_as_xyz
  1  'x, y, z'
loop_
 _atom_site_type_symbol
 _atom_site_label
 _atom_site_symmetry_multiplicity
 _atom_site_fract_x
 _atom_site_fract_y
 _atom_site_fract_z
 _atom_site_occupancy
  Er  Er0  1  0.001310  0.000895  0.000000  1
  Er  Er1  1  0.333780  0.666056  0.500000  1
  Mn  Mn2  1  0.821994  0.213871  0.000000  1
  Mn  Mn3  1  0.894061  0.457350  0.500000  1
  Mn  Mn4  1  0.541111  0.435890  0.500000  1
  Mn  Mn5  1  0.560149  0.104641  0.500000  1
  Fe  Fe6  1  0.786900  0.610273  0.000000  1
  Fe  Fe7  1  0.390528  0.176300  0.000000  1
  Co  Co8  1  0.097984  0.703965  0.000000  1
  Co  Co9  1  0.297122  0.394663  0.000000  1
  Co  Co10  1  0.604552  0.901021  0.000000  1
  Co  Co11  1  0.055770  0.282855  0.500000  1
  Co  Co12  1  0.718061  0.771481  0.500000  1
  Co  Co13  1  0.227814  0.945163  0.500000  1
  P  P14  1  0.078154  0.445176  0.000000  1
  P  P15  1  0.554903  0.630683  0.000000  1
  P  P16  1  0.365833  0.920941  0.000000  1
  P  P17  1  0.786766  0.046290  0.500000  1
  P  P18  1  0.953523  0.739516  0.500000  1
  P  P19  1  0.265150  0.218243  0.500000  1
  P  P20  1  0.664533  0.334729  0.000000  1
