# generated using pymatgen
data_Zr4HgAuN2
_symmetry_space_group_name_H-M   'P 1'
_cell_length_a   9.04458352
_cell_length_b   9.04458446
_cell_length_c   4.66210000
_cell_angle_alpha   90.00000000
_cell_angle_beta   90.00000000
_cell_angle_gamma   159.37222138
_symmetry_Int_Tables_number   1
_chemical_formula_structural   Zr4HgAuN2
_chemical_formula_sum   'Zr4 Hg1 Au1 N2'
_cell_volume   134.35869986
_cell_formula_units_Z   1
loop_
 _symmetry_equiv_pos_site_id
 _symmetry_equiv_pos_as_xyz
  1  'x, y, z'
loop_
 _atom_site_type_symbol
 _atom_site_label
 _atom_site_symmetry_multiplicity
 _atom_site_fract_x
 _atom_site_fract_y
 _atom_site_fract_z
 _atom_site_occupancy
  Zr  Zr0  1  0.787546  0.212456  0.250000  1
  Zr  Zr1  1  0.611783  0.388218  0.250000  1
  Zr  Zr2  1  0.387841  0.612160  0.750000  1
  Zr  Zr3  1  0.211696  0.788306  0.750000  1
  Hg  Hg4  1  0.955226  0.044775  0.250000  1
  Au  Au5  1  0.046871  0.953130  0.750000  1
  N  N6  1  0.199147  0.800855  0.250000  1
  N  N7  1  0.799896  0.200106  0.750000  1
