# generated using pymatgen
data_Dy10Cd3In5Au4
_symmetry_space_group_name_H-M   'P 1'
_cell_length_a   3.62376900
_cell_length_b   8.21022722
_cell_length_c   18.45920500
_cell_angle_alpha   89.94188232
_cell_angle_beta   90.00000000
_cell_angle_gamma   90.00000000
_symmetry_Int_Tables_number   1
_chemical_formula_structural   Dy10Cd3In5Au4
_chemical_formula_sum   'Dy10 Cd3 In5 Au4'
_cell_volume   549.19737356
_cell_formula_units_Z   1
loop_
 _symmetry_equiv_pos_site_id
 _symmetry_equiv_pos_as_xyz
  1  'x, y, z'
loop_
 _atom_site_type_symbol
 _atom_site_label
 _atom_site_symmetry_multiplicity
 _atom_site_fract_x
 _atom_site_fract_y
 _atom_site_fract_z
 _atom_site_occupancy
  Dy  Dy0  1  0.000000  0.501355  0.499437  1
  Dy  Dy1  1  0.000000  0.999976  0.999882  1
  Dy  Dy2  1  0.000000  0.739415  0.283582  1
  Dy  Dy3  1  0.000000  0.262102  0.717179  1
  Dy  Dy4  1  0.000000  0.760572  0.784197  1
  Dy  Dy5  1  0.000000  0.238223  0.216182  1
  Dy  Dy6  1  0.000000  0.615817  0.080399  1
  Dy  Dy7  1  0.000000  0.385988  0.919737  1
  Dy  Dy8  1  0.000000  0.880865  0.580190  1
  Dy  Dy9  1  0.000000  0.114928  0.420256  1
  Cd  Cd10  1  0.500000  0.711478  0.933475  1
  Cd  Cd11  1  0.500000  0.289079  0.066466  1
  Cd  Cd12  1  0.500000  0.787998  0.432897  1
  In  In13  1  0.500000  0.210564  0.566242  1
  In  In14  1  0.500000  0.579815  0.645862  1
  In  In15  1  0.500000  0.422025  0.353749  1
  In  In16  1  0.500000  0.922279  0.145349  1
  In  In17  1  0.500000  0.078743  0.854271  1
  Au  Au18  1  0.500000  0.525924  0.197249  1
  Au  Au19  1  0.500000  0.473694  0.802846  1
  Au  Au20  1  0.500000  0.972792  0.697583  1
  Au  Au21  1  0.500000  0.026369  0.302964  1
