# generated using pymatgen
data_NdU2(GaIr)3
_symmetry_space_group_name_H-M   'P 1'
_cell_length_a   7.22440218
_cell_length_b   7.22440312
_cell_length_c   3.94783500
_cell_angle_alpha   90.00000000
_cell_angle_beta   90.00000000
_cell_angle_gamma   121.16425229
_symmetry_Int_Tables_number   1
_chemical_formula_structural   NdU2(GaIr)3
_chemical_formula_sum   'Nd1 U2 Ga3 Ir3'
_cell_volume   176.31041385
_cell_formula_units_Z   1
loop_
 _symmetry_equiv_pos_site_id
 _symmetry_equiv_pos_as_xyz
  1  'x, y, z'
loop_
 _atom_site_type_symbol
 _atom_site_label
 _atom_site_symmetry_multiplicity
 _atom_site_fract_x
 _atom_site_fract_y
 _atom_site_fract_z
 _atom_site_occupancy
  Nd  Nd0  1  0.412834  0.412834  0.500000  1
  U  U1  1  0.586484  0.003969  0.500000  1
  U  U2  1  0.003969  0.586484  0.500000  1
  Ga  Ga3  1  0.745133  0.745133  0.000000  1
  Ga  Ga4  1  0.241377  0.007955  0.000000  1
  Ga  Ga5  1  0.007955  0.241377  0.000000  1
  Ir  Ir6  1  0.697915  0.330018  0.000000  1
  Ir  Ir7  1  0.330018  0.697915  0.000000  1
  Ir  Ir8  1  0.974315  0.974315  0.500000  1
