# generated using pymatgen
data_Hf18Mo8PtS
_symmetry_space_group_name_H-M   'P 1'
_cell_length_a   8.70722000
_cell_length_b   8.70721888
_cell_length_c   8.56782400
_cell_angle_alpha   90.00000000
_cell_angle_beta   90.00000000
_cell_angle_gamma   119.99999666
_symmetry_Int_Tables_number   1
_chemical_formula_structural   Hf18Mo8PtS
_chemical_formula_sum   'Hf18 Mo8 Pt1 S1'
_cell_volume   562.54874791
_cell_formula_units_Z   1
loop_
 _symmetry_equiv_pos_site_id
 _symmetry_equiv_pos_as_xyz
  1  'x, y, z'
loop_
 _atom_site_type_symbol
 _atom_site_label
 _atom_site_symmetry_multiplicity
 _atom_site_fract_x
 _atom_site_fract_y
 _atom_site_fract_z
 _atom_site_occupancy
  Hf  Hf0  1  0.196322  0.803678  0.449192  1
  Hf  Hf1  1  0.196322  0.392645  0.449192  1
  Hf  Hf2  1  0.607355  0.803678  0.449192  1
  Hf  Hf3  1  0.802914  0.197086  0.549673  1
  Hf  Hf4  1  0.802914  0.605828  0.549673  1
  Hf  Hf5  1  0.394172  0.197086  0.549673  1
  Hf  Hf6  1  0.802914  0.197086  0.950327  1
  Hf  Hf7  1  0.802914  0.605828  0.950327  1
  Hf  Hf8  1  0.394172  0.197086  0.950327  1
  Hf  Hf9  1  0.196322  0.803678  0.050808  1
  Hf  Hf10  1  0.196322  0.392645  0.050808  1
  Hf  Hf11  1  0.607355  0.803678  0.050808  1
  Hf  Hf12  1  0.542928  0.457072  0.250000  1
  Hf  Hf13  1  0.542928  0.085856  0.250000  1
  Hf  Hf14  1  0.914144  0.457072  0.250000  1
  Hf  Hf15  1  0.455869  0.544131  0.750000  1
  Hf  Hf16  1  0.455869  0.911738  0.750000  1
  Hf  Hf17  1  0.088262  0.544131  0.750000  1
  Mo  Mo18  1  0.887940  0.112060  0.250000  1
  Mo  Mo19  1  0.887940  0.775880  0.250000  1
  Mo  Mo20  1  0.224120  0.112060  0.250000  1
  Mo  Mo21  1  0.110515  0.889485  0.750000  1
  Mo  Mo22  1  0.110515  0.221030  0.750000  1
  Mo  Mo23  1  0.778970  0.889485  0.750000  1
  Mo  Mo24  1  0.000000  0.000000  0.498313  1
  Mo  Mo25  1  0.000000  0.000000  0.001687  1
  Pt  Pt26  1  0.333333  0.666667  0.250000  1
  S  S27  1  0.666667  0.333333  0.750000  1
