# generated using pymatgen
data_MgGa2(FeRh2)3
_symmetry_space_group_name_H-M   'P 1'
_cell_length_a   4.29544803
_cell_length_b   6.05223006
_cell_length_c   12.88895204
_cell_angle_alpha   90.00851222
_cell_angle_beta   90.00118306
_cell_angle_gamma   89.98680102
_symmetry_Int_Tables_number   1
_chemical_formula_structural   MgGa2(FeRh2)3
_chemical_formula_sum   'Mg2 Ga4 Fe6 Rh12'
_cell_volume   335.07458469
_cell_formula_units_Z   2
loop_
 _symmetry_equiv_pos_site_id
 _symmetry_equiv_pos_as_xyz
  1  'x, y, z'
loop_
 _atom_site_type_symbol
 _atom_site_label
 _atom_site_symmetry_multiplicity
 _atom_site_fract_x
 _atom_site_fract_y
 _atom_site_fract_z
 _atom_site_occupancy
  Mg  Mg0  1  0.000012  0.999993  0.999553  1
  Mg  Mg1  1  0.499848  0.500014  0.167071  1
  Ga  Ga2  1  0.999829  0.999990  0.334134  1
  Ga  Ga3  1  0.500002  0.500012  0.500179  1
  Ga  Ga4  1  0.000161  0.999983  0.666464  1
  Ga  Ga5  1  0.500183  0.500007  0.832607  1
  Fe  Fe6  1  0.999983  0.500022  0.002198  1
  Fe  Fe7  1  0.499858  0.999994  0.164493  1
  Fe  Fe8  1  0.999855  0.500007  0.331885  1
  Fe  Fe9  1  0.500006  0.999986  0.500689  1
  Fe  Fe10  1  0.000144  0.500009  0.665993  1
  Fe  Fe11  1  0.500139  0.999991  0.834737  1
  Rh  Rh12  1  0.499968  0.252696  0.997014  1
  Rh  Rh13  1  0.500051  0.747299  0.997019  1
  Rh  Rh14  1  0.999882  0.247055  0.169641  1
  Rh  Rh15  1  0.999803  0.752954  0.169636  1
  Rh  Rh16  1  0.499781  0.246980  0.336884  1
  Rh  Rh17  1  0.499903  0.753024  0.336884  1
  Rh  Rh18  1  0.000067  0.250492  0.500758  1
  Rh  Rh19  1  0.999930  0.749487  0.500756  1
  Rh  Rh20  1  0.500069  0.249442  0.665933  1
  Rh  Rh21  1  0.500211  0.750570  0.665936  1
  Rh  Rh22  1  0.000224  0.252931  0.829768  1
  Rh  Rh23  1  0.000104  0.747058  0.829768  1
