# generated using pymatgen
data_DyLu(Pa2Ga5)2
_symmetry_space_group_name_H-M   'P 1'
_cell_length_a   6.04920800
_cell_length_b   9.49489000
_cell_length_c   11.68777600
_cell_angle_alpha   90.00000000
_cell_angle_beta   90.00000000
_cell_angle_gamma   90.00000000
_symmetry_Int_Tables_number   1
_chemical_formula_structural   DyLu(Pa2Ga5)2
_chemical_formula_sum   'Dy2 Lu2 Pa8 Ga20'
_cell_volume   671.30570064
_cell_formula_units_Z   2
loop_
 _symmetry_equiv_pos_site_id
 _symmetry_equiv_pos_as_xyz
  1  'x, y, z'
loop_
 _atom_site_type_symbol
 _atom_site_label
 _atom_site_symmetry_multiplicity
 _atom_site_fract_x
 _atom_site_fract_y
 _atom_site_fract_z
 _atom_site_occupancy
  Dy  Dy0  1  0.140627  0.250000  0.928018  1
  Dy  Dy1  1  0.359373  0.250000  0.428018  1
  Lu  Lu2  1  0.858577  0.750000  0.072555  1
  Lu  Lu3  1  0.641423  0.750000  0.572555  1
  Pa  Pa4  1  0.878746  0.501375  0.352139  1
  Pa  Pa5  1  0.621254  0.998625  0.852139  1
  Pa  Pa6  1  0.120974  0.000613  0.648006  1
  Pa  Pa7  1  0.379026  0.499387  0.148006  1
  Pa  Pa8  1  0.120974  0.499387  0.648006  1
  Pa  Pa9  1  0.379026  0.000613  0.148006  1
  Pa  Pa10  1  0.878746  0.998625  0.352139  1
  Pa  Pa11  1  0.621254  0.501375  0.852139  1
  Ga  Ga12  1  0.870348  0.050563  0.090860  1
  Ga  Ga13  1  0.629652  0.449437  0.590860  1
  Ga  Ga14  1  0.129192  0.553139  0.909346  1
  Ga  Ga15  1  0.370808  0.946861  0.409346  1
  Ga  Ga16  1  0.129192  0.946861  0.909346  1
  Ga  Ga17  1  0.370808  0.553139  0.409346  1
  Ga  Ga18  1  0.870348  0.449437  0.090860  1
  Ga  Ga19  1  0.629652  0.050563  0.590860  1
  Ga  Ga20  1  0.151653  0.750000  0.264339  1
  Ga  Ga21  1  0.348347  0.750000  0.764339  1
  Ga  Ga22  1  0.846751  0.250000  0.734477  1
  Ga  Ga23  1  0.653249  0.250000  0.234477  1
  Ga  Ga24  1  0.395703  0.750000  0.994476  1
  Ga  Ga25  1  0.104297  0.750000  0.494476  1
  Ga  Ga26  1  0.607148  0.250000  0.006023  1
  Ga  Ga27  1  0.892852  0.250000  0.506023  1
  Ga  Ga28  1  0.596555  0.750000  0.291498  1
  Ga  Ga29  1  0.903445  0.750000  0.791498  1
  Ga  Ga30  1  0.403939  0.250000  0.707914  1
  Ga  Ga31  1  0.096061  0.250000  0.207914  1
