# generated using pymatgen
data_Gd3Ho5Tc3B24Ru
_symmetry_space_group_name_H-M   'P 1'
_cell_length_a   3.68498000
_cell_length_b   9.16354660
_cell_length_c   11.55950503
_cell_angle_alpha   89.92588157
_cell_angle_beta   90.00000000
_cell_angle_gamma   90.00000000
_symmetry_Int_Tables_number   1
_chemical_formula_structural   Gd3Ho5Tc3B24Ru
_chemical_formula_sum   'Gd3 Ho5 Tc3 B24 Ru1'
_cell_volume   390.33509744
_cell_formula_units_Z   1
loop_
 _symmetry_equiv_pos_site_id
 _symmetry_equiv_pos_as_xyz
  1  'x, y, z'
loop_
 _atom_site_type_symbol
 _atom_site_label
 _atom_site_symmetry_multiplicity
 _atom_site_fract_x
 _atom_site_fract_y
 _atom_site_fract_z
 _atom_site_occupancy
  Gd  Gd0  1  0.000000  0.323194  0.414045  1
  Gd  Gd1  1  0.000000  0.675344  0.584232  1
  Gd  Gd2  1  0.000000  0.823053  0.087064  1
  Ho  Ho3  1  0.000000  0.177988  0.914886  1
  Ho  Ho4  1  0.000000  0.942605  0.369606  1
  Ho  Ho5  1  0.000000  0.057972  0.631061  1
  Ho  Ho6  1  0.000000  0.442790  0.130221  1
  Ho  Ho7  1  0.000000  0.557848  0.869027  1
  Tc  Tc8  1  0.000000  0.638613  0.320246  1
  Tc  Tc9  1  0.000000  0.360994  0.680874  1
  Tc  Tc10  1  0.000000  0.138153  0.178336  1
  B  B11  1  0.500000  0.553284  0.432293  1
  B  B12  1  0.500000  0.446152  0.567744  1
  B  B13  1  0.500000  0.053694  0.066572  1
  B  B14  1  0.500000  0.946405  0.932385  1
  B  B15  1  0.500000  0.748754  0.418027  1
  B  B16  1  0.500000  0.250585  0.582574  1
  B  B17  1  0.500000  0.249421  0.080970  1
  B  B18  1  0.500000  0.751657  0.917668  1
  B  B19  1  0.500000  0.791402  0.265248  1
  B  B20  1  0.500000  0.208266  0.736122  1
  B  B21  1  0.500000  0.291275  0.234139  1
  B  B22  1  0.500000  0.709799  0.765278  1
  B  B23  1  0.500000  0.630560  0.185400  1
  B  B24  1  0.500000  0.369109  0.815634  1
  B  B25  1  0.500000  0.130215  0.313775  1
  B  B26  1  0.500000  0.869610  0.685889  1
  B  B27  1  0.500000  0.982367  0.211537  1
  B  B28  1  0.500000  0.017168  0.788601  1
  B  B29  1  0.500000  0.482526  0.287549  1
  B  B30  1  0.500000  0.517120  0.712193  1
  B  B31  1  0.500000  0.600603  0.027537  1
  B  B32  1  0.500000  0.399751  0.971798  1
  B  B33  1  0.500000  0.099756  0.472605  1
  B  B34  1  0.500000  0.899942  0.528266  1
  Ru  Ru35  1  0.000000  0.862026  0.820601  1
