# generated using pymatgen
data_Ce(ZnCu2)2
_symmetry_space_group_name_H-M   'P 1'
_cell_length_a   5.24297117
_cell_length_b   5.24297187
_cell_length_c   5.24297119
_cell_angle_alpha   103.53185456
_cell_angle_beta   103.53185160
_cell_angle_gamma   122.14259228
_symmetry_Int_Tables_number   1
_chemical_formula_structural   Ce(ZnCu2)2
_chemical_formula_sum   'Ce1 Zn2 Cu4'
_cell_volume   106.80561496
_cell_formula_units_Z   1
loop_
 _symmetry_equiv_pos_site_id
 _symmetry_equiv_pos_as_xyz
  1  'x, y, z'
loop_
 _atom_site_type_symbol
 _atom_site_label
 _atom_site_symmetry_multiplicity
 _atom_site_fract_x
 _atom_site_fract_y
 _atom_site_fract_z
 _atom_site_occupancy
  Ce  Ce0  1  0.000000  0.000000  0.000000  1
  Zn  Zn1  1  0.250000  0.750000  0.500000  1
  Zn  Zn2  1  0.750000  0.250000  0.500000  1
  Cu  Cu3  1  0.309946  0.309946  0.619893  1
  Cu  Cu4  1  0.690054  0.690054  0.380107  1
  Cu  Cu5  1  0.690054  0.309946  0.000000  1
  Cu  Cu6  1  0.309946  0.690054  0.000000  1
