# generated using pymatgen
data_NdTh7(AlRu)8
_symmetry_space_group_name_H-M   'P 1'
_cell_length_a   4.14895800
_cell_length_b   7.30323924
_cell_length_c   16.18499724
_cell_angle_alpha   89.48173767
_cell_angle_beta   90.00000000
_cell_angle_gamma   90.00000000
_symmetry_Int_Tables_number   1
_chemical_formula_structural   NdTh7(AlRu)8
_chemical_formula_sum   'Nd1 Th7 Al8 Ru8'
_cell_volume   490.39883370
_cell_formula_units_Z   1
loop_
 _symmetry_equiv_pos_site_id
 _symmetry_equiv_pos_as_xyz
  1  'x, y, z'
loop_
 _atom_site_type_symbol
 _atom_site_label
 _atom_site_symmetry_multiplicity
 _atom_site_fract_x
 _atom_site_fract_y
 _atom_site_fract_z
 _atom_site_occupancy
  Nd  Nd0  1  0.250000  0.540349  0.717266  1
  Th  Th1  1  0.750000  0.958508  0.218025  1
  Th  Th2  1  0.250000  0.165597  0.562306  1
  Th  Th3  1  0.750000  0.834138  0.438936  1
  Th  Th4  1  0.750000  0.458726  0.282206  1
  Th  Th5  1  0.750000  0.334270  0.061221  1
  Th  Th6  1  0.250000  0.667084  0.937420  1
  Th  Th7  1  0.250000  0.039462  0.781754  1
  Al  Al8  1  0.750000  0.502403  0.564005  1
  Al  Al9  1  0.750000  0.366780  0.848199  1
  Al  Al10  1  0.750000  0.006182  0.938503  1
  Al  Al11  1  0.750000  0.861148  0.648969  1
  Al  Al12  1  0.250000  0.497142  0.438671  1
  Al  Al13  1  0.250000  0.996757  0.061196  1
  Al  Al14  1  0.250000  0.636084  0.149061  1
  Al  Al15  1  0.250000  0.136774  0.351552  1
  Ru  Ru16  1  0.750000  0.754365  0.821201  1
  Ru  Ru17  1  0.250000  0.241686  0.935249  1
  Ru  Ru18  1  0.750000  0.261916  0.436037  1
  Ru  Ru19  1  0.250000  0.756123  0.315063  1
  Ru  Ru20  1  0.750000  0.761405  0.065004  1
  Ru  Ru21  1  0.750000  0.228090  0.683375  1
  Ru  Ru22  1  0.250000  0.252639  0.183913  1
  Ru  Ru23  1  0.250000  0.742371  0.560866  1
