# generated using pymatgen
data_Tb6Er10Co3Ag4Ir
_symmetry_space_group_name_H-M   'P 1'
_cell_length_a   9.41364875
_cell_length_b   9.36520343
_cell_length_c   9.36520300
_cell_angle_alpha   59.99999800
_cell_angle_beta   60.17009022
_cell_angle_gamma   60.17009150
_symmetry_Int_Tables_number   1
_chemical_formula_structural   Tb6Er10Co3Ag4Ir
_chemical_formula_sum   'Tb6 Er10 Co3 Ag4 Ir1'
_cell_volume   585.31433748
_cell_formula_units_Z   1
loop_
 _symmetry_equiv_pos_site_id
 _symmetry_equiv_pos_as_xyz
  1  'x, y, z'
loop_
 _atom_site_type_symbol
 _atom_site_label
 _atom_site_symmetry_multiplicity
 _atom_site_fract_x
 _atom_site_fract_y
 _atom_site_fract_z
 _atom_site_occupancy
  Tb  Tb0  1  0.187461  0.812325  0.812325  1
  Tb  Tb1  1  0.811892  0.188806  0.188806  1
  Tb  Tb2  1  0.811892  0.188806  0.810497  1
  Tb  Tb3  1  0.187461  0.812325  0.187889  1
  Tb  Tb4  1  0.811892  0.810497  0.188806  1
  Tb  Tb5  1  0.187461  0.187889  0.812325  1
  Er  Er6  1  0.592498  0.602135  0.602135  1
  Er  Er7  1  0.592498  0.602135  0.203234  1
  Er  Er8  1  0.592498  0.203234  0.602135  1
  Er  Er9  1  0.208931  0.597023  0.597023  1
  Er  Er10  1  0.067530  0.438013  0.438013  1
  Er  Er11  1  0.437811  0.062478  0.062478  1
  Er  Er12  1  0.437811  0.062478  0.437235  1
  Er  Er13  1  0.067530  0.438013  0.056444  1
  Er  Er14  1  0.437811  0.437235  0.062478  1
  Er  Er15  1  0.067530  0.056444  0.438013  1
  Co  Co16  1  0.391332  0.391349  0.391349  1
  Co  Co17  1  0.391332  0.391349  0.825971  1
  Co  Co18  1  0.391332  0.825971  0.391349  1
  Ag  Ag19  1  0.830812  0.830315  0.830315  1
  Ag  Ag20  1  0.830812  0.830315  0.508559  1
  Ag  Ag21  1  0.830812  0.508559  0.830315  1
  Ag  Ag22  1  0.508401  0.830533  0.830533  1
  Ir  Ir23  1  0.824665  0.391778  0.391778  1
