# generated using pymatgen
data_Y8Re9Si16Mo3
_symmetry_space_group_name_H-M   'P 1'
_cell_length_a   6.78312328
_cell_length_b   6.78312272
_cell_length_c   12.92139504
_cell_angle_alpha   90.03559509
_cell_angle_beta   90.03559348
_cell_angle_gamma   89.94659823
_symmetry_Int_Tables_number   1
_chemical_formula_structural   Y8Re9Si16Mo3
_chemical_formula_sum   'Y8 Re9 Si16 Mo3'
_cell_volume   594.52268831
_cell_formula_units_Z   1
loop_
 _symmetry_equiv_pos_site_id
 _symmetry_equiv_pos_as_xyz
  1  'x, y, z'
loop_
 _atom_site_type_symbol
 _atom_site_label
 _atom_site_symmetry_multiplicity
 _atom_site_fract_x
 _atom_site_fract_y
 _atom_site_fract_z
 _atom_site_occupancy
  Y  Y0  1  0.010578  0.667476  0.030701  1
  Y  Y1  1  0.988687  0.332672  0.531513  1
  Y  Y2  1  0.332524  0.989422  0.469299  1
  Y  Y3  1  0.164383  0.490758  0.780085  1
  Y  Y4  1  0.834502  0.507728  0.280125  1
  Y  Y5  1  0.492272  0.165498  0.219875  1
  Y  Y6  1  0.509242  0.835617  0.719915  1
  Y  Y7  1  0.667328  0.011313  0.968487  1
  Re  Re8  1  0.007853  0.809532  0.630954  1
  Re  Re9  1  0.992801  0.187496  0.129612  1
  Re  Re10  1  0.812504  0.007199  0.370388  1
  Re  Re11  1  0.310094  0.487341  0.381738  1
  Re  Re12  1  0.690395  0.516424  0.882125  1
  Re  Re13  1  0.483576  0.309605  0.617875  1
  Re  Re14  1  0.512659  0.689906  0.118262  1
  Re  Re15  1  0.190468  0.992147  0.869046  1
  Re  Re16  1  0.838262  0.161738  0.750000  1
  Si  Si17  1  0.017652  0.719426  0.439650  1
  Si  Si18  1  0.612700  0.299717  0.432588  1
  Si  Si19  1  0.387601  0.700184  0.932169  1
  Si  Si20  1  0.195170  0.109462  0.683011  1
  Si  Si21  1  0.299816  0.612399  0.567831  1
  Si  Si22  1  0.700283  0.387300  0.067412  1
  Si  Si23  1  0.802264  0.887780  0.182954  1
  Si  Si24  1  0.112220  0.197736  0.317046  1
  Si  Si25  1  0.982213  0.279350  0.938360  1
  Si  Si26  1  0.720650  0.017787  0.561640  1
  Si  Si27  1  0.225329  0.482483  0.189499  1
  Si  Si28  1  0.770854  0.513616  0.690875  1
  Si  Si29  1  0.486384  0.229146  0.809125  1
  Si  Si30  1  0.517517  0.774671  0.310501  1
  Si  Si31  1  0.280574  0.982348  0.060350  1
  Si  Si32  1  0.890538  0.804830  0.816989  1
  Mo  Mo33  1  0.659687  0.660714  0.500000  1
  Mo  Mo34  1  0.161135  0.838865  0.250000  1
  Mo  Mo35  1  0.339286  0.340313  0.000000  1
