# generated using pymatgen
data_PrDy5(WO7)2
_symmetry_space_group_name_H-M   'P 1'
_cell_length_a   6.50464577
_cell_length_b   6.50464573
_cell_length_c   7.56195944
_cell_angle_alpha   89.92469676
_cell_angle_beta   90.07530363
_cell_angle_gamma   109.08561581
_symmetry_Int_Tables_number   1
_chemical_formula_structural   PrDy5(WO7)2
_chemical_formula_sum   'Pr1 Dy5 W2 O14'
_cell_volume   302.36195600
_cell_formula_units_Z   1
loop_
 _symmetry_equiv_pos_site_id
 _symmetry_equiv_pos_as_xyz
  1  'x, y, z'
loop_
 _atom_site_type_symbol
 _atom_site_label
 _atom_site_symmetry_multiplicity
 _atom_site_fract_x
 _atom_site_fract_y
 _atom_site_fract_z
 _atom_site_occupancy
  Pr  Pr0  1  0.503916  0.503916  0.250000  1
  Dy  Dy1  1  0.478106  0.478106  0.750000  1
  Dy  Dy2  1  0.997636  0.467515  0.500522  1
  Dy  Dy3  1  0.534023  0.000821  0.505324  1
  Dy  Dy4  1  0.000821  0.534023  0.994676  1
  Dy  Dy5  1  0.467515  0.997636  0.999478  1
  W  W6  1  0.000452  0.000452  0.250000  1
  W  W7  1  0.999411  0.999411  0.750000  1
  O  O8  1  0.070666  0.320476  0.217989  1
  O  O9  1  0.683868  0.935668  0.781943  1
  O  O10  1  0.935668  0.683868  0.718057  1
  O  O11  1  0.320476  0.070666  0.282011  1
  O  O12  1  0.677635  0.926144  0.221639  1
  O  O13  1  0.080069  0.324047  0.777731  1
  O  O14  1  0.324047  0.080069  0.722269  1
  O  O15  1  0.926144  0.677635  0.278361  1
  O  O16  1  0.364614  0.634370  0.509839  1
  O  O17  1  0.634370  0.364614  0.990161  1
  O  O18  1  0.360493  0.639052  0.990165  1
  O  O19  1  0.639052  0.360493  0.509835  1
  O  O20  1  0.926794  0.074225  0.499646  1
  O  O21  1  0.074225  0.926794  0.000354  1
