# generated using pymatgen
data_Ca2Zn14Co3
_symmetry_space_group_name_H-M   'P 1'
_cell_length_a   6.71736686
_cell_length_b   6.71736731
_cell_length_c   6.71736639
_cell_angle_alpha   82.91955181
_cell_angle_beta   82.91955677
_cell_angle_gamma   82.91954349
_symmetry_Int_Tables_number   1
_chemical_formula_structural   Ca2Zn14Co3
_chemical_formula_sum   'Ca2 Zn14 Co3'
_cell_volume   296.69978140
_cell_formula_units_Z   1
loop_
 _symmetry_equiv_pos_site_id
 _symmetry_equiv_pos_as_xyz
  1  'x, y, z'
loop_
 _atom_site_type_symbol
 _atom_site_label
 _atom_site_symmetry_multiplicity
 _atom_site_fract_x
 _atom_site_fract_y
 _atom_site_fract_z
 _atom_site_occupancy
  Ca  Ca0  1  0.660813  0.660813  0.660813  1
  Ca  Ca1  1  0.339187  0.339187  0.339187  1
  Zn  Zn2  1  0.344391  0.344391  0.857313  1
  Zn  Zn3  1  0.857313  0.344391  0.344391  1
  Zn  Zn4  1  0.107241  0.107241  0.107241  1
  Zn  Zn5  1  0.892759  0.892759  0.892759  1
  Zn  Zn6  1  0.290012  0.709988  0.000000  1
  Zn  Zn7  1  0.709988  0.000000  0.290012  1
  Zn  Zn8  1  0.000000  0.290012  0.709988  1
  Zn  Zn9  1  0.709988  0.290012  0.000000  1
  Zn  Zn10  1  0.290012  0.000000  0.709988  1
  Zn  Zn11  1  0.000000  0.709988  0.290012  1
  Zn  Zn12  1  0.142687  0.655609  0.655609  1
  Zn  Zn13  1  0.655609  0.655609  0.142687  1
  Zn  Zn14  1  0.655609  0.142687  0.655609  1
  Zn  Zn15  1  0.344391  0.857313  0.344391  1
  Co  Co16  1  0.000000  0.000000  0.500000  1
  Co  Co17  1  0.000000  0.500000  0.000000  1
  Co  Co18  1  0.500000  0.000000  0.000000  1
