# generated using pymatgen
data_Nb6Co4W2CN
_symmetry_space_group_name_H-M   'P 1'
_cell_length_a   8.18316532
_cell_length_b   8.18316526
_cell_length_c   8.17553400
_cell_angle_alpha   60.03083584
_cell_angle_beta   60.03083608
_cell_angle_gamma   60.07218086
_symmetry_Int_Tables_number   1
_chemical_formula_structural   Nb6Co4W2CN
_chemical_formula_sum   'Nb12 Co8 W4 C2 N2'
_cell_volume   387.50972944
_cell_formula_units_Z   2
loop_
 _symmetry_equiv_pos_site_id
 _symmetry_equiv_pos_as_xyz
  1  'x, y, z'
loop_
 _atom_site_type_symbol
 _atom_site_label
 _atom_site_symmetry_multiplicity
 _atom_site_fract_x
 _atom_site_fract_y
 _atom_site_fract_z
 _atom_site_occupancy
  Nb  Nb0  1  0.807971  0.807971  0.192029  1
  Nb  Nb1  1  0.189712  0.189712  0.810288  1
  Nb  Nb2  1  0.809453  0.190275  0.808737  1
  Nb  Nb3  1  0.190275  0.809453  0.191535  1
  Nb  Nb4  1  0.190275  0.809453  0.808737  1
  Nb  Nb5  1  0.809453  0.190275  0.191535  1
  Nb  Nb6  1  0.442029  0.442029  0.057971  1
  Nb  Nb7  1  0.060288  0.060288  0.439712  1
  Nb  Nb8  1  0.440547  0.059725  0.441263  1
  Nb  Nb9  1  0.059725  0.440547  0.058465  1
  Nb  Nb10  1  0.059725  0.440547  0.441263  1
  Nb  Nb11  1  0.440547  0.059725  0.058465  1
  Co  Co12  1  0.730782  0.422629  0.423295  1
  Co  Co13  1  0.422629  0.730782  0.423295  1
  Co  Co14  1  0.422815  0.422815  0.730909  1
  Co  Co15  1  0.422815  0.422815  0.423462  1
  Co  Co16  1  0.519218  0.827371  0.826705  1
  Co  Co17  1  0.827371  0.519218  0.826705  1
  Co  Co18  1  0.827185  0.827185  0.519091  1
  Co  Co19  1  0.827185  0.827185  0.826538  1
  W  W20  1  0.125000  0.625000  0.625000  1
  W  W21  1  0.625000  0.125000  0.625000  1
  W  W22  1  0.625000  0.625000  0.125000  1
  W  W23  1  0.625000  0.625000  0.625000  1
  C  C24  1  0.625000  0.125000  0.125000  1
  C  C25  1  0.125000  0.625000  0.125000  1
  N  N26  1  0.125000  0.125000  0.625000  1
  N  N27  1  0.125000  0.125000  0.125000  1
