# generated using pymatgen
data_Dy3Tm2ThGa4
_symmetry_space_group_name_H-M   'P 1'
_cell_length_a   7.61199555
_cell_length_b   7.61199555
_cell_length_c   4.38140100
_cell_angle_alpha   90.00000000
_cell_angle_beta   90.00000000
_cell_angle_gamma   89.45040369
_symmetry_Int_Tables_number   1
_chemical_formula_structural   Dy3Tm2ThGa4
_chemical_formula_sum   'Dy3 Tm2 Th1 Ga4'
_cell_volume   253.85754396
_cell_formula_units_Z   1
loop_
 _symmetry_equiv_pos_site_id
 _symmetry_equiv_pos_as_xyz
  1  'x, y, z'
loop_
 _atom_site_type_symbol
 _atom_site_label
 _atom_site_symmetry_multiplicity
 _atom_site_fract_x
 _atom_site_fract_y
 _atom_site_fract_z
 _atom_site_occupancy
  Dy  Dy0  1  0.676575  0.176575  0.500000  1
  Dy  Dy1  1  0.175247  0.325219  0.500000  1
  Dy  Dy2  1  0.825219  0.675247  0.500000  1
  Tm  Tm3  1  0.997512  0.002488  0.000000  1
  Tm  Tm4  1  0.502488  0.497512  0.000000  1
  Th  Th5  1  0.325710  0.825710  0.500000  1
  Ga  Ga6  1  0.877926  0.377926  0.000000  1
  Ga  Ga7  1  0.378866  0.123209  0.000000  1
  Ga  Ga8  1  0.623209  0.878866  0.000000  1
  Ga  Ga9  1  0.117248  0.617248  0.000000  1
