# generated using pymatgen
data_Dy2Mn9TcP6
_symmetry_space_group_name_H-M   'P 1'
_cell_length_a   3.68041000
_cell_length_b   10.65100600
_cell_length_c   12.16688200
_cell_angle_alpha   90.00000000
_cell_angle_beta   90.00000000
_cell_angle_gamma   90.00000000
_symmetry_Int_Tables_number   1
_chemical_formula_structural   Dy2Mn9TcP6
_chemical_formula_sum   'Dy4 Mn18 Tc2 P12'
_cell_volume   476.94261382
_cell_formula_units_Z   2
loop_
 _symmetry_equiv_pos_site_id
 _symmetry_equiv_pos_as_xyz
  1  'x, y, z'
loop_
 _atom_site_type_symbol
 _atom_site_label
 _atom_site_symmetry_multiplicity
 _atom_site_fract_x
 _atom_site_fract_y
 _atom_site_fract_z
 _atom_site_occupancy
  Dy  Dy0  1  0.250000  0.589732  0.705523  1
  Dy  Dy1  1  0.250000  0.910268  0.205523  1
  Dy  Dy2  1  0.750000  0.413443  0.294060  1
  Dy  Dy3  1  0.750000  0.086557  0.794060  1
  Mn  Mn4  1  0.750000  0.286349  0.020270  1
  Mn  Mn5  1  0.750000  0.213651  0.520270  1
  Mn  Mn6  1  0.250000  0.408758  0.495860  1
  Mn  Mn7  1  0.250000  0.091242  0.995860  1
  Mn  Mn8  1  0.750000  0.587402  0.505728  1
  Mn  Mn9  1  0.750000  0.912598  0.005728  1
  Mn  Mn10  1  0.250000  0.210559  0.179513  1
  Mn  Mn11  1  0.250000  0.289441  0.679513  1
  Mn  Mn12  1  0.750000  0.790547  0.816848  1
  Mn  Mn13  1  0.750000  0.709453  0.316848  1
  Mn  Mn14  1  0.250000  0.884903  0.692862  1
  Mn  Mn15  1  0.250000  0.615097  0.192862  1
  Mn  Mn16  1  0.750000  0.118094  0.308393  1
  Mn  Mn17  1  0.750000  0.381906  0.808393  1
  Mn  Mn18  1  0.250000  0.465240  0.934083  1
  Mn  Mn19  1  0.250000  0.034760  0.434083  1
  Mn  Mn20  1  0.750000  0.531246  0.064058  1
  Mn  Mn21  1  0.750000  0.968754  0.564058  1
  Tc  Tc22  1  0.250000  0.712054  0.982523  1
  Tc  Tc23  1  0.250000  0.787946  0.482523  1
  P  P24  1  0.250000  0.411029  0.116136  1
  P  P25  1  0.250000  0.088971  0.616136  1
  P  P26  1  0.750000  0.588194  0.883652  1
  P  P27  1  0.750000  0.911806  0.383652  1
  P  P28  1  0.250000  0.263334  0.874780  1
  P  P29  1  0.250000  0.236666  0.374780  1
  P  P30  1  0.750000  0.733294  0.123756  1
  P  P31  1  0.750000  0.766706  0.623756  1
  P  P32  1  0.250000  0.591285  0.384707  1
  P  P33  1  0.250000  0.908715  0.884707  1
  P  P34  1  0.750000  0.408810  0.617251  1
  P  P35  1  0.750000  0.091190  0.117251  1
