# generated using pymatgen
data_Y2LuGa5Rh
_symmetry_space_group_name_H-M   'P 1'
_cell_length_a   6.87823182
_cell_length_b   6.87823314
_cell_length_c   4.31076500
_cell_angle_alpha   90.00000000
_cell_angle_beta   90.00000000
_cell_angle_gamma   119.54505916
_symmetry_Int_Tables_number   1
_chemical_formula_structural   Y2LuGa5Rh
_chemical_formula_sum   'Y2 Lu1 Ga5 Rh1'
_cell_volume   177.42361054
_cell_formula_units_Z   1
loop_
 _symmetry_equiv_pos_site_id
 _symmetry_equiv_pos_as_xyz
  1  'x, y, z'
loop_
 _atom_site_type_symbol
 _atom_site_label
 _atom_site_symmetry_multiplicity
 _atom_site_fract_x
 _atom_site_fract_y
 _atom_site_fract_z
 _atom_site_occupancy
  Y  Y0  1  0.586834  0.998828  0.000000  1
  Y  Y1  1  0.998828  0.586834  0.000000  1
  Lu  Lu2  1  0.407555  0.407555  0.000000  1
  Ga  Ga3  1  0.237721  0.998908  0.500000  1
  Ga  Ga4  1  0.998908  0.237721  0.500000  1
  Ga  Ga5  1  0.762781  0.762781  0.500000  1
  Ga  Ga6  1  0.334896  0.663611  0.500000  1
  Ga  Ga7  1  0.663611  0.334896  0.500000  1
  Rh  Rh8  1  0.008866  0.008866  0.000000  1
