# generated using pymatgen
data_Ho2Er2CrTc3B16
_symmetry_space_group_name_H-M   'P 1'
_cell_length_a   3.55287000
_cell_length_b   5.94368309
_cell_length_c   11.48798352
_cell_angle_alpha   89.90661183
_cell_angle_beta   90.00000000
_cell_angle_gamma   90.00000000
_symmetry_Int_Tables_number   1
_chemical_formula_structural   Ho2Er2CrTc3B16
_chemical_formula_sum   'Ho2 Er2 Cr1 Tc3 B16'
_cell_volume   242.59295746
_cell_formula_units_Z   1
loop_
 _symmetry_equiv_pos_site_id
 _symmetry_equiv_pos_as_xyz
  1  'x, y, z'
loop_
 _atom_site_type_symbol
 _atom_site_label
 _atom_site_symmetry_multiplicity
 _atom_site_fract_x
 _atom_site_fract_y
 _atom_site_fract_z
 _atom_site_occupancy
  Ho  Ho0  1  0.000000  0.127739  0.150328  1
  Ho  Ho1  1  0.000000  0.872467  0.848216  1
  Er  Er2  1  0.000000  0.625901  0.350623  1
  Er  Er3  1  0.000000  0.375113  0.649496  1
  Cr  Cr4  1  0.000000  0.871541  0.583234  1
  Tc  Tc5  1  0.000000  0.634050  0.088052  1
  Tc  Tc6  1  0.000000  0.365980  0.912001  1
  Tc  Tc7  1  0.000000  0.127811  0.416648  1
  B  B8  1  0.500000  0.786872  0.185978  1
  B  B9  1  0.500000  0.212676  0.813808  1
  B  B10  1  0.500000  0.286403  0.316007  1
  B  B11  1  0.500000  0.714956  0.683555  1
  B  B12  1  0.500000  0.864787  0.031208  1
  B  B13  1  0.500000  0.135403  0.968418  1
  B  B14  1  0.500000  0.364374  0.469077  1
  B  B15  1  0.500000  0.636406  0.532442  1
  B  B16  1  0.500000  0.884980  0.453544  1
  B  B17  1  0.500000  0.112904  0.548273  1
  B  B18  1  0.500000  0.386628  0.047270  1
  B  B19  1  0.500000  0.614011  0.952256  1
  B  B20  1  0.500000  0.976822  0.308286  1
  B  B21  1  0.500000  0.021441  0.691732  1
  B  B22  1  0.500000  0.475863  0.193186  1
  B  B23  1  0.500000  0.524872  0.806364  1
