# generated using pymatgen
data_Tb3HoAl24CuPd8
_symmetry_space_group_name_H-M   'P 1'
_cell_length_a   7.55207062
_cell_length_b   7.57295351
_cell_length_c   13.14440300
_cell_angle_alpha   84.58875517
_cell_angle_beta   79.01169711
_cell_angle_gamma   59.91301595
_symmetry_Int_Tables_number   1
_chemical_formula_structural   Tb3HoAl24CuPd8
_chemical_formula_sum   'Tb3 Ho1 Al24 Cu1 Pd8'
_cell_volume   638.53518161
_cell_formula_units_Z   1
loop_
 _symmetry_equiv_pos_site_id
 _symmetry_equiv_pos_as_xyz
  1  'x, y, z'
loop_
 _atom_site_type_symbol
 _atom_site_label
 _atom_site_symmetry_multiplicity
 _atom_site_fract_x
 _atom_site_fract_y
 _atom_site_fract_z
 _atom_site_occupancy
  Tb  Tb0  1  0.392392  0.169177  0.807880  1
  Tb  Tb1  1  0.606345  0.831872  0.191759  1
  Tb  Tb2  1  0.734719  0.498056  0.807726  1
  Ho  Ho3  1  0.266387  0.501629  0.192273  1
  Al  Al4  1  0.684447  0.833383  0.944914  1
  Al  Al5  1  0.315308  0.166558  0.055608  1
  Al  Al6  1  0.145640  0.834570  0.561765  1
  Al  Al7  1  0.854845  0.166770  0.436333  1
  Al  Al8  1  0.479547  0.167625  0.559924  1
  Al  Al9  1  0.520291  0.833787  0.439587  1
  Al  Al10  1  0.217269  0.165649  0.329652  1
  Al  Al11  1  0.786165  0.831523  0.669883  1
  Al  Al12  1  0.433835  0.507002  0.670399  1
  Al  Al13  1  0.563190  0.493464  0.328963  1
  Al  Al14  1  0.109844  0.162131  0.668632  1
  Al  Al15  1  0.890452  0.840350  0.330624  1
  Al  Al16  1  0.352244  0.499447  0.945094  1
  Al  Al17  1  0.646898  0.500299  0.055710  1
  Al  Al18  1  0.014651  0.167000  0.955668  1
  Al  Al19  1  0.984798  0.831973  0.045952  1
  Al  Al20  1  0.186200  0.500770  0.442122  1
  Al  Al21  1  0.814106  0.499904  0.559785  1
  Al  Al22  1  0.732820  0.164702  0.184361  1
  Al  Al23  1  0.265856  0.835532  0.815822  1
  Al  Al24  1  0.062169  0.629190  0.813247  1
  Al  Al25  1  0.938940  0.369327  0.185526  1
  Al  Al26  1  0.855553  0.040935  0.815584  1
  Al  Al27  1  0.144062  0.957583  0.184175  1
  Cu  Cu28  1  0.120924  0.492897  0.639382  1
  Pd  Pd29  1  0.880408  0.507729  0.362825  1
  Pd  Pd30  1  0.656945  0.171271  0.999831  1
  Pd  Pd31  1  0.343151  0.827983  0.999776  1
  Pd  Pd32  1  0.536351  0.168276  0.363010  1
  Pd  Pd33  1  0.462510  0.832774  0.637126  1
  Pd  Pd34  1  0.779462  0.174603  0.636550  1
  Pd  Pd35  1  0.221033  0.824480  0.362857  1
  Pd  Pd36  1  0.000241  0.499778  0.999676  1
