# generated using pymatgen
data_Y8Tm2Si5As
_symmetry_space_group_name_H-M   'P 1'
_cell_length_a   8.43500450
_cell_length_b   8.43500419
_cell_length_c   6.30847600
_cell_angle_alpha   90.00063844
_cell_angle_beta   90.00063700
_cell_angle_gamma   120.03962103
_symmetry_Int_Tables_number   1
_chemical_formula_structural   Y8Tm2Si5As
_chemical_formula_sum   'Y8 Tm2 Si5 As1'
_cell_volume   388.55471100
_cell_formula_units_Z   1
loop_
 _symmetry_equiv_pos_site_id
 _symmetry_equiv_pos_as_xyz
  1  'x, y, z'
loop_
 _atom_site_type_symbol
 _atom_site_label
 _atom_site_symmetry_multiplicity
 _atom_site_fract_x
 _atom_site_fract_y
 _atom_site_fract_z
 _atom_site_occupancy
  Y  Y0  1  0.668962  0.332894  0.500905  1
  Y  Y1  1  0.332894  0.668962  0.500905  1
  Y  Y2  1  0.757160  0.757160  0.248811  1
  Y  Y3  1  0.243867  0.997003  0.248590  1
  Y  Y4  1  0.997003  0.243867  0.248590  1
  Y  Y5  1  0.244109  0.244109  0.751217  1
  Y  Y6  1  0.755576  0.000071  0.751448  1
  Y  Y7  1  0.000071  0.755576  0.751448  1
  Tm  Tm8  1  0.333244  0.668880  0.999032  1
  Tm  Tm9  1  0.668880  0.333244  0.999032  1
  Si  Si10  1  0.605222  0.999623  0.244736  1
  Si  Si11  1  0.999623  0.605222  0.244736  1
  Si  Si12  1  0.606909  0.606909  0.754285  1
  Si  Si13  1  0.394416  0.001319  0.755476  1
  Si  Si14  1  0.001319  0.394416  0.755476  1
  As  As15  1  0.390743  0.390743  0.245313  1
