# generated using pymatgen
data_NaSr4Bi2P
_symmetry_space_group_name_H-M   'P 1'
_cell_length_a   8.62268000
_cell_length_b   9.82102900
_cell_length_c   13.31600400
_cell_angle_alpha   90.00000000
_cell_angle_beta   90.00000000
_cell_angle_gamma   90.00000000
_symmetry_Int_Tables_number   1
_chemical_formula_structural   NaSr4Bi2P
_chemical_formula_sum   'Na4 Sr16 Bi8 P4'
_cell_volume   1127.64702767
_cell_formula_units_Z   4
loop_
 _symmetry_equiv_pos_site_id
 _symmetry_equiv_pos_as_xyz
  1  'x, y, z'
loop_
 _atom_site_type_symbol
 _atom_site_label
 _atom_site_symmetry_multiplicity
 _atom_site_fract_x
 _atom_site_fract_y
 _atom_site_fract_z
 _atom_site_occupancy
  Na  Na0  1  0.022017  0.750000  0.501184  1
  Na  Na1  1  0.977983  0.250000  0.498816  1
  Na  Na2  1  0.522017  0.250000  0.998816  1
  Na  Na3  1  0.477983  0.750000  0.001184  1
  Sr  Sr4  1  0.858343  0.750000  0.799221  1
  Sr  Sr5  1  0.141657  0.250000  0.200779  1
  Sr  Sr6  1  0.358343  0.250000  0.700779  1
  Sr  Sr7  1  0.641657  0.750000  0.299221  1
  Sr  Sr8  1  0.697427  0.508017  0.562459  1
  Sr  Sr9  1  0.302573  0.491983  0.437541  1
  Sr  Sr10  1  0.197427  0.491983  0.937541  1
  Sr  Sr11  1  0.302573  0.008017  0.437541  1
  Sr  Sr12  1  0.802573  0.508017  0.062459  1
  Sr  Sr13  1  0.697427  0.991983  0.562459  1
  Sr  Sr14  1  0.802573  0.991983  0.062459  1
  Sr  Sr15  1  0.197427  0.008017  0.937541  1
  Sr  Sr16  1  0.348529  0.750000  0.703113  1
  Sr  Sr17  1  0.651471  0.250000  0.296887  1
  Sr  Sr18  1  0.848529  0.250000  0.796887  1
  Sr  Sr19  1  0.151471  0.750000  0.203113  1
  Bi  Bi20  1  0.566841  0.503554  0.830287  1
  Bi  Bi21  1  0.433159  0.496446  0.169713  1
  Bi  Bi22  1  0.066841  0.496446  0.669713  1
  Bi  Bi23  1  0.433159  0.003554  0.169713  1
  Bi  Bi24  1  0.933159  0.503554  0.330287  1
  Bi  Bi25  1  0.566841  0.996446  0.830287  1
  Bi  Bi26  1  0.933159  0.996446  0.330287  1
  Bi  Bi27  1  0.066841  0.003554  0.669713  1
  P  P28  1  0.014582  0.750000  0.997859  1
  P  P29  1  0.985418  0.250000  0.002141  1
  P  P30  1  0.514582  0.250000  0.502141  1
  P  P31  1  0.485418  0.750000  0.497859  1
