# generated using pymatgen
data_LiCrGeO4
_symmetry_space_group_name_H-M   'P 1'
_cell_length_a   5.91428300
_cell_length_b   5.91428300
_cell_length_c   8.31869000
_cell_angle_alpha   90.00000000
_cell_angle_beta   90.00000000
_cell_angle_gamma   90.00000000
_symmetry_Int_Tables_number   1
_chemical_formula_structural   LiCrGeO4
_chemical_formula_sum   'Li4 Cr4 Ge4 O16'
_cell_volume   290.97732297
_cell_formula_units_Z   4
loop_
 _symmetry_equiv_pos_site_id
 _symmetry_equiv_pos_as_xyz
  1  'x, y, z'
loop_
 _atom_site_type_symbol
 _atom_site_label
 _atom_site_symmetry_multiplicity
 _atom_site_fract_x
 _atom_site_fract_y
 _atom_site_fract_z
 _atom_site_occupancy
  Li  Li0  1  0.252762  0.252762  0.125000  1
  Li  Li1  1  0.252762  0.747238  0.375000  1
  Li  Li2  1  0.747238  0.252762  0.875000  1
  Li  Li3  1  0.747238  0.747238  0.625000  1
  Cr  Cr4  1  0.244074  0.500000  0.750000  1
  Cr  Cr5  1  0.500000  0.244074  0.500000  1
  Cr  Cr6  1  0.500000  0.755926  0.000000  1
  Cr  Cr7  1  0.755926  0.500000  0.250000  1
  Ge  Ge8  1  0.000000  0.752468  0.000000  1
  Ge  Ge9  1  0.752468  0.000000  0.250000  1
  Ge  Ge10  1  0.247532  0.000000  0.750000  1
  Ge  Ge11  1  0.000000  0.247532  0.500000  1
  O  O12  1  0.239452  0.465277  0.507179  1
  O  O13  1  0.465277  0.239452  0.742821  1
  O  O14  1  0.761096  0.981009  0.016336  1
  O  O15  1  0.239452  0.534723  0.992821  1
  O  O16  1  0.981009  0.761096  0.233664  1
  O  O17  1  0.018991  0.761096  0.766336  1
  O  O18  1  0.761096  0.018991  0.483664  1
  O  O19  1  0.534723  0.239452  0.257179  1
  O  O20  1  0.465277  0.760548  0.757179  1
  O  O21  1  0.238904  0.981009  0.983664  1
  O  O22  1  0.981009  0.238904  0.266336  1
  O  O23  1  0.018991  0.238904  0.733664  1
  O  O24  1  0.760548  0.465277  0.492821  1
  O  O25  1  0.238904  0.018991  0.516336  1
  O  O26  1  0.534723  0.760548  0.242821  1
  O  O27  1  0.760548  0.534723  0.007179  1
