# generated using pymatgen
data_Nd2AlHgPd2
_symmetry_space_group_name_H-M   'P 1'
_cell_length_a   4.48074500
_cell_length_b   7.22904819
_cell_length_c   8.29778626
_cell_angle_alpha   88.82263187
_cell_angle_beta   90.00000000
_cell_angle_gamma   90.00000000
_symmetry_Int_Tables_number   1
_chemical_formula_structural   Nd2AlHgPd2
_chemical_formula_sum   'Nd4 Al2 Hg2 Pd4'
_cell_volume   268.72117725
_cell_formula_units_Z   2
loop_
 _symmetry_equiv_pos_site_id
 _symmetry_equiv_pos_as_xyz
  1  'x, y, z'
loop_
 _atom_site_type_symbol
 _atom_site_label
 _atom_site_symmetry_multiplicity
 _atom_site_fract_x
 _atom_site_fract_y
 _atom_site_fract_z
 _atom_site_occupancy
  Nd  Nd0  1  0.250000  0.532995  0.814057  1
  Nd  Nd1  1  0.750000  0.467005  0.185943  1
  Nd  Nd2  1  0.250000  0.035690  0.688897  1
  Nd  Nd3  1  0.750000  0.964310  0.311103  1
  Al  Al4  1  0.250000  0.144908  0.059138  1
  Al  Al5  1  0.750000  0.855092  0.940862  1
  Hg  Hg6  1  0.250000  0.655453  0.432075  1
  Hg  Hg7  1  0.750000  0.344547  0.567925  1
  Pd  Pd8  1  0.750000  0.753201  0.641748  1
  Pd  Pd9  1  0.250000  0.246799  0.358252  1
  Pd  Pd10  1  0.750000  0.217469  0.908138  1
  Pd  Pd11  1  0.250000  0.782531  0.091862  1
