# generated using pymatgen
data_HoTm19(Bi2As)4
_symmetry_space_group_name_H-M   'P 1'
_cell_length_a   7.95940809
_cell_length_b   9.06336500
_cell_length_c   11.91800214
_cell_angle_alpha   90.00000000
_cell_angle_beta   89.98232165
_cell_angle_gamma   90.00000000
_symmetry_Int_Tables_number   1
_chemical_formula_structural   HoTm19(Bi2As)4
_chemical_formula_sum   'Ho1 Tm19 Bi8 As4'
_cell_volume   859.75296284
_cell_formula_units_Z   1
loop_
 _symmetry_equiv_pos_site_id
 _symmetry_equiv_pos_as_xyz
  1  'x, y, z'
loop_
 _atom_site_type_symbol
 _atom_site_label
 _atom_site_symmetry_multiplicity
 _atom_site_fract_x
 _atom_site_fract_y
 _atom_site_fract_z
 _atom_site_occupancy
  Ho  Ho0  1  0.134455  0.250000  0.207558  1
  Tm  Tm1  1  0.816820  0.557213  0.062918  1
  Tm  Tm2  1  0.683218  0.942696  0.562923  1
  Tm  Tm3  1  0.183132  0.057211  0.936943  1
  Tm  Tm4  1  0.316951  0.442850  0.437319  1
  Tm  Tm5  1  0.183132  0.442789  0.936943  1
  Tm  Tm6  1  0.316951  0.057150  0.437319  1
  Tm  Tm7  1  0.816820  0.942787  0.062918  1
  Tm  Tm8  1  0.683218  0.557304  0.562923  1
  Tm  Tm9  1  0.156264  0.750000  0.210893  1
  Tm  Tm10  1  0.343773  0.750000  0.710881  1
  Tm  Tm11  1  0.843665  0.250000  0.789022  1
  Tm  Tm12  1  0.656052  0.250000  0.289192  1
  Tm  Tm13  1  0.464403  0.750000  0.000478  1
  Tm  Tm14  1  0.035514  0.750000  0.500596  1
  Tm  Tm15  1  0.535662  0.250000  0.999382  1
  Tm  Tm16  1  0.964251  0.250000  0.499789  1
  Tm  Tm17  1  0.634548  0.750000  0.292541  1
  Tm  Tm18  1  0.865558  0.750000  0.792522  1
  Tm  Tm19  1  0.365586  0.250000  0.707518  1
  Bi  Bi20  1  0.925096  0.510522  0.326996  1
  Bi  Bi21  1  0.574590  0.989888  0.826688  1
  Bi  Bi22  1  0.074587  0.010037  0.673281  1
  Bi  Bi23  1  0.426009  0.490366  0.173233  1
  Bi  Bi24  1  0.074587  0.489963  0.673281  1
  Bi  Bi25  1  0.426009  0.009634  0.173233  1
  Bi  Bi26  1  0.925096  0.989478  0.326996  1
  Bi  Bi27  1  0.574590  0.510112  0.826688  1
  As  As28  1  0.412334  0.750000  0.478544  1
  As  As29  1  0.087788  0.750000  0.978509  1
  As  As30  1  0.587795  0.250000  0.521471  1
  As  As31  1  0.911543  0.250000  0.020500  1
