# generated using pymatgen
data_EuTeIrO6
_symmetry_space_group_name_H-M   'P 1'
_cell_length_a   5.35403710
_cell_length_b   5.35025942
_cell_length_c   10.33826729
_cell_angle_alpha   89.94384201
_cell_angle_beta   90.03002622
_cell_angle_gamma   119.97661946
_symmetry_Int_Tables_number   1
_chemical_formula_structural   EuTeIrO6
_chemical_formula_sum   'Eu2 Te2 Ir2 O12'
_cell_volume   256.52911730
_cell_formula_units_Z   2
loop_
 _symmetry_equiv_pos_site_id
 _symmetry_equiv_pos_as_xyz
  1  'x, y, z'
loop_
 _atom_site_type_symbol
 _atom_site_label
 _atom_site_symmetry_multiplicity
 _atom_site_fract_x
 _atom_site_fract_y
 _atom_site_fract_z
 _atom_site_occupancy
  Eu  Eu0  1  0.000000  0.999999  0.999992  1
  Eu  Eu1  1  0.999999  0.999998  0.500011  1
  Te  Te2  1  0.666415  0.333206  0.250068  1
  Te  Te3  1  0.333584  0.666793  0.749932  1
  Ir  Ir4  1  0.332895  0.666447  0.250064  1
  Ir  Ir5  1  0.667105  0.333552  0.749935  1
  O  O6  1  0.366509  0.003500  0.144624  1
  O  O7  1  0.636485  0.633813  0.144867  1
  O  O8  1  0.996330  0.362891  0.144896  1
  O  O9  1  0.996475  0.633583  0.355223  1
  O  O10  1  0.636527  0.002555  0.355254  1
  O  O11  1  0.366417  0.362993  0.355497  1
  O  O12  1  0.633569  0.637037  0.644498  1
  O  O13  1  0.363443  0.997401  0.644742  1
  O  O14  1  0.003569  0.366426  0.644774  1
  O  O15  1  0.003709  0.637140  0.855105  1
  O  O16  1  0.363487  0.366200  0.855136  1
  O  O17  1  0.633477  0.996457  0.855378  1
