# generated using pymatgen
data_La4InAgPd4
_symmetry_space_group_name_H-M   'P 1'
_cell_length_a   3.97564900
_cell_length_b   7.91597300
_cell_length_c   7.91597300
_cell_angle_alpha   90.00000000
_cell_angle_beta   90.00000000
_cell_angle_gamma   90.00000000
_symmetry_Int_Tables_number   1
_chemical_formula_structural   La4InAgPd4
_chemical_formula_sum   'La4 In1 Ag1 Pd4'
_cell_volume   249.12461648
_cell_formula_units_Z   1
loop_
 _symmetry_equiv_pos_site_id
 _symmetry_equiv_pos_as_xyz
  1  'x, y, z'
loop_
 _atom_site_type_symbol
 _atom_site_label
 _atom_site_symmetry_multiplicity
 _atom_site_fract_x
 _atom_site_fract_y
 _atom_site_fract_z
 _atom_site_occupancy
  La  La0  1  0.500000  0.176254  0.674085  1
  La  La1  1  0.500000  0.823746  0.325915  1
  La  La2  1  0.500000  0.325915  0.176254  1
  La  La3  1  0.500000  0.674085  0.823746  1
  In  In4  1  0.000000  0.000000  0.000000  1
  Ag  Ag5  1  0.000000  0.500000  0.500000  1
  Pd  Pd6  1  0.000000  0.629415  0.127765  1
  Pd  Pd7  1  0.000000  0.370585  0.872235  1
  Pd  Pd8  1  0.000000  0.872235  0.629415  1
  Pd  Pd9  1  0.000000  0.127765  0.370585  1
