# generated using pymatgen
data_Pr4Co17(Si4Tc)3
_symmetry_space_group_name_H-M   'P 1'
_cell_length_a   3.78770800
_cell_length_b   10.70012707
_cell_length_c   12.14757911
_cell_angle_alpha   90.06475601
_cell_angle_beta   90.00000000
_cell_angle_gamma   90.00000000
_symmetry_Int_Tables_number   1
_chemical_formula_structural   Pr4Co17(Si4Tc)3
_chemical_formula_sum   'Pr4 Co17 Si12 Tc3'
_cell_volume   492.32839553
_cell_formula_units_Z   1
loop_
 _symmetry_equiv_pos_site_id
 _symmetry_equiv_pos_as_xyz
  1  'x, y, z'
loop_
 _atom_site_type_symbol
 _atom_site_label
 _atom_site_symmetry_multiplicity
 _atom_site_fract_x
 _atom_site_fract_y
 _atom_site_fract_z
 _atom_site_occupancy
  Pr  Pr0  1  0.250000  0.582823  0.702718  1
  Pr  Pr1  1  0.250000  0.917960  0.203226  1
  Pr  Pr2  1  0.750000  0.417059  0.297528  1
  Pr  Pr3  1  0.750000  0.080457  0.796265  1
  Co  Co4  1  0.750000  0.201695  0.509515  1
  Co  Co5  1  0.250000  0.402481  0.490675  1
  Co  Co6  1  0.250000  0.094962  0.990994  1
  Co  Co7  1  0.750000  0.593223  0.509398  1
  Co  Co8  1  0.750000  0.905592  0.010932  1
  Co  Co9  1  0.250000  0.215134  0.176194  1
  Co  Co10  1  0.250000  0.284282  0.671772  1
  Co  Co11  1  0.750000  0.785039  0.826006  1
  Co  Co12  1  0.750000  0.715722  0.326543  1
  Co  Co13  1  0.250000  0.885594  0.698189  1
  Co  Co14  1  0.250000  0.614901  0.197870  1
  Co  Co15  1  0.750000  0.116315  0.303360  1
  Co  Co16  1  0.750000  0.383161  0.800214  1
  Co  Co17  1  0.250000  0.467607  0.932791  1
  Co  Co18  1  0.250000  0.031787  0.432810  1
  Co  Co19  1  0.750000  0.530866  0.065647  1
  Co  Co20  1  0.750000  0.973460  0.566659  1
  Si  Si21  1  0.250000  0.415862  0.110341  1
  Si  Si22  1  0.250000  0.085868  0.607447  1
  Si  Si23  1  0.750000  0.583846  0.888927  1
  Si  Si24  1  0.750000  0.917054  0.391005  1
  Si  Si25  1  0.250000  0.273535  0.866801  1
  Si  Si26  1  0.250000  0.223878  0.370645  1
  Si  Si27  1  0.750000  0.724354  0.133733  1
  Si  Si28  1  0.750000  0.779057  0.632937  1
  Si  Si29  1  0.250000  0.604464  0.394191  1
  Si  Si30  1  0.250000  0.895185  0.895358  1
  Si  Si31  1  0.750000  0.391871  0.602684  1
  Si  Si32  1  0.750000  0.105781  0.106102  1
  Tc  Tc33  1  0.250000  0.698400  0.991331  1
  Tc  Tc34  1  0.250000  0.799841  0.490984  1
  Tc  Tc35  1  0.750000  0.300882  0.008207  1
