# generated using pymatgen
data_U4B12MoW
_symmetry_space_group_name_H-M   'P 1'
_cell_length_a   3.69117700
_cell_length_b   9.27645865
_cell_length_c   11.36263080
_cell_angle_alpha   90.04284939
_cell_angle_beta   90.00000000
_cell_angle_gamma   90.00000000
_symmetry_Int_Tables_number   1
_chemical_formula_structural   U4B12MoW
_chemical_formula_sum   'U8 B24 Mo2 W2'
_cell_volume   389.06830951
_cell_formula_units_Z   2
loop_
 _symmetry_equiv_pos_site_id
 _symmetry_equiv_pos_as_xyz
  1  'x, y, z'
loop_
 _atom_site_type_symbol
 _atom_site_label
 _atom_site_symmetry_multiplicity
 _atom_site_fract_x
 _atom_site_fract_y
 _atom_site_fract_z
 _atom_site_occupancy
  U  U0  1  0.000000  0.334693  0.407570  1
  U  U1  1  0.000000  0.665307  0.592430  1
  U  U2  1  0.000000  0.834612  0.092312  1
  U  U3  1  0.000000  0.165388  0.907688  1
  U  U4  1  0.000000  0.955868  0.394711  1
  U  U5  1  0.000000  0.044132  0.605289  1
  U  U6  1  0.000000  0.456379  0.105447  1
  U  U7  1  0.000000  0.543621  0.894553  1
  B  B8  1  0.500000  0.549882  0.433254  1
  B  B9  1  0.500000  0.450118  0.566746  1
  B  B10  1  0.500000  0.049795  0.066703  1
  B  B11  1  0.500000  0.950205  0.933297  1
  B  B12  1  0.500000  0.743438  0.424269  1
  B  B13  1  0.500000  0.256562  0.575731  1
  B  B14  1  0.500000  0.243665  0.075663  1
  B  B15  1  0.500000  0.756335  0.924337  1
  B  B16  1  0.500000  0.803609  0.272664  1
  B  B17  1  0.500000  0.196391  0.727336  1
  B  B18  1  0.500000  0.303735  0.227338  1
  B  B19  1  0.500000  0.696265  0.772662  1
  B  B20  1  0.500000  0.644387  0.187564  1
  B  B21  1  0.500000  0.355613  0.812436  1
  B  B22  1  0.500000  0.144355  0.312591  1
  B  B23  1  0.500000  0.855645  0.687409  1
  B  B24  1  0.500000  0.985144  0.218455  1
  B  B25  1  0.500000  0.014856  0.781545  1
  B  B26  1  0.500000  0.485319  0.281585  1
  B  B27  1  0.500000  0.514681  0.718415  1
  B  B28  1  0.500000  0.641747  0.039335  1
  B  B29  1  0.500000  0.358253  0.960665  1
  B  B30  1  0.500000  0.141807  0.460761  1
  B  B31  1  0.500000  0.858193  0.539239  1
  Mo  Mo32  1  0.000000  0.644913  0.320140  1
  Mo  Mo33  1  0.000000  0.355087  0.679860  1
  W  W34  1  0.000000  0.144948  0.179842  1
  W  W35  1  0.000000  0.855052  0.820158  1
