# generated using pymatgen
data_CsMg3(In3Pt)2
_symmetry_space_group_name_H-M   'P 1'
_cell_length_a   9.11775100
_cell_length_b   9.11775076
_cell_length_c   4.15503400
_cell_angle_alpha   90.00000000
_cell_angle_beta   90.00000000
_cell_angle_gamma   119.99999725
_symmetry_Int_Tables_number   1
_chemical_formula_structural   CsMg3(In3Pt)2
_chemical_formula_sum   'Cs1 Mg3 In6 Pt2'
_cell_volume   299.14425692
_cell_formula_units_Z   1
loop_
 _symmetry_equiv_pos_site_id
 _symmetry_equiv_pos_as_xyz
  1  'x, y, z'
loop_
 _atom_site_type_symbol
 _atom_site_label
 _atom_site_symmetry_multiplicity
 _atom_site_fract_x
 _atom_site_fract_y
 _atom_site_fract_z
 _atom_site_occupancy
  Cs  Cs0  1  0.000000  0.000000  0.000000  1
  Mg  Mg1  1  0.000000  0.500000  0.000000  1
  Mg  Mg2  1  0.500000  0.500000  0.000000  1
  Mg  Mg3  1  0.500000  0.000000  0.000000  1
  In  In4  1  0.585215  0.792607  0.500000  1
  In  In5  1  0.207393  0.792607  0.500000  1
  In  In6  1  0.207393  0.414785  0.500000  1
  In  In7  1  0.792607  0.585215  0.500000  1
  In  In8  1  0.792607  0.207393  0.500000  1
  In  In9  1  0.414785  0.207393  0.500000  1
  Pt  Pt10  1  0.333333  0.666667  0.000000  1
  Pt  Pt11  1  0.666667  0.333333  0.000000  1
