# generated using pymatgen
data_Er12ReTc3
_symmetry_space_group_name_H-M   'P 1'
_cell_length_a   6.20029596
_cell_length_b   7.42170437
_cell_length_c   9.04875800
_cell_angle_alpha   90.00000000
_cell_angle_beta   90.00000000
_cell_angle_gamma   89.95321423
_symmetry_Int_Tables_number   1
_chemical_formula_structural   Er12ReTc3
_chemical_formula_sum   'Er12 Re1 Tc3'
_cell_volume   416.39441928
_cell_formula_units_Z   1
loop_
 _symmetry_equiv_pos_site_id
 _symmetry_equiv_pos_as_xyz
  1  'x, y, z'
loop_
 _atom_site_type_symbol
 _atom_site_label
 _atom_site_symmetry_multiplicity
 _atom_site_fract_x
 _atom_site_fract_y
 _atom_site_fract_z
 _atom_site_occupancy
  Er  Er0  1  0.342440  0.674427  0.061156  1
  Er  Er1  1  0.157954  0.175204  0.437446  1
  Er  Er2  1  0.658451  0.324815  0.561969  1
  Er  Er3  1  0.841257  0.824439  0.937100  1
  Er  Er4  1  0.658451  0.324815  0.938031  1
  Er  Er5  1  0.841257  0.824439  0.562900  1
  Er  Er6  1  0.342440  0.674427  0.438844  1
  Er  Er7  1  0.157954  0.175204  0.062554  1
  Er  Er8  1  0.873914  0.541198  0.250000  1
  Er  Er9  1  0.627001  0.040413  0.250000  1
  Er  Er10  1  0.123650  0.459302  0.750000  1
  Er  Er11  1  0.373884  0.961593  0.750000  1
  Re  Re12  1  0.543453  0.615696  0.750000  1
  Tc  Tc13  1  0.041751  0.884339  0.250000  1
  Tc  Tc14  1  0.458695  0.384090  0.250000  1
  Tc  Tc15  1  0.957447  0.115595  0.750000  1
