# generated using pymatgen
data_Tb3CdIn3Rh2
_symmetry_space_group_name_H-M   'P 1'
_cell_length_a   7.89039700
_cell_length_b   7.89039617
_cell_length_c   3.80641200
_cell_angle_alpha   90.00000000
_cell_angle_beta   90.00000000
_cell_angle_gamma   120.00000768
_symmetry_Int_Tables_number   1
_chemical_formula_structural   Tb3CdIn3Rh2
_chemical_formula_sum   'Tb3 Cd1 In3 Rh2'
_cell_volume   205.23151742
_cell_formula_units_Z   1
loop_
 _symmetry_equiv_pos_site_id
 _symmetry_equiv_pos_as_xyz
  1  'x, y, z'
loop_
 _atom_site_type_symbol
 _atom_site_label
 _atom_site_symmetry_multiplicity
 _atom_site_fract_x
 _atom_site_fract_y
 _atom_site_fract_z
 _atom_site_occupancy
  Tb  Tb0  1  0.967913  0.583788  0.500000  1
  Tb  Tb1  1  0.416212  0.384125  0.500000  1
  Tb  Tb2  1  0.615875  0.032087  0.500000  1
  Cd  Cd3  1  0.333333  0.666667  0.000000  1
  In  In4  1  0.742762  0.744534  0.000000  1
  In  In5  1  0.001771  0.257238  0.000000  1
  In  In6  1  0.255466  0.998229  0.000000  1
  Rh  Rh7  1  0.000000  0.000000  0.500000  1
  Rh  Rh8  1  0.666667  0.333333  0.000000  1
