# generated using pymatgen
data_ScUReB6
_symmetry_space_group_name_H-M   'P 1'
_cell_length_a   3.60566400
_cell_length_b   8.96313500
_cell_length_c   11.32093400
_cell_angle_alpha   90.00000000
_cell_angle_beta   90.00000000
_cell_angle_gamma   90.00000000
_symmetry_Int_Tables_number   1
_chemical_formula_structural   ScUReB6
_chemical_formula_sum   'Sc4 U4 Re4 B24'
_cell_volume   365.87054725
_cell_formula_units_Z   4
loop_
 _symmetry_equiv_pos_site_id
 _symmetry_equiv_pos_as_xyz
  1  'x, y, z'
loop_
 _atom_site_type_symbol
 _atom_site_label
 _atom_site_symmetry_multiplicity
 _atom_site_fract_x
 _atom_site_fract_y
 _atom_site_fract_z
 _atom_site_occupancy
  Sc  Sc0  1  0.000000  0.945688  0.374581  1
  Sc  Sc1  1  0.000000  0.054312  0.625419  1
  Sc  Sc2  1  0.000000  0.445688  0.125419  1
  Sc  Sc3  1  0.000000  0.554312  0.874581  1
  U  U4  1  0.000000  0.321167  0.413963  1
  U  U5  1  0.000000  0.678833  0.586037  1
  U  U6  1  0.000000  0.821167  0.086037  1
  U  U7  1  0.000000  0.178833  0.913963  1
  Re  Re8  1  0.000000  0.640122  0.320078  1
  Re  Re9  1  0.000000  0.359878  0.679922  1
  Re  Re10  1  0.000000  0.140122  0.179922  1
  Re  Re11  1  0.000000  0.859878  0.820078  1
  B  B12  1  0.500000  0.553318  0.434420  1
  B  B13  1  0.500000  0.446682  0.565580  1
  B  B14  1  0.500000  0.053318  0.065580  1
  B  B15  1  0.500000  0.946682  0.934420  1
  B  B16  1  0.500000  0.753174  0.420489  1
  B  B17  1  0.500000  0.246826  0.579511  1
  B  B18  1  0.500000  0.253174  0.079511  1
  B  B19  1  0.500000  0.746826  0.920489  1
  B  B20  1  0.500000  0.795542  0.264627  1
  B  B21  1  0.500000  0.204458  0.735373  1
  B  B22  1  0.500000  0.295542  0.235373  1
  B  B23  1  0.500000  0.704458  0.764627  1
  B  B24  1  0.500000  0.631167  0.182194  1
  B  B25  1  0.500000  0.368833  0.817806  1
  B  B26  1  0.500000  0.131167  0.317806  1
  B  B27  1  0.500000  0.868833  0.682194  1
  B  B28  1  0.500000  0.980693  0.214076  1
  B  B29  1  0.500000  0.019307  0.785924  1
  B  B30  1  0.500000  0.480693  0.285924  1
  B  B31  1  0.500000  0.519307  0.714076  1
  B  B32  1  0.500000  0.601903  0.027954  1
  B  B33  1  0.500000  0.398097  0.972046  1
  B  B34  1  0.500000  0.101903  0.472046  1
  B  B35  1  0.500000  0.898097  0.527954  1
