# generated using pymatgen
data_Pr4IrPd3O14
_symmetry_space_group_name_H-M   'P 1'
_cell_length_a   7.44798456
_cell_length_b   7.46954002
_cell_length_c   7.44798500
_cell_angle_alpha   60.09541753
_cell_angle_beta   60.00000250
_cell_angle_gamma   60.09541671
_symmetry_Int_Tables_number   1
_chemical_formula_structural   Pr4IrPd3O14
_chemical_formula_sum   'Pr4 Ir1 Pd3 O14'
_cell_volume   293.41430193
_cell_formula_units_Z   1
loop_
 _symmetry_equiv_pos_site_id
 _symmetry_equiv_pos_as_xyz
  1  'x, y, z'
loop_
 _atom_site_type_symbol
 _atom_site_label
 _atom_site_symmetry_multiplicity
 _atom_site_fract_x
 _atom_site_fract_y
 _atom_site_fract_z
 _atom_site_occupancy
  Pr  Pr0  1  0.125000  0.125000  0.625000  1
  Pr  Pr1  1  0.125000  0.125000  0.125000  1
  Pr  Pr2  1  0.625000  0.125000  0.125000  1
  Pr  Pr3  1  0.125000  0.625000  0.125000  1
  Ir  Ir4  1  0.625000  0.125000  0.625000  1
  Pd  Pd5  1  0.625000  0.625000  0.625000  1
  Pd  Pd6  1  0.125000  0.625000  0.625000  1
  Pd  Pd7  1  0.625000  0.625000  0.125000  1
  O  O8  1  0.959972  0.538314  0.541743  1
  O  O9  1  0.298421  0.288726  0.706426  1
  O  O10  1  0.959972  0.538314  0.959972  1
  O  O11  1  0.706426  0.288726  0.298421  1
  O  O12  1  0.541743  0.538314  0.959972  1
  O  O13  1  0.543574  0.961274  0.543574  1
  O  O14  1  0.543574  0.961274  0.951579  1
  O  O15  1  0.250250  0.249251  0.250250  1
  O  O16  1  0.290028  0.711686  0.708257  1
  O  O17  1  0.706426  0.288726  0.706426  1
  O  O18  1  0.999750  0.000749  0.999750  1
  O  O19  1  0.951579  0.961274  0.543574  1
  O  O20  1  0.290028  0.711686  0.290028  1
  O  O21  1  0.708257  0.711686  0.290028  1
