# generated using pymatgen
data_La9Nd7Cd4(TcPd)2
_symmetry_space_group_name_H-M   'P 1'
_cell_length_a   10.07866306
_cell_length_b   10.07866310
_cell_length_c   10.20830100
_cell_angle_alpha   59.57359159
_cell_angle_beta   59.57359147
_cell_angle_gamma   59.57636429
_symmetry_Int_Tables_number   1
_chemical_formula_structural   La9Nd7Cd4(TcPd)2
_chemical_formula_sum   'La9 Nd7 Cd4 Tc2 Pd2'
_cell_volume   726.14485534
_cell_formula_units_Z   1
loop_
 _symmetry_equiv_pos_site_id
 _symmetry_equiv_pos_as_xyz
  1  'x, y, z'
loop_
 _atom_site_type_symbol
 _atom_site_label
 _atom_site_symmetry_multiplicity
 _atom_site_fract_x
 _atom_site_fract_y
 _atom_site_fract_z
 _atom_site_occupancy
  La  La0  1  0.346417  0.346417  0.357223  1
  La  La1  1  0.346417  0.346417  0.949942  1
  La  La2  1  0.343354  0.959737  0.348455  1
  La  La3  1  0.959737  0.343354  0.348455  1
  La  La4  1  0.817673  0.188892  0.191354  1
  La  La5  1  0.188892  0.817673  0.802080  1
  La  La6  1  0.188892  0.817673  0.191354  1
  La  La7  1  0.817673  0.188892  0.802080  1
  La  La8  1  0.189902  0.189902  0.810098  1
  Nd  Nd9  1  0.802992  0.802992  0.197008  1
  Nd  Nd10  1  0.934209  0.561353  0.567495  1
  Nd  Nd11  1  0.561353  0.934209  0.936942  1
  Nd  Nd12  1  0.561353  0.934209  0.567495  1
  Nd  Nd13  1  0.934209  0.561353  0.936942  1
  Nd  Nd14  1  0.565447  0.565447  0.934553  1
  Nd  Nd15  1  0.937000  0.937000  0.563000  1
  Cd  Cd16  1  0.581299  0.581299  0.578839  1
  Cd  Cd17  1  0.581299  0.581299  0.258566  1
  Cd  Cd18  1  0.581076  0.257405  0.580759  1
  Cd  Cd19  1  0.257405  0.581076  0.580759  1
  Tc  Tc20  1  0.139111  0.139111  0.131273  1
  Tc  Tc21  1  0.139111  0.139111  0.590503  1
  Pd  Pd22  1  0.148241  0.576937  0.137411  1
  Pd  Pd23  1  0.576937  0.148241  0.137411  1
