# generated using pymatgen
data_Gd5Ru2C7
_symmetry_space_group_name_H-M   'P 1'
_cell_length_a   8.23196100
_cell_length_b   8.23195924
_cell_length_c   3.54000300
_cell_angle_alpha   90.00000000
_cell_angle_beta   90.00000000
_cell_angle_gamma   122.37134759
_symmetry_Int_Tables_number   1
_chemical_formula_structural   Gd5Ru2C7
_chemical_formula_sum   'Gd5 Ru2 C7'
_cell_volume   202.60914816
_cell_formula_units_Z   1
loop_
 _symmetry_equiv_pos_site_id
 _symmetry_equiv_pos_as_xyz
  1  'x, y, z'
loop_
 _atom_site_type_symbol
 _atom_site_label
 _atom_site_symmetry_multiplicity
 _atom_site_fract_x
 _atom_site_fract_y
 _atom_site_fract_z
 _atom_site_occupancy
  Gd  Gd0  1  0.500000  0.500000  0.000000  1
  Gd  Gd1  1  0.073647  0.336023  0.500000  1
  Gd  Gd2  1  0.926353  0.663977  0.500000  1
  Gd  Gd3  1  0.663977  0.926353  0.500000  1
  Gd  Gd4  1  0.336023  0.073647  0.500000  1
  Ru  Ru5  1  0.712635  0.287365  0.000000  1
  Ru  Ru6  1  0.287365  0.712635  0.000000  1
  C  C7  1  0.632476  0.367524  0.500000  1
  C  C8  1  0.367524  0.632476  0.500000  1
  C  C9  1  0.000000  0.000000  0.000000  1
  C  C10  1  0.170739  0.170739  0.000000  1
  C  C11  1  0.829261  0.829261  0.000000  1
  C  C12  1  0.000000  0.500000  0.000000  1
  C  C13  1  0.500000  0.000000  0.000000  1
