# generated using pymatgen
data_Tb8CuSi12PdAu2
_symmetry_space_group_name_H-M   'P 1'
_cell_length_a   8.16098900
_cell_length_b   8.16098856
_cell_length_c   8.21829100
_cell_angle_alpha   90.00000000
_cell_angle_beta   90.00000000
_cell_angle_gamma   120.00000583
_symmetry_Int_Tables_number   1
_chemical_formula_structural   Tb8CuSi12PdAu2
_chemical_formula_sum   'Tb8 Cu1 Si12 Pd1 Au2'
_cell_volume   474.02111000
_cell_formula_units_Z   1
loop_
 _symmetry_equiv_pos_site_id
 _symmetry_equiv_pos_as_xyz
  1  'x, y, z'
loop_
 _atom_site_type_symbol
 _atom_site_label
 _atom_site_symmetry_multiplicity
 _atom_site_fract_x
 _atom_site_fract_y
 _atom_site_fract_z
 _atom_site_occupancy
  Tb  Tb0  1  0.498080  0.996159  0.249086  1
  Tb  Tb1  1  0.497184  0.994371  0.750714  1
  Tb  Tb2  1  0.003841  0.501920  0.249086  1
  Tb  Tb3  1  0.005629  0.502816  0.750714  1
  Tb  Tb4  1  0.498080  0.501920  0.249086  1
  Tb  Tb5  1  0.497184  0.502816  0.750714  1
  Tb  Tb6  1  0.000000  0.000000  0.249221  1
  Tb  Tb7  1  0.000000  0.000000  0.750530  1
  Cu  Cu8  1  0.333333  0.666667  0.004420  1
  Si  Si9  1  0.170560  0.341120  0.996610  1
  Si  Si10  1  0.837610  0.675220  0.003484  1
  Si  Si11  1  0.658880  0.829440  0.996610  1
  Si  Si12  1  0.837427  0.674854  0.502262  1
  Si  Si13  1  0.324780  0.162390  0.003484  1
  Si  Si14  1  0.166917  0.333834  0.496870  1
  Si  Si15  1  0.170560  0.829440  0.996610  1
  Si  Si16  1  0.325146  0.162573  0.502262  1
  Si  Si17  1  0.837610  0.162390  0.003484  1
  Si  Si18  1  0.666166  0.833083  0.496870  1
  Si  Si19  1  0.837427  0.162573  0.502262  1
  Si  Si20  1  0.166917  0.833083  0.496870  1
  Pd  Pd21  1  0.333333  0.666667  0.500939  1
  Au  Au22  1  0.666667  0.333333  0.996769  1
  Au  Au23  1  0.666667  0.333333  0.501041  1
