# generated using pymatgen
data_Tb(MnC)4
_symmetry_space_group_name_H-M   'P 1'
_cell_length_a   5.61237458
_cell_length_b   5.61237466
_cell_length_c   5.61237470
_cell_angle_alpha   94.88416684
_cell_angle_beta   94.88416554
_cell_angle_gamma   146.06964865
_symmetry_Int_Tables_number   1
_chemical_formula_structural   Tb(MnC)4
_chemical_formula_sum   'Tb1 Mn4 C4'
_cell_volume   94.38323594
_cell_formula_units_Z   1
loop_
 _symmetry_equiv_pos_site_id
 _symmetry_equiv_pos_as_xyz
  1  'x, y, z'
loop_
 _atom_site_type_symbol
 _atom_site_label
 _atom_site_symmetry_multiplicity
 _atom_site_fract_x
 _atom_site_fract_y
 _atom_site_fract_z
 _atom_site_occupancy
  Tb  Tb0  1  0.000000  0.000000  0.000000  1
  Mn  Mn1  1  0.820757  0.362174  0.182930  1
  Mn  Mn2  1  0.637827  0.820757  0.458582  1
  Mn  Mn3  1  0.362174  0.179244  0.541419  1
  Mn  Mn4  1  0.179244  0.637827  0.817070  1
  C  C5  1  0.399537  0.755382  0.154917  1
  C  C6  1  0.755382  0.600464  0.355846  1
  C  C7  1  0.244619  0.399537  0.644155  1
  C  C8  1  0.600464  0.244619  0.845084  1
