# generated using pymatgen
data_Tm19Mg(Cd3Os)2
_symmetry_space_group_name_H-M   'P 1'
_cell_length_a   9.44429800
_cell_length_b   9.44429801
_cell_length_c   9.62438000
_cell_angle_alpha   90.00000000
_cell_angle_beta   90.00000000
_cell_angle_gamma   119.99999997
_symmetry_Int_Tables_number   1
_chemical_formula_structural   Tm19Mg(Cd3Os)2
_chemical_formula_sum   'Tm19 Mg1 Cd6 Os2'
_cell_volume   743.43458086
_cell_formula_units_Z   1
loop_
 _symmetry_equiv_pos_site_id
 _symmetry_equiv_pos_as_xyz
  1  'x, y, z'
loop_
 _atom_site_type_symbol
 _atom_site_label
 _atom_site_symmetry_multiplicity
 _atom_site_fract_x
 _atom_site_fract_y
 _atom_site_fract_z
 _atom_site_occupancy
  Tm  Tm0  1  0.000000  0.000000  0.000000  1
  Tm  Tm1  1  0.208779  0.791221  0.441415  1
  Tm  Tm2  1  0.208779  0.417559  0.441415  1
  Tm  Tm3  1  0.582441  0.791221  0.441415  1
  Tm  Tm4  1  0.791221  0.208779  0.558585  1
  Tm  Tm5  1  0.791221  0.582441  0.558585  1
  Tm  Tm6  1  0.417559  0.208779  0.558585  1
  Tm  Tm7  1  0.789229  0.210771  0.942952  1
  Tm  Tm8  1  0.789229  0.578458  0.942952  1
  Tm  Tm9  1  0.421542  0.210771  0.942952  1
  Tm  Tm10  1  0.210771  0.789229  0.057048  1
  Tm  Tm11  1  0.210771  0.421542  0.057048  1
  Tm  Tm12  1  0.578458  0.789229  0.057048  1
  Tm  Tm13  1  0.540019  0.459981  0.251241  1
  Tm  Tm14  1  0.540019  0.080037  0.251241  1
  Tm  Tm15  1  0.919963  0.459981  0.251241  1
  Tm  Tm16  1  0.459981  0.540019  0.748759  1
  Tm  Tm17  1  0.459981  0.919963  0.748759  1
  Tm  Tm18  1  0.080037  0.540019  0.748759  1
  Mg  Mg19  1  0.000000  0.000000  0.500000  1
  Cd  Cd20  1  0.887461  0.112539  0.255474  1
  Cd  Cd21  1  0.887461  0.774923  0.255474  1
  Cd  Cd22  1  0.225077  0.112539  0.255474  1
  Cd  Cd23  1  0.112539  0.887461  0.744526  1
  Cd  Cd24  1  0.112539  0.225077  0.744526  1
  Cd  Cd25  1  0.774923  0.887461  0.744526  1
  Os  Os26  1  0.333333  0.666667  0.250196  1
  Os  Os27  1  0.666667  0.333333  0.749804  1
