# generated using pymatgen
data_Ba5Pd6
_symmetry_space_group_name_H-M   'P 1'
_cell_length_a   15.83020683
_cell_length_b   15.83020631
_cell_length_c   4.53654400
_cell_angle_alpha   90.00000000
_cell_angle_beta   90.00000000
_cell_angle_gamma   163.15926666
_symmetry_Int_Tables_number   1
_chemical_formula_structural   Ba5Pd6
_chemical_formula_sum   'Ba5 Pd6'
_cell_volume   329.35574501
_cell_formula_units_Z   1
loop_
 _symmetry_equiv_pos_site_id
 _symmetry_equiv_pos_as_xyz
  1  'x, y, z'
loop_
 _atom_site_type_symbol
 _atom_site_label
 _atom_site_symmetry_multiplicity
 _atom_site_fract_x
 _atom_site_fract_y
 _atom_site_fract_z
 _atom_site_occupancy
  Ba  Ba0  1  0.000000  0.000000  0.000000  1
  Ba  Ba1  1  0.613450  0.386548  0.000000  1
  Ba  Ba2  1  0.386548  0.613450  0.000000  1
  Ba  Ba3  1  0.802817  0.197181  0.500001  1
  Ba  Ba4  1  0.197181  0.802817  0.500001  1
  Pd  Pd5  1  0.723960  0.276038  0.000000  1
  Pd  Pd6  1  0.276038  0.723960  0.000000  1
  Pd  Pd7  1  0.911841  0.088158  0.500001  1
  Pd  Pd8  1  0.541844  0.458154  0.500001  1
  Pd  Pd9  1  0.458154  0.541844  0.500001  1
  Pd  Pd10  1  0.088158  0.911841  0.500001  1
