# generated using pymatgen
data_Ba2Sr8Si5Hg
_symmetry_space_group_name_H-M   'P 1'
_cell_length_a   8.24314291
_cell_length_b   8.23475245
_cell_length_c   16.32120953
_cell_angle_alpha   89.72678959
_cell_angle_beta   90.16680948
_cell_angle_gamma   90.10725243
_symmetry_Int_Tables_number   1
_chemical_formula_structural   Ba2Sr8Si5Hg
_chemical_formula_sum   'Ba4 Sr16 Si10 Hg2'
_cell_volume   1107.86843755
_cell_formula_units_Z   2
loop_
 _symmetry_equiv_pos_site_id
 _symmetry_equiv_pos_as_xyz
  1  'x, y, z'
loop_
 _atom_site_type_symbol
 _atom_site_label
 _atom_site_symmetry_multiplicity
 _atom_site_fract_x
 _atom_site_fract_y
 _atom_site_fract_z
 _atom_site_occupancy
  Ba  Ba0  1  0.821848  0.168247  0.884783  1
  Ba  Ba1  1  0.829699  0.819384  0.114460  1
  Ba  Ba2  1  0.676709  0.332559  0.114965  1
  Ba  Ba3  1  0.683415  0.675307  0.600002  1
  Sr  Sr4  1  0.314571  0.674917  0.121687  1
  Sr  Sr5  1  0.177102  0.184881  0.123207  1
  Sr  Sr6  1  0.500320  0.000788  0.729225  1
  Sr  Sr7  1  0.321821  0.684981  0.394882  1
  Sr  Sr8  1  0.666579  0.679123  0.877756  1
  Sr  Sr9  1  0.188151  0.177429  0.395917  1
  Sr  Sr10  1  0.675898  0.315075  0.393878  1
  Sr  Sr11  1  0.176605  0.816081  0.604963  1
  Sr  Sr12  1  0.323714  0.313994  0.881427  1
  Sr  Sr13  1  0.184707  0.823055  0.878447  1
  Sr  Sr14  1  0.500784  0.999746  0.256753  1
  Sr  Sr15  1  0.826112  0.184747  0.605237  1
  Sr  Sr16  1  0.311784  0.324224  0.606507  1
  Sr  Sr17  1  0.819700  0.827168  0.393139  1
  Sr  Sr18  1  0.999752  0.499359  0.272072  1
  Sr  Sr19  1  0.998914  0.499896  0.746644  1
  Si  Si20  1  0.108230  0.104407  0.740744  1
  Si  Si21  1  0.389311  0.603616  0.742272  1
  Si  Si22  1  0.603217  0.609065  0.260495  1
  Si  Si23  1  0.109144  0.895678  0.260882  1
  Si  Si24  1  0.602525  0.390989  0.746533  1
  Si  Si25  1  0.895845  0.890749  0.740676  1
  Si  Si26  1  0.391616  0.394550  0.258906  1
  Si  Si27  1  0.895996  0.107854  0.257598  1
  Si  Si28  1  0.502282  0.011788  0.501886  1
  Si  Si29  1  0.008064  0.497776  0.495205  1
  Hg  Hg30  1  0.012891  0.501157  0.992989  1
  Hg  Hg31  1  0.482694  0.991410  0.005862  1
