# generated using pymatgen
data_ZrPa2MnO8
_symmetry_space_group_name_H-M   'P 1'
_cell_length_a   5.26308432
_cell_length_b   5.36865366
_cell_length_c   5.37754300
_cell_angle_alpha   90.00000000
_cell_angle_beta   90.00000000
_cell_angle_gamma   87.73686813
_symmetry_Int_Tables_number   1
_chemical_formula_structural   ZrPa2MnO8
_chemical_formula_sum   'Zr1 Pa2 Mn1 O8'
_cell_volume   151.82760148
_cell_formula_units_Z   1
loop_
 _symmetry_equiv_pos_site_id
 _symmetry_equiv_pos_as_xyz
  1  'x, y, z'
loop_
 _atom_site_type_symbol
 _atom_site_label
 _atom_site_symmetry_multiplicity
 _atom_site_fract_x
 _atom_site_fract_y
 _atom_site_fract_z
 _atom_site_occupancy
  Zr  Zr0  1  0.500000  0.750000  0.277271  1
  Pa  Pa1  1  0.000000  0.250000  0.242271  1
  Pa  Pa2  1  0.000000  0.750000  0.755089  1
  Mn  Mn3  1  0.500000  0.250000  0.734662  1
  O  O4  1  0.753528  0.556133  0.042437  1
  O  O5  1  0.246472  0.943867  0.042437  1
  O  O6  1  0.229362  0.451458  0.964462  1
  O  O7  1  0.770638  0.048542  0.964462  1
  O  O8  1  0.756159  0.975286  0.459624  1
  O  O9  1  0.243841  0.524714  0.459624  1
  O  O10  1  0.246888  0.011215  0.528830  1
  O  O11  1  0.753112  0.488785  0.528830  1
