# generated using pymatgen
data_Be3NbSiMo
_symmetry_space_group_name_H-M   'P 1'
_cell_length_a   4.58526000
_cell_length_b   4.58526081
_cell_length_c   7.64725600
_cell_angle_alpha   90.00000000
_cell_angle_beta   90.00000000
_cell_angle_gamma   120.00000859
_symmetry_Int_Tables_number   1
_chemical_formula_structural   Be3NbSiMo
_chemical_formula_sum   'Be6 Nb2 Si2 Mo2'
_cell_volume   139.24007003
_cell_formula_units_Z   2
loop_
 _symmetry_equiv_pos_site_id
 _symmetry_equiv_pos_as_xyz
  1  'x, y, z'
loop_
 _atom_site_type_symbol
 _atom_site_label
 _atom_site_symmetry_multiplicity
 _atom_site_fract_x
 _atom_site_fract_y
 _atom_site_fract_z
 _atom_site_occupancy
  Be  Be0  1  0.826754  0.173246  0.255149  1
  Be  Be1  1  0.826754  0.653508  0.255149  1
  Be  Be2  1  0.346492  0.173246  0.255149  1
  Be  Be3  1  0.173246  0.826754  0.744851  1
  Be  Be4  1  0.173246  0.346492  0.744851  1
  Be  Be5  1  0.653508  0.826754  0.744851  1
  Nb  Nb6  1  0.666667  0.333333  0.933227  1
  Nb  Nb7  1  0.333333  0.666667  0.066773  1
  Si  Si8  1  0.000000  0.000000  0.500000  1
  Si  Si9  1  0.000000  0.000000  0.000000  1
  Mo  Mo10  1  0.333333  0.666667  0.437116  1
  Mo  Mo11  1  0.666667  0.333333  0.562884  1
