# generated using pymatgen
data_Nd2Ga2PPt6
_symmetry_space_group_name_H-M   'P 1'
_cell_length_a   9.44111717
_cell_length_b   9.44111506
_cell_length_c   4.01425600
_cell_angle_alpha   90.00000000
_cell_angle_beta   90.00000000
_cell_angle_gamma   145.59474484
_symmetry_Int_Tables_number   1
_chemical_formula_structural   Nd2Ga2PPt6
_chemical_formula_sum   'Nd2 Ga2 P1 Pt6'
_cell_volume   202.17758123
_cell_formula_units_Z   1
loop_
 _symmetry_equiv_pos_site_id
 _symmetry_equiv_pos_as_xyz
  1  'x, y, z'
loop_
 _atom_site_type_symbol
 _atom_site_label
 _atom_site_symmetry_multiplicity
 _atom_site_fract_x
 _atom_site_fract_y
 _atom_site_fract_z
 _atom_site_occupancy
  Nd  Nd0  1  0.608153  0.377469  0.500000  1
  Nd  Nd1  1  0.377469  0.608153  0.500000  1
  Ga  Ga2  1  0.193616  0.792555  0.500000  1
  Ga  Ga3  1  0.792555  0.193616  0.500000  1
  P  P4  1  0.231414  0.231414  0.000000  1
  Pt  Pt5  1  0.107069  0.883984  0.000000  1
  Pt  Pt6  1  0.883984  0.107069  0.000000  1
  Pt  Pt7  1  0.491669  0.988432  0.000000  1
  Pt  Pt8  1  0.988432  0.491669  0.000000  1
  Pt  Pt9  1  0.999399  0.999399  0.500000  1
  Pt  Pt10  1  0.639838  0.639838  0.000000  1
