# generated using pymatgen
data_YTmRe7Si4W
_symmetry_space_group_name_H-M   'P 1'
_cell_length_a   7.16345114
_cell_length_b   7.66428954
_cell_length_c   4.16829900
_cell_angle_alpha   90.00000000
_cell_angle_beta   90.00000000
_cell_angle_gamma   90.18630952
_symmetry_Int_Tables_number   1
_chemical_formula_structural   YTmRe7Si4W
_chemical_formula_sum   'Y1 Tm1 Re7 Si4 W1'
_cell_volume   228.84992495
_cell_formula_units_Z   1
loop_
 _symmetry_equiv_pos_site_id
 _symmetry_equiv_pos_as_xyz
  1  'x, y, z'
loop_
 _atom_site_type_symbol
 _atom_site_label
 _atom_site_symmetry_multiplicity
 _atom_site_fract_x
 _atom_site_fract_y
 _atom_site_fract_z
 _atom_site_occupancy
  Y  Y0  1  0.999271  0.999741  0.500000  1
  Tm  Tm1  1  0.500828  0.497995  0.000000  1
  Re  Re2  1  0.156447  0.603691  0.500000  1
  Re  Re3  1  0.084903  0.341661  0.000000  1
  Re  Re4  1  0.916310  0.658196  0.000000  1
  Re  Re5  1  0.417307  0.839099  0.500000  1
  Re  Re6  1  0.583101  0.164277  0.500000  1
  Re  Re7  1  0.342545  0.107170  0.000000  1
  Re  Re8  1  0.845746  0.394814  0.500000  1
  Si  Si9  1  0.222772  0.804436  0.000000  1
  Si  Si10  1  0.779636  0.197892  0.000000  1
  Si  Si11  1  0.721355  0.691598  0.500000  1
  Si  Si12  1  0.279625  0.305465  0.500000  1
  W  W13  1  0.650156  0.893963  0.000000  1
