# generated using pymatgen
data_KThAuSe3
_symmetry_space_group_name_H-M   'P 1'
_cell_length_a   7.83517262
_cell_length_b   7.83517286
_cell_length_c   10.95837400
_cell_angle_alpha   90.00000000
_cell_angle_beta   90.00000000
_cell_angle_gamma   148.21682800
_symmetry_Int_Tables_number   1
_chemical_formula_structural   KThAuSe3
_chemical_formula_sum   'K2 Th2 Au2 Se6'
_cell_volume   354.33305119
_cell_formula_units_Z   2
loop_
 _symmetry_equiv_pos_site_id
 _symmetry_equiv_pos_as_xyz
  1  'x, y, z'
loop_
 _atom_site_type_symbol
 _atom_site_label
 _atom_site_symmetry_multiplicity
 _atom_site_fract_x
 _atom_site_fract_y
 _atom_site_fract_z
 _atom_site_occupancy
  K  K0  1  0.254868  0.745130  0.250000  1
  K  K1  1  0.745130  0.254868  0.750000  1
  Th  Th2  1  0.499999  0.499999  0.000000  1
  Th  Th3  1  0.499999  0.499999  0.500000  1
  Au  Au4  1  0.964999  0.034999  0.250000  1
  Au  Au5  1  0.034999  0.964999  0.750000  1
  Se  Se6  1  0.870436  0.129562  0.049705  1
  Se  Se7  1  0.575405  0.424593  0.250000  1
  Se  Se8  1  0.870436  0.129562  0.450295  1
  Se  Se9  1  0.129562  0.870436  0.549705  1
  Se  Se10  1  0.424593  0.575405  0.750000  1
  Se  Se11  1  0.129562  0.870436  0.950295  1
