# generated using pymatgen
data_NpSi4(PdRh2)2
_symmetry_space_group_name_H-M   'P 1'
_cell_length_a   7.09810200
_cell_length_b   7.14934439
_cell_length_c   3.78004000
_cell_angle_alpha   90.00000000
_cell_angle_beta   90.00000000
_cell_angle_gamma   120.23909357
_symmetry_Int_Tables_number   1
_chemical_formula_structural   NpSi4(PdRh2)2
_chemical_formula_sum   'Np1 Si4 Pd2 Rh4'
_cell_volume   165.72350147
_cell_formula_units_Z   1
loop_
 _symmetry_equiv_pos_site_id
 _symmetry_equiv_pos_as_xyz
  1  'x, y, z'
loop_
 _atom_site_type_symbol
 _atom_site_label
 _atom_site_symmetry_multiplicity
 _atom_site_fract_x
 _atom_site_fract_y
 _atom_site_fract_z
 _atom_site_occupancy
  Np  Np0  1  0.992794  0.996397  0.000000  1
  Si  Si1  1  0.795797  0.197421  0.500000  1
  Si  Si2  1  0.795797  0.598375  0.500000  1
  Si  Si3  1  0.403905  0.201953  0.500000  1
  Si  Si4  1  0.341985  0.670993  0.000000  1
  Pd  Pd5  1  0.197882  0.802844  0.500000  1
  Pd  Pd6  1  0.197882  0.395038  0.500000  1
  Rh  Rh7  1  0.534314  0.466575  0.000000  1
  Rh  Rh8  1  0.534314  0.067740  0.000000  1
  Rh  Rh9  1  0.935736  0.467868  0.000000  1
  Rh  Rh10  1  0.602927  0.801464  0.500000  1
