# generated using pymatgen
data_SrIr5O13
_symmetry_space_group_name_H-M   'P 1'
_cell_length_a   5.50059091
_cell_length_b   5.50058924
_cell_length_c   16.51972300
_cell_angle_alpha   90.00000000
_cell_angle_beta   90.00000000
_cell_angle_gamma   108.68028510
_symmetry_Int_Tables_number   1
_chemical_formula_structural   SrIr5O13
_chemical_formula_sum   'Sr2 Ir10 O26'
_cell_volume   473.49813995
_cell_formula_units_Z   2
loop_
 _symmetry_equiv_pos_site_id
 _symmetry_equiv_pos_as_xyz
  1  'x, y, z'
loop_
 _atom_site_type_symbol
 _atom_site_label
 _atom_site_symmetry_multiplicity
 _atom_site_fract_x
 _atom_site_fract_y
 _atom_site_fract_z
 _atom_site_occupancy
  Sr  Sr0  1  0.887836  0.122262  0.750000  1
  Sr  Sr1  1  0.122262  0.887836  0.250000  1
  Ir  Ir2  1  0.385223  0.617041  0.074689  1
  Ir  Ir3  1  0.617041  0.385223  0.925311  1
  Ir  Ir4  1  0.001052  0.001052  0.000000  1
  Ir  Ir5  1  0.385223  0.617041  0.425311  1
  Ir  Ir6  1  0.617041  0.385223  0.574689  1
  Ir  Ir7  1  0.001052  0.001052  0.500000  1
  Ir  Ir8  1  0.762180  0.241086  0.364454  1
  Ir  Ir9  1  0.762180  0.241086  0.135546  1
  Ir  Ir10  1  0.241086  0.762180  0.864454  1
  Ir  Ir11  1  0.241086  0.762180  0.635546  1
  O  O12  1  0.542454  0.065864  0.862123  1
  O  O13  1  0.065864  0.542454  0.362123  1
  O  O14  1  0.065864  0.542454  0.137877  1
  O  O15  1  0.542454  0.065864  0.637877  1
  O  O16  1  0.308741  0.308741  0.000000  1
  O  O17  1  0.308741  0.308741  0.500000  1
  O  O18  1  0.025274  0.977743  0.617724  1
  O  O19  1  0.182879  0.819281  0.750000  1
  O  O20  1  0.226677  0.776051  0.986922  1
  O  O21  1  0.226677  0.776051  0.513078  1
  O  O22  1  0.457780  0.543015  0.652462  1
  O  O23  1  0.543015  0.457780  0.152462  1
  O  O24  1  0.776051  0.226677  0.486922  1
  O  O25  1  0.977743  0.025274  0.382276  1
  O  O26  1  0.543015  0.457780  0.347538  1
  O  O27  1  0.977743  0.025274  0.117724  1
  O  O28  1  0.819281  0.182879  0.250000  1
  O  O29  1  0.776051  0.226677  0.013078  1
  O  O30  1  0.025274  0.977743  0.882276  1
  O  O31  1  0.457780  0.543015  0.847538  1
  O  O32  1  0.693260  0.693260  0.500000  1
  O  O33  1  0.693260  0.693260  0.000000  1
  O  O34  1  0.461142  0.936812  0.362479  1
  O  O35  1  0.936812  0.461142  0.637521  1
  O  O36  1  0.936812  0.461142  0.862479  1
  O  O37  1  0.461142  0.936812  0.137521  1
