# generated using pymatgen
data_YbPr18MgIr12
_symmetry_space_group_name_H-M   'P 1'
_cell_length_a   11.31581600
_cell_length_b   11.31581600
_cell_length_c   6.51086800
_cell_angle_alpha   90.00000000
_cell_angle_beta   90.00000000
_cell_angle_gamma   90.00000000
_symmetry_Int_Tables_number   1
_chemical_formula_structural   YbPr18MgIr12
_chemical_formula_sum   'Yb1 Pr18 Mg1 Ir12'
_cell_volume   833.70161866
_cell_formula_units_Z   1
loop_
 _symmetry_equiv_pos_site_id
 _symmetry_equiv_pos_as_xyz
  1  'x, y, z'
loop_
 _atom_site_type_symbol
 _atom_site_label
 _atom_site_symmetry_multiplicity
 _atom_site_fract_x
 _atom_site_fract_y
 _atom_site_fract_z
 _atom_site_occupancy
  Yb  Yb0  1  0.000000  0.000000  0.500000  1
  Pr  Pr1  1  0.288401  0.088240  0.385233  1
  Pr  Pr2  1  0.292347  0.911156  0.883210  1
  Pr  Pr3  1  0.707653  0.088844  0.883210  1
  Pr  Pr4  1  0.711599  0.911760  0.385233  1
  Pr  Pr5  1  0.587587  0.782385  0.885234  1
  Pr  Pr6  1  0.587875  0.209687  0.383671  1
  Pr  Pr7  1  0.412125  0.790313  0.383671  1
  Pr  Pr8  1  0.412413  0.217615  0.885234  1
  Pr  Pr9  1  0.209687  0.412125  0.616329  1
  Pr  Pr10  1  0.217615  0.587587  0.114766  1
  Pr  Pr11  1  0.782385  0.412413  0.114766  1
  Pr  Pr12  1  0.790313  0.587875  0.616329  1
  Pr  Pr13  1  0.911156  0.707653  0.116790  1
  Pr  Pr14  1  0.911760  0.288401  0.614767  1
  Pr  Pr15  1  0.088240  0.711599  0.614767  1
  Pr  Pr16  1  0.088844  0.292347  0.116790  1
  Pr  Pr17  1  0.000000  0.000000  0.000000  1
  Pr  Pr18  1  0.500000  0.500000  0.500000  1
  Mg  Mg19  1  0.500000  0.500000  0.000000  1
  Ir  Ir20  1  0.846018  0.155275  0.246093  1
  Ir  Ir21  1  0.844725  0.846018  0.753907  1
  Ir  Ir22  1  0.155275  0.153982  0.753907  1
  Ir  Ir23  1  0.153982  0.844725  0.246093  1
  Ir  Ir24  1  0.652731  0.348105  0.748379  1
  Ir  Ir25  1  0.651895  0.652731  0.251621  1
  Ir  Ir26  1  0.348105  0.347269  0.251621  1
  Ir  Ir27  1  0.347269  0.651895  0.748379  1
  Ir  Ir28  1  0.500000  0.000000  0.116144  1
  Ir  Ir29  1  0.500000  0.000000  0.617998  1
  Ir  Ir30  1  0.000000  0.500000  0.883856  1
  Ir  Ir31  1  0.000000  0.500000  0.382002  1
