# generated using pymatgen
data_Pa4Co19As12Pt
_symmetry_space_group_name_H-M   'P 1'
_cell_length_a   3.84007200
_cell_length_b   12.09310444
_cell_length_c   10.85542645
_cell_angle_alpha   89.79192518
_cell_angle_beta   90.00000000
_cell_angle_gamma   90.00000000
_symmetry_Int_Tables_number   1
_chemical_formula_structural   Pa4Co19As12Pt
_chemical_formula_sum   'Pa4 Co19 As12 Pt1'
_cell_volume   504.10522189
_cell_formula_units_Z   1
loop_
 _symmetry_equiv_pos_site_id
 _symmetry_equiv_pos_as_xyz
  1  'x, y, z'
loop_
 _atom_site_type_symbol
 _atom_site_label
 _atom_site_symmetry_multiplicity
 _atom_site_fract_x
 _atom_site_fract_y
 _atom_site_fract_z
 _atom_site_occupancy
  Pa  Pa0  1  0.750000  0.699808  0.077220  1
  Pa  Pa1  1  0.250000  0.299818  0.918944  1
  Pa  Pa2  1  0.250000  0.802329  0.585503  1
  Pa  Pa3  1  0.750000  0.201264  0.419021  1
  Co  Co4  1  0.250000  0.300561  0.610762  1
  Co  Co5  1  0.250000  0.803841  0.890674  1
  Co  Co6  1  0.750000  0.199966  0.108103  1
  Co  Co7  1  0.750000  0.998313  0.206132  1
  Co  Co8  1  0.250000  0.009650  0.789595  1
  Co  Co9  1  0.250000  0.502153  0.713095  1
  Co  Co10  1  0.750000  0.485196  0.289770  1
  Co  Co11  1  0.750000  0.682317  0.792397  1
  Co  Co12  1  0.250000  0.323071  0.211676  1
  Co  Co13  1  0.250000  0.821668  0.287249  1
  Co  Co14  1  0.750000  0.176459  0.711097  1
  Co  Co15  1  0.750000  0.928020  0.979361  1
  Co  Co16  1  0.250000  0.070618  0.024669  1
  Co  Co17  1  0.250000  0.570716  0.480789  1
  Co  Co18  1  0.750000  0.426734  0.523944  1
  Co  Co19  1  0.750000  0.975773  0.592459  1
  Co  Co20  1  0.250000  0.026691  0.408872  1
  Co  Co21  1  0.250000  0.519204  0.082348  1
  Co  Co22  1  0.750000  0.477180  0.906714  1
  As  As23  1  0.750000  0.606286  0.602632  1
  As  As24  1  0.250000  0.387890  0.409989  1
  As  As25  1  0.250000  0.887510  0.091416  1
  As  As26  1  0.750000  0.111573  0.909214  1
  As  As27  1  0.750000  0.905470  0.392647  1
  As  As28  1  0.250000  0.107355  0.606282  1
  As  As29  1  0.250000  0.608070  0.890603  1
  As  As30  1  0.750000  0.393560  0.104053  1
  As  As31  1  0.750000  0.874104  0.779460  1
  As  As32  1  0.250000  0.132008  0.222041  1
  As  As33  1  0.250000  0.616538  0.267675  1
  As  As34  1  0.750000  0.368491  0.723374  1
  Pt  Pt35  1  0.750000  0.699793  0.390220  1
