# generated using pymatgen
data_Th8Co3Si12Os
_symmetry_space_group_name_H-M   'P 1'
_cell_length_a   8.11800300
_cell_length_b   8.11800290
_cell_length_c   8.42869300
_cell_angle_alpha   90.00000000
_cell_angle_beta   90.00000000
_cell_angle_gamma   119.99999633
_symmetry_Int_Tables_number   1
_chemical_formula_structural   Th8Co3Si12Os
_chemical_formula_sum   'Th8 Co3 Si12 Os1'
_cell_volume   481.04897446
_cell_formula_units_Z   1
loop_
 _symmetry_equiv_pos_site_id
 _symmetry_equiv_pos_as_xyz
  1  'x, y, z'
loop_
 _atom_site_type_symbol
 _atom_site_label
 _atom_site_symmetry_multiplicity
 _atom_site_fract_x
 _atom_site_fract_y
 _atom_site_fract_z
 _atom_site_occupancy
  Th  Th0  1  0.000000  0.000000  0.748640  1
  Th  Th1  1  0.000000  0.000000  0.251480  1
  Th  Th2  1  0.499308  0.500692  0.750715  1
  Th  Th3  1  0.499308  0.998616  0.750715  1
  Th  Th4  1  0.001384  0.500692  0.750715  1
  Th  Th5  1  0.499752  0.500248  0.249356  1
  Th  Th6  1  0.000497  0.500248  0.249356  1
  Th  Th7  1  0.499752  0.999503  0.249356  1
  Co  Co8  1  0.666667  0.333333  0.998218  1
  Co  Co9  1  0.666667  0.333333  0.501929  1
  Co  Co10  1  0.333333  0.666667  0.498375  1
  Si  Si11  1  0.827984  0.172016  0.999661  1
  Si  Si12  1  0.827984  0.655969  0.999661  1
  Si  Si13  1  0.344031  0.172016  0.999661  1
  Si  Si14  1  0.829157  0.170843  0.500389  1
  Si  Si15  1  0.829157  0.658315  0.500389  1
  Si  Si16  1  0.341685  0.170843  0.500389  1
  Si  Si17  1  0.171297  0.828703  0.499652  1
  Si  Si18  1  0.657406  0.828703  0.499652  1
  Si  Si19  1  0.171297  0.342594  0.499652  1
  Si  Si20  1  0.164625  0.835375  0.000303  1
  Si  Si21  1  0.670749  0.835375  0.000303  1
  Si  Si22  1  0.164625  0.329251  0.000303  1
  Os  Os23  1  0.333333  0.666667  0.001133  1
