# generated using pymatgen
data_K2LiNbSe4
_symmetry_space_group_name_H-M   'P 1'
_cell_length_a   13.71721827
_cell_length_b   12.26699861
_cell_length_c   7.55900689
_cell_angle_alpha   83.97803975
_cell_angle_beta   62.79075706
_cell_angle_gamma   33.23120525
_symmetry_Int_Tables_number   1
_chemical_formula_structural   K2LiNbSe4
_chemical_formula_sum   'K4 Li2 Nb2 Se8'
_cell_volume   509.56987847
_cell_formula_units_Z   2
loop_
 _symmetry_equiv_pos_site_id
 _symmetry_equiv_pos_as_xyz
  1  'x, y, z'
loop_
 _atom_site_type_symbol
 _atom_site_label
 _atom_site_symmetry_multiplicity
 _atom_site_fract_x
 _atom_site_fract_y
 _atom_site_fract_z
 _atom_site_occupancy
  K  K0  1  0.430323  0.430323  0.069677  1
  K  K1  1  0.819677  0.819677  0.180323  1
  K  K2  1  0.069677  0.069677  0.430323  1
  K  K3  1  0.180323  0.180323  0.819677  1
  Li  Li4  1  0.750000  0.750000  0.750000  1
  Li  Li5  1  0.500000  0.500000  0.500000  1
  Nb  Nb6  1  0.250000  0.250000  0.250000  1
  Nb  Nb7  1  0.000000  0.000000  0.000000  1
  Se  Se8  1  0.728464  0.387135  0.067034  1
  Se  Se9  1  0.817367  0.067034  0.387135  1
  Se  Se10  1  0.067034  0.817367  0.728464  1
  Se  Se11  1  0.387135  0.728464  0.817367  1
  Se  Se12  1  0.521536  0.862865  0.182966  1
  Se  Se13  1  0.862865  0.521536  0.432633  1
  Se  Se14  1  0.182966  0.432633  0.521536  1
  Se  Se15  1  0.432633  0.182966  0.862865  1
