# generated using pymatgen
data_Tb2Ho2GeBr6
_symmetry_space_group_name_H-M   'P 1'
_cell_length_a   4.07405900
_cell_length_b   13.26096600
_cell_length_c   14.05153900
_cell_angle_alpha   90.00000000
_cell_angle_beta   90.00000000
_cell_angle_gamma   90.00000000
_symmetry_Int_Tables_number   1
_chemical_formula_structural   Tb2Ho2GeBr6
_chemical_formula_sum   'Tb4 Ho4 Ge2 Br12'
_cell_volume   759.14785418
_cell_formula_units_Z   2
loop_
 _symmetry_equiv_pos_site_id
 _symmetry_equiv_pos_as_xyz
  1  'x, y, z'
loop_
 _atom_site_type_symbol
 _atom_site_label
 _atom_site_symmetry_multiplicity
 _atom_site_fract_x
 _atom_site_fract_y
 _atom_site_fract_z
 _atom_site_occupancy
  Tb  Tb0  1  0.000000  0.119263  0.579256  1
  Tb  Tb1  1  0.000000  0.880737  0.420744  1
  Tb  Tb2  1  0.000000  0.619263  0.920744  1
  Tb  Tb3  1  0.000000  0.380737  0.079256  1
  Ho  Ho4  1  0.500000  0.118204  0.340907  1
  Ho  Ho5  1  0.500000  0.881796  0.659093  1
  Ho  Ho6  1  0.500000  0.618204  0.159093  1
  Ho  Ho7  1  0.500000  0.381796  0.840907  1
  Ge  Ge8  1  0.500000  0.000000  0.500000  1
  Ge  Ge9  1  0.500000  0.500000  0.000000  1
  Br  Br10  1  0.500000  0.242598  0.164117  1
  Br  Br11  1  0.500000  0.757402  0.835883  1
  Br  Br12  1  0.500000  0.742598  0.335883  1
  Br  Br13  1  0.500000  0.257402  0.664117  1
  Br  Br14  1  0.000000  0.254607  0.409755  1
  Br  Br15  1  0.000000  0.745393  0.590245  1
  Br  Br16  1  0.000000  0.754607  0.090245  1
  Br  Br17  1  0.000000  0.245393  0.909755  1
  Br  Br18  1  0.000000  0.003658  0.243083  1
  Br  Br19  1  0.000000  0.996342  0.756917  1
  Br  Br20  1  0.000000  0.503658  0.256917  1
  Br  Br21  1  0.000000  0.496342  0.743083  1
