# generated using pymatgen
data_La4Nd6CoTc3
_symmetry_space_group_name_H-M   'P 1'
_cell_length_a   9.03172369
_cell_length_b   9.02487766
_cell_length_c   7.32613707
_cell_angle_alpha   84.90627527
_cell_angle_beta   84.83970948
_cell_angle_gamma   43.39277301
_symmetry_Int_Tables_number   1
_chemical_formula_structural   La4Nd6CoTc3
_chemical_formula_sum   'La4 Nd6 Co1 Tc3'
_cell_volume   408.34064404
_cell_formula_units_Z   1
loop_
 _symmetry_equiv_pos_site_id
 _symmetry_equiv_pos_as_xyz
  1  'x, y, z'
loop_
 _atom_site_type_symbol
 _atom_site_label
 _atom_site_symmetry_multiplicity
 _atom_site_fract_x
 _atom_site_fract_y
 _atom_site_fract_z
 _atom_site_occupancy
  La  La0  1  0.015174  0.796653  0.900964  1
  La  La1  1  0.209300  0.981936  0.594931  1
  La  La2  1  0.985560  0.208168  0.096480  1
  La  La3  1  0.793908  0.017275  0.396195  1
  Nd  Nd4  1  0.365623  0.208616  0.823645  1
  Nd  Nd5  1  0.791384  0.639493  0.684083  1
  Nd  Nd6  1  0.640913  0.785025  0.183007  1
  Nd  Nd7  1  0.211932  0.358838  0.318114  1
  Nd  Nd8  1  0.575659  0.424058  0.751382  1
  Nd  Nd9  1  0.426846  0.569894  0.248382  1
  Co  Co10  1  0.608621  0.164970  0.090995  1
  Tc  Tc11  1  0.155467  0.624614  0.586498  1
  Tc  Tc12  1  0.379488  0.842012  0.913761  1
  Tc  Tc13  1  0.840125  0.378449  0.411564  1
