# generated using pymatgen
data_Tb2Ho2HgIr
_symmetry_space_group_name_H-M   'P 1'
_cell_length_a   9.60774300
_cell_length_b   9.60774333
_cell_length_c   9.61219200
_cell_angle_alpha   59.98468191
_cell_angle_beta   59.98468077
_cell_angle_gamma   60.03063930
_symmetry_Int_Tables_number   1
_chemical_formula_structural   Tb2Ho2HgIr
_chemical_formula_sum   'Tb8 Ho8 Hg4 Ir4'
_cell_volume   627.40796678
_cell_formula_units_Z   4
loop_
 _symmetry_equiv_pos_site_id
 _symmetry_equiv_pos_as_xyz
  1  'x, y, z'
loop_
 _atom_site_type_symbol
 _atom_site_label
 _atom_site_symmetry_multiplicity
 _atom_site_fract_x
 _atom_site_fract_y
 _atom_site_fract_z
 _atom_site_occupancy
  Tb  Tb0  1  0.439862  0.439862  0.060138  1
  Tb  Tb1  1  0.060138  0.060138  0.439862  1
  Tb  Tb2  1  0.188775  0.811225  0.811225  1
  Tb  Tb3  1  0.811225  0.188775  0.188775  1
  Tb  Tb4  1  0.811225  0.188775  0.811225  1
  Tb  Tb5  1  0.188775  0.811225  0.188775  1
  Tb  Tb6  1  0.811161  0.811161  0.188839  1
  Tb  Tb7  1  0.188839  0.188839  0.811161  1
  Ho  Ho8  1  0.600634  0.600634  0.600035  1
  Ho  Ho9  1  0.600634  0.600634  0.198699  1
  Ho  Ho10  1  0.600035  0.198699  0.600634  1
  Ho  Ho11  1  0.198699  0.600035  0.600634  1
  Ho  Ho12  1  0.059962  0.440038  0.440038  1
  Ho  Ho13  1  0.440038  0.059962  0.059962  1
  Ho  Ho14  1  0.440038  0.059962  0.440038  1
  Ho  Ho15  1  0.059962  0.440038  0.059962  1
  Hg  Hg16  1  0.834629  0.834629  0.834856  1
  Hg  Hg17  1  0.834629  0.834629  0.495887  1
  Hg  Hg18  1  0.834856  0.495887  0.834629  1
  Hg  Hg19  1  0.495887  0.834856  0.834629  1
  Ir  Ir20  1  0.391794  0.391794  0.392657  1
  Ir  Ir21  1  0.391794  0.391794  0.823753  1
  Ir  Ir22  1  0.392657  0.823753  0.391794  1
  Ir  Ir23  1  0.823753  0.392657  0.391794  1
