# generated using pymatgen
data_ThB2OsRu
_symmetry_space_group_name_H-M   'P 1'
_cell_length_a   6.80813773
_cell_length_b   6.04717329
_cell_length_c   5.61349834
_cell_angle_alpha   71.33383830
_cell_angle_beta   57.29951088
_cell_angle_gamma   51.36664263
_symmetry_Int_Tables_number   1
_chemical_formula_structural   ThB2OsRu
_chemical_formula_sum   'Th2 B4 Os2 Ru2'
_cell_volume   151.86601762
_cell_formula_units_Z   2
loop_
 _symmetry_equiv_pos_site_id
 _symmetry_equiv_pos_as_xyz
  1  'x, y, z'
loop_
 _atom_site_type_symbol
 _atom_site_label
 _atom_site_symmetry_multiplicity
 _atom_site_fract_x
 _atom_site_fract_y
 _atom_site_fract_z
 _atom_site_occupancy
  Th  Th0  1  0.000000  0.000000  0.000000  1
  Th  Th1  1  0.250000  0.250000  0.250000  1
  B  B2  1  0.318189  0.681811  0.318189  1
  B  B3  1  0.681811  0.318189  0.681811  1
  B  B4  1  0.564668  0.935332  0.564668  1
  B  B5  1  0.935332  0.564668  0.935332  1
  Os  Os6  1  0.637364  0.637364  0.362636  1
  Os  Os7  1  0.362636  0.362636  0.637364  1
  Ru  Ru8  1  0.613123  0.613123  0.886877  1
  Ru  Ru9  1  0.886877  0.886877  0.613123  1
