# generated using pymatgen
data_Sm12Si3GeI12
_symmetry_space_group_name_H-M   'P 1'
_cell_length_a   10.71273966
_cell_length_b   10.71274011
_cell_length_c   10.71274012
_cell_angle_alpha   109.54589162
_cell_angle_beta   109.54589603
_cell_angle_gamma   109.54589567
_symmetry_Int_Tables_number   1
_chemical_formula_structural   Sm12Si3GeI12
_chemical_formula_sum   'Sm12 Si3 Ge1 I12'
_cell_volume   943.78540857
_cell_formula_units_Z   1
loop_
 _symmetry_equiv_pos_site_id
 _symmetry_equiv_pos_as_xyz
  1  'x, y, z'
loop_
 _atom_site_type_symbol
 _atom_site_label
 _atom_site_symmetry_multiplicity
 _atom_site_fract_x
 _atom_site_fract_y
 _atom_site_fract_z
 _atom_site_occupancy
  Sm  Sm0  1  0.465030  0.484930  0.230456  1
  Sm  Sm1  1  0.750000  0.231155  0.268845  1
  Sm  Sm2  1  0.750000  0.018665  0.481335  1
  Sm  Sm3  1  0.230456  0.465030  0.484930  1
  Sm  Sm4  1  0.268845  0.750000  0.231155  1
  Sm  Sm5  1  0.034970  0.269544  0.015070  1
  Sm  Sm6  1  0.015070  0.034970  0.269544  1
  Sm  Sm7  1  0.481335  0.750000  0.018665  1
  Sm  Sm8  1  0.484930  0.230456  0.465030  1
  Sm  Sm9  1  0.018665  0.481335  0.750000  1
  Sm  Sm10  1  0.269544  0.015070  0.034970  1
  Sm  Sm11  1  0.231155  0.268845  0.750000  1
  Si  Si12  1  0.499942  0.000058  0.250000  1
  Si  Si13  1  0.000058  0.250000  0.499942  1
  Si  Si14  1  0.250000  0.499942  0.000058  1
  Ge  Ge15  1  0.250000  0.250000  0.250000  1
  I  I16  1  0.250000  0.757220  0.742780  1
  I  I17  1  0.514187  0.507073  0.756877  1
  I  I18  1  0.985813  0.743123  0.992927  1
  I  I19  1  0.742780  0.250000  0.757220  1
  I  I20  1  0.992927  0.985813  0.743123  1
  I  I21  1  0.250000  0.992905  0.507095  1
  I  I22  1  0.756877  0.514187  0.507073  1
  I  I23  1  0.507095  0.250000  0.992905  1
  I  I24  1  0.757220  0.742780  0.250000  1
  I  I25  1  0.743123  0.992927  0.985813  1
  I  I26  1  0.992905  0.507095  0.250000  1
  I  I27  1  0.507073  0.756877  0.514187  1
