# generated using pymatgen
data_K4Hf6BeI18
_symmetry_space_group_name_H-M   'P 1'
_cell_length_a   11.19784667
_cell_length_b   11.32257013
_cell_length_c   11.46309322
_cell_angle_alpha   118.32790964
_cell_angle_beta   100.42151391
_cell_angle_gamma   103.52675050
_symmetry_Int_Tables_number   1
_chemical_formula_structural   K4Hf6BeI18
_chemical_formula_sum   'K4 Hf6 Be1 I18'
_cell_volume   1169.27759627
_cell_formula_units_Z   1
loop_
 _symmetry_equiv_pos_site_id
 _symmetry_equiv_pos_as_xyz
  1  'x, y, z'
loop_
 _atom_site_type_symbol
 _atom_site_label
 _atom_site_symmetry_multiplicity
 _atom_site_fract_x
 _atom_site_fract_y
 _atom_site_fract_z
 _atom_site_occupancy
  K  K0  1  0.647904  0.537607  0.225381  1
  K  K1  1  0.352096  0.462393  0.774619  1
  K  K2  1  0.682267  0.224980  0.564903  1
  K  K3  1  0.317733  0.775020  0.435097  1
  Hf  Hf4  1  0.143351  0.055112  0.222729  1
  Hf  Hf5  1  0.856649  0.944888  0.777271  1
  Hf  Hf6  1  0.869656  0.123714  0.131016  1
  Hf  Hf7  1  0.130344  0.876286  0.868984  1
  Hf  Hf8  1  0.139757  0.229846  0.043909  1
  Hf  Hf9  1  0.860243  0.770154  0.956091  1
  Be  Be10  1  0.000000  0.000000  0.000000  1
  I  I11  1  0.007936  0.410790  0.196598  1
  I  I12  1  0.992064  0.589210  0.803402  1
  I  I13  1  0.329991  0.332116  0.310703  1
  I  I14  1  0.670009  0.667884  0.689297  1
  I  I15  1  0.320121  0.520482  0.098482  1
  I  I16  1  0.679879  0.479518  0.901518  1
  I  I17  1  0.004935  0.795326  0.208659  1
  I  I18  1  0.995065  0.204674  0.791341  1
  I  I19  1  0.705051  0.275714  0.287905  1
  I  I20  1  0.294949  0.724286  0.712095  1
  I  I21  1  0.315865  0.126036  0.902796  1
  I  I22  1  0.684135  0.873964  0.097204  1
  I  I23  1  0.015532  0.205246  0.411158  1
  I  I24  1  0.984468  0.794754  0.588842  1
  I  I25  1  0.318713  0.922289  0.108792  1
  I  I26  1  0.681287  0.077711  0.891208  1
  I  I27  1  0.332028  0.119815  0.501198  1
  I  I28  1  0.667972  0.880185  0.498802  1
