# generated using pymatgen
data_Hf4UCN4
_symmetry_space_group_name_H-M   'P 1'
_cell_length_a   13.73470652
_cell_length_b   13.73470653
_cell_length_c   13.73470717
_cell_angle_alpha   13.52090909
_cell_angle_beta   13.52090949
_cell_angle_gamma   13.52091199
_symmetry_Int_Tables_number   1
_chemical_formula_structural   Hf4UCN4
_chemical_formula_sum   'Hf4 U1 C1 N4'
_cell_volume   123.22229266
_cell_formula_units_Z   1
loop_
 _symmetry_equiv_pos_site_id
 _symmetry_equiv_pos_as_xyz
  1  'x, y, z'
loop_
 _atom_site_type_symbol
 _atom_site_label
 _atom_site_symmetry_multiplicity
 _atom_site_fract_x
 _atom_site_fract_y
 _atom_site_fract_z
 _atom_site_occupancy
  Hf  Hf0  1  0.598323  0.598323  0.598323  1
  Hf  Hf1  1  0.198852  0.198852  0.198852  1
  Hf  Hf2  1  0.801148  0.801148  0.801148  1
  Hf  Hf3  1  0.401677  0.401677  0.401677  1
  U  U4  1  0.000000  0.000000  0.000000  1
  C  C5  1  0.500000  0.500000  0.500000  1
  N  N6  1  0.705686  0.705686  0.705686  1
  N  N7  1  0.101425  0.101425  0.101425  1
  N  N8  1  0.294314  0.294314  0.294314  1
  N  N9  1  0.898575  0.898575  0.898575  1
