# generated using pymatgen
data_Dy5Tm5(InBi2)2
_symmetry_space_group_name_H-M   'P 1'
_cell_length_a   6.50078000
_cell_length_b   9.03398023
_cell_length_c   9.03465225
_cell_angle_alpha   119.97670384
_cell_angle_beta   89.99981072
_cell_angle_gamma   90.00019320
_symmetry_Int_Tables_number   1
_chemical_formula_structural   Dy5Tm5(InBi2)2
_chemical_formula_sum   'Dy5 Tm5 In2 Bi4'
_cell_volume   459.60905751
_cell_formula_units_Z   1
loop_
 _symmetry_equiv_pos_site_id
 _symmetry_equiv_pos_as_xyz
  1  'x, y, z'
loop_
 _atom_site_type_symbol
 _atom_site_label
 _atom_site_symmetry_multiplicity
 _atom_site_fract_x
 _atom_site_fract_y
 _atom_site_fract_z
 _atom_site_occupancy
  Dy  Dy0  1  0.750002  0.237390  0.000316  1
  Dy  Dy1  1  0.750001  0.763472  0.761432  1
  Dy  Dy2  1  0.749999  0.002306  0.237921  1
  Dy  Dy3  1  0.250004  0.765906  0.999233  1
  Dy  Dy4  1  0.249999  0.234678  0.243391  1
  Tm  Tm5  1  0.496969  0.331443  0.660387  1
  Tm  Tm6  1  0.496886  0.672224  0.340390  1
  Tm  Tm7  1  0.003114  0.672226  0.340389  1
  Tm  Tm8  1  0.003035  0.331442  0.660387  1
  Tm  Tm9  1  0.250003  0.990477  0.756480  1
  In  In10  1  0.249999  0.604652  0.605929  1
  In  In11  1  0.249991  0.998097  0.395440  1
  Bi  Bi12  1  0.750000  0.605858  0.000509  1
  Bi  Bi13  1  0.749999  0.396381  0.393585  1
  Bi  Bi14  1  0.749996  0.003783  0.605586  1
  Bi  Bi15  1  0.250003  0.389666  0.998625  1
