# generated using pymatgen
data_Sr3Np5Cd2O18
_symmetry_space_group_name_H-M   'P 1'
_cell_length_a   6.84414838
_cell_length_b   7.68354428
_cell_length_c   8.67577526
_cell_angle_alpha   100.86814694
_cell_angle_beta   97.09109741
_cell_angle_gamma   107.58640785
_symmetry_Int_Tables_number   1
_chemical_formula_structural   Sr3Np5Cd2O18
_chemical_formula_sum   'Sr3 Np5 Cd2 O18'
_cell_volume   419.10503194
_cell_formula_units_Z   1
loop_
 _symmetry_equiv_pos_site_id
 _symmetry_equiv_pos_as_xyz
  1  'x, y, z'
loop_
 _atom_site_type_symbol
 _atom_site_label
 _atom_site_symmetry_multiplicity
 _atom_site_fract_x
 _atom_site_fract_y
 _atom_site_fract_z
 _atom_site_occupancy
  Sr  Sr0  1  0.599293  0.697159  0.195391  1
  Sr  Sr1  1  0.400793  0.306372  0.803632  1
  Sr  Sr2  1  0.199798  0.902046  0.416828  1
  Np  Np3  1  0.997827  0.993071  0.999353  1
  Np  Np4  1  0.788438  0.579894  0.583253  1
  Np  Np5  1  0.631921  0.202555  0.193764  1
  Np  Np6  1  0.373466  0.799546  0.808388  1
  Np  Np7  1  0.205374  0.422334  0.412554  1
  Cd  Cd8  1  0.798284  0.093256  0.599273  1
  Cd  Cd9  1  0.993121  0.492141  0.988317  1
  O  O10  1  0.817189  0.800296  0.479926  1
  O  O11  1  0.016782  0.204889  0.189530  1
  O  O12  1  0.687546  0.398552  0.059563  1
  O  O13  1  0.465837  0.997134  0.686473  1
  O  O14  1  0.871627  0.388835  0.392121  1
  O  O15  1  0.497854  0.395228  0.346602  1
  O  O16  1  0.243643  0.603877  0.277300  1
  O  O17  1  0.983150  0.812211  0.140220  1
  O  O18  1  0.661796  0.929088  0.996754  1
  O  O19  1  0.335697  0.059517  0.008563  1
  O  O20  1  0.008411  0.173178  0.854103  1
  O  O21  1  0.764261  0.378789  0.703455  1
  O  O22  1  0.501478  0.597595  0.665534  1
  O  O23  1  0.145239  0.659155  0.585242  1
  O  O24  1  0.565435  0.019893  0.331062  1
  O  O25  1  0.306027  0.595637  0.934786  1
  O  O26  1  0.985750  0.778609  0.814513  1
  O  O27  1  0.153961  0.219144  0.533500  1
