# generated using pymatgen
data_Y9Er(InBi2)2
_symmetry_space_group_name_H-M   'P 1'
_cell_length_a   9.09377907
_cell_length_b   9.09510582
_cell_length_c   6.54484333
_cell_angle_alpha   90.03576599
_cell_angle_beta   89.97528951
_cell_angle_gamma   119.77685511
_symmetry_Int_Tables_number   1
_chemical_formula_structural   Y9Er(InBi2)2
_chemical_formula_sum   'Y9 Er1 In2 Bi4'
_cell_volume   469.84445280
_cell_formula_units_Z   1
loop_
 _symmetry_equiv_pos_site_id
 _symmetry_equiv_pos_as_xyz
  1  'x, y, z'
loop_
 _atom_site_type_symbol
 _atom_site_label
 _atom_site_symmetry_multiplicity
 _atom_site_fract_x
 _atom_site_fract_y
 _atom_site_fract_z
 _atom_site_occupancy
  Y  Y0  1  0.668788  0.329446  0.003566  1
  Y  Y1  1  0.329468  0.668951  0.003456  1
  Y  Y2  1  0.329594  0.668831  0.496776  1
  Y  Y3  1  0.759783  0.759901  0.749867  1
  Y  Y4  1  0.235874  0.997877  0.749752  1
  Y  Y5  1  0.997822  0.235909  0.749728  1
  Y  Y6  1  0.236486  0.236408  0.250202  1
  Y  Y7  1  0.764276  0.007933  0.250244  1
  Y  Y8  1  0.007616  0.764224  0.250183  1
  Er  Er9  1  0.669027  0.328996  0.495679  1
  In  In10  1  0.397526  0.002764  0.251122  1
  In  In11  1  0.000833  0.396560  0.251129  1
  Bi  Bi12  1  0.393752  0.392967  0.749251  1
  Bi  Bi13  1  0.602929  0.998046  0.749132  1
  Bi  Bi14  1  0.996497  0.602239  0.749070  1
  Bi  Bi15  1  0.609731  0.608946  0.250841  1
