# generated using pymatgen
data_ZrFe(SO4)3
_symmetry_space_group_name_H-M   'P 1'
_cell_length_a   8.75063644
_cell_length_b   8.75063774
_cell_length_c   9.26336278
_cell_angle_alpha   118.18532170
_cell_angle_beta   61.81467162
_cell_angle_gamma   119.99999568
_symmetry_Int_Tables_number   1
_chemical_formula_structural   ZrFe(SO4)3
_chemical_formula_sum   'Zr2 Fe2 S6 O24'
_cell_volume   514.89167648
_cell_formula_units_Z   2
loop_
 _symmetry_equiv_pos_site_id
 _symmetry_equiv_pos_as_xyz
  1  'x, y, z'
loop_
 _atom_site_type_symbol
 _atom_site_label
 _atom_site_symmetry_multiplicity
 _atom_site_fract_x
 _atom_site_fract_y
 _atom_site_fract_z
 _atom_site_occupancy
  Zr  Zr0  1  0.644701  0.355298  0.065894  1
  Zr  Zr1  1  0.851612  0.148388  0.445165  1
  Fe  Fe2  1  0.147194  0.852806  0.558419  1
  Fe  Fe3  1  0.355731  0.644268  0.932806  1
  S  S4  1  0.253676  0.470563  0.250207  1
  S  S5  1  0.529437  0.033322  0.250207  1
  S  S6  1  0.966678  0.746324  0.250207  1
  S  S7  1  0.042516  0.248817  0.748659  1
  S  S8  1  0.457643  0.957485  0.748659  1
  S  S9  1  0.751183  0.542358  0.748659  1
  O  O10  1  0.115109  0.721594  0.087940  1
  O  O11  1  0.278405  0.481455  0.087940  1
  O  O12  1  0.518545  0.884891  0.087940  1
  O  O13  1  0.393208  0.398152  0.222591  1
  O  O14  1  0.601848  0.217648  0.222591  1
  O  O15  1  0.782352  0.606791  0.222591  1
  O  O16  1  0.065997  0.324244  0.300434  1
  O  O17  1  0.675755  0.042186  0.300434  1
  O  O18  1  0.957814  0.934004  0.300434  1
  O  O19  1  0.272163  0.644700  0.391306  1
  O  O20  1  0.355301  0.018771  0.391306  1
  O  O21  1  0.981229  0.727835  0.391306  1
  O  O22  1  0.014369  0.262754  0.606655  1
  O  O23  1  0.641729  0.985631  0.606655  1
  O  O24  1  0.737248  0.358271  0.606655  1
  O  O25  1  0.021098  0.058560  0.711246  1
  O  O26  1  0.326217  0.978902  0.711246  1
  O  O27  1  0.941439  0.673783  0.711246  1
  O  O28  1  0.220882  0.386291  0.770137  1
  O  O29  1  0.395270  0.779117  0.770137  1
  O  O30  1  0.613710  0.604730  0.770137  1
  O  O31  1  0.496823  0.112304  0.910065  1
  O  O32  1  0.705419  0.503177  0.910065  1
  O  O33  1  0.887695  0.294582  0.910065  1
