# generated using pymatgen
data_Np2SnH2
_symmetry_space_group_name_H-M   'P 1'
_cell_length_a   5.54208194
_cell_length_b   5.54208140
_cell_length_c   5.54208304
_cell_angle_alpha   136.32551363
_cell_angle_beta   136.32552885
_cell_angle_gamma   63.47747662
_symmetry_Int_Tables_number   1
_chemical_formula_structural   Np2SnH2
_chemical_formula_sum   'Np2 Sn1 H2'
_cell_volume   80.12152739
_cell_formula_units_Z   1
loop_
 _symmetry_equiv_pos_site_id
 _symmetry_equiv_pos_as_xyz
  1  'x, y, z'
loop_
 _atom_site_type_symbol
 _atom_site_label
 _atom_site_symmetry_multiplicity
 _atom_site_fract_x
 _atom_site_fract_y
 _atom_site_fract_z
 _atom_site_occupancy
  Np  Np0  1  0.351468  0.351468  0.000000  1
  Np  Np1  1  0.648532  0.648532  0.000000  1
  Sn  Sn2  1  0.000000  0.000000  0.000000  1
  H  H3  1  0.750000  0.250000  0.500000  1
  H  H4  1  0.250000  0.750000  0.500000  1
