# generated using pymatgen
data_Ca11MgSb9
_symmetry_space_group_name_H-M   'P 1'
_cell_length_a   12.05587538
_cell_length_b   12.05587474
_cell_length_c   12.05587500
_cell_angle_alpha   120.98970166
_cell_angle_beta   117.38862400
_cell_angle_gamma   91.43784671
_symmetry_Int_Tables_number   1
_chemical_formula_structural   Ca11MgSb9
_chemical_formula_sum   'Ca22 Mg2 Sb18'
_cell_volume   1252.28488920
_cell_formula_units_Z   2
loop_
 _symmetry_equiv_pos_site_id
 _symmetry_equiv_pos_as_xyz
  1  'x, y, z'
loop_
 _atom_site_type_symbol
 _atom_site_label
 _atom_site_symmetry_multiplicity
 _atom_site_fract_x
 _atom_site_fract_y
 _atom_site_fract_z
 _atom_site_occupancy
  Ca  Ca0  1  0.290234  0.087142  0.352261  1
  Ca  Ca1  1  0.734880  0.937973  0.647739  1
  Ca  Ca2  1  0.234880  0.587142  0.796909  1
  Ca  Ca3  1  0.790234  0.437973  0.203091  1
  Ca  Ca4  1  0.607157  0.423299  0.362153  1
  Ca  Ca5  1  0.061147  0.245004  0.637847  1
  Ca  Ca6  1  0.561147  0.923299  0.816142  1
  Ca  Ca7  1  0.107157  0.745004  0.183858  1
  Ca  Ca8  1  0.099471  0.361627  0.372054  1
  Ca  Ca9  1  0.989573  0.727418  0.627946  1
  Ca  Ca10  1  0.489573  0.861627  0.262155  1
  Ca  Ca11  1  0.599471  0.227418  0.737845  1
  Ca  Ca12  1  0.496277  0.513177  0.660428  1
  Ca  Ca13  1  0.852749  0.835849  0.339572  1
  Ca  Ca14  1  0.352749  0.013177  0.016900  1
  Ca  Ca15  1  0.996277  0.335849  0.983100  1
  Ca  Ca16  1  0.998028  0.998028  0.000000  1
  Ca  Ca17  1  0.498028  0.498028  0.000000  1
  Ca  Ca18  1  0.359076  0.617014  0.374225  1
  Ca  Ca19  1  0.242788  0.984851  0.625775  1
  Ca  Ca20  1  0.742788  0.117014  0.257937  1
  Ca  Ca21  1  0.859076  0.484851  0.742063  1
  Mg  Mg22  1  0.280585  0.280585  0.000000  1
  Mg  Mg23  1  0.780585  0.780585  0.000000  1
  Sb  Sb24  1  0.720645  0.710804  0.706706  1
  Sb  Sb25  1  0.004098  0.013940  0.293294  1
  Sb  Sb26  1  0.504098  0.210804  0.990159  1
  Sb  Sb27  1  0.220645  0.513940  0.009841  1
  Sb  Sb28  1  0.563791  0.213258  0.426166  1
  Sb  Sb29  1  0.787092  0.137624  0.573834  1
  Sb  Sb30  1  0.287092  0.713258  0.649468  1
  Sb  Sb31  1  0.063791  0.637624  0.350532  1
  Sb  Sb32  1  0.293082  0.299900  0.255358  1
  Sb  Sb33  1  0.044542  0.037723  0.744642  1
  Sb  Sb34  1  0.544542  0.799900  0.006819  1
  Sb  Sb35  1  0.793082  0.537723  0.993181  1
  Sb  Sb36  1  0.921723  0.421723  0.500000  1
  Sb  Sb37  1  0.421723  0.921723  0.500000  1
  Sb  Sb38  1  0.666667  0.667000  0.349307  1
  Sb  Sb39  1  0.317694  0.317361  0.650693  1
  Sb  Sb40  1  0.817694  0.167000  0.000333  1
  Sb  Sb41  1  0.166667  0.817361  0.999667  1
