# generated using pymatgen
data_Mn4Nb12FeSi7N4
_symmetry_space_group_name_H-M   'P 1'
_cell_length_a   8.04392414
_cell_length_b   8.04392456
_cell_length_c   8.04392408
_cell_angle_alpha   60.34858579
_cell_angle_beta   60.34858713
_cell_angle_gamma   60.34858277
_symmetry_Int_Tables_number   1
_chemical_formula_structural   Mn4Nb12FeSi7N4
_chemical_formula_sum   'Mn4 Nb12 Fe1 Si7 N4'
_cell_volume   370.93705670
_cell_formula_units_Z   1
loop_
 _symmetry_equiv_pos_site_id
 _symmetry_equiv_pos_as_xyz
  1  'x, y, z'
loop_
 _atom_site_type_symbol
 _atom_site_label
 _atom_site_symmetry_multiplicity
 _atom_site_fract_x
 _atom_site_fract_y
 _atom_site_fract_z
 _atom_site_occupancy
  Mn  Mn0  1  0.132795  0.620874  0.620874  1
  Mn  Mn1  1  0.620874  0.132795  0.620874  1
  Mn  Mn2  1  0.620874  0.620874  0.132795  1
  Mn  Mn3  1  0.624103  0.624103  0.624103  1
  Nb  Nb4  1  0.802929  0.802929  0.195712  1
  Nb  Nb5  1  0.196144  0.196144  0.804170  1
  Nb  Nb6  1  0.802929  0.195712  0.802929  1
  Nb  Nb7  1  0.196144  0.804170  0.196144  1
  Nb  Nb8  1  0.195712  0.802929  0.802929  1
  Nb  Nb9  1  0.804170  0.196144  0.196144  1
  Nb  Nb10  1  0.447044  0.447044  0.053918  1
  Nb  Nb11  1  0.053067  0.053067  0.447898  1
  Nb  Nb12  1  0.447044  0.053918  0.447044  1
  Nb  Nb13  1  0.053067  0.447898  0.053067  1
  Nb  Nb14  1  0.053918  0.447044  0.447044  1
  Nb  Nb15  1  0.447898  0.053067  0.053067  1
  Fe  Fe16  1  0.826100  0.826100  0.826100  1
  Si  Si17  1  0.750537  0.416373  0.416373  1
  Si  Si18  1  0.416373  0.750537  0.416373  1
  Si  Si19  1  0.416373  0.416373  0.750537  1
  Si  Si20  1  0.416366  0.416366  0.416366  1
  Si  Si21  1  0.507392  0.834201  0.834201  1
  Si  Si22  1  0.834201  0.507392  0.834201  1
  Si  Si23  1  0.834201  0.834201  0.507392  1
  N  N24  1  0.628336  0.123296  0.123296  1
  N  N25  1  0.123296  0.628336  0.123296  1
  N  N26  1  0.123296  0.123296  0.628336  1
  N  N27  1  0.124819  0.124819  0.124819  1
