# generated using pymatgen
data_LaTbPrRh2
_symmetry_space_group_name_H-M   'P 1'
_cell_length_a   7.63707576
_cell_length_b   7.63707597
_cell_length_c   7.63707511
_cell_angle_alpha   70.72771589
_cell_angle_beta   70.72771468
_cell_angle_gamma   70.72771100
_symmetry_Int_Tables_number   1
_chemical_formula_structural   LaTbPrRh2
_chemical_formula_sum   'La3 Tb3 Pr3 Rh6'
_cell_volume   384.49239735
_cell_formula_units_Z   3
loop_
 _symmetry_equiv_pos_site_id
 _symmetry_equiv_pos_as_xyz
  1  'x, y, z'
loop_
 _atom_site_type_symbol
 _atom_site_label
 _atom_site_symmetry_multiplicity
 _atom_site_fract_x
 _atom_site_fract_y
 _atom_site_fract_z
 _atom_site_occupancy
  La  La0  1  0.161231  0.388944  0.670105  1
  La  La1  1  0.670105  0.161231  0.388944  1
  La  La2  1  0.388944  0.670105  0.161231  1
  Tb  Tb3  1  0.999059  0.999059  0.999059  1
  Tb  Tb4  1  0.801209  0.801209  0.801209  1
  Tb  Tb5  1  0.198892  0.198892  0.198892  1
  Pr  Pr6  1  0.838018  0.608018  0.334705  1
  Pr  Pr7  1  0.334705  0.838018  0.608018  1
  Pr  Pr8  1  0.608018  0.334705  0.838018  1
  Rh  Rh9  1  0.961304  0.156713  0.591944  1
  Rh  Rh10  1  0.591944  0.961304  0.156713  1
  Rh  Rh11  1  0.156713  0.591944  0.961304  1
  Rh  Rh12  1  0.040717  0.843289  0.405853  1
  Rh  Rh13  1  0.405853  0.040717  0.843289  1
  Rh  Rh14  1  0.843289  0.405853  0.040717  1
