# generated using pymatgen
data_Nd3Tm(Si5Pt3)2
_symmetry_space_group_name_H-M   'P 1'
_cell_length_a   8.23783273
_cell_length_b   8.22646827
_cell_length_c   8.22646788
_cell_angle_alpha   136.39126292
_cell_angle_beta   105.20025356
_cell_angle_gamma   90.76544877
_symmetry_Int_Tables_number   1
_chemical_formula_structural   Nd3Tm(Si5Pt3)2
_chemical_formula_sum   'Nd3 Tm1 Si10 Pt6'
_cell_volume   353.35201607
_cell_formula_units_Z   1
loop_
 _symmetry_equiv_pos_site_id
 _symmetry_equiv_pos_as_xyz
  1  'x, y, z'
loop_
 _atom_site_type_symbol
 _atom_site_label
 _atom_site_symmetry_multiplicity
 _atom_site_fract_x
 _atom_site_fract_y
 _atom_site_fract_z
 _atom_site_occupancy
  Nd  Nd0  1  0.639109  0.370664  0.268444  1
  Nd  Nd1  1  0.360582  0.629225  0.731357  1
  Nd  Nd2  1  0.101908  0.870667  0.231241  1
  Tm  Tm3  1  0.899811  0.129585  0.770227  1
  Si  Si4  1  0.270340  0.520810  0.248629  1
  Si  Si5  1  0.728372  0.477831  0.750229  1
  Si  Si6  1  0.728372  0.978143  0.250541  1
  Si  Si7  1  0.270340  0.021710  0.749530  1
  Si  Si8  1  0.461854  0.112617  0.349236  1
  Si  Si9  1  0.540821  0.889673  0.651149  1
  Si  Si10  1  0.762939  0.612617  0.150321  1
  Si  Si11  1  0.235844  0.385970  0.849874  1
  Si  Si12  1  0.999740  0.250605  0.249555  1
  Si  Si13  1  0.999740  0.750185  0.749135  1
  Pt  Pt14  1  0.245703  0.136577  0.109126  1
  Pt  Pt15  1  0.754566  0.864882  0.889684  1
  Pt  Pt16  1  0.025225  0.636694  0.388531  1
  Pt  Pt17  1  0.972073  0.360758  0.611314  1
  Pt  Pt18  1  0.501332  0.249723  0.750265  1
  Pt  Pt19  1  0.501332  0.751066  0.251608  1
