# generated using pymatgen
data_TbDyY4(RuI3)2
_symmetry_space_group_name_H-M   'P 1'
_cell_length_a   4.23545600
_cell_length_b   8.90486085
_cell_length_c   12.32829444
_cell_angle_alpha   86.26175841
_cell_angle_beta   90.00000000
_cell_angle_gamma   90.00000000
_symmetry_Int_Tables_number   1
_chemical_formula_structural   TbDyY4(RuI3)2
_chemical_formula_sum   'Tb1 Dy1 Y4 Ru2 I6'
_cell_volume   463.98643912
_cell_formula_units_Z   1
loop_
 _symmetry_equiv_pos_site_id
 _symmetry_equiv_pos_as_xyz
  1  'x, y, z'
loop_
 _atom_site_type_symbol
 _atom_site_label
 _atom_site_symmetry_multiplicity
 _atom_site_fract_x
 _atom_site_fract_y
 _atom_site_fract_z
 _atom_site_occupancy
  Tb  Tb0  1  0.750000  0.130607  0.124829  1
  Dy  Dy1  1  0.250000  0.869812  0.875268  1
  Y  Y2  1  0.750000  0.098574  0.684503  1
  Y  Y3  1  0.250000  0.901346  0.315601  1
  Y  Y4  1  0.250000  0.262541  0.897128  1
  Y  Y5  1  0.750000  0.737409  0.102792  1
  Ru  Ru6  1  0.750000  0.052988  0.907380  1
  Ru  Ru7  1  0.250000  0.946615  0.092438  1
  I  I8  1  0.250000  0.352039  0.637031  1
  I  I9  1  0.750000  0.647960  0.362972  1
  I  I10  1  0.750000  0.141627  0.392824  1
  I  I11  1  0.250000  0.858349  0.607249  1
  I  I12  1  0.250000  0.427471  0.132792  1
  I  I13  1  0.750000  0.572662  0.867194  1
