# generated using pymatgen
data_ErHf7(Si4W)2
_symmetry_space_group_name_H-M   'P 1'
_cell_length_a   6.97928915
_cell_length_b   6.98961516
_cell_length_c   12.78776200
_cell_angle_alpha   90.00000000
_cell_angle_beta   90.00000000
_cell_angle_gamma   90.02415060
_symmetry_Int_Tables_number   1
_chemical_formula_structural   ErHf7(Si4W)2
_chemical_formula_sum   'Er2 Hf14 Si16 W4'
_cell_volume   623.81952300
_cell_formula_units_Z   2
loop_
 _symmetry_equiv_pos_site_id
 _symmetry_equiv_pos_as_xyz
  1  'x, y, z'
loop_
 _atom_site_type_symbol
 _atom_site_label
 _atom_site_symmetry_multiplicity
 _atom_site_fract_x
 _atom_site_fract_y
 _atom_site_fract_z
 _atom_site_occupancy
  Er  Er0  1  0.495067  0.156593  0.531508  1
  Er  Er1  1  0.504933  0.843407  0.031508  1
  Hf  Hf2  1  0.656200  0.001803  0.281277  1
  Hf  Hf3  1  0.343800  0.998197  0.781277  1
  Hf  Hf4  1  0.846778  0.500946  0.968279  1
  Hf  Hf5  1  0.153222  0.499054  0.468279  1
  Hf  Hf6  1  0.002653  0.655066  0.719719  1
  Hf  Hf7  1  0.997347  0.344934  0.219719  1
  Hf  Hf8  1  0.496617  0.355585  0.124857  1
  Hf  Hf9  1  0.503383  0.644415  0.624857  1
  Hf  Hf10  1  0.856142  0.004608  0.874437  1
  Hf  Hf11  1  0.143858  0.995392  0.374437  1
  Hf  Hf12  1  0.646852  0.502410  0.374491  1
  Hf  Hf13  1  0.353148  0.497590  0.874491  1
  Hf  Hf14  1  0.002863  0.856095  0.125606  1
  Hf  Hf15  1  0.997137  0.143905  0.625606  1
  Si  Si16  1  0.799803  0.148259  0.071190  1
  Si  Si17  1  0.200197  0.851741  0.571190  1
  Si  Si18  1  0.648240  0.700109  0.819702  1
  Si  Si19  1  0.351760  0.299891  0.319702  1
  Si  Si20  1  0.858607  0.204382  0.426876  1
  Si  Si21  1  0.141393  0.795618  0.926876  1
  Si  Si22  1  0.706532  0.642887  0.181271  1
  Si  Si23  1  0.293468  0.357113  0.681271  1
  Si  Si24  1  0.547614  0.201126  0.931981  1
  Si  Si25  1  0.452386  0.798874  0.431981  1
  Si  Si26  1  0.698822  0.951178  0.684778  1
  Si  Si27  1  0.301178  0.048822  0.184778  1
  Si  Si28  1  0.804897  0.454773  0.567121  1
  Si  Si29  1  0.195103  0.545227  0.067121  1
  Si  Si30  1  0.954718  0.696382  0.316499  1
  Si  Si31  1  0.045282  0.303618  0.816499  1
  W  W32  1  0.673852  0.328976  0.750297  1
  W  W33  1  0.326148  0.671024  0.250297  1
  W  W34  1  0.826957  0.822912  0.500113  1
  W  W35  1  0.173043  0.177088  0.000113  1
