# generated using pymatgen
data_Sm2Si6AgPd20
_symmetry_space_group_name_H-M   'P 1'
_cell_length_a   8.70355548
_cell_length_b   8.70355536
_cell_length_c   8.70355500
_cell_angle_alpha   59.99999756
_cell_angle_beta   59.99999803
_cell_angle_gamma   59.99999822
_symmetry_Int_Tables_number   1
_chemical_formula_structural   Sm2Si6AgPd20
_chemical_formula_sum   'Sm2 Si6 Ag1 Pd20'
_cell_volume   466.20299363
_cell_formula_units_Z   1
loop_
 _symmetry_equiv_pos_site_id
 _symmetry_equiv_pos_as_xyz
  1  'x, y, z'
loop_
 _atom_site_type_symbol
 _atom_site_label
 _atom_site_symmetry_multiplicity
 _atom_site_fract_x
 _atom_site_fract_y
 _atom_site_fract_z
 _atom_site_occupancy
  Sm  Sm0  1  0.250000  0.250000  0.250000  1
  Sm  Sm1  1  0.750000  0.750000  0.750000  1
  Si  Si2  1  0.733929  0.266071  0.266071  1
  Si  Si3  1  0.266071  0.733929  0.733929  1
  Si  Si4  1  0.266071  0.733929  0.266071  1
  Si  Si5  1  0.733929  0.266071  0.733929  1
  Si  Si6  1  0.266071  0.266071  0.733929  1
  Si  Si7  1  0.733929  0.733929  0.266071  1
  Ag  Ag8  1  0.000000  0.000000  0.000000  1
  Pd  Pd9  1  0.384585  0.384585  0.384585  1
  Pd  Pd10  1  0.615415  0.615415  0.615415  1
  Pd  Pd11  1  0.384585  0.384585  0.846244  1
  Pd  Pd12  1  0.384585  0.846244  0.384585  1
  Pd  Pd13  1  0.615415  0.615415  0.153756  1
  Pd  Pd14  1  0.615415  0.153756  0.615415  1
  Pd  Pd15  1  0.846244  0.384585  0.384585  1
  Pd  Pd16  1  0.153756  0.615415  0.615415  1
  Pd  Pd17  1  0.344577  0.000000  0.000000  1
  Pd  Pd18  1  0.655423  0.000000  0.000000  1
  Pd  Pd19  1  0.000000  0.344577  0.655423  1
  Pd  Pd20  1  0.000000  0.655423  0.344577  1
  Pd  Pd21  1  0.000000  0.344577  0.000000  1
  Pd  Pd22  1  0.655423  0.000000  0.344577  1
  Pd  Pd23  1  0.000000  0.655423  0.000000  1
  Pd  Pd24  1  0.344577  0.000000  0.655423  1
  Pd  Pd25  1  0.000000  0.000000  0.344577  1
  Pd  Pd26  1  0.000000  0.000000  0.655423  1
  Pd  Pd27  1  0.655423  0.344577  0.000000  1
  Pd  Pd28  1  0.344577  0.655423  0.000000  1
