# generated using pymatgen
data_LiTm3Pt2
_symmetry_space_group_name_H-M   'P 1'
_cell_length_a   4.09336000
_cell_length_b   7.26890200
_cell_length_c   8.81977600
_cell_angle_alpha   90.00000000
_cell_angle_beta   90.00000000
_cell_angle_gamma   90.00000000
_symmetry_Int_Tables_number   1
_chemical_formula_structural   LiTm3Pt2
_chemical_formula_sum   'Li2 Tm6 Pt4'
_cell_volume   262.42566738
_cell_formula_units_Z   2
loop_
 _symmetry_equiv_pos_site_id
 _symmetry_equiv_pos_as_xyz
  1  'x, y, z'
loop_
 _atom_site_type_symbol
 _atom_site_label
 _atom_site_symmetry_multiplicity
 _atom_site_fract_x
 _atom_site_fract_y
 _atom_site_fract_z
 _atom_site_occupancy
  Li  Li0  1  0.250000  0.137568  0.069110  1
  Li  Li1  1  0.750000  0.362432  0.569110  1
  Tm  Tm2  1  0.250000  0.500098  0.824993  1
  Tm  Tm3  1  0.250000  0.057112  0.664498  1
  Tm  Tm4  1  0.750000  0.999902  0.324993  1
  Tm  Tm5  1  0.750000  0.442888  0.164498  1
  Tm  Tm6  1  0.250000  0.643484  0.442552  1
  Tm  Tm7  1  0.750000  0.856516  0.942552  1
  Pt  Pt8  1  0.250000  0.724515  0.123493  1
  Pt  Pt9  1  0.250000  0.262508  0.375354  1
  Pt  Pt10  1  0.750000  0.775485  0.623493  1
  Pt  Pt11  1  0.750000  0.237492  0.875354  1
