# generated using pymatgen
data_Nb5Co16(TcP4)3
_symmetry_space_group_name_H-M   'P 1'
_cell_length_a   11.77332000
_cell_length_b   11.77332069
_cell_length_c   3.61708900
_cell_angle_alpha   90.00000000
_cell_angle_beta   90.00000000
_cell_angle_gamma   119.99999807
_symmetry_Int_Tables_number   1
_chemical_formula_structural   Nb5Co16(TcP4)3
_chemical_formula_sum   'Nb5 Co16 Tc3 P12'
_cell_volume   434.19793840
_cell_formula_units_Z   1
loop_
 _symmetry_equiv_pos_site_id
 _symmetry_equiv_pos_as_xyz
  1  'x, y, z'
loop_
 _atom_site_type_symbol
 _atom_site_label
 _atom_site_symmetry_multiplicity
 _atom_site_fract_x
 _atom_site_fract_y
 _atom_site_fract_z
 _atom_site_occupancy
  Nb  Nb0  1  0.666667  0.333333  0.000000  1
  Nb  Nb1  1  0.333333  0.666667  0.000000  1
  Nb  Nb2  1  0.823653  0.823653  0.500000  1
  Nb  Nb3  1  0.176347  0.000000  0.500000  1
  Nb  Nb4  1  0.000000  0.176347  0.500000  1
  Co  Co5  1  0.192380  0.372902  0.000000  1
  Co  Co6  1  0.180522  0.807620  0.000000  1
  Co  Co7  1  0.819478  0.627098  0.000000  1
  Co  Co8  1  0.807620  0.180522  0.000000  1
  Co  Co9  1  0.372902  0.192380  0.000000  1
  Co  Co10  1  0.129934  0.484662  0.500000  1
  Co  Co11  1  0.354729  0.870066  0.500000  1
  Co  Co12  1  0.515338  0.645271  0.500000  1
  Co  Co13  1  0.645271  0.515338  0.500000  1
  Co  Co14  1  0.870066  0.354729  0.500000  1
  Co  Co15  1  0.484662  0.129934  0.500000  1
  Co  Co16  1  0.000000  0.000000  0.000000  1
  Co  Co17  1  0.721261  0.000000  0.500000  1
  Co  Co18  1  0.000000  0.721261  0.500000  1
  Co  Co19  1  0.627098  0.819478  0.000000  1
  Co  Co20  1  0.278739  0.278739  0.500000  1
  Tc  Tc21  1  0.448985  0.448985  0.000000  1
  Tc  Tc22  1  0.551015  0.000000  0.000000  1
  Tc  Tc23  1  0.000000  0.551015  0.000000  1
  P  P24  1  0.643238  0.643238  0.000000  1
  P  P25  1  0.356762  0.000000  0.000000  1
  P  P26  1  0.000000  0.356762  0.000000  1
  P  P27  1  0.482571  0.315216  0.500000  1
  P  P28  1  0.684784  0.167355  0.500000  1
  P  P29  1  0.832645  0.517429  0.500000  1
  P  P30  1  0.517429  0.832645  0.500000  1
  P  P31  1  0.167355  0.684784  0.500000  1
  P  P32  1  0.823652  0.000000  0.000000  1
  P  P33  1  0.000000  0.823652  0.000000  1
  P  P34  1  0.315216  0.482571  0.500000  1
  P  P35  1  0.176348  0.176348  0.000000  1
