# generated using pymatgen
data_Nb6In2PbCl18
_symmetry_space_group_name_H-M   'P 1'
_cell_length_a   10.43277532
_cell_length_b   10.42965131
_cell_length_c   10.43104748
_cell_angle_alpha   54.19031062
_cell_angle_beta   54.18400034
_cell_angle_gamma   54.20783797
_symmetry_Int_Tables_number   1
_chemical_formula_structural   Nb6In2PbCl18
_chemical_formula_sum   'Nb6 In2 Pb1 Cl18'
_cell_volume   693.80913372
_cell_formula_units_Z   1
loop_
 _symmetry_equiv_pos_site_id
 _symmetry_equiv_pos_as_xyz
  1  'x, y, z'
loop_
 _atom_site_type_symbol
 _atom_site_label
 _atom_site_symmetry_multiplicity
 _atom_site_fract_x
 _atom_site_fract_y
 _atom_site_fract_z
 _atom_site_occupancy
  Nb  Nb0  1  0.421784  0.294782  0.647807  1
  Nb  Nb1  1  0.647792  0.421814  0.294738  1
  Nb  Nb2  1  0.294836  0.647752  0.421818  1
  Nb  Nb3  1  0.578196  0.705219  0.352191  1
  Nb  Nb4  1  0.352194  0.578217  0.705249  1
  Nb  Nb5  1  0.705181  0.352255  0.578168  1
  In  In6  1  0.721973  0.721955  0.721976  1
  In  In7  1  0.278022  0.278035  0.278033  1
  Pb  Pb8  1  0.000010  0.999991  0.999995  1
  Cl  Cl9  1  0.233618  0.351935  0.914088  1
  Cl  Cl10  1  0.913858  0.233762  0.351919  1
  Cl  Cl11  1  0.352090  0.913955  0.233591  1
  Cl  Cl12  1  0.766412  0.648062  0.085901  1
  Cl  Cl13  1  0.086126  0.766240  0.648094  1
  Cl  Cl14  1  0.647897  0.086075  0.766395  1
  Cl  Cl15  1  0.167027  0.431559  0.580450  1
  Cl  Cl16  1  0.580404  0.166906  0.431667  1
  Cl  Cl17  1  0.431743  0.580294  0.166997  1
  Cl  Cl18  1  0.832970  0.568441  0.419550  1
  Cl  Cl19  1  0.419610  0.833097  0.568351  1
  Cl  Cl20  1  0.568258  0.419696  0.832992  1
  Cl  Cl21  1  0.334945  0.025623  0.830772  1
  Cl  Cl22  1  0.830700  0.335025  0.025618  1
  Cl  Cl23  1  0.025793  0.830630  0.335028  1
  Cl  Cl24  1  0.665053  0.974356  0.169247  1
  Cl  Cl25  1  0.169305  0.664973  0.974376  1
  Cl  Cl26  1  0.974204  0.169352  0.664988  1
