# generated using pymatgen
data_Ca3Ac7(Sn3N)2
_symmetry_space_group_name_H-M   'P 1'
_cell_length_a   10.06849354
_cell_length_b   10.01801135
_cell_length_c   10.10311755
_cell_angle_alpha   129.48849037
_cell_angle_beta   129.57241777
_cell_angle_gamma   73.83682940
_symmetry_Int_Tables_number   1
_chemical_formula_structural   Ca3Ac7(Sn3N)2
_chemical_formula_sum   'Ca3 Ac7 Sn6 N2'
_cell_volume   592.30409073
_cell_formula_units_Z   1
loop_
 _symmetry_equiv_pos_site_id
 _symmetry_equiv_pos_as_xyz
  1  'x, y, z'
loop_
 _atom_site_type_symbol
 _atom_site_label
 _atom_site_symmetry_multiplicity
 _atom_site_fract_x
 _atom_site_fract_y
 _atom_site_fract_z
 _atom_site_occupancy
  Ca  Ca0  1  0.501229  0.500645  0.994882  1
  Ca  Ca1  1  0.006477  0.006051  0.005206  1
  Ca  Ca2  1  0.301396  0.503884  0.499943  1
  Ac  Ac3  1  0.505589  0.000283  0.814714  1
  Ac  Ac4  1  0.192543  0.687181  0.188334  1
  Ac  Ac5  1  0.004432  0.188310  0.501231  1
  Ac  Ac6  1  0.685878  0.504389  0.499803  1
  Ac  Ac7  1  0.493529  0.994319  0.181918  1
  Ac  Ac8  1  0.809916  0.311258  0.815490  1
  Ac  Ac9  1  0.000309  0.803973  0.498652  1
  Sn  Sn10  1  0.250879  0.249020  0.003601  1
  Sn  Sn11  1  0.747353  0.745735  0.996544  1
  Sn  Sn12  1  0.870814  0.368767  0.240015  1
  Sn  Sn13  1  0.130110  0.627231  0.759584  1
  Sn  Sn14  1  0.372683  0.129955  0.499172  1
  Sn  Sn15  1  0.626851  0.876039  0.500920  1
  N  N16  1  0.248710  0.753496  0.498327  1
  N  N17  1  0.751301  0.249466  0.501664  1
