# generated using pymatgen
data_La3Sn2HgPt3
_symmetry_space_group_name_H-M   'P 1'
_cell_length_a   7.72383068
_cell_length_b   7.82743923
_cell_length_c   4.18342200
_cell_angle_alpha   90.00000000
_cell_angle_beta   90.00000000
_cell_angle_gamma   120.44474220
_symmetry_Int_Tables_number   1
_chemical_formula_structural   La3Sn2HgPt3
_chemical_formula_sum   'La3 Sn2 Hg1 Pt3'
_cell_volume   218.04742475
_cell_formula_units_Z   1
loop_
 _symmetry_equiv_pos_site_id
 _symmetry_equiv_pos_as_xyz
  1  'x, y, z'
loop_
 _atom_site_type_symbol
 _atom_site_label
 _atom_site_symmetry_multiplicity
 _atom_site_fract_x
 _atom_site_fract_y
 _atom_site_fract_z
 _atom_site_occupancy
  La  La0  1  0.405382  0.409041  0.000000  1
  La  La1  1  0.594618  0.003659  0.000000  1
  La  La2  1  0.000000  0.581360  0.000000  1
  Sn  Sn3  1  0.751484  0.751102  0.500000  1
  Sn  Sn4  1  0.248516  0.999618  0.500000  1
  Hg  Hg5  1  0.000000  0.256891  0.500000  1
  Pt  Pt6  1  0.344506  0.681248  0.500000  1
  Pt  Pt7  1  0.000000  0.980339  0.000000  1
  Pt  Pt8  1  0.655494  0.336740  0.500000  1
