# generated using pymatgen
data_Nb10NiSn4
_symmetry_space_group_name_H-M   'P 1'
_cell_length_a   10.23392900
_cell_length_b   10.23392900
_cell_length_c   5.31136800
_cell_angle_alpha   90.00000000
_cell_angle_beta   90.00000000
_cell_angle_gamma   90.00000000
_symmetry_Int_Tables_number   1
_chemical_formula_structural   Nb10NiSn4
_chemical_formula_sum   'Nb20 Ni2 Sn8'
_cell_volume   556.27711290
_cell_formula_units_Z   2
loop_
 _symmetry_equiv_pos_site_id
 _symmetry_equiv_pos_as_xyz
  1  'x, y, z'
loop_
 _atom_site_type_symbol
 _atom_site_label
 _atom_site_symmetry_multiplicity
 _atom_site_fract_x
 _atom_site_fract_y
 _atom_site_fract_z
 _atom_site_occupancy
  Nb  Nb0  1  0.402685  0.402685  0.000000  1
  Nb  Nb1  1  0.902685  0.097315  0.500000  1
  Nb  Nb2  1  0.097315  0.902685  0.500000  1
  Nb  Nb3  1  0.597315  0.597315  0.000000  1
  Nb  Nb4  1  0.129195  0.466631  0.000000  1
  Nb  Nb5  1  0.966631  0.370805  0.500000  1
  Nb  Nb6  1  0.033369  0.629195  0.500000  1
  Nb  Nb7  1  0.870805  0.533369  0.000000  1
  Nb  Nb8  1  0.370805  0.966631  0.500000  1
  Nb  Nb9  1  0.629195  0.033369  0.500000  1
  Nb  Nb10  1  0.466631  0.129195  0.000000  1
  Nb  Nb11  1  0.533369  0.870805  0.000000  1
  Nb  Nb12  1  0.180123  0.180123  0.254135  1
  Nb  Nb13  1  0.680123  0.319877  0.754135  1
  Nb  Nb14  1  0.319877  0.680123  0.754135  1
  Nb  Nb15  1  0.819877  0.819877  0.254135  1
  Nb  Nb16  1  0.319877  0.680123  0.245865  1
  Nb  Nb17  1  0.680123  0.319877  0.245865  1
  Nb  Nb18  1  0.180123  0.180123  0.745865  1
  Nb  Nb19  1  0.819877  0.819877  0.745865  1
  Ni  Ni20  1  0.000000  0.000000  0.000000  1
  Ni  Ni21  1  0.500000  0.500000  0.500000  1
  Sn  Sn22  1  0.259739  0.939481  0.000000  1
  Sn  Sn23  1  0.439481  0.240261  0.500000  1
  Sn  Sn24  1  0.560519  0.759739  0.500000  1
  Sn  Sn25  1  0.740261  0.060519  0.000000  1
  Sn  Sn26  1  0.240261  0.439481  0.500000  1
  Sn  Sn27  1  0.759739  0.560519  0.500000  1
  Sn  Sn28  1  0.939481  0.259739  0.000000  1
  Sn  Sn29  1  0.060519  0.740261  0.000000  1
