# generated using pymatgen
data_CsCe2F7
_symmetry_space_group_name_H-M   'P 1'
_cell_length_a   7.18359800
_cell_length_b   7.18359792
_cell_length_c   4.67695100
_cell_angle_alpha   90.00000000
_cell_angle_beta   90.00000000
_cell_angle_gamma   117.07782326
_symmetry_Int_Tables_number   1
_chemical_formula_structural   CsCe2F7
_chemical_formula_sum   'Cs1 Ce2 F7'
_cell_volume   214.89517877
_cell_formula_units_Z   1
loop_
 _symmetry_equiv_pos_site_id
 _symmetry_equiv_pos_as_xyz
  1  'x, y, z'
loop_
 _atom_site_type_symbol
 _atom_site_label
 _atom_site_symmetry_multiplicity
 _atom_site_fract_x
 _atom_site_fract_y
 _atom_site_fract_z
 _atom_site_occupancy
  Cs  Cs0  1  0.000000  0.000000  0.000000  1
  Ce  Ce1  1  0.691028  0.308971  0.499999  1
  Ce  Ce2  1  0.308971  0.691028  0.499999  1
  F  F3  1  0.701882  0.298117  0.000000  1
  F  F4  1  0.298117  0.701882  0.000000  1
  F  F5  1  0.338142  0.041199  0.499999  1
  F  F6  1  0.041199  0.338142  0.499999  1
  F  F7  1  0.500000  0.500000  0.499999  1
  F  F8  1  0.958802  0.661859  0.499999  1
  F  F9  1  0.661859  0.958802  0.499999  1
