# generated using pymatgen
data_Tb11ErCo4SnPd
_symmetry_space_group_name_H-M   'P 1'
_cell_length_a   8.35639909
_cell_length_b   8.37230746
_cell_length_c   8.37081076
_cell_angle_alpha   110.77020043
_cell_angle_beta   110.41167872
_cell_angle_gamma   107.31112865
_symmetry_Int_Tables_number   1
_chemical_formula_structural   Tb11ErCo4SnPd
_chemical_formula_sum   'Tb11 Er1 Co4 Sn1 Pd1'
_cell_volume   450.01612115
_cell_formula_units_Z   1
loop_
 _symmetry_equiv_pos_site_id
 _symmetry_equiv_pos_as_xyz
  1  'x, y, z'
loop_
 _atom_site_type_symbol
 _atom_site_label
 _atom_site_symmetry_multiplicity
 _atom_site_fract_x
 _atom_site_fract_y
 _atom_site_fract_z
 _atom_site_occupancy
  Tb  Tb0  1  0.589733  0.788600  0.801139  1
  Tb  Tb1  1  0.013184  0.211947  0.801269  1
  Tb  Tb2  1  0.986948  0.787252  0.199779  1
  Tb  Tb3  1  0.186480  0.293824  0.479651  1
  Tb  Tb4  1  0.812877  0.704694  0.518319  1
  Tb  Tb5  1  0.186504  0.706932  0.892721  1
  Tb  Tb6  1  0.812836  0.294570  0.108207  1
  Tb  Tb7  1  0.314769  0.619442  0.305836  1
  Tb  Tb8  1  0.684356  0.379173  0.693585  1
  Tb  Tb9  1  0.314782  0.008991  0.695442  1
  Tb  Tb10  1  0.684284  0.990832  0.305230  1
  Er  Er11  1  0.414085  0.213632  0.200518  1
  Co  Co12  1  0.376982  0.000468  0.376564  1
  Co  Co13  1  0.619527  0.999483  0.620163  1
  Co  Co14  1  0.111743  0.611601  0.500170  1
  Co  Co15  1  0.885231  0.387449  0.497815  1
  Sn  Sn16  1  0.499570  0.499408  0.000175  1
  Pd  Pd17  1  0.006109  0.001702  0.003418  1
