# generated using pymatgen
data_Tb6V2Fe(Co5P4)3
_symmetry_space_group_name_H-M   'P 1'
_cell_length_a   3.70658700
_cell_length_b   10.59481800
_cell_length_c   12.23512800
_cell_angle_alpha   90.00000000
_cell_angle_beta   90.00000000
_cell_angle_gamma   90.00000000
_symmetry_Int_Tables_number   1
_chemical_formula_structural   Tb6V2Fe(Co5P4)3
_chemical_formula_sum   'Tb6 V2 Fe1 Co15 P12'
_cell_volume   480.48099708
_cell_formula_units_Z   1
loop_
 _symmetry_equiv_pos_site_id
 _symmetry_equiv_pos_as_xyz
  1  'x, y, z'
loop_
 _atom_site_type_symbol
 _atom_site_label
 _atom_site_symmetry_multiplicity
 _atom_site_fract_x
 _atom_site_fract_y
 _atom_site_fract_z
 _atom_site_occupancy
  Tb  Tb0  1  0.000000  0.500000  0.522533  1
  Tb  Tb1  1  0.500000  0.000000  0.477508  1
  Tb  Tb2  1  0.500000  0.818370  0.204241  1
  Tb  Tb3  1  0.500000  0.181630  0.204241  1
  Tb  Tb4  1  0.000000  0.680368  0.796261  1
  Tb  Tb5  1  0.000000  0.319632  0.796261  1
  V  V6  1  0.500000  0.500000  0.151897  1
  V  V7  1  0.000000  0.000000  0.846744  1
  Fe  Fe8  1  0.000000  0.500000  0.987810  1
  Co  Co9  1  0.500000  0.500000  0.701064  1
  Co  Co10  1  0.000000  0.000000  0.298709  1
  Co  Co11  1  0.500000  0.000000  0.013222  1
  Co  Co12  1  0.500000  0.330335  0.994019  1
  Co  Co13  1  0.500000  0.669665  0.994019  1
  Co  Co14  1  0.000000  0.166233  0.006336  1
  Co  Co15  1  0.000000  0.833767  0.006336  1
  Co  Co16  1  0.500000  0.296202  0.431036  1
  Co  Co17  1  0.500000  0.703798  0.431036  1
  Co  Co18  1  0.000000  0.204137  0.569310  1
  Co  Co19  1  0.000000  0.795863  0.569310  1
  Co  Co20  1  0.500000  0.879502  0.708094  1
  Co  Co21  1  0.500000  0.120498  0.708094  1
  Co  Co22  1  0.000000  0.620966  0.291505  1
  Co  Co23  1  0.000000  0.379034  0.291505  1
  P  P24  1  0.500000  0.500000  0.884803  1
  P  P25  1  0.000000  0.000000  0.117484  1
  P  P26  1  0.500000  0.500000  0.344974  1
  P  P27  1  0.000000  0.000000  0.654323  1
  P  P28  1  0.500000  0.310154  0.615936  1
  P  P29  1  0.500000  0.689846  0.615936  1
  P  P30  1  0.000000  0.190083  0.384364  1
  P  P31  1  0.000000  0.809917  0.384364  1
  P  P32  1  0.500000  0.846190  0.892540  1
  P  P33  1  0.500000  0.153810  0.892540  1
  P  P34  1  0.000000  0.653517  0.105821  1
  P  P35  1  0.000000  0.346483  0.105821  1
