# generated using pymatgen
data_Rb3ScSe3
_symmetry_space_group_name_H-M   'P 1'
_cell_length_a   14.21599900
_cell_length_b   8.59557387
_cell_length_c   11.14223519
_cell_angle_alpha   52.05111252
_cell_angle_beta   90.00000000
_cell_angle_gamma   90.00000000
_symmetry_Int_Tables_number   1
_chemical_formula_structural   Rb3ScSe3
_chemical_formula_sum   'Rb12 Sc4 Se12'
_cell_volume   1073.64112636
_cell_formula_units_Z   4
loop_
 _symmetry_equiv_pos_site_id
 _symmetry_equiv_pos_as_xyz
  1  'x, y, z'
loop_
 _atom_site_type_symbol
 _atom_site_label
 _atom_site_symmetry_multiplicity
 _atom_site_fract_x
 _atom_site_fract_y
 _atom_site_fract_z
 _atom_site_occupancy
  Rb  Rb0  1  0.313490  0.157829  0.069960  1
  Rb  Rb1  1  0.686510  0.842171  0.930040  1
  Rb  Rb2  1  0.813490  0.842171  0.430040  1
  Rb  Rb3  1  0.896843  0.324865  0.393471  1
  Rb  Rb4  1  0.621497  0.384834  0.469106  1
  Rb  Rb5  1  0.121497  0.615166  0.030894  1
  Rb  Rb6  1  0.378503  0.615166  0.530894  1
  Rb  Rb7  1  0.878503  0.384834  0.969106  1
  Rb  Rb8  1  0.603157  0.324865  0.893471  1
  Rb  Rb9  1  0.103157  0.675135  0.606529  1
  Rb  Rb10  1  0.396843  0.675135  0.106529  1
  Rb  Rb11  1  0.186510  0.157829  0.569960  1
  Sc  Sc12  1  0.063127  0.940558  0.160930  1
  Sc  Sc13  1  0.563127  0.059442  0.339070  1
  Sc  Sc14  1  0.436873  0.940558  0.660930  1
  Sc  Sc15  1  0.936873  0.059442  0.839070  1
  Se  Se16  1  0.398412  0.169157  0.369736  1
  Se  Se17  1  0.898412  0.830843  0.130264  1
  Se  Se18  1  0.601588  0.830843  0.630264  1
  Se  Se19  1  0.101588  0.169157  0.869736  1
  Se  Se20  1  0.689179  0.327320  0.195047  1
  Se  Se21  1  0.189179  0.672680  0.304953  1
  Se  Se22  1  0.310821  0.672680  0.804953  1
  Se  Se23  1  0.810821  0.327320  0.695047  1
  Se  Se24  1  0.545186  0.868459  0.235642  1
  Se  Se25  1  0.045186  0.131541  0.264358  1
  Se  Se26  1  0.454814  0.131541  0.764358  1
  Se  Se27  1  0.954814  0.868459  0.735642  1
