# generated using pymatgen
data_Tb6Co11P12Ir7
_symmetry_space_group_name_H-M   'P 1'
_cell_length_a   3.78726000
_cell_length_b   10.80181216
_cell_length_c   12.51593846
_cell_angle_alpha   89.83917277
_cell_angle_beta   90.00000000
_cell_angle_gamma   90.00000000
_symmetry_Int_Tables_number   1
_chemical_formula_structural   Tb6Co11P12Ir7
_chemical_formula_sum   'Tb6 Co11 P12 Ir7'
_cell_volume   512.01590269
_cell_formula_units_Z   1
loop_
 _symmetry_equiv_pos_site_id
 _symmetry_equiv_pos_as_xyz
  1  'x, y, z'
loop_
 _atom_site_type_symbol
 _atom_site_label
 _atom_site_symmetry_multiplicity
 _atom_site_fract_x
 _atom_site_fract_y
 _atom_site_fract_z
 _atom_site_occupancy
  Tb  Tb0  1  0.000000  0.501250  0.522553  1
  Tb  Tb1  1  0.500000  0.995244  0.481333  1
  Tb  Tb2  1  0.500000  0.814528  0.200065  1
  Tb  Tb3  1  0.500000  0.184828  0.197517  1
  Tb  Tb4  1  0.000000  0.687149  0.798043  1
  Tb  Tb5  1  0.000000  0.315775  0.802383  1
  Co  Co6  1  0.000000  0.500930  0.990517  1
  Co  Co7  1  0.500000  0.999625  0.008893  1
  Co  Co8  1  0.000000  0.796681  0.571462  1
  Co  Co9  1  0.500000  0.880864  0.713076  1
  Co  Co10  1  0.500000  0.120195  0.717064  1
  Co  Co11  1  0.000000  0.619768  0.285251  1
  Co  Co12  1  0.000000  0.379474  0.283807  1
  Co  Co13  1  0.500000  0.333459  0.994889  1
  Co  Co14  1  0.500000  0.668269  0.994508  1
  Co  Co15  1  0.000000  0.166484  0.004466  1
  Co  Co16  1  0.000000  0.833137  0.004570  1
  P  P17  1  0.500000  0.309269  0.624837  1
  P  P18  1  0.500000  0.698339  0.621497  1
  P  P19  1  0.000000  0.189604  0.376333  1
  P  P20  1  0.000000  0.811189  0.382685  1
  P  P21  1  0.500000  0.501405  0.893046  1
  P  P22  1  0.000000  0.999312  0.106527  1
  P  P23  1  0.500000  0.844286  0.896196  1
  P  P24  1  0.500000  0.156319  0.897162  1
  P  P25  1  0.000000  0.656502  0.102792  1
  P  P26  1  0.000000  0.343715  0.101914  1
  P  P27  1  0.500000  0.500087  0.344453  1
  P  P28  1  0.000000  0.991183  0.653323  1
  Ir  Ir29  1  0.500000  0.297992  0.426757  1
  Ir  Ir30  1  0.500000  0.701293  0.428529  1
  Ir  Ir31  1  0.000000  0.198651  0.574969  1
  Ir  Ir32  1  0.500000  0.501069  0.159557  1
  Ir  Ir33  1  0.000000  0.000654  0.839698  1
  Ir  Ir34  1  0.500000  0.501904  0.706959  1
  Ir  Ir35  1  0.000000  0.999564  0.292366  1
