# generated using pymatgen
data_LaHo3(Sn5Rh3)2
_symmetry_space_group_name_H-M   'P 1'
_cell_length_a   13.50287908
_cell_length_b   13.50287943
_cell_length_c   7.27163020
_cell_angle_alpha   89.97490081
_cell_angle_beta   90.02510009
_cell_angle_gamma   160.97460952
_symmetry_Int_Tables_number   1
_chemical_formula_structural   LaHo3(Sn5Rh3)2
_chemical_formula_sum   'La1 Ho3 Sn10 Rh6'
_cell_volume   432.20019711
_cell_formula_units_Z   1
loop_
 _symmetry_equiv_pos_site_id
 _symmetry_equiv_pos_as_xyz
  1  'x, y, z'
loop_
 _atom_site_type_symbol
 _atom_site_label
 _atom_site_symmetry_multiplicity
 _atom_site_fract_x
 _atom_site_fract_y
 _atom_site_fract_z
 _atom_site_occupancy
  La  La0  1  0.172546  0.827454  0.745538  1
  Ho  Ho1  1  0.829182  0.170818  0.244553  1
  Ho  Ho2  1  0.475348  0.524652  0.761011  1
  Ho  Ho3  1  0.522733  0.477267  0.263620  1
  Sn  Sn4  1  0.881421  0.118579  0.770882  1
  Sn  Sn5  1  0.119055  0.880945  0.266567  1
  Sn  Sn6  1  0.705377  0.294623  0.447140  1
  Sn  Sn7  1  0.296196  0.703804  0.952655  1
  Sn  Sn8  1  0.593810  0.406190  0.887522  1
  Sn  Sn9  1  0.403318  0.596682  0.387390  1
  Sn  Sn10  1  0.952329  0.047671  0.101043  1
  Sn  Sn11  1  0.046372  0.953628  0.601231  1
  Sn  Sn12  1  0.291866  0.708134  0.520787  1
  Sn  Sn13  1  0.710869  0.289131  0.026613  1
  Rh  Rh14  1  0.048991  0.951009  0.983179  1
  Rh  Rh15  1  0.949343  0.050657  0.481317  1
  Rh  Rh16  1  0.779093  0.220907  0.736392  1
  Rh  Rh17  1  0.223559  0.776441  0.236457  1
  Rh  Rh18  1  0.394347  0.605653  0.017906  1
  Rh  Rh19  1  0.604246  0.395754  0.512199  1
