# generated using pymatgen
data_Tb3YAl18NiRh5
_symmetry_space_group_name_H-M   'P 1'
_cell_length_a   7.55342518
_cell_length_b   7.55448587
_cell_length_c   9.45999546
_cell_angle_alpha   90.12159361
_cell_angle_beta   90.13143135
_cell_angle_gamma   119.60597908
_symmetry_Int_Tables_number   1
_chemical_formula_structural   Tb3YAl18NiRh5
_chemical_formula_sum   'Tb3 Y1 Al18 Ni1 Rh5'
_cell_volume   469.32846003
_cell_formula_units_Z   1
loop_
 _symmetry_equiv_pos_site_id
 _symmetry_equiv_pos_as_xyz
  1  'x, y, z'
loop_
 _atom_site_type_symbol
 _atom_site_label
 _atom_site_symmetry_multiplicity
 _atom_site_fract_x
 _atom_site_fract_y
 _atom_site_fract_z
 _atom_site_occupancy
  Tb  Tb0  1  0.994507  0.669384  0.249391  1
  Tb  Tb1  1  0.005526  0.330600  0.750569  1
  Tb  Tb2  1  0.669352  0.994523  0.249403  1
  Y  Y3  1  0.330586  0.005553  0.750572  1
  Al  Al4  1  0.125293  0.125256  0.247483  1
  Al  Al5  1  0.874848  0.874823  0.752491  1
  Al  Al6  1  0.000396  0.332763  0.074628  1
  Al  Al7  1  0.999721  0.667375  0.925460  1
  Al  Al8  1  0.999188  0.665905  0.574827  1
  Al  Al9  1  0.334303  0.000919  0.425264  1
  Al  Al10  1  0.000954  0.334283  0.425141  1
  Al  Al11  1  0.665599  0.999065  0.574816  1
  Al  Al12  1  0.667103  0.999614  0.925420  1
  Al  Al13  1  0.332779  0.000352  0.074472  1
  Al  Al14  1  0.333388  0.333277  0.550427  1
  Al  Al15  1  0.666626  0.666594  0.449602  1
  Al  Al16  1  0.668615  0.668601  0.048964  1
  Al  Al17  1  0.331425  0.331288  0.951009  1
  Al  Al18  1  0.338969  0.548197  0.249579  1
  Al  Al19  1  0.661020  0.451688  0.750417  1
  Al  Al20  1  0.548130  0.338953  0.249559  1
  Al  Al21  1  0.451777  0.661100  0.750428  1
  Ni  Ni22  1  0.999986  0.999986  0.999991  1
  Rh  Rh23  1  0.671818  0.328040  0.999878  1
  Rh  Rh24  1  0.328090  0.671899  0.999892  1
  Rh  Rh25  1  0.328018  0.672015  0.500107  1
  Rh  Rh26  1  0.671888  0.327942  0.500109  1
  Rh  Rh27  1  0.000096  0.000005  0.500100  1
