# generated using pymatgen
data_PuAl5Pt3
_symmetry_space_group_name_H-M   'P 1'
_cell_length_a   4.11181500
_cell_length_b   7.38667500
_cell_length_c   20.74615100
_cell_angle_alpha   90.00000000
_cell_angle_beta   90.00000000
_cell_angle_gamma   90.00000000
_symmetry_Int_Tables_number   1
_chemical_formula_structural   PuAl5Pt3
_chemical_formula_sum   'Pu4 Al20 Pt12'
_cell_volume   630.11539781
_cell_formula_units_Z   4
loop_
 _symmetry_equiv_pos_site_id
 _symmetry_equiv_pos_as_xyz
  1  'x, y, z'
loop_
 _atom_site_type_symbol
 _atom_site_label
 _atom_site_symmetry_multiplicity
 _atom_site_fract_x
 _atom_site_fract_y
 _atom_site_fract_z
 _atom_site_occupancy
  Pu  Pu0  1  0.250000  0.119661  0.639987  1
  Pu  Pu1  1  0.750000  0.880339  0.360013  1
  Pu  Pu2  1  0.250000  0.380339  0.139987  1
  Pu  Pu3  1  0.750000  0.619661  0.860013  1
  Al  Al4  1  0.750000  0.358291  0.381778  1
  Al  Al5  1  0.750000  0.883345  0.984076  1
  Al  Al6  1  0.750000  0.683528  0.200687  1
  Al  Al7  1  0.250000  0.869965  0.492619  1
  Al  Al8  1  0.250000  0.630035  0.992619  1
  Al  Al9  1  0.250000  0.316472  0.799313  1
  Al  Al10  1  0.750000  0.071250  0.207996  1
  Al  Al11  1  0.250000  0.641709  0.618222  1
  Al  Al12  1  0.250000  0.571250  0.292004  1
  Al  Al13  1  0.250000  0.183528  0.299313  1
  Al  Al14  1  0.750000  0.141709  0.881778  1
  Al  Al15  1  0.250000  0.928750  0.792004  1
  Al  Al16  1  0.750000  0.369965  0.007381  1
  Al  Al17  1  0.750000  0.616655  0.484076  1
  Al  Al18  1  0.750000  0.130035  0.507381  1
  Al  Al19  1  0.250000  0.116655  0.015924  1
  Al  Al20  1  0.250000  0.858291  0.118222  1
  Al  Al21  1  0.250000  0.383345  0.515924  1
  Al  Al22  1  0.750000  0.428750  0.707996  1
  Al  Al23  1  0.750000  0.816472  0.700687  1
  Pt  Pt24  1  0.750000  0.379195  0.260290  1
  Pt  Pt25  1  0.250000  0.879195  0.239710  1
  Pt  Pt26  1  0.250000  0.620805  0.739710  1
  Pt  Pt27  1  0.750000  0.120805  0.760290  1
  Pt  Pt28  1  0.250000  0.159379  0.426081  1
  Pt  Pt29  1  0.750000  0.417167  0.584394  1
  Pt  Pt30  1  0.750000  0.082833  0.084394  1
  Pt  Pt31  1  0.250000  0.917167  0.915606  1
  Pt  Pt32  1  0.750000  0.840621  0.573919  1
  Pt  Pt33  1  0.250000  0.340621  0.926081  1
  Pt  Pt34  1  0.750000  0.659379  0.073919  1
  Pt  Pt35  1  0.250000  0.582833  0.415606  1
