# generated using pymatgen
data_NaScVH9
_symmetry_space_group_name_H-M   'P 1'
_cell_length_a   7.78070000
_cell_length_b   7.78069976
_cell_length_c   4.73858200
_cell_angle_alpha   90.00000000
_cell_angle_beta   90.00000000
_cell_angle_gamma   120.00000954
_symmetry_Int_Tables_number   1
_chemical_formula_structural   NaScVH9
_chemical_formula_sum   'Na3 Sc3 V3 H27'
_cell_volume   248.43702377
_cell_formula_units_Z   3
loop_
 _symmetry_equiv_pos_site_id
 _symmetry_equiv_pos_as_xyz
  1  'x, y, z'
loop_
 _atom_site_type_symbol
 _atom_site_label
 _atom_site_symmetry_multiplicity
 _atom_site_fract_x
 _atom_site_fract_y
 _atom_site_fract_z
 _atom_site_occupancy
  Na  Na0  1  0.000000  0.604717  0.000000  1
  Na  Na1  1  0.395283  0.395283  0.000000  1
  Na  Na2  1  0.604717  0.000000  0.000000  1
  Sc  Sc3  1  0.000000  0.273298  0.500000  1
  Sc  Sc4  1  0.726702  0.726702  0.500000  1
  Sc  Sc5  1  0.273298  0.000000  0.500000  1
  V  V6  1  0.666667  0.333333  0.500000  1
  V  V7  1  0.333333  0.666667  0.500000  1
  V  V8  1  0.000000  0.000000  0.000000  1
  H  H9  1  0.826992  0.337570  0.749190  1
  H  H10  1  0.662430  0.489422  0.749190  1
  H  H11  1  0.510578  0.173008  0.749190  1
  H  H12  1  0.173008  0.510578  0.250810  1
  H  H13  1  0.510578  0.173008  0.250810  1
  H  H14  1  0.826992  0.337570  0.250810  1
  H  H15  1  0.662430  0.489422  0.250810  1
  H  H16  1  0.337570  0.826992  0.749190  1
  H  H17  1  0.489422  0.662430  0.749190  1
  H  H18  1  0.217342  0.000000  0.000000  1
  H  H19  1  0.782658  0.782658  0.000000  1
  H  H20  1  0.000000  0.217342  0.000000  1
  H  H21  1  0.846486  0.000000  0.259884  1
  H  H22  1  0.153514  0.153514  0.740116  1
  H  H23  1  0.000000  0.846486  0.740116  1
  H  H24  1  0.000000  0.846486  0.259884  1
  H  H25  1  0.153514  0.153514  0.259884  1
  H  H26  1  0.846486  0.000000  0.740116  1
  H  H27  1  0.133119  0.692383  0.500000  1
  H  H28  1  0.559264  0.866881  0.500000  1
  H  H29  1  0.307617  0.440736  0.500000  1
  H  H30  1  0.440736  0.307617  0.500000  1
  H  H31  1  0.866881  0.559264  0.500000  1
  H  H32  1  0.692383  0.133119  0.500000  1
  H  H33  1  0.173008  0.510578  0.749190  1
  H  H34  1  0.337570  0.826992  0.250810  1
  H  H35  1  0.489422  0.662430  0.250810  1
