# generated using pymatgen
data_Tb7Ho(Ga3Pt)4
_symmetry_space_group_name_H-M   'P 1'
_cell_length_a   8.87774600
_cell_length_b   8.90684776
_cell_length_c   7.08094900
_cell_angle_alpha   90.00000000
_cell_angle_beta   90.00000000
_cell_angle_gamma   120.10423245
_symmetry_Int_Tables_number   1
_chemical_formula_structural   Tb7Ho(Ga3Pt)4
_chemical_formula_sum   'Tb7 Ho1 Ga12 Pt4'
_cell_volume   484.38617301
_cell_formula_units_Z   1
loop_
 _symmetry_equiv_pos_site_id
 _symmetry_equiv_pos_as_xyz
  1  'x, y, z'
loop_
 _atom_site_type_symbol
 _atom_site_label
 _atom_site_symmetry_multiplicity
 _atom_site_fract_x
 _atom_site_fract_y
 _atom_site_fract_z
 _atom_site_occupancy
  Tb  Tb0  1  0.000311  0.000082  0.250000  1
  Tb  Tb1  1  0.999628  0.999895  0.750000  1
  Tb  Tb2  1  0.519702  0.039475  0.250000  1
  Tb  Tb3  1  0.519639  0.480346  0.250000  1
  Tb  Tb4  1  0.961506  0.480780  0.250000  1
  Tb  Tb5  1  0.480003  0.960386  0.750000  1
  Tb  Tb6  1  0.480061  0.519505  0.750000  1
  Ho  Ho7  1  0.039639  0.519767  0.750000  1
  Ga  Ga8  1  0.166803  0.334054  0.045747  1
  Ga  Ga9  1  0.166916  0.832706  0.454258  1
  Ga  Ga10  1  0.665153  0.832612  0.453518  1
  Ga  Ga11  1  0.665153  0.832612  0.046482  1
  Ga  Ga12  1  0.166916  0.832706  0.045742  1
  Ga  Ga13  1  0.833324  0.665393  0.952371  1
  Ga  Ga14  1  0.833204  0.167974  0.952380  1
  Ga  Ga15  1  0.334865  0.167401  0.953562  1
  Ga  Ga16  1  0.166803  0.334054  0.454253  1
  Ga  Ga17  1  0.334865  0.167401  0.546438  1
  Ga  Ga18  1  0.833324  0.665393  0.547629  1
  Ga  Ga19  1  0.833204  0.167974  0.547620  1
  Pt  Pt20  1  0.331884  0.665860  0.029742  1
  Pt  Pt21  1  0.331884  0.665860  0.470258  1
  Pt  Pt22  1  0.667608  0.333882  0.968279  1
  Pt  Pt23  1  0.667608  0.333882  0.531721  1
