# generated using pymatgen
data_LiLuZr2(Al8Pt3)3
_symmetry_space_group_name_H-M   'P 1'
_cell_length_a   7.46630872
_cell_length_b   7.48138471
_cell_length_c   13.03812897
_cell_angle_alpha   84.63930325
_cell_angle_beta   79.15858542
_cell_angle_gamma   59.98895070
_symmetry_Int_Tables_number   1
_chemical_formula_structural   LiLuZr2(Al8Pt3)3
_chemical_formula_sum   'Li1 Lu1 Zr2 Al24 Pt9'
_cell_volume   619.38951505
_cell_formula_units_Z   1
loop_
 _symmetry_equiv_pos_site_id
 _symmetry_equiv_pos_as_xyz
  1  'x, y, z'
loop_
 _atom_site_type_symbol
 _atom_site_label
 _atom_site_symmetry_multiplicity
 _atom_site_fract_x
 _atom_site_fract_y
 _atom_site_fract_z
 _atom_site_occupancy
  Li  Li0  1  0.739466  0.500470  0.794554  1
  Lu  Lu1  1  0.267385  0.502662  0.190734  1
  Zr  Zr2  1  0.391670  0.168587  0.811189  1
  Zr  Zr3  1  0.608288  0.829075  0.188267  1
  Al  Al4  1  0.681463  0.828705  0.938540  1
  Al  Al5  1  0.317220  0.164217  0.057437  1
  Al  Al6  1  0.145756  0.832590  0.564146  1
  Al  Al7  1  0.853899  0.166760  0.438058  1
  Al  Al8  1  0.479023  0.166705  0.561302  1
  Al  Al9  1  0.520244  0.832723  0.439967  1
  Al  Al10  1  0.220727  0.164117  0.325519  1
  Al  Al11  1  0.776288  0.831802  0.679834  1
  Al  Al12  1  0.441118  0.503154  0.680899  1
  Al  Al13  1  0.563829  0.495510  0.325489  1
  Al  Al14  1  0.102386  0.167280  0.679878  1
  Al  Al15  1  0.889853  0.839003  0.326101  1
  Al  Al16  1  0.364593  0.494864  0.937920  1
  Al  Al17  1  0.649589  0.500608  0.052054  1
  Al  Al18  1  0.014388  0.175423  0.945345  1
  Al  Al19  1  0.982610  0.833019  0.047168  1
  Al  Al20  1  0.186152  0.500038  0.441181  1
  Al  Al21  1  0.811890  0.500623  0.561813  1
  Al  Al22  1  0.731819  0.160295  0.183484  1
  Al  Al23  1  0.269524  0.841566  0.817983  1
  Al  Al24  1  0.065792  0.622608  0.817079  1
  Al  Al25  1  0.934025  0.374042  0.184702  1
  Al  Al26  1  0.843780  0.047126  0.817751  1
  Al  Al27  1  0.147896  0.958886  0.184391  1
  Pt  Pt28  1  0.122534  0.492044  0.639092  1
  Pt  Pt29  1  0.880575  0.508919  0.361324  1
  Pt  Pt30  1  0.655557  0.168228  0.002291  1
  Pt  Pt31  1  0.340258  0.829053  0.002667  1
  Pt  Pt32  1  0.536543  0.167059  0.361242  1
  Pt  Pt33  1  0.459768  0.835267  0.638452  1
  Pt  Pt34  1  0.779443  0.172844  0.637312  1
  Pt  Pt35  1  0.221819  0.823540  0.362381  1
  Pt  Pt36  1  0.002829  0.500588  0.002457  1
