# generated using pymatgen
data_Ta12Al7RhN4
_symmetry_space_group_name_H-M   'P 1'
_cell_length_a   7.04175589
_cell_length_b   7.04175613
_cell_length_c   7.04175600
_cell_angle_alpha   89.81326761
_cell_angle_beta   90.18672659
_cell_angle_gamma   90.18674016
_symmetry_Int_Tables_number   1
_chemical_formula_structural   Ta12Al7RhN4
_chemical_formula_sum   'Ta12 Al7 Rh1 N4'
_cell_volume   349.16926946
_cell_formula_units_Z   1
loop_
 _symmetry_equiv_pos_site_id
 _symmetry_equiv_pos_as_xyz
  1  'x, y, z'
loop_
 _atom_site_type_symbol
 _atom_site_label
 _atom_site_symmetry_multiplicity
 _atom_site_fract_x
 _atom_site_fract_y
 _atom_site_fract_z
 _atom_site_occupancy
  Ta  Ta0  1  0.792269  0.956129  0.374122  1
  Ta  Ta1  1  0.707999  0.044755  0.876958  1
  Ta  Ta2  1  0.206149  0.455055  0.121687  1
  Ta  Ta3  1  0.295355  0.544179  0.629691  1
  Ta  Ta4  1  0.955245  0.376958  0.792001  1
  Ta  Ta5  1  0.043871  0.874122  0.707731  1
  Ta  Ta6  1  0.455821  0.129691  0.204645  1
  Ta  Ta7  1  0.544945  0.621687  0.293851  1
  Ta  Ta8  1  0.378313  0.793851  0.955055  1
  Ta  Ta9  1  0.870309  0.704645  0.044179  1
  Ta  Ta10  1  0.125878  0.207731  0.456129  1
  Ta  Ta11  1  0.623042  0.292001  0.544755  1
  Al  Al12  1  0.320999  0.175197  0.820763  1
  Al  Al13  1  0.824803  0.320763  0.179001  1
  Al  Al14  1  0.679237  0.679001  0.675197  1
  Al  Al15  1  0.570632  0.429368  0.929368  1
  Al  Al16  1  0.419892  0.925352  0.561128  1
  Al  Al17  1  0.938872  0.580108  0.425352  1
  Al  Al18  1  0.074648  0.061128  0.080108  1
  Rh  Rh19  1  0.180584  0.819416  0.319416  1
  N  N20  1  0.875789  0.124211  0.624211  1
  N  N21  1  0.621794  0.877146  0.129302  1
  N  N22  1  0.122854  0.629302  0.878206  1
  N  N23  1  0.370698  0.378206  0.377146  1
