# generated using pymatgen
data_Ho6LuS8
_symmetry_space_group_name_H-M   'P 1'
_cell_length_a   7.84269781
_cell_length_b   7.84249042
_cell_length_c   7.83985500
_cell_angle_alpha   120.01877860
_cell_angle_beta   89.94353484
_cell_angle_gamma   120.01751877
_symmetry_Int_Tables_number   1
_chemical_formula_structural   Ho6LuS8
_chemical_formula_sum   'Ho6 Lu1 S8'
_cell_volume   340.94789158
_cell_formula_units_Z   1
loop_
 _symmetry_equiv_pos_site_id
 _symmetry_equiv_pos_as_xyz
  1  'x, y, z'
loop_
 _atom_site_type_symbol
 _atom_site_label
 _atom_site_symmetry_multiplicity
 _atom_site_fract_x
 _atom_site_fract_y
 _atom_site_fract_z
 _atom_site_occupancy
  Ho  Ho0  1  0.249986  0.000013  0.249988  1
  Ho  Ho1  1  0.249987  0.499967  0.249989  1
  Ho  Ho2  1  0.750025  0.000018  0.250002  1
  Ho  Ho3  1  0.249994  0.000009  0.750022  1
  Ho  Ho4  1  0.750022  0.000018  0.750021  1
  Ho  Ho5  1  0.750007  0.500014  0.750003  1
  Lu  Lu6  1  0.250010  0.499989  0.750000  1
  S  S7  1  0.999970  0.999974  0.999981  1
  S  S8  1  0.500003  0.999987  0.499994  1
  S  S9  1  0.005378  0.010724  0.505350  1
  S  S10  1  0.005366  0.500002  0.505348  1
  S  S11  1  0.494532  0.499996  0.505458  1
  S  S12  1  0.005477  0.500038  0.994582  1
  S  S13  1  0.494634  0.500022  0.994636  1
  S  S14  1  0.494614  0.989234  0.994635  1
