# generated using pymatgen
data_Er20Ir5Pd3Ru4
_symmetry_space_group_name_H-M   'P 1'
_cell_length_a   10.78111201
_cell_length_b   10.78111201
_cell_length_c   6.39747713
_cell_angle_alpha   89.98374353
_cell_angle_beta   89.98374353
_cell_angle_gamma   90.22015576
_symmetry_Int_Tables_number   1
_chemical_formula_structural   Er20Ir5Pd3Ru4
_chemical_formula_sum   'Er20 Ir5 Pd3 Ru4'
_cell_volume   743.58841822
_cell_formula_units_Z   1
loop_
 _symmetry_equiv_pos_site_id
 _symmetry_equiv_pos_as_xyz
  1  'x, y, z'
loop_
 _atom_site_type_symbol
 _atom_site_label
 _atom_site_symmetry_multiplicity
 _atom_site_fract_x
 _atom_site_fract_y
 _atom_site_fract_z
 _atom_site_occupancy
  Er  Er0  1  0.296513  0.084282  0.369897  1
  Er  Er1  1  0.295341  0.908711  0.879080  1
  Er  Er2  1  0.702031  0.089242  0.872625  1
  Er  Er3  1  0.700543  0.910298  0.371975  1
  Er  Er4  1  0.581877  0.792125  0.878759  1
  Er  Er5  1  0.581700  0.207774  0.378596  1
  Er  Er6  1  0.412038  0.792531  0.378780  1
  Er  Er7  1  0.417259  0.207438  0.878528  1
  Er  Er8  1  0.207875  0.418123  0.621241  1
  Er  Er9  1  0.207469  0.587962  0.121220  1
  Er  Er10  1  0.792226  0.418300  0.121404  1
  Er  Er11  1  0.792562  0.582741  0.621472  1
  Er  Er12  1  0.915718  0.703487  0.130103  1
  Er  Er13  1  0.910758  0.297969  0.627375  1
  Er  Er14  1  0.091289  0.704659  0.620920  1
  Er  Er15  1  0.089702  0.299457  0.128025  1
  Er  Er16  1  0.001798  0.997528  0.498669  1
  Er  Er17  1  0.002472  0.998202  0.001331  1
  Er  Er18  1  0.499688  0.499789  0.000592  1
  Er  Er19  1  0.500211  0.500312  0.499408  1
  Ir  Ir20  1  0.150535  0.849465  0.250000  1
  Ir  Ir21  1  0.653607  0.346393  0.750000  1
  Ir  Ir22  1  0.654081  0.653652  0.249685  1
  Ir  Ir23  1  0.346348  0.345919  0.250315  1
  Ir  Ir24  1  0.347571  0.652429  0.750000  1
  Pd  Pd25  1  0.847646  0.152354  0.250000  1
  Pd  Pd26  1  0.846261  0.846787  0.750024  1
  Pd  Pd27  1  0.153213  0.153739  0.749976  1
  Ru  Ru28  1  0.500941  0.000139  0.123778  1
  Ru  Ru29  1  0.500826  0.999959  0.625206  1
  Ru  Ru30  1  0.000041  0.499174  0.874794  1
  Ru  Ru31  1  0.999861  0.499059  0.376222  1
