# generated using pymatgen
data_Tm2Cr3Co9As7
_symmetry_space_group_name_H-M   'P 1'
_cell_length_a   3.73225300
_cell_length_b   9.39908802
_cell_length_c   9.39908900
_cell_angle_alpha   119.99999994
_cell_angle_beta   90.00000000
_cell_angle_gamma   90.00000000
_symmetry_Int_Tables_number   1
_chemical_formula_structural   Tm2Cr3Co9As7
_chemical_formula_sum   'Tm2 Cr3 Co9 As7'
_cell_volume   285.54409683
_cell_formula_units_Z   1
loop_
 _symmetry_equiv_pos_site_id
 _symmetry_equiv_pos_as_xyz
  1  'x, y, z'
loop_
 _atom_site_type_symbol
 _atom_site_label
 _atom_site_symmetry_multiplicity
 _atom_site_fract_x
 _atom_site_fract_y
 _atom_site_fract_z
 _atom_site_occupancy
  Tm  Tm0  1  0.000000  0.666667  0.333333  1
  Tm  Tm1  1  0.500000  0.333333  0.666667  1
  Cr  Cr2  1  0.500000  0.776216  0.894768  1
  Cr  Cr3  1  0.500000  0.118552  0.223784  1
  Cr  Cr4  1  0.500000  0.105232  0.881448  1
  Co  Co5  1  0.000000  0.568240  0.939638  1
  Co  Co6  1  0.000000  0.371397  0.431760  1
  Co  Co7  1  0.000000  0.060362  0.628603  1
  Co  Co8  1  0.000000  0.878128  0.158672  1
  Co  Co9  1  0.000000  0.280544  0.121872  1
  Co  Co10  1  0.000000  0.841328  0.719456  1
  Co  Co11  1  0.500000  0.947972  0.383019  1
  Co  Co12  1  0.500000  0.435046  0.052028  1
  Co  Co13  1  0.500000  0.616981  0.564954  1
  As  As14  1  0.000000  0.000000  0.000000  1
  As  As15  1  0.500000  0.707991  0.119017  1
  As  As16  1  0.500000  0.411026  0.292009  1
  As  As17  1  0.500000  0.880983  0.588974  1
  As  As18  1  0.000000  0.585748  0.701672  1
  As  As19  1  0.000000  0.115924  0.414252  1
  As  As20  1  0.000000  0.298328  0.884076  1
