# generated using pymatgen
data_Nd6MgZn22Se
_symmetry_space_group_name_H-M   'P 1'
_cell_length_a   9.40578050
_cell_length_b   9.40578041
_cell_length_c   9.40578000
_cell_angle_alpha   60.00000145
_cell_angle_beta   60.00000176
_cell_angle_gamma   60.00000695
_symmetry_Int_Tables_number   1
_chemical_formula_structural   Nd6MgZn22Se
_chemical_formula_sum   'Nd6 Mg1 Zn22 Se1'
_cell_volume   588.39574966
_cell_formula_units_Z   1
loop_
 _symmetry_equiv_pos_site_id
 _symmetry_equiv_pos_as_xyz
  1  'x, y, z'
loop_
 _atom_site_type_symbol
 _atom_site_label
 _atom_site_symmetry_multiplicity
 _atom_site_fract_x
 _atom_site_fract_y
 _atom_site_fract_z
 _atom_site_occupancy
  Nd  Nd0  1  0.777199  0.777199  0.222801  1
  Nd  Nd1  1  0.222801  0.777199  0.222801  1
  Nd  Nd2  1  0.777199  0.222801  0.222801  1
  Nd  Nd3  1  0.222801  0.222801  0.777199  1
  Nd  Nd4  1  0.777199  0.222801  0.777199  1
  Nd  Nd5  1  0.222801  0.777199  0.777199  1
  Mg  Mg6  1  0.500000  0.500000  0.500000  1
  Zn  Zn7  1  0.827762  0.827762  0.516714  1
  Zn  Zn8  1  0.827762  0.516714  0.827762  1
  Zn  Zn9  1  0.516714  0.827762  0.827762  1
  Zn  Zn10  1  0.827762  0.827762  0.827762  1
  Zn  Zn11  1  0.172238  0.172238  0.483286  1
  Zn  Zn12  1  0.172238  0.483286  0.172238  1
  Zn  Zn13  1  0.483286  0.172238  0.172238  1
  Zn  Zn14  1  0.172238  0.172238  0.172238  1
  Zn  Zn15  1  0.630293  0.630293  0.109121  1
  Zn  Zn16  1  0.630293  0.109121  0.630293  1
  Zn  Zn17  1  0.109121  0.630293  0.630293  1
  Zn  Zn18  1  0.630293  0.630293  0.630293  1
  Zn  Zn19  1  0.369707  0.369707  0.890879  1
  Zn  Zn20  1  0.369707  0.890879  0.369707  1
  Zn  Zn21  1  0.890879  0.369707  0.369707  1
  Zn  Zn22  1  0.369707  0.369707  0.369707  1
  Zn  Zn23  1  0.000000  0.000000  0.500000  1
  Zn  Zn24  1  0.500000  0.000000  0.500000  1
  Zn  Zn25  1  0.000000  0.500000  0.500000  1
  Zn  Zn26  1  0.500000  0.500000  0.000000  1
  Zn  Zn27  1  0.000000  0.500000  0.000000  1
  Zn  Zn28  1  0.500000  0.000000  0.000000  1
  Se  Se29  1  0.000000  0.000000  0.000000  1
