# generated using pymatgen
data_Ho3Mn5(Ni2P3)2
_symmetry_space_group_name_H-M   'P 1'
_cell_length_a   3.67477600
_cell_length_b   10.80033600
_cell_length_c   12.38052000
_cell_angle_alpha   90.00000000
_cell_angle_beta   90.00000000
_cell_angle_gamma   90.00000000
_symmetry_Int_Tables_number   1
_chemical_formula_structural   Ho3Mn5(Ni2P3)2
_chemical_formula_sum   'Ho6 Mn10 Ni8 P12'
_cell_volume   491.36817438
_cell_formula_units_Z   2
loop_
 _symmetry_equiv_pos_site_id
 _symmetry_equiv_pos_as_xyz
  1  'x, y, z'
loop_
 _atom_site_type_symbol
 _atom_site_label
 _atom_site_symmetry_multiplicity
 _atom_site_fract_x
 _atom_site_fract_y
 _atom_site_fract_z
 _atom_site_occupancy
  Ho  Ho0  1  0.000000  0.500000  0.530946  1
  Ho  Ho1  1  0.500000  0.000000  0.469054  1
  Ho  Ho2  1  0.500000  0.821171  0.199829  1
  Ho  Ho3  1  0.500000  0.178829  0.199829  1
  Ho  Ho4  1  0.000000  0.678829  0.800171  1
  Ho  Ho5  1  0.000000  0.321171  0.800171  1
  Mn  Mn6  1  0.500000  0.298176  0.430848  1
  Mn  Mn7  1  0.500000  0.701824  0.430848  1
  Mn  Mn8  1  0.000000  0.201824  0.569152  1
  Mn  Mn9  1  0.000000  0.798176  0.569152  1
  Mn  Mn10  1  0.500000  0.882228  0.705360  1
  Mn  Mn11  1  0.500000  0.117772  0.705360  1
  Mn  Mn12  1  0.000000  0.617772  0.294640  1
  Mn  Mn13  1  0.000000  0.382228  0.294640  1
  Mn  Mn14  1  0.500000  0.500000  0.162195  1
  Mn  Mn15  1  0.000000  0.000000  0.837805  1
  Ni  Ni16  1  0.000000  0.500000  0.991080  1
  Ni  Ni17  1  0.500000  0.000000  0.008920  1
  Ni  Ni18  1  0.500000  0.331275  0.995529  1
  Ni  Ni19  1  0.500000  0.668725  0.995529  1
  Ni  Ni20  1  0.000000  0.168725  0.004471  1
  Ni  Ni21  1  0.000000  0.831275  0.004471  1
  Ni  Ni22  1  0.500000  0.500000  0.706020  1
  Ni  Ni23  1  0.000000  0.000000  0.293980  1
  P  P24  1  0.500000  0.317299  0.619710  1
  P  P25  1  0.500000  0.682701  0.619710  1
  P  P26  1  0.000000  0.182701  0.380290  1
  P  P27  1  0.000000  0.817299  0.380290  1
  P  P28  1  0.500000  0.500000  0.883594  1
  P  P29  1  0.000000  0.000000  0.116406  1
  P  P30  1  0.500000  0.847203  0.889327  1
  P  P31  1  0.500000  0.152797  0.889327  1
  P  P32  1  0.000000  0.652797  0.110673  1
  P  P33  1  0.000000  0.347203  0.110673  1
  P  P34  1  0.500000  0.500000  0.356796  1
  P  P35  1  0.000000  0.000000  0.643204  1
