# generated using pymatgen
data_TbDy8Y3Co5Sn
_symmetry_space_group_name_H-M   'P 1'
_cell_length_a   8.29010431
_cell_length_b   8.28243806
_cell_length_c   8.28236755
_cell_angle_alpha   107.02251163
_cell_angle_beta   110.68999570
_cell_angle_gamma   110.68801474
_symmetry_Int_Tables_number   1
_chemical_formula_structural   TbDy8Y3Co5Sn
_chemical_formula_sum   'Tb1 Dy8 Y3 Co5 Sn1'
_cell_volume   437.40203185
_cell_formula_units_Z   1
loop_
 _symmetry_equiv_pos_site_id
 _symmetry_equiv_pos_as_xyz
  1  'x, y, z'
loop_
 _atom_site_type_symbol
 _atom_site_label
 _atom_site_symmetry_multiplicity
 _atom_site_fract_x
 _atom_site_fract_y
 _atom_site_fract_z
 _atom_site_occupancy
  Tb  Tb0  1  0.521274  0.707408  0.813831  1
  Dy  Dy1  1  0.306738  0.620810  0.313955  1
  Dy  Dy2  1  0.306818  0.992933  0.685998  1
  Dy  Dy3  1  0.693151  0.379195  0.686082  1
  Dy  Dy4  1  0.693231  0.007218  0.314027  1
  Dy  Dy5  1  0.192231  0.207752  0.399968  1
  Dy  Dy6  1  0.807946  0.792097  0.600093  1
  Dy  Dy7  1  0.192220  0.792274  0.984477  1
  Dy  Dy8  1  0.807933  0.207864  0.015848  1
  Y  Y9  1  0.478889  0.292260  0.186595  1
  Y  Y10  1  0.105208  0.292002  0.813172  1
  Y  Y11  1  0.894961  0.707950  0.186976  1
  Co  Co12  1  0.499855  0.612389  0.111899  1
  Co  Co13  1  0.499855  0.387831  0.887341  1
  Co  Co14  1  0.377001  0.999998  0.377022  1
  Co  Co15  1  0.622942  0.000149  0.622811  1
  Co  Co16  1  0.999949  0.999954  0.000010  1
  Sn  Sn17  1  0.999800  0.499916  0.499897  1
