# generated using pymatgen
data_Tb4Sn5SbIr5Rh2
_symmetry_space_group_name_H-M   'P 1'
_cell_length_a   7.61882866
_cell_length_b   7.61756328
_cell_length_c   7.61882818
_cell_angle_alpha   109.24462262
_cell_angle_beta   109.57748289
_cell_angle_gamma   109.59851159
_symmetry_Int_Tables_number   1
_chemical_formula_structural   Tb4Sn5SbIr5Rh2
_chemical_formula_sum   'Tb4 Sn5 Sb1 Ir5 Rh2'
_cell_volume   340.35283731
_cell_formula_units_Z   1
loop_
 _symmetry_equiv_pos_site_id
 _symmetry_equiv_pos_as_xyz
  1  'x, y, z'
loop_
 _atom_site_type_symbol
 _atom_site_label
 _atom_site_symmetry_multiplicity
 _atom_site_fract_x
 _atom_site_fract_y
 _atom_site_fract_z
 _atom_site_occupancy
  Tb  Tb0  1  0.492848  0.995696  0.998417  1
  Tb  Tb1  1  0.002984  0.497244  0.004565  1
  Tb  Tb2  1  0.997279  0.995696  0.502848  1
  Tb  Tb3  1  0.492679  0.497244  0.494259  1
  Sn  Sn4  1  0.995217  0.310675  0.315457  1
  Sn  Sn5  1  0.681243  0.999261  0.684617  1
  Sn  Sn6  1  0.692594  0.691235  0.998641  1
  Sn  Sn7  1  0.995005  0.679672  0.684667  1
  Sn  Sn8  1  0.314644  0.999261  0.318018  1
  Sb  Sb9  1  0.322589  0.321089  0.998500  1
  Ir  Ir10  1  0.009443  0.009738  0.000295  1
  Ir  Ir11  1  0.502002  0.751098  0.249096  1
  Ir  Ir12  1  0.751553  0.502323  0.249189  1
  Ir  Ir13  1  0.247220  0.747041  0.499822  1
  Ir  Ir14  1  0.253135  0.502323  0.750770  1
  Rh  Rh15  1  0.501658  0.252824  0.751165  1
  Rh  Rh16  1  0.747909  0.247581  0.499673  1
