# generated using pymatgen
data_SmMn4TcP3
_symmetry_space_group_name_H-M   'P 1'
_cell_length_a   3.74402700
_cell_length_b   10.70258700
_cell_length_c   12.16351300
_cell_angle_alpha   90.00000000
_cell_angle_beta   90.00000000
_cell_angle_gamma   90.00000000
_symmetry_Int_Tables_number   1
_chemical_formula_structural   SmMn4TcP3
_chemical_formula_sum   'Sm4 Mn16 Tc4 P12'
_cell_volume   487.40138896
_cell_formula_units_Z   4
loop_
 _symmetry_equiv_pos_site_id
 _symmetry_equiv_pos_as_xyz
  1  'x, y, z'
loop_
 _atom_site_type_symbol
 _atom_site_label
 _atom_site_symmetry_multiplicity
 _atom_site_fract_x
 _atom_site_fract_y
 _atom_site_fract_z
 _atom_site_occupancy
  Sm  Sm0  1  0.250000  0.588033  0.706195  1
  Sm  Sm1  1  0.250000  0.911967  0.206195  1
  Sm  Sm2  1  0.750000  0.411967  0.293805  1
  Sm  Sm3  1  0.750000  0.088033  0.793805  1
  Mn  Mn4  1  0.250000  0.411465  0.495655  1
  Mn  Mn5  1  0.250000  0.088535  0.995655  1
  Mn  Mn6  1  0.750000  0.588535  0.504345  1
  Mn  Mn7  1  0.750000  0.911465  0.004345  1
  Mn  Mn8  1  0.250000  0.209308  0.183106  1
  Mn  Mn9  1  0.250000  0.290692  0.683106  1
  Mn  Mn10  1  0.750000  0.790692  0.816894  1
  Mn  Mn11  1  0.750000  0.709308  0.316894  1
  Mn  Mn12  1  0.250000  0.884549  0.691405  1
  Mn  Mn13  1  0.250000  0.615451  0.191405  1
  Mn  Mn14  1  0.750000  0.115451  0.308595  1
  Mn  Mn15  1  0.750000  0.384549  0.808595  1
  Mn  Mn16  1  0.250000  0.466233  0.935574  1
  Mn  Mn17  1  0.250000  0.033767  0.435574  1
  Mn  Mn18  1  0.750000  0.533767  0.064426  1
  Mn  Mn19  1  0.750000  0.966233  0.564426  1
  Tc  Tc20  1  0.250000  0.710249  0.982741  1
  Tc  Tc21  1  0.250000  0.789751  0.482741  1
  Tc  Tc22  1  0.750000  0.289751  0.017259  1
  Tc  Tc23  1  0.750000  0.210249  0.517259  1
  P  P24  1  0.250000  0.411265  0.114255  1
  P  P25  1  0.250000  0.088735  0.614255  1
  P  P26  1  0.750000  0.588735  0.885745  1
  P  P27  1  0.750000  0.911265  0.385745  1
  P  P28  1  0.250000  0.265934  0.876497  1
  P  P29  1  0.250000  0.234066  0.376497  1
  P  P30  1  0.750000  0.734066  0.123503  1
  P  P31  1  0.750000  0.765934  0.623503  1
  P  P32  1  0.250000  0.594298  0.385096  1
  P  P33  1  0.250000  0.905702  0.885096  1
  P  P34  1  0.750000  0.405702  0.614904  1
  P  P35  1  0.750000  0.094298  0.114904  1
