# generated using pymatgen
data_MgSc8Cd(InAu4)2
_symmetry_space_group_name_H-M   'P 1'
_cell_length_a   7.79469900
_cell_length_b   7.79469900
_cell_length_c   6.83725700
_cell_angle_alpha   90.00000000
_cell_angle_beta   90.00000000
_cell_angle_gamma   90.00000000
_symmetry_Int_Tables_number   1
_chemical_formula_structural   MgSc8Cd(InAu4)2
_chemical_formula_sum   'Mg1 Sc8 Cd1 In2 Au8'
_cell_volume   415.41349694
_cell_formula_units_Z   1
loop_
 _symmetry_equiv_pos_site_id
 _symmetry_equiv_pos_as_xyz
  1  'x, y, z'
loop_
 _atom_site_type_symbol
 _atom_site_label
 _atom_site_symmetry_multiplicity
 _atom_site_fract_x
 _atom_site_fract_y
 _atom_site_fract_z
 _atom_site_occupancy
  Mg  Mg0  1  0.500000  0.000000  0.750000  1
  Sc  Sc1  1  0.141067  0.168567  0.999888  1
  Sc  Sc2  1  0.858933  0.831433  0.999888  1
  Sc  Sc3  1  0.668567  0.358933  0.500112  1
  Sc  Sc4  1  0.331433  0.641067  0.500112  1
  Sc  Sc5  1  0.686227  0.338844  0.000112  1
  Sc  Sc6  1  0.313773  0.661156  0.000112  1
  Sc  Sc7  1  0.838844  0.813773  0.499888  1
  Sc  Sc8  1  0.161156  0.186227  0.499888  1
  Cd  Cd9  1  0.500000  0.000000  0.250000  1
  In  In10  1  0.000000  0.500000  0.250000  1
  In  In11  1  0.000000  0.500000  0.750000  1
  Au  Au12  1  0.376336  0.358731  0.231479  1
  Au  Au13  1  0.622570  0.644251  0.768316  1
  Au  Au14  1  0.623664  0.641269  0.231479  1
  Au  Au15  1  0.855749  0.122570  0.731684  1
  Au  Au16  1  0.858731  0.123664  0.268521  1
  Au  Au17  1  0.377430  0.355749  0.768316  1
  Au  Au18  1  0.141269  0.876336  0.268521  1
  Au  Au19  1  0.144251  0.877430  0.731684  1
