# generated using pymatgen
data_Li2Co5Ni4P7W3
_symmetry_space_group_name_H-M   'P 1'
_cell_length_a   9.04628543
_cell_length_b   9.02617333
_cell_length_c   3.64965500
_cell_angle_alpha   90.00000000
_cell_angle_beta   90.00000000
_cell_angle_gamma   120.03814095
_symmetry_Int_Tables_number   1
_chemical_formula_structural   Li2Co5Ni4P7W3
_chemical_formula_sum   'Li2 Co5 Ni4 P7 W3'
_cell_volume   257.98197176
_cell_formula_units_Z   1
loop_
 _symmetry_equiv_pos_site_id
 _symmetry_equiv_pos_as_xyz
  1  'x, y, z'
loop_
 _atom_site_type_symbol
 _atom_site_label
 _atom_site_symmetry_multiplicity
 _atom_site_fract_x
 _atom_site_fract_y
 _atom_site_fract_z
 _atom_site_occupancy
  Li  Li0  1  0.334837  0.667300  0.000000  1
  Li  Li1  1  0.666561  0.333862  0.500000  1
  Co  Co2  1  0.717986  0.880116  0.000000  1
  Co  Co3  1  0.162593  0.282196  0.000000  1
  Co  Co4  1  0.120014  0.837343  0.000000  1
  Co  Co5  1  0.561867  0.953678  0.500000  1
  Co  Co6  1  0.391683  0.440251  0.500000  1
  Ni  Ni7  1  0.627052  0.565628  0.000000  1
  Ni  Ni8  1  0.935722  0.370390  0.000000  1
  Ni  Ni9  1  0.433701  0.063859  0.000000  1
  Ni  Ni10  1  0.051455  0.608590  0.500000  1
  P  P11  1  0.578750  0.714453  0.500000  1
  P  P12  1  0.135237  0.417943  0.500000  1
  P  P13  1  0.289676  0.869117  0.500000  1
  P  P14  1  0.999624  0.999452  0.000000  1
  P  P15  1  0.880413  0.582090  0.000000  1
  P  P16  1  0.698090  0.115377  0.000000  1
  P  P17  1  0.416442  0.302118  0.000000  1
  W  W18  1  0.871420  0.775907  0.500000  1
  W  W19  1  0.904934  0.125881  0.500000  1
  W  W20  1  0.221942  0.094452  0.500000  1
