# generated using pymatgen
data_PrAl4Si2Pd
_symmetry_space_group_name_H-M   'P 1'
_cell_length_a   4.19670800
_cell_length_b   4.19670663
_cell_length_c   31.86965200
_cell_angle_alpha   90.00000000
_cell_angle_beta   90.00019114
_cell_angle_gamma   120.00004235
_symmetry_Int_Tables_number   1
_chemical_formula_structural   PrAl4Si2Pd
_chemical_formula_sum   'Pr3 Al12 Si6 Pd3'
_cell_volume   486.09945149
_cell_formula_units_Z   3
loop_
 _symmetry_equiv_pos_site_id
 _symmetry_equiv_pos_as_xyz
  1  'x, y, z'
loop_
 _atom_site_type_symbol
 _atom_site_label
 _atom_site_symmetry_multiplicity
 _atom_site_fract_x
 _atom_site_fract_y
 _atom_site_fract_z
 _atom_site_occupancy
  Pr  Pr0  1  0.333339  0.666670  0.166674  1
  Pr  Pr1  1  0.999999  0.999999  0.499997  1
  Pr  Pr2  1  0.666666  0.333332  0.833337  1
  Al  Al3  1  0.666669  0.333335  0.026315  1
  Al  Al4  1  0.000002  0.000002  0.080959  1
  Al  Al5  1  0.666668  0.333334  0.252393  1
  Al  Al6  1  0.999986  0.999992  0.307010  1
  Al  Al7  1  0.333319  0.666659  0.359624  1
  Al  Al8  1  0.666654  0.333326  0.414260  1
  Al  Al9  1  0.333344  0.666673  0.585718  1
  Al  Al10  1  0.666675  0.333337  0.640356  1
  Al  Al11  1  0.000010  0.000006  0.693000  1
  Al  Al12  1  0.333335  0.666667  0.747612  1
  Al  Al13  1  0.999999  0.999999  0.919067  1
  Al  Al14  1  0.333334  0.666667  0.973704  1
  Si  Si15  1  0.666669  0.333334  0.107755  1
  Si  Si16  1  0.000003  0.000001  0.225573  1
  Si  Si17  1  0.333324  0.666663  0.441058  1
  Si  Si18  1  0.666674  0.333336  0.558910  1
  Si  Si19  1  0.000000  0.000000  0.774445  1
  Si  Si20  1  0.333333  0.666666  0.892261  1
  Pd  Pd21  1  0.000002  0.000000  0.999989  1
  Pd  Pd22  1  0.666651  0.333325  0.333340  1
  Pd  Pd23  1  0.333344  0.666672  0.666675  1
