# generated using pymatgen
data_Tb3Yb12Dy5Si16
_symmetry_space_group_name_H-M   'P 1'
_cell_length_a   7.44228624
_cell_length_b   7.81389913
_cell_length_c   15.16145524
_cell_angle_alpha   89.99875507
_cell_angle_beta   90.02045752
_cell_angle_gamma   89.97891605
_symmetry_Int_Tables_number   1
_chemical_formula_structural   Tb3Yb12Dy5Si16
_chemical_formula_sum   'Tb3 Yb12 Dy5 Si16'
_cell_volume   881.68814533
_cell_formula_units_Z   1
loop_
 _symmetry_equiv_pos_site_id
 _symmetry_equiv_pos_as_xyz
  1  'x, y, z'
loop_
 _atom_site_type_symbol
 _atom_site_label
 _atom_site_symmetry_multiplicity
 _atom_site_fract_x
 _atom_site_fract_y
 _atom_site_fract_z
 _atom_site_occupancy
  Tb  Tb0  1  0.313740  0.177088  0.121089  1
  Tb  Tb1  1  0.813740  0.322916  0.378908  1
  Tb  Tb2  1  0.186294  0.677118  0.878887  1
  Yb  Yb3  1  0.970856  0.815570  0.403230  1
  Yb  Yb4  1  0.470901  0.684464  0.096794  1
  Yb  Yb5  1  0.529177  0.315512  0.596793  1
  Yb  Yb6  1  0.029073  0.184438  0.903187  1
  Yb  Yb7  1  0.029275  0.184413  0.596801  1
  Yb  Yb8  1  0.529353  0.315529  0.903197  1
  Yb  Yb9  1  0.470693  0.684489  0.403242  1
  Yb  Yb10  1  0.970656  0.815527  0.096789  1
  Yb  Yb11  1  0.354691  0.019501  0.749942  1
  Yb  Yb12  1  0.854553  0.480543  0.749980  1
  Yb  Yb13  1  0.145408  0.519539  0.250016  1
  Yb  Yb14  1  0.645414  0.980436  0.249978  1
  Dy  Dy15  1  0.686194  0.823202  0.621144  1
  Dy  Dy16  1  0.313729  0.176644  0.378944  1
  Dy  Dy17  1  0.813679  0.323331  0.121096  1
  Dy  Dy18  1  0.186316  0.676792  0.621132  1
  Dy  Dy19  1  0.686286  0.823281  0.878824  1
  Si  Si20  1  0.858963  0.533312  0.538697  1
  Si  Si21  1  0.359355  0.966969  0.961461  1
  Si  Si22  1  0.640768  0.032742  0.461668  1
  Si  Si23  1  0.140628  0.466985  0.038544  1
  Si  Si24  1  0.141632  0.467133  0.461640  1
  Si  Si25  1  0.641650  0.032922  0.038361  1
  Si  Si26  1  0.358746  0.966863  0.538485  1
  Si  Si27  1  0.858351  0.532910  0.961635  1
  Si  Si28  1  0.977998  0.885415  0.749911  1
  Si  Si29  1  0.478583  0.614739  0.749817  1
  Si  Si30  1  0.521717  0.385557  0.249913  1
  Si  Si31  1  0.021735  0.114426  0.250090  1
  Si  Si32  1  0.249747  0.393860  0.749825  1
  Si  Si33  1  0.749558  0.105849  0.749970  1
  Si  Si34  1  0.250272  0.893865  0.250144  1
  Si  Si35  1  0.750269  0.606118  0.249863  1
