# generated using pymatgen
data_PrNd(ZnAs)6
_symmetry_space_group_name_H-M   'P 1'
_cell_length_a   4.21226195
_cell_length_b   4.21988518
_cell_length_c   20.58223112
_cell_angle_alpha   90.01193186
_cell_angle_beta   90.00251232
_cell_angle_gamma   60.02236683
_symmetry_Int_Tables_number   1
_chemical_formula_structural   PrNd(ZnAs)6
_chemical_formula_sum   'Pr1 Nd1 Zn6 As6'
_cell_volume   316.91070979
_cell_formula_units_Z   1
loop_
 _symmetry_equiv_pos_site_id
 _symmetry_equiv_pos_as_xyz
  1  'x, y, z'
loop_
 _atom_site_type_symbol
 _atom_site_label
 _atom_site_symmetry_multiplicity
 _atom_site_fract_x
 _atom_site_fract_y
 _atom_site_fract_z
 _atom_site_occupancy
  Pr  Pr0  1  0.010039  0.001017  0.499916  1
  Nd  Nd1  1  0.009890  0.000878  0.000091  1
  Zn  Zn2  1  0.347373  0.343316  0.128543  1
  Zn  Zn3  1  0.688193  0.658863  0.871511  1
  Zn  Zn4  1  0.689279  0.658587  0.630833  1
  Zn  Zn5  1  0.347766  0.343992  0.369164  1
  Zn  Zn6  1  0.220343  0.385223  0.750516  1
  Zn  Zn7  1  0.611546  0.611931  0.249381  1
  As  As8  1  0.350505  0.329178  0.588673  1
  As  As9  1  0.679233  0.673164  0.411269  1
  As  As10  1  0.678773  0.672716  0.086847  1
  As  As11  1  0.349589  0.329359  0.913250  1
  As  As12  1  0.544491  0.723636  0.751224  1
  As  As13  1  0.273779  0.273239  0.248780  1
