# generated using pymatgen
data_Li3Ca2In
_symmetry_space_group_name_H-M   'P 1'
_cell_length_a   5.95308200
_cell_length_b   5.95308179
_cell_length_c   10.06124700
_cell_angle_alpha   90.00000000
_cell_angle_beta   90.00000000
_cell_angle_gamma   120.00000117
_symmetry_Int_Tables_number   1
_chemical_formula_structural   Li3Ca2In
_chemical_formula_sum   'Li6 Ca4 In2'
_cell_volume   308.79207909
_cell_formula_units_Z   2
loop_
 _symmetry_equiv_pos_site_id
 _symmetry_equiv_pos_as_xyz
  1  'x, y, z'
loop_
 _atom_site_type_symbol
 _atom_site_label
 _atom_site_symmetry_multiplicity
 _atom_site_fract_x
 _atom_site_fract_y
 _atom_site_fract_z
 _atom_site_occupancy
  Li  Li0  1  0.161323  0.322645  0.750000  1
  Li  Li1  1  0.161323  0.838677  0.750000  1
  Li  Li2  1  0.322645  0.161323  0.250000  1
  Li  Li3  1  0.838677  0.677355  0.250000  1
  Li  Li4  1  0.677355  0.838677  0.750000  1
  Li  Li5  1  0.838677  0.161323  0.250000  1
  Ca  Ca6  1  0.333333  0.666667  0.443194  1
  Ca  Ca7  1  0.666667  0.333333  0.556806  1
  Ca  Ca8  1  0.666667  0.333333  0.943194  1
  Ca  Ca9  1  0.333333  0.666667  0.056806  1
  In  In10  1  0.000000  0.000000  0.000000  1
  In  In11  1  0.000000  0.000000  0.500000  1
