# generated using pymatgen
data_YTmCo9P6Ru
_symmetry_space_group_name_H-M   'P 1'
_cell_length_a   3.66500400
_cell_length_b   10.31314100
_cell_length_c   11.74200900
_cell_angle_alpha   90.00000000
_cell_angle_beta   90.00000000
_cell_angle_gamma   90.00000000
_symmetry_Int_Tables_number   1
_chemical_formula_structural   YTmCo9P6Ru
_chemical_formula_sum   'Y2 Tm2 Co18 P12 Ru2'
_cell_volume   443.82096901
_cell_formula_units_Z   2
loop_
 _symmetry_equiv_pos_site_id
 _symmetry_equiv_pos_as_xyz
  1  'x, y, z'
loop_
 _atom_site_type_symbol
 _atom_site_label
 _atom_site_symmetry_multiplicity
 _atom_site_fract_x
 _atom_site_fract_y
 _atom_site_fract_z
 _atom_site_occupancy
  Y  Y0  1  0.250000  0.582347  0.702447  1
  Y  Y1  1  0.250000  0.917653  0.202447  1
  Tm  Tm2  1  0.750000  0.413930  0.295477  1
  Tm  Tm3  1  0.750000  0.086070  0.795477  1
  Co  Co4  1  0.750000  0.283379  0.008070  1
  Co  Co5  1  0.750000  0.216621  0.508070  1
  Co  Co6  1  0.250000  0.405801  0.486644  1
  Co  Co7  1  0.250000  0.094199  0.986644  1
  Co  Co8  1  0.750000  0.590347  0.509525  1
  Co  Co9  1  0.750000  0.909653  0.009525  1
  Co  Co10  1  0.250000  0.221311  0.176866  1
  Co  Co11  1  0.250000  0.278689  0.676866  1
  Co  Co12  1  0.750000  0.778896  0.822990  1
  Co  Co13  1  0.750000  0.721104  0.322990  1
  Co  Co14  1  0.250000  0.887564  0.702172  1
  Co  Co15  1  0.250000  0.612436  0.202172  1
  Co  Co16  1  0.750000  0.117447  0.301169  1
  Co  Co17  1  0.750000  0.382553  0.801169  1
  Co  Co18  1  0.250000  0.463756  0.933098  1
  Co  Co19  1  0.250000  0.036244  0.433098  1
  Co  Co20  1  0.750000  0.532141  0.069575  1
  Co  Co21  1  0.750000  0.967859  0.569575  1
  P  P22  1  0.250000  0.417103  0.112923  1
  P  P23  1  0.250000  0.082897  0.612923  1
  P  P24  1  0.750000  0.578474  0.887761  1
  P  P25  1  0.750000  0.921526  0.387761  1
  P  P26  1  0.250000  0.269358  0.868786  1
  P  P27  1  0.250000  0.230642  0.368786  1
  P  P28  1  0.750000  0.728466  0.132478  1
  P  P29  1  0.750000  0.771534  0.632478  1
  P  P30  1  0.250000  0.593975  0.390041  1
  P  P31  1  0.250000  0.906025  0.890041  1
  P  P32  1  0.750000  0.396519  0.608381  1
  P  P33  1  0.750000  0.103481  0.108381  1
  Ru  Ru34  1  0.250000  0.715438  0.991594  1
  Ru  Ru35  1  0.250000  0.784562  0.491594  1
