# generated using pymatgen
data_MnCu2Rh3Se8
_symmetry_space_group_name_H-M   'P 1'
_cell_length_a   7.24421593
_cell_length_b   7.24421512
_cell_length_c   7.24421631
_cell_angle_alpha   61.90597479
_cell_angle_beta   61.90598170
_cell_angle_gamma   61.90597706
_symmetry_Int_Tables_number   1
_chemical_formula_structural   MnCu2Rh3Se8
_chemical_formula_sum   'Mn1 Cu2 Rh3 Se8'
_cell_volume   280.28657352
_cell_formula_units_Z   1
loop_
 _symmetry_equiv_pos_site_id
 _symmetry_equiv_pos_as_xyz
  1  'x, y, z'
loop_
 _atom_site_type_symbol
 _atom_site_label
 _atom_site_symmetry_multiplicity
 _atom_site_fract_x
 _atom_site_fract_y
 _atom_site_fract_z
 _atom_site_occupancy
  Mn  Mn0  1  0.500000  0.500000  0.500000  1
  Cu  Cu1  1  0.123701  0.123701  0.123701  1
  Cu  Cu2  1  0.876299  0.876299  0.876299  1
  Rh  Rh3  1  0.000000  0.500000  0.500000  1
  Rh  Rh4  1  0.500000  0.500000  0.000000  1
  Rh  Rh5  1  0.500000  0.000000  0.500000  1
  Se  Se6  1  0.739282  0.739282  0.739282  1
  Se  Se7  1  0.276237  0.740475  0.740475  1
  Se  Se8  1  0.740475  0.740475  0.276237  1
  Se  Se9  1  0.740475  0.276237  0.740475  1
  Se  Se10  1  0.260718  0.260718  0.260718  1
  Se  Se11  1  0.723763  0.259525  0.259525  1
  Se  Se12  1  0.259525  0.259525  0.723763  1
  Se  Se13  1  0.259525  0.723763  0.259525  1
