# generated using pymatgen
data_Ti2InSnRh3
_symmetry_space_group_name_H-M   'P 1'
_cell_length_a   7.58914114
_cell_length_b   7.58914039
_cell_length_c   7.58914120
_cell_angle_alpha   34.05200642
_cell_angle_beta   34.05201344
_cell_angle_gamma   34.05200347
_symmetry_Int_Tables_number   1
_chemical_formula_structural   Ti2InSnRh3
_chemical_formula_sum   'Ti2 In1 Sn1 Rh3'
_cell_volume   122.17082662
_cell_formula_units_Z   1
loop_
 _symmetry_equiv_pos_site_id
 _symmetry_equiv_pos_as_xyz
  1  'x, y, z'
loop_
 _atom_site_type_symbol
 _atom_site_label
 _atom_site_symmetry_multiplicity
 _atom_site_fract_x
 _atom_site_fract_y
 _atom_site_fract_z
 _atom_site_occupancy
  Ti  Ti0  1  0.753264  0.753264  0.753264  1
  Ti  Ti1  1  0.247572  0.247572  0.247572  1
  In  In2  1  0.993073  0.993073  0.993073  1
  Sn  Sn3  1  0.504258  0.504258  0.504258  1
  Rh  Rh4  1  0.123624  0.123624  0.123624  1
  Rh  Rh5  1  0.627589  0.627589  0.627589  1
  Rh  Rh6  1  0.375619  0.375619  0.375619  1
