# generated using pymatgen
data_Tm4Zn2MoOs5
_symmetry_space_group_name_H-M   'P 1'
_cell_length_a   5.42602266
_cell_length_b   5.25407020
_cell_length_c   8.84759600
_cell_angle_alpha   90.00000000
_cell_angle_beta   90.00000000
_cell_angle_gamma   120.49678331
_symmetry_Int_Tables_number   1
_chemical_formula_structural   Tm4Zn2MoOs5
_chemical_formula_sum   'Tm4 Zn2 Mo1 Os5'
_cell_volume   217.33892145
_cell_formula_units_Z   1
loop_
 _symmetry_equiv_pos_site_id
 _symmetry_equiv_pos_as_xyz
  1  'x, y, z'
loop_
 _atom_site_type_symbol
 _atom_site_label
 _atom_site_symmetry_multiplicity
 _atom_site_fract_x
 _atom_site_fract_y
 _atom_site_fract_z
 _atom_site_occupancy
  Tm  Tm0  1  0.676720  0.343514  0.565285  1
  Tm  Tm1  1  0.344000  0.671560  0.442269  1
  Tm  Tm2  1  0.344000  0.671560  0.057731  1
  Tm  Tm3  1  0.676720  0.343514  0.934715  1
  Zn  Zn4  1  0.803664  0.645047  0.250000  1
  Zn  Zn5  1  0.808907  0.159399  0.250000  1
  Mo  Mo6  1  0.163828  0.326405  0.750000  1
  Os  Os7  1  0.026006  0.018590  0.494803  1
  Os  Os8  1  0.026006  0.018590  0.005197  1
  Os  Os9  1  0.172431  0.828060  0.750000  1
  Os  Os10  1  0.649239  0.823916  0.750000  1
  Os  Os11  1  0.308478  0.149845  0.250000  1
