# generated using pymatgen
data_La2Si5AsPd21
_symmetry_space_group_name_H-M   'P 1'
_cell_length_a   8.76900856
_cell_length_b   8.76900803
_cell_length_c   8.72452700
_cell_angle_alpha   60.16765270
_cell_angle_beta   60.16765468
_cell_angle_gamma   59.66468217
_symmetry_Int_Tables_number   1
_chemical_formula_structural   La2Si5AsPd21
_chemical_formula_sum   'La2 Si5 As1 Pd21'
_cell_volume   474.35729450
_cell_formula_units_Z   1
loop_
 _symmetry_equiv_pos_site_id
 _symmetry_equiv_pos_as_xyz
  1  'x, y, z'
loop_
 _atom_site_type_symbol
 _atom_site_label
 _atom_site_symmetry_multiplicity
 _atom_site_fract_x
 _atom_site_fract_y
 _atom_site_fract_z
 _atom_site_occupancy
  La  La0  1  0.750327  0.750327  0.749673  1
  La  La1  1  0.250327  0.250327  0.249673  1
  Si  Si2  1  0.263812  0.736781  0.263219  1
  Si  Si3  1  0.736781  0.263812  0.263219  1
  Si  Si4  1  0.263484  0.263484  0.736516  1
  Si  Si5  1  0.736781  0.263812  0.736188  1
  Si  Si6  1  0.263812  0.736781  0.736188  1
  As  As7  1  0.737212  0.737212  0.262788  1
  Pd  Pd8  1  0.000951  0.000951  0.999049  1
  Pd  Pd9  1  0.611719  0.611719  0.156496  1
  Pd  Pd10  1  0.613528  0.156875  0.614799  1
  Pd  Pd11  1  0.156875  0.613528  0.614799  1
  Pd  Pd12  1  0.611719  0.611719  0.620068  1
  Pd  Pd13  1  0.385201  0.385201  0.843125  1
  Pd  Pd14  1  0.379932  0.843504  0.388281  1
  Pd  Pd15  1  0.843504  0.379932  0.388281  1
  Pd  Pd16  1  0.385201  0.385201  0.386472  1
  Pd  Pd17  1  0.000609  0.000609  0.344210  1
  Pd  Pd18  1  0.653805  0.006182  0.346195  1
  Pd  Pd19  1  0.006182  0.653805  0.346195  1
  Pd  Pd20  1  0.655790  0.345429  0.999391  1
  Pd  Pd21  1  0.999402  0.343809  0.000598  1
  Pd  Pd22  1  0.999402  0.343809  0.656191  1
  Pd  Pd23  1  0.345429  0.655790  0.999391  1
  Pd  Pd24  1  0.343809  0.999402  0.656191  1
  Pd  Pd25  1  0.343809  0.999402  0.000598  1
  Pd  Pd26  1  0.000609  0.000609  0.654571  1
  Pd  Pd27  1  0.006182  0.653805  0.993818  1
  Pd  Pd28  1  0.653805  0.006182  0.993818  1
