# generated using pymatgen
data_Th3AlGaPdPt3
_symmetry_space_group_name_H-M   'P 1'
_cell_length_a   7.30706210
_cell_length_b   7.36303450
_cell_length_c   4.02063700
_cell_angle_alpha   90.00000000
_cell_angle_beta   90.00000000
_cell_angle_gamma   116.60720863
_symmetry_Int_Tables_number   1
_chemical_formula_structural   Th3AlGaPdPt3
_chemical_formula_sum   'Th3 Al1 Ga1 Pd1 Pt3'
_cell_volume   193.41028782
_cell_formula_units_Z   1
loop_
 _symmetry_equiv_pos_site_id
 _symmetry_equiv_pos_as_xyz
  1  'x, y, z'
loop_
 _atom_site_type_symbol
 _atom_site_label
 _atom_site_symmetry_multiplicity
 _atom_site_fract_x
 _atom_site_fract_y
 _atom_site_fract_z
 _atom_site_occupancy
  Th  Th0  1  0.415712  0.416650  0.500000  1
  Th  Th1  1  0.603282  0.985715  0.500000  1
  Th  Th2  1  0.985221  0.598874  0.500000  1
  Al  Al3  1  0.241592  0.000992  0.000000  1
  Ga  Ga4  1  0.002767  0.248234  0.000000  1
  Pd  Pd5  1  0.748784  0.747342  0.000000  1
  Pt  Pt6  1  0.652495  0.303668  0.000000  1
  Pt  Pt7  1  0.310485  0.669115  0.000000  1
  Pt  Pt8  1  0.039661  0.029412  0.500000  1
