# generated using pymatgen
data_LaTb4Nd3(CdNi)2
_symmetry_space_group_name_H-M   'P 1'
_cell_length_a   9.73487929
_cell_length_b   9.73487927
_cell_length_c   9.74339500
_cell_angle_alpha   59.97106218
_cell_angle_beta   59.97106227
_cell_angle_gamma   60.00781177
_symmetry_Int_Tables_number   1
_chemical_formula_structural   LaTb4Nd3(CdNi)2
_chemical_formula_sum   'La2 Tb8 Nd6 Cd4 Ni4'
_cell_volume   652.66746847
_cell_formula_units_Z   2
loop_
 _symmetry_equiv_pos_site_id
 _symmetry_equiv_pos_as_xyz
  1  'x, y, z'
loop_
 _atom_site_type_symbol
 _atom_site_label
 _atom_site_symmetry_multiplicity
 _atom_site_fract_x
 _atom_site_fract_y
 _atom_site_fract_z
 _atom_site_occupancy
  La  La0  1  0.596022  0.596022  0.600699  1
  La  La1  1  0.596022  0.596022  0.207258  1
  Tb  Tb2  1  0.597309  0.201437  0.600627  1
  Tb  Tb3  1  0.201437  0.597309  0.600627  1
  Tb  Tb4  1  0.065614  0.436798  0.435943  1
  Tb  Tb5  1  0.436798  0.065614  0.061645  1
  Tb  Tb6  1  0.436798  0.065614  0.435943  1
  Tb  Tb7  1  0.065614  0.436798  0.061645  1
  Tb  Tb8  1  0.436915  0.436915  0.063085  1
  Tb  Tb9  1  0.062810  0.062810  0.437190  1
  Nd  Nd10  1  0.188693  0.812357  0.812777  1
  Nd  Nd11  1  0.812357  0.188693  0.186173  1
  Nd  Nd12  1  0.812357  0.188693  0.812777  1
  Nd  Nd13  1  0.188693  0.812357  0.186173  1
  Nd  Nd14  1  0.812076  0.812076  0.187924  1
  Nd  Nd15  1  0.187598  0.187598  0.812402  1
  Cd  Cd16  1  0.831491  0.831491  0.826457  1
  Cd  Cd17  1  0.831491  0.831491  0.510563  1
  Cd  Cd18  1  0.833455  0.510371  0.828087  1
  Cd  Cd19  1  0.510371  0.833455  0.828087  1
  Ni  Ni20  1  0.390320  0.390320  0.395074  1
  Ni  Ni21  1  0.390320  0.390320  0.824285  1
  Ni  Ni22  1  0.388328  0.827110  0.392281  1
  Ni  Ni23  1  0.827110  0.388328  0.392281  1
