# generated using pymatgen
data_Gd5ReRuO12
_symmetry_space_group_name_H-M   'P 1'
_cell_length_a   6.94678857
_cell_length_b   6.94678763
_cell_length_c   7.63842000
_cell_angle_alpha   73.75957511
_cell_angle_beta   73.75957760
_cell_angle_gamma   48.61083607
_symmetry_Int_Tables_number   1
_chemical_formula_structural   Gd5ReRuO12
_chemical_formula_sum   'Gd5 Re1 Ru1 O12'
_cell_volume   263.20458456
_cell_formula_units_Z   1
loop_
 _symmetry_equiv_pos_site_id
 _symmetry_equiv_pos_as_xyz
  1  'x, y, z'
loop_
 _atom_site_type_symbol
 _atom_site_label
 _atom_site_symmetry_multiplicity
 _atom_site_fract_x
 _atom_site_fract_y
 _atom_site_fract_z
 _atom_site_occupancy
  Gd  Gd0  1  0.179100  0.212050  0.643591  1
  Gd  Gd1  1  0.180085  0.191300  0.172211  1
  Gd  Gd2  1  0.489212  0.510788  0.500000  1
  Gd  Gd3  1  0.787950  0.820900  0.356409  1
  Gd  Gd4  1  0.808700  0.819915  0.827789  1
  Re  Re5  1  0.299281  0.700719  0.000000  1
  Ru  Ru6  1  0.732854  0.267146  0.000000  1
  O  O7  1  0.411483  0.900665  0.917321  1
  O  O8  1  0.930503  0.413724  0.916130  1
  O  O9  1  0.898501  0.414065  0.421911  1
  O  O10  1  0.390887  0.911099  0.430580  1
  O  O11  1  0.501128  0.502360  0.199726  1
  O  O12  1  0.015523  0.983294  0.171378  1
  O  O13  1  0.016706  0.984477  0.828622  1
  O  O14  1  0.497640  0.498872  0.800274  1
  O  O15  1  0.099335  0.588517  0.082679  1
  O  O16  1  0.586276  0.069497  0.083870  1
  O  O17  1  0.088901  0.609113  0.569420  1
  O  O18  1  0.585935  0.101499  0.578089  1
