# generated using pymatgen
data_EuHo(Si7Rh3)2
_symmetry_space_group_name_H-M   'P 1'
_cell_length_a   8.01028183
_cell_length_b   8.01028231
_cell_length_c   8.01028288
_cell_angle_alpha   57.16183517
_cell_angle_beta   57.16182998
_cell_angle_gamma   57.16183413
_symmetry_Int_Tables_number   1
_chemical_formula_structural   EuHo(Si7Rh3)2
_chemical_formula_sum   'Eu1 Ho1 Si14 Rh6'
_cell_volume   339.67175064
_cell_formula_units_Z   1
loop_
 _symmetry_equiv_pos_site_id
 _symmetry_equiv_pos_as_xyz
  1  'x, y, z'
loop_
 _atom_site_type_symbol
 _atom_site_label
 _atom_site_symmetry_multiplicity
 _atom_site_fract_x
 _atom_site_fract_y
 _atom_site_fract_z
 _atom_site_occupancy
  Eu  Eu0  1  0.500000  0.500000  0.500000  1
  Ho  Ho1  1  0.000000  0.000000  0.000000  1
  Si  Si2  1  0.749430  0.749430  0.749430  1
  Si  Si3  1  0.250570  0.250570  0.250570  1
  Si  Si4  1  0.851430  0.065220  0.672517  1
  Si  Si5  1  0.672517  0.851430  0.065220  1
  Si  Si6  1  0.065220  0.672517  0.851430  1
  Si  Si7  1  0.648637  0.828017  0.433261  1
  Si  Si8  1  0.433261  0.648637  0.828017  1
  Si  Si9  1  0.828017  0.433261  0.648637  1
  Si  Si10  1  0.171983  0.566739  0.351363  1
  Si  Si11  1  0.566739  0.351363  0.171983  1
  Si  Si12  1  0.351363  0.171983  0.566739  1
  Si  Si13  1  0.934780  0.327483  0.148570  1
  Si  Si14  1  0.327483  0.148570  0.934780  1
  Si  Si15  1  0.148570  0.934780  0.327483  1
  Rh  Rh16  1  0.066641  0.428593  0.752662  1
  Rh  Rh17  1  0.247338  0.933359  0.571407  1
  Rh  Rh18  1  0.571407  0.247338  0.933359  1
  Rh  Rh19  1  0.933359  0.571407  0.247338  1
  Rh  Rh20  1  0.428593  0.752662  0.066641  1
  Rh  Rh21  1  0.752662  0.066641  0.428593  1
