# generated using pymatgen
data_EuVF7
_symmetry_space_group_name_H-M   'P 1'
_cell_length_a   5.63102500
_cell_length_b   9.07855511
_cell_length_c   12.13771200
_cell_angle_alpha   62.78943189
_cell_angle_beta   90.00000000
_cell_angle_gamma   90.00000000
_symmetry_Int_Tables_number   1
_chemical_formula_structural   EuVF7
_chemical_formula_sum   'Eu4 V4 F28'
_cell_volume   551.82955977
_cell_formula_units_Z   4
loop_
 _symmetry_equiv_pos_site_id
 _symmetry_equiv_pos_as_xyz
  1  'x, y, z'
loop_
 _atom_site_type_symbol
 _atom_site_label
 _atom_site_symmetry_multiplicity
 _atom_site_fract_x
 _atom_site_fract_y
 _atom_site_fract_z
 _atom_site_occupancy
  Eu  Eu0  1  0.758837  0.807855  0.769666  1
  Eu  Eu1  1  0.258837  0.192145  0.730334  1
  Eu  Eu2  1  0.241163  0.192145  0.230334  1
  Eu  Eu3  1  0.741163  0.807855  0.269666  1
  V  V4  1  0.755757  0.274155  0.954944  1
  V  V5  1  0.255757  0.725845  0.545056  1
  V  V6  1  0.244243  0.725845  0.045056  1
  V  V7  1  0.744243  0.274155  0.454944  1
  F  F8  1  0.444213  0.706528  0.928786  1
  F  F9  1  0.944213  0.293472  0.571214  1
  F  F10  1  0.555787  0.293472  0.071214  1
  F  F11  1  0.055787  0.706528  0.428786  1
  F  F12  1  0.470674  0.285712  0.541621  1
  F  F13  1  0.970674  0.714288  0.958379  1
  F  F14  1  0.529326  0.714288  0.458379  1
  F  F15  1  0.029326  0.285712  0.041621  1
  F  F16  1  0.765798  0.501393  0.864808  1
  F  F17  1  0.265798  0.498607  0.635192  1
  F  F18  1  0.234202  0.498607  0.135192  1
  F  F19  1  0.734202  0.501393  0.364808  1
  F  F20  1  0.758755  0.049360  0.043353  1
  F  F21  1  0.258755  0.950640  0.456647  1
  F  F22  1  0.241245  0.950640  0.956647  1
  F  F23  1  0.741245  0.049360  0.543353  1
  F  F24  1  0.990395  0.731826  0.637041  1
  F  F25  1  0.490395  0.268174  0.862959  1
  F  F26  1  0.009605  0.268174  0.362959  1
  F  F27  1  0.509605  0.731826  0.137041  1
  F  F28  1  0.045576  0.744582  0.164182  1
  F  F29  1  0.545576  0.255418  0.335818  1
  F  F30  1  0.954424  0.255418  0.835818  1
  F  F31  1  0.454424  0.744582  0.664182  1
  F  F32  1  0.419544  0.971375  0.231750  1
  F  F33  1  0.919544  0.028625  0.268250  1
  F  F34  1  0.580456  0.028625  0.768250  1
  F  F35  1  0.080456  0.971375  0.731750  1
