# generated using pymatgen
data_CeAgPt4
_symmetry_space_group_name_H-M   'P 1'
_cell_length_a   5.39188888
_cell_length_b   5.39188872
_cell_length_c   5.39188900
_cell_angle_alpha   60.00000443
_cell_angle_beta   60.00000541
_cell_angle_gamma   60.00000617
_symmetry_Int_Tables_number   1
_chemical_formula_structural   CeAgPt4
_chemical_formula_sum   'Ce1 Ag1 Pt4'
_cell_volume   110.84289289
_cell_formula_units_Z   1
loop_
 _symmetry_equiv_pos_site_id
 _symmetry_equiv_pos_as_xyz
  1  'x, y, z'
loop_
 _atom_site_type_symbol
 _atom_site_label
 _atom_site_symmetry_multiplicity
 _atom_site_fract_x
 _atom_site_fract_y
 _atom_site_fract_z
 _atom_site_occupancy
  Ce  Ce0  1  0.000000  0.000000  0.000000  1
  Ag  Ag1  1  0.250000  0.250000  0.250000  1
  Pt  Pt2  1  0.624465  0.624465  0.126606  1
  Pt  Pt3  1  0.624465  0.126606  0.624465  1
  Pt  Pt4  1  0.126606  0.624465  0.624465  1
  Pt  Pt5  1  0.624465  0.624465  0.624465  1
