# generated using pymatgen
data_Yb3AlN3
_symmetry_space_group_name_H-M   'P 1'
_cell_length_a   6.04331200
_cell_length_b   6.80138728
_cell_length_c   9.66772112
_cell_angle_alpha   86.80016910
_cell_angle_beta   90.00000000
_cell_angle_gamma   90.00000000
_symmetry_Int_Tables_number   1
_chemical_formula_structural   Yb3AlN3
_chemical_formula_sum   'Yb12 Al4 N12'
_cell_volume   396.75189579
_cell_formula_units_Z   4
loop_
 _symmetry_equiv_pos_site_id
 _symmetry_equiv_pos_as_xyz
  1  'x, y, z'
loop_
 _atom_site_type_symbol
 _atom_site_label
 _atom_site_symmetry_multiplicity
 _atom_site_fract_x
 _atom_site_fract_y
 _atom_site_fract_z
 _atom_site_occupancy
  Yb  Yb0  1  0.782041  0.646800  0.305328  1
  Yb  Yb1  1  0.282041  0.353200  0.194672  1
  Yb  Yb2  1  0.217959  0.353200  0.694672  1
  Yb  Yb3  1  0.717959  0.646800  0.805328  1
  Yb  Yb4  1  0.793862  0.374857  0.077016  1
  Yb  Yb5  1  0.293862  0.625143  0.422984  1
  Yb  Yb6  1  0.206138  0.625143  0.922984  1
  Yb  Yb7  1  0.706138  0.374857  0.577016  1
  Yb  Yb8  1  0.642591  0.074364  0.350237  1
  Yb  Yb9  1  0.142591  0.925636  0.149763  1
  Yb  Yb10  1  0.357409  0.925636  0.649763  1
  Yb  Yb11  1  0.857409  0.074364  0.850237  1
  Al  Al12  1  0.908188  0.840295  0.561271  1
  Al  Al13  1  0.408188  0.159705  0.938729  1
  Al  Al14  1  0.091812  0.159705  0.438729  1
  Al  Al15  1  0.591812  0.840295  0.061271  1
  N  N16  1  0.571763  0.338168  0.821630  1
  N  N17  1  0.071763  0.661832  0.678370  1
  N  N18  1  0.428237  0.661832  0.178370  1
  N  N19  1  0.928237  0.338168  0.321630  1
  N  N20  1  0.620394  0.739147  0.529143  1
  N  N21  1  0.120394  0.260853  0.970857  1
  N  N22  1  0.379606  0.260853  0.470857  1
  N  N23  1  0.879606  0.739147  0.029143  1
  N  N24  1  0.537947  0.106816  0.119071  1
  N  N25  1  0.037947  0.893184  0.380929  1
  N  N26  1  0.462053  0.893184  0.880929  1
  N  N27  1  0.962053  0.106816  0.619071  1
