# generated using pymatgen
data_Ba(S8Br)3
_symmetry_space_group_name_H-M   'P 1'
_cell_length_a   4.98258651
_cell_length_b   14.66685391
_cell_length_c   15.25543158
_cell_angle_alpha   120.21711495
_cell_angle_beta   95.10279003
_cell_angle_gamma   97.17392761
_symmetry_Int_Tables_number   1
_chemical_formula_structural   Ba(S8Br)3
_chemical_formula_sum   'Ba1 S24 Br3'
_cell_volume   940.72752542
_cell_formula_units_Z   1
loop_
 _symmetry_equiv_pos_site_id
 _symmetry_equiv_pos_as_xyz
  1  'x, y, z'
loop_
 _atom_site_type_symbol
 _atom_site_label
 _atom_site_symmetry_multiplicity
 _atom_site_fract_x
 _atom_site_fract_y
 _atom_site_fract_z
 _atom_site_occupancy
  Ba  Ba0  1  0.562849  0.999718  0.034066  1
  S  S1  1  0.356267  0.399756  0.994588  1
  S  S2  1  0.563580  0.732645  0.004722  1
  S  S3  1  0.266405  0.522626  0.127489  1
  S  S4  1  0.406223  0.755867  0.134297  1
  S  S5  1  0.559870  0.660088  0.180758  1
  S  S6  1  0.655004  0.377952  0.250658  1
  S  S7  1  0.830574  0.267660  0.271865  1
  S  S8  1  0.899360  0.528366  0.345355  1
  S  S9  1  0.135225  0.865778  0.392836  1
  S  S10  1  0.649754  0.244016  0.378123  1
  S  S11  1  0.366315  0.000204  0.406648  1
  S  S12  1  0.367373  0.810229  0.468105  1
  S  S13  1  0.738557  0.609135  0.478169  1
  S  S14  1  0.268908  0.134137  0.526933  1
  S  S15  1  0.899515  0.339837  0.520136  1
  S  S16  1  0.955036  0.600160  0.594400  1
  S  S17  1  0.268780  0.865135  0.612502  1
  S  S18  1  0.743007  0.476710  0.604278  1
  S  S19  1  0.556590  0.190241  0.657837  1
  S  S20  1  0.557466  0.000120  0.718929  1
  S  S21  1  0.403766  0.135046  0.747398  1
  S  S22  1  0.372590  0.472030  0.817559  1
  S  S23  1  0.278409  0.622288  0.873218  1
  S  S24  1  0.130901  0.390596  0.869373  1
  Br  Br25  1  0.090509  0.116686  0.971563  1
  Br  Br26  1  0.098283  0.000257  0.163045  1
  Br  Br27  1  0.971799  0.882718  0.855151  1
