# generated using pymatgen
data_Rb3P2Pt7
_symmetry_space_group_name_H-M   'P 1'
_cell_length_a   8.28823760
_cell_length_b   8.28823654
_cell_length_c   8.28823637
_cell_angle_alpha   45.87280444
_cell_angle_beta   45.87281687
_cell_angle_gamma   45.87282039
_symmetry_Int_Tables_number   1
_chemical_formula_structural   Rb3P2Pt7
_chemical_formula_sum   'Rb3 P2 Pt7'
_cell_volume   267.50037718
_cell_formula_units_Z   1
loop_
 _symmetry_equiv_pos_site_id
 _symmetry_equiv_pos_as_xyz
  1  'x, y, z'
loop_
 _atom_site_type_symbol
 _atom_site_label
 _atom_site_symmetry_multiplicity
 _atom_site_fract_x
 _atom_site_fract_y
 _atom_site_fract_z
 _atom_site_occupancy
  Rb  Rb0  1  0.353893  0.353893  0.353893  1
  Rb  Rb1  1  0.500000  0.500000  0.500000  1
  Rb  Rb2  1  0.646107  0.646107  0.646107  1
  P  P3  1  0.193812  0.193812  0.193812  1
  P  P4  1  0.806188  0.806188  0.806188  1
  Pt  Pt5  1  0.000000  0.000000  0.000000  1
  Pt  Pt6  1  0.613530  0.036806  0.036805  1
  Pt  Pt7  1  0.036806  0.613530  0.036805  1
  Pt  Pt8  1  0.963194  0.963194  0.386471  1
  Pt  Pt9  1  0.036806  0.036806  0.613529  1
  Pt  Pt10  1  0.963194  0.386470  0.963195  1
  Pt  Pt11  1  0.386470  0.963194  0.963195  1
