# generated using pymatgen
data_SrAl5CuNi
_symmetry_space_group_name_H-M   'P 1'
_cell_length_a   6.39859381
_cell_length_b   6.39859356
_cell_length_c   6.39852380
_cell_angle_alpha   143.29650319
_cell_angle_beta   111.17106306
_cell_angle_gamma   80.62589890
_symmetry_Int_Tables_number   1
_chemical_formula_structural   SrAl5CuNi
_chemical_formula_sum   'Sr1 Al5 Cu1 Ni1'
_cell_volume   142.18309690
_cell_formula_units_Z   1
loop_
 _symmetry_equiv_pos_site_id
 _symmetry_equiv_pos_as_xyz
  1  'x, y, z'
loop_
 _atom_site_type_symbol
 _atom_site_label
 _atom_site_symmetry_multiplicity
 _atom_site_fract_x
 _atom_site_fract_y
 _atom_site_fract_z
 _atom_site_occupancy
  Sr  Sr0  1  0.999717  0.999717  0.000000  1
  Al  Al1  1  0.499326  0.999326  0.500000  1
  Al  Al2  1  0.850300  0.656417  0.193953  1
  Al  Al3  1  0.525008  0.340858  0.184237  1
  Al  Al4  1  0.462464  0.656346  0.806047  1
  Al  Al5  1  0.156621  0.340771  0.815763  1
  Cu  Cu6  1  0.741995  0.241995  0.500000  1
  Ni  Ni7  1  0.264570  0.764570  0.500000  1
