# generated using pymatgen
data_Dy4Ho5Er3Co5Sn
_symmetry_space_group_name_H-M   'P 1'
_cell_length_a   8.23926891
_cell_length_b   8.23992875
_cell_length_c   8.23926919
_cell_angle_alpha   106.95062884
_cell_angle_beta   110.58705609
_cell_angle_gamma   110.90199415
_symmetry_Int_Tables_number   1
_chemical_formula_structural   Dy4Ho5Er3Co5Sn
_chemical_formula_sum   'Dy4 Ho5 Er3 Co5 Sn1'
_cell_volume   429.99711753
_cell_formula_units_Z   1
loop_
 _symmetry_equiv_pos_site_id
 _symmetry_equiv_pos_as_xyz
  1  'x, y, z'
loop_
 _atom_site_type_symbol
 _atom_site_label
 _atom_site_symmetry_multiplicity
 _atom_site_fract_x
 _atom_site_fract_y
 _atom_site_fract_z
 _atom_site_occupancy
  Dy  Dy0  1  0.193754  0.209687  0.403977  1
  Dy  Dy1  1  0.806248  0.790036  0.596275  1
  Dy  Dy2  1  0.193761  0.790036  0.983788  1
  Dy  Dy3  1  0.805710  0.209687  0.015934  1
  Ho  Ho4  1  0.475977  0.290467  0.185166  1
  Ho  Ho5  1  0.105301  0.290467  0.814491  1
  Ho  Ho6  1  0.894247  0.709410  0.185168  1
  Ho  Ho7  1  0.524241  0.709410  0.815163  1
  Ho  Ho8  1  0.305751  0.619738  0.313987  1
  Er  Er9  1  0.305938  0.991845  0.685906  1
  Er  Er10  1  0.694079  0.379917  0.685839  1
  Er  Er11  1  0.694224  0.008573  0.314350  1
  Co  Co12  1  0.500158  0.612730  0.112572  1
  Co  Co13  1  0.499863  0.386979  0.887117  1
  Co  Co14  1  0.377657  0.000400  0.377677  1
  Co  Co15  1  0.622723  0.000400  0.622743  1
  Co  Co16  1  0.999974  0.000033  0.000059  1
  Sn  Sn17  1  0.000394  0.500184  0.499790  1
