# generated using pymatgen
data_Zr3Ti2Sn2BiB
_symmetry_space_group_name_H-M   'P 1'
_cell_length_a   8.47686487
_cell_length_b   8.45427379
_cell_length_c   5.66539900
_cell_angle_alpha   90.00000000
_cell_angle_beta   90.00000000
_cell_angle_gamma   119.91188598
_symmetry_Int_Tables_number   1
_chemical_formula_structural   Zr3Ti2Sn2BiB
_chemical_formula_sum   'Zr6 Ti4 Sn4 Bi2 B2'
_cell_volume   351.93108250
_cell_formula_units_Z   2
loop_
 _symmetry_equiv_pos_site_id
 _symmetry_equiv_pos_as_xyz
  1  'x, y, z'
loop_
 _atom_site_type_symbol
 _atom_site_label
 _atom_site_symmetry_multiplicity
 _atom_site_fract_x
 _atom_site_fract_y
 _atom_site_fract_z
 _atom_site_occupancy
  Zr  Zr0  1  0.771884  0.767729  0.750000  1
  Zr  Zr1  1  0.228116  0.995845  0.750000  1
  Zr  Zr2  1  0.000000  0.232831  0.750000  1
  Zr  Zr3  1  0.232100  0.232465  0.250000  1
  Zr  Zr4  1  0.767900  0.000365  0.250000  1
  Zr  Zr5  1  0.000000  0.766193  0.250000  1
  Ti  Ti6  1  0.669406  0.335327  0.005886  1
  Ti  Ti7  1  0.330594  0.665922  0.005886  1
  Ti  Ti8  1  0.330594  0.665922  0.494114  1
  Ti  Ti9  1  0.669406  0.335327  0.494114  1
  Sn  Sn10  1  0.000000  0.593640  0.750000  1
  Sn  Sn11  1  0.597813  0.598369  0.250000  1
  Sn  Sn12  1  0.402187  0.000556  0.250000  1
  Sn  Sn13  1  0.000000  0.404327  0.250000  1
  Bi  Bi14  1  0.405778  0.405143  0.750000  1
  Bi  Bi15  1  0.594222  0.999366  0.750000  1
  B  B16  1  0.000000  0.000337  0.000403  1
  B  B17  1  0.000000  0.000337  0.499597  1
