# generated using pymatgen
data_Tb3YU4(ReB6)4
_symmetry_space_group_name_H-M   'P 1'
_cell_length_a   3.64447300
_cell_length_b   9.31703100
_cell_length_c   11.43649000
_cell_angle_alpha   89.99713500
_cell_angle_beta   90.00000000
_cell_angle_gamma   90.00000000
_symmetry_Int_Tables_number   1
_chemical_formula_structural   Tb3YU4(ReB6)4
_chemical_formula_sum   'Tb3 Y1 U4 Re4 B24'
_cell_volume   388.33365636
_cell_formula_units_Z   1
loop_
 _symmetry_equiv_pos_site_id
 _symmetry_equiv_pos_as_xyz
  1  'x, y, z'
loop_
 _atom_site_type_symbol
 _atom_site_label
 _atom_site_symmetry_multiplicity
 _atom_site_fract_x
 _atom_site_fract_y
 _atom_site_fract_z
 _atom_site_occupancy
  Tb  Tb0  1  0.000000  0.336940  0.407751  1
  Tb  Tb1  1  0.000000  0.663083  0.592319  1
  Tb  Tb2  1  0.000000  0.836960  0.092274  1
  Y  Y3  1  0.000000  0.163022  0.907736  1
  U  U4  1  0.000000  0.956688  0.396345  1
  U  U5  1  0.000000  0.043341  0.603737  1
  U  U6  1  0.000000  0.456529  0.103743  1
  U  U7  1  0.000000  0.543306  0.896273  1
  Re  Re8  1  0.000000  0.646253  0.318320  1
  Re  Re9  1  0.000000  0.353693  0.681774  1
  Re  Re10  1  0.000000  0.146054  0.181719  1
  Re  Re11  1  0.000000  0.854027  0.818115  1
  B  B12  1  0.500000  0.552479  0.430638  1
  B  B13  1  0.500000  0.447512  0.569436  1
  B  B14  1  0.500000  0.052415  0.069303  1
  B  B15  1  0.500000  0.947711  0.930627  1
  B  B16  1  0.500000  0.743530  0.422747  1
  B  B17  1  0.500000  0.256474  0.577297  1
  B  B18  1  0.500000  0.243448  0.077231  1
  B  B19  1  0.500000  0.756589  0.922690  1
  B  B20  1  0.500000  0.802370  0.275168  1
  B  B21  1  0.500000  0.197562  0.724836  1
  B  B22  1  0.500000  0.302358  0.224798  1
  B  B23  1  0.500000  0.697675  0.775172  1
  B  B24  1  0.500000  0.644417  0.188450  1
  B  B25  1  0.500000  0.355511  0.811578  1
  B  B26  1  0.500000  0.144420  0.311516  1
  B  B27  1  0.500000  0.855676  0.688459  1
  B  B28  1  0.500000  0.989860  0.219732  1
  B  B29  1  0.500000  0.010323  0.780252  1
  B  B30  1  0.500000  0.489878  0.280256  1
  B  B31  1  0.500000  0.510128  0.719784  1
  B  B32  1  0.500000  0.639558  0.038570  1
  B  B33  1  0.500000  0.360128  0.961348  1
  B  B34  1  0.500000  0.139560  0.461412  1
  B  B35  1  0.500000  0.860519  0.538592  1
