# generated using pymatgen
data_Ti2V9Si10W
_symmetry_space_group_name_H-M   'P 1'
_cell_length_a   4.85462665
_cell_length_b   7.55929600
_cell_length_c   9.18451854
_cell_angle_alpha   65.75038922
_cell_angle_beta   74.67564433
_cell_angle_gamma   90.00000252
_symmetry_Int_Tables_number   1
_chemical_formula_structural   Ti2V9Si10W
_chemical_formula_sum   'Ti2 V9 Si10 W1'
_cell_volume   294.11681859
_cell_formula_units_Z   1
loop_
 _symmetry_equiv_pos_site_id
 _symmetry_equiv_pos_as_xyz
  1  'x, y, z'
loop_
 _atom_site_type_symbol
 _atom_site_label
 _atom_site_symmetry_multiplicity
 _atom_site_fract_x
 _atom_site_fract_y
 _atom_site_fract_z
 _atom_site_occupancy
  Ti  Ti0  1  0.642220  0.029098  0.715560  1
  Ti  Ti1  1  0.357497  0.971215  0.285003  1
  V  V2  1  0.438811  0.690639  0.620566  1
  V  V3  1  0.060084  0.310657  0.379194  1
  V  V4  1  0.560721  0.310657  0.379194  1
  V  V5  1  0.940623  0.690639  0.620566  1
  V  V6  1  0.435199  0.682017  0.129602  1
  V  V7  1  0.564415  0.317683  0.871172  1
  V  V8  1  0.936101  0.189502  0.127799  1
  V  V9  1  0.063580  0.809697  0.872839  1
  V  V10  1  0.142931  0.258270  0.714137  1
  Si  Si11  1  0.064356  0.474163  0.871289  1
  Si  Si12  1  0.936878  0.521874  0.126243  1
  Si  Si13  1  0.563166  0.649332  0.873666  1
  Si  Si14  1  0.436702  0.350218  0.126598  1
  Si  Si15  1  0.751706  0.001350  0.998189  1
  Si  Si16  1  0.250106  0.001350  0.998189  1
  Si  Si17  1  0.285015  0.579349  0.429971  1
  Si  Si18  1  0.713242  0.417478  0.573517  1
  Si  Si19  1  0.786939  0.990640  0.426123  1
  Si  Si20  1  0.212281  0.011698  0.575439  1
  W  W21  1  0.857428  0.742473  0.285145  1
