# generated using pymatgen
data_SrLaPr2(Ir2O7)2
_symmetry_space_group_name_H-M   'P 1'
_cell_length_a   7.46073968
_cell_length_b   7.42426219
_cell_length_c   7.46569462
_cell_angle_alpha   59.81484025
_cell_angle_beta   60.02195576
_cell_angle_gamma   59.83732897
_symmetry_Int_Tables_number   1
_chemical_formula_structural   SrLaPr2(Ir2O7)2
_chemical_formula_sum   'Sr1 La1 Pr2 Ir4 O14'
_cell_volume   291.68584071
_cell_formula_units_Z   1
loop_
 _symmetry_equiv_pos_site_id
 _symmetry_equiv_pos_as_xyz
  1  'x, y, z'
loop_
 _atom_site_type_symbol
 _atom_site_label
 _atom_site_symmetry_multiplicity
 _atom_site_fract_x
 _atom_site_fract_y
 _atom_site_fract_z
 _atom_site_occupancy
  Sr  Sr0  1  0.125000  0.625000  0.125000  1
  La  La1  1  0.125000  0.125000  0.625000  1
  Pr  Pr2  1  0.125000  0.125000  0.125000  1
  Pr  Pr3  1  0.625000  0.125000  0.125000  1
  Ir  Ir4  1  0.625000  0.625000  0.625000  1
  Ir  Ir5  1  0.125000  0.625000  0.625000  1
  Ir  Ir6  1  0.625000  0.125000  0.625000  1
  Ir  Ir7  1  0.625000  0.625000  0.125000  1
  O  O8  1  0.949170  0.547684  0.553977  1
  O  O9  1  0.297907  0.295601  0.706522  1
  O  O10  1  0.950234  0.542804  0.951246  1
  O  O11  1  0.704554  0.294746  0.296147  1
  O  O12  1  0.555717  0.542804  0.951246  1
  O  O13  1  0.550029  0.954399  0.543478  1
  O  O14  1  0.545446  0.955254  0.953853  1
  O  O15  1  0.252701  0.239461  0.255138  1
  O  O16  1  0.300830  0.702316  0.696023  1
  O  O17  1  0.699971  0.295601  0.706522  1
  O  O18  1  0.997299  0.010539  0.994862  1
  O  O19  1  0.952093  0.954399  0.543478  1
  O  O20  1  0.299766  0.707196  0.298754  1
  O  O21  1  0.694283  0.707196  0.298754  1
