# generated using pymatgen
data_NdLu3(P4Ir7)2
_symmetry_space_group_name_H-M   'P 1'
_cell_length_a   3.96923500
_cell_length_b   9.66553178
_cell_length_c   10.88543358
_cell_angle_alpha   89.52649660
_cell_angle_beta   90.00000000
_cell_angle_gamma   90.00000000
_symmetry_Int_Tables_number   1
_chemical_formula_structural   NdLu3(P4Ir7)2
_chemical_formula_sum   'Nd1 Lu3 P8 Ir14'
_cell_volume   417.60286256
_cell_formula_units_Z   1
loop_
 _symmetry_equiv_pos_site_id
 _symmetry_equiv_pos_as_xyz
  1  'x, y, z'
loop_
 _atom_site_type_symbol
 _atom_site_label
 _atom_site_symmetry_multiplicity
 _atom_site_fract_x
 _atom_site_fract_y
 _atom_site_fract_z
 _atom_site_occupancy
  Nd  Nd0  1  0.000000  0.551683  0.993008  1
  Lu  Lu1  1  0.500000  0.451779  0.497267  1
  Lu  Lu2  1  0.500000  0.061559  0.284144  1
  Lu  Lu3  1  0.000000  0.937006  0.783894  1
  P  P4  1  0.000000  0.830607  0.290371  1
  P  P5  1  0.000000  0.193212  0.455905  1
  P  P6  1  0.500000  0.170791  0.789442  1
  P  P7  1  0.000000  0.158067  0.106024  1
  P  P8  1  0.500000  0.481117  0.223865  1
  P  P9  1  0.500000  0.806590  0.956785  1
  P  P10  1  0.500000  0.847166  0.605258  1
  P  P11  1  0.000000  0.513758  0.712563  1
  Ir  Ir12  1  0.500000  0.300929  0.086000  1
  Ir  Ir13  1  0.500000  0.762077  0.409125  1
  Ir  Ir14  1  0.500000  0.407573  0.791223  1
  Ir  Ir15  1  0.500000  0.045139  0.967694  1
  Ir  Ir16  1  0.500000  0.702510  0.771548  1
  Ir  Ir17  1  0.000000  0.278783  0.649400  1
  Ir  Ir18  1  0.000000  0.241876  0.907292  1
  Ir  Ir19  1  0.000000  0.681373  0.569727  1
  Ir  Ir20  1  0.500000  0.085462  0.597231  1
  Ir  Ir21  1  0.000000  0.304924  0.274311  1
  Ir  Ir22  1  0.000000  0.593162  0.309144  1
  Ir  Ir23  1  0.000000  0.917965  0.099288  1
  Ir  Ir24  1  0.000000  0.954315  0.469288  1
  Ir  Ir25  1  0.500000  0.720578  0.155605  1
