# generated using pymatgen
data_SmLu2Co9(SiB2)2
_symmetry_space_group_name_H-M   'P 1'
_cell_length_a   5.10180301
_cell_length_b   5.10217024
_cell_length_c   9.34347900
_cell_angle_alpha   89.99993651
_cell_angle_beta   90.00006842
_cell_angle_gamma   119.98387264
_symmetry_Int_Tables_number   1
_chemical_formula_structural   SmLu2Co9(SiB2)2
_chemical_formula_sum   'Sm1 Lu2 Co9 Si2 B4'
_cell_volume   210.66308081
_cell_formula_units_Z   1
loop_
 _symmetry_equiv_pos_site_id
 _symmetry_equiv_pos_as_xyz
  1  'x, y, z'
loop_
 _atom_site_type_symbol
 _atom_site_label
 _atom_site_symmetry_multiplicity
 _atom_site_fract_x
 _atom_site_fract_y
 _atom_site_fract_z
 _atom_site_occupancy
  Sm  Sm0  1  0.999992  0.999998  0.000001  1
  Lu  Lu1  1  0.000004  0.000010  0.339397  1
  Lu  Lu2  1  0.999989  0.999994  0.660597  1
  Co  Co3  1  0.499994  0.999997  0.499997  1
  Co  Co4  1  0.499997  0.500003  0.499999  1
  Co  Co5  1  0.999998  0.500000  0.500000  1
  Co  Co6  1  0.499995  0.000003  0.198313  1
  Co  Co7  1  0.499994  0.500001  0.198319  1
  Co  Co8  1  0.999991  0.500001  0.198297  1
  Co  Co9  1  0.499992  0.999994  0.801681  1
  Co  Co10  1  0.499994  0.500001  0.801699  1
  Co  Co11  1  0.999998  0.500000  0.801698  1
  Si  Si12  1  0.333339  0.666647  0.000005  1
  Si  Si13  1  0.666645  0.333353  0.000007  1
  B  B14  1  0.333329  0.666675  0.346553  1
  B  B15  1  0.666657  0.333326  0.346551  1
  B  B16  1  0.666643  0.333375  0.653444  1
  B  B17  1  0.333347  0.666623  0.653445  1
