# generated using pymatgen
data_SrPrTh2(Al3Ir)6
_symmetry_space_group_name_H-M   'P 1'
_cell_length_a   7.66059507
_cell_length_b   7.65621284
_cell_length_c   9.61117300
_cell_angle_alpha   90.00000000
_cell_angle_beta   90.00000000
_cell_angle_gamma   119.38312630
_symmetry_Int_Tables_number   1
_chemical_formula_structural   SrPrTh2(Al3Ir)6
_chemical_formula_sum   'Sr1 Pr1 Th2 Al18 Ir6'
_cell_volume   491.19020123
_cell_formula_units_Z   1
loop_
 _symmetry_equiv_pos_site_id
 _symmetry_equiv_pos_as_xyz
  1  'x, y, z'
loop_
 _atom_site_type_symbol
 _atom_site_label
 _atom_site_symmetry_multiplicity
 _atom_site_fract_x
 _atom_site_fract_y
 _atom_site_fract_z
 _atom_site_occupancy
  Sr  Sr0  1  0.005094  0.329031  0.750000  1
  Pr  Pr1  1  0.328602  0.004063  0.750000  1
  Th  Th2  1  0.995058  0.670703  0.250000  1
  Th  Th3  1  0.671975  0.996539  0.250000  1
  Al  Al4  1  0.133639  0.133619  0.250000  1
  Al  Al5  1  0.870646  0.869010  0.750000  1
  Al  Al6  1  0.005678  0.335829  0.072003  1
  Al  Al7  1  0.997025  0.664184  0.924707  1
  Al  Al8  1  0.997025  0.664184  0.575293  1
  Al  Al9  1  0.335558  0.005196  0.427063  1
  Al  Al10  1  0.005678  0.335829  0.427997  1
  Al  Al11  1  0.664924  0.997327  0.575372  1
  Al  Al12  1  0.664924  0.997327  0.924628  1
  Al  Al13  1  0.335558  0.005196  0.072937  1
  Al  Al14  1  0.333969  0.334385  0.546510  1
  Al  Al15  1  0.663295  0.663473  0.453988  1
  Al  Al16  1  0.663295  0.663473  0.046012  1
  Al  Al17  1  0.333969  0.334385  0.953490  1
  Al  Al18  1  0.340120  0.543839  0.250000  1
  Al  Al19  1  0.657878  0.452024  0.750000  1
  Al  Al20  1  0.543544  0.339941  0.250000  1
  Al  Al21  1  0.454363  0.662430  0.750000  1
  Ir  Ir22  1  0.671548  0.329205  0.004404  1
  Ir  Ir23  1  0.330233  0.673561  0.004128  1
  Ir  Ir24  1  0.330233  0.673561  0.495872  1
  Ir  Ir25  1  0.671548  0.329205  0.495596  1
  Ir  Ir26  1  0.997311  0.996243  0.005102  1
  Ir  Ir27  1  0.997311  0.996243  0.494898  1
