# generated using pymatgen
data_Th6CoIrPd6
_symmetry_space_group_name_H-M   'P 1'
_cell_length_a   8.11341852
_cell_length_b   8.11341901
_cell_length_c   8.11341726
_cell_angle_alpha   114.44394153
_cell_angle_beta   114.44394841
_cell_angle_gamma   114.44394444
_symmetry_Int_Tables_number   1
_chemical_formula_structural   Th6CoIrPd6
_chemical_formula_sum   'Th6 Co1 Ir1 Pd6'
_cell_volume   313.51768418
_cell_formula_units_Z   1
loop_
 _symmetry_equiv_pos_site_id
 _symmetry_equiv_pos_as_xyz
  1  'x, y, z'
loop_
 _atom_site_type_symbol
 _atom_site_label
 _atom_site_symmetry_multiplicity
 _atom_site_fract_x
 _atom_site_fract_y
 _atom_site_fract_z
 _atom_site_occupancy
  Th  Th0  1  0.390551  0.033205  0.272868  1
  Th  Th1  1  0.033205  0.272868  0.390551  1
  Th  Th2  1  0.272868  0.390551  0.033205  1
  Th  Th3  1  0.609449  0.966795  0.727132  1
  Th  Th4  1  0.966795  0.727132  0.609449  1
  Th  Th5  1  0.727132  0.609449  0.966795  1
  Co  Co6  1  0.000000  0.000000  0.000000  1
  Ir  Ir7  1  0.500000  0.500000  0.500000  1
  Pd  Pd8  1  0.234808  0.070867  0.577422  1
  Pd  Pd9  1  0.070867  0.577422  0.234808  1
  Pd  Pd10  1  0.577422  0.234808  0.070867  1
  Pd  Pd11  1  0.765192  0.929133  0.422578  1
  Pd  Pd12  1  0.929133  0.422578  0.765192  1
  Pd  Pd13  1  0.422578  0.765192  0.929133  1
