# generated using pymatgen
data_CaFeAs4F24
_symmetry_space_group_name_H-M   'P 1'
_cell_length_a   9.52011263
_cell_length_b   9.52011128
_cell_length_c   9.52011120
_cell_angle_alpha   131.66124926
_cell_angle_beta   131.66124365
_cell_angle_gamma   70.76458428
_symmetry_Int_Tables_number   1
_chemical_formula_structural   CaFeAs4F24
_chemical_formula_sum   'Ca1 Fe1 As4 F24'
_cell_volume   471.71328501
_cell_formula_units_Z   1
loop_
 _symmetry_equiv_pos_site_id
 _symmetry_equiv_pos_as_xyz
  1  'x, y, z'
loop_
 _atom_site_type_symbol
 _atom_site_label
 _atom_site_symmetry_multiplicity
 _atom_site_fract_x
 _atom_site_fract_y
 _atom_site_fract_z
 _atom_site_occupancy
  Ca  Ca0  1  0.750000  0.250000  0.500000  1
  Fe  Fe1  1  0.000000  0.000000  0.000000  1
  As  As2  1  0.782949  0.782949  0.000000  1
  As  As3  1  0.217051  0.217051  0.000000  1
  As  As4  1  0.974636  0.474636  0.500000  1
  As  As5  1  0.525364  0.025364  0.500000  1
  F  F6  1  0.866008  0.753756  0.203374  1
  F  F7  1  0.550381  0.662634  0.796626  1
  F  F8  1  0.416446  0.790438  0.306603  1
  F  F9  1  0.337366  0.133992  0.887748  1
  F  F10  1  0.246244  0.449619  0.112252  1
  F  F11  1  0.209562  0.516164  0.626007  1
  F  F12  1  0.643340  0.262315  0.682756  1
  F  F13  1  0.737685  0.420441  0.381026  1
  F  F14  1  0.039417  0.356660  0.618974  1
  F  F15  1  0.089725  0.276162  0.106905  1
  F  F16  1  0.169257  0.982820  0.893095  1
  F  F17  1  0.579559  0.960583  0.317244  1
  F  F18  1  0.723838  0.830743  0.813564  1
  F  F19  1  0.017180  0.910275  0.186436  1
  F  F20  1  0.301433  0.078952  0.321390  1
  F  F21  1  0.921048  0.242438  0.222482  1
  F  F22  1  0.019958  0.698567  0.777518  1
  F  F23  1  0.435969  0.278649  0.285577  1
  F  F24  1  0.993072  0.150391  0.714423  1
  F  F25  1  0.757562  0.980042  0.678610  1
  F  F26  1  0.721351  0.006928  0.157319  1
  F  F27  1  0.849609  0.564031  0.842681  1
  F  F28  1  0.483836  0.109842  0.693397  1
  F  F29  1  0.890158  0.583554  0.373993  1
