# generated using pymatgen
data_Yb6Si4NiPd3
_symmetry_space_group_name_H-M   'P 1'
_cell_length_a   5.55761021
_cell_length_b   8.01828641
_cell_length_c   13.03420644
_cell_angle_alpha   90.13370084
_cell_angle_beta   89.37242827
_cell_angle_gamma   89.44773544
_symmetry_Int_Tables_number   1
_chemical_formula_structural   Yb6Si4NiPd3
_chemical_formula_sum   'Yb12 Si8 Ni2 Pd6'
_cell_volume   580.77341094
_cell_formula_units_Z   2
loop_
 _symmetry_equiv_pos_site_id
 _symmetry_equiv_pos_as_xyz
  1  'x, y, z'
loop_
 _atom_site_type_symbol
 _atom_site_label
 _atom_site_symmetry_multiplicity
 _atom_site_fract_x
 _atom_site_fract_y
 _atom_site_fract_z
 _atom_site_occupancy
  Yb  Yb0  1  0.655736  0.245369  0.246706  1
  Yb  Yb1  1  0.344264  0.754631  0.753294  1
  Yb  Yb2  1  0.349971  0.746031  0.245495  1
  Yb  Yb3  1  0.650029  0.253969  0.754505  1
  Yb  Yb4  1  0.140813  0.387248  0.100821  1
  Yb  Yb5  1  0.859187  0.612752  0.899179  1
  Yb  Yb6  1  0.858368  0.612807  0.604478  1
  Yb  Yb7  1  0.863704  0.891307  0.395297  1
  Yb  Yb8  1  0.141632  0.387193  0.395522  1
  Yb  Yb9  1  0.136296  0.108693  0.604703  1
  Yb  Yb10  1  0.142513  0.105757  0.900729  1
  Yb  Yb11  1  0.857487  0.894243  0.099271  1
  Si  Si12  1  0.172802  0.095311  0.240817  1
  Si  Si13  1  0.827198  0.904689  0.759183  1
  Si  Si14  1  0.845644  0.599778  0.248317  1
  Si  Si15  1  0.154356  0.400222  0.751683  1
  Si  Si16  1  0.612654  0.235027  0.000803  1
  Si  Si17  1  0.387346  0.764973  0.999197  1
  Si  Si18  1  0.375468  0.751237  0.500135  1
  Si  Si19  1  0.624532  0.248763  0.499865  1
  Ni  Ni20  1  0.380397  0.027372  0.084791  1
  Ni  Ni21  1  0.619603  0.972628  0.915209  1
  Pd  Pd22  1  0.624920  0.969686  0.592254  1
  Pd  Pd23  1  0.627786  0.529582  0.409054  1
  Pd  Pd24  1  0.375080  0.030314  0.407746  1
  Pd  Pd25  1  0.372214  0.470418  0.590946  1
  Pd  Pd26  1  0.371426  0.473740  0.910733  1
  Pd  Pd27  1  0.628574  0.526260  0.089267  1
