# generated using pymatgen
data_CrWF6
_symmetry_space_group_name_H-M   'P 1'
_cell_length_a   5.31277052
_cell_length_b   5.63645256
_cell_length_c   5.31266101
_cell_angle_alpha   61.88255501
_cell_angle_beta   119.99640272
_cell_angle_gamma   118.11825295
_symmetry_Int_Tables_number   1
_chemical_formula_structural   CrWF6
_chemical_formula_sum   'Cr1 W1 F6'
_cell_volume   115.59064993
_cell_formula_units_Z   1
loop_
 _symmetry_equiv_pos_site_id
 _symmetry_equiv_pos_as_xyz
  1  'x, y, z'
loop_
 _atom_site_type_symbol
 _atom_site_label
 _atom_site_symmetry_multiplicity
 _atom_site_fract_x
 _atom_site_fract_y
 _atom_site_fract_z
 _atom_site_occupancy
  Cr  Cr0  1  0.500212  0.500106  0.499963  1
  W  W1  1  0.999976  0.999988  0.000002  1
  F  F2  1  0.144536  0.261115  0.622026  1
  F  F3  1  0.377913  0.261148  0.261397  1
  F  F4  1  0.261385  0.738795  0.144660  1
  F  F5  1  0.622048  0.738834  0.738610  1
  F  F6  1  0.855357  0.738828  0.377991  1
  F  F7  1  0.738575  0.261185  0.855350  1
