# generated using pymatgen
data_Y4HoLu5(Si5Ir2)4
_symmetry_space_group_name_H-M   'P 1'
_cell_length_a   12.58627626
_cell_length_b   12.58627662
_cell_length_c   4.23357600
_cell_angle_alpha   90.00000000
_cell_angle_beta   90.00000000
_cell_angle_gamma   89.99369514
_symmetry_Int_Tables_number   1
_chemical_formula_structural   Y4HoLu5(Si5Ir2)4
_chemical_formula_sum   'Y4 Ho1 Lu5 Si20 Ir8'
_cell_volume   670.65920599
_cell_formula_units_Z   1
loop_
 _symmetry_equiv_pos_site_id
 _symmetry_equiv_pos_as_xyz
  1  'x, y, z'
loop_
 _atom_site_type_symbol
 _atom_site_label
 _atom_site_symmetry_multiplicity
 _atom_site_fract_x
 _atom_site_fract_y
 _atom_site_fract_z
 _atom_site_occupancy
  Y  Y0  1  0.883706  0.383582  0.500000  1
  Y  Y1  1  0.116418  0.616294  0.500000  1
  Y  Y2  1  0.383876  0.116124  0.500000  1
  Y  Y3  1  0.615765  0.884235  0.500000  1
  Ho  Ho4  1  0.823352  0.676648  0.500000  1
  Lu  Lu5  1  0.499895  0.500275  0.000000  1
  Lu  Lu6  1  0.999725  0.000105  0.000000  1
  Lu  Lu7  1  0.676540  0.175674  0.500000  1
  Lu  Lu8  1  0.324326  0.823460  0.500000  1
  Lu  Lu9  1  0.176220  0.323780  0.500000  1
  Si  Si10  1  0.566203  0.066663  0.000000  1
  Si  Si11  1  0.433337  0.933797  0.000000  1
  Si  Si12  1  0.066689  0.433311  0.000000  1
  Si  Si13  1  0.934063  0.565937  0.000000  1
  Si  Si14  1  0.662194  0.701355  0.000000  1
  Si  Si15  1  0.336834  0.298794  0.000000  1
  Si  Si16  1  0.163622  0.799191  0.000000  1
  Si  Si17  1  0.836929  0.201352  0.000000  1
  Si  Si18  1  0.298648  0.663071  0.000000  1
  Si  Si19  1  0.700809  0.336378  0.000000  1
  Si  Si20  1  0.201206  0.163166  0.000000  1
  Si  Si21  1  0.798645  0.837806  0.000000  1
  Si  Si22  1  0.654156  0.502069  0.500000  1
  Si  Si23  1  0.345308  0.495984  0.500000  1
  Si  Si24  1  0.154163  0.995734  0.500000  1
  Si  Si25  1  0.845146  0.003376  0.500000  1
  Si  Si26  1  0.496624  0.654854  0.500000  1
  Si  Si27  1  0.504266  0.345837  0.500000  1
  Si  Si28  1  0.004016  0.154692  0.500000  1
  Si  Si29  1  0.997931  0.845844  0.500000  1
  Ir  Ir30  1  0.743841  0.521455  0.000000  1
  Ir  Ir31  1  0.255427  0.477348  0.000000  1
  Ir  Ir32  1  0.244771  0.977912  0.000000  1
  Ir  Ir33  1  0.755167  0.023105  0.000000  1
  Ir  Ir34  1  0.476895  0.744833  0.000000  1
  Ir  Ir35  1  0.522088  0.255229  0.000000  1
  Ir  Ir36  1  0.022652  0.244573  0.000000  1
  Ir  Ir37  1  0.978545  0.756159  0.000000  1
