# generated using pymatgen
data_Mn5CuPd10
_symmetry_space_group_name_H-M   'P 1'
_cell_length_a   4.07306000
_cell_length_b   5.45111163
_cell_length_c   10.77946856
_cell_angle_alpha   90.52591977
_cell_angle_beta   90.00000000
_cell_angle_gamma   90.00000000
_symmetry_Int_Tables_number   1
_chemical_formula_structural   Mn5CuPd10
_chemical_formula_sum   'Mn5 Cu1 Pd10'
_cell_volume   239.32327533
_cell_formula_units_Z   1
loop_
 _symmetry_equiv_pos_site_id
 _symmetry_equiv_pos_as_xyz
  1  'x, y, z'
loop_
 _atom_site_type_symbol
 _atom_site_label
 _atom_site_symmetry_multiplicity
 _atom_site_fract_x
 _atom_site_fract_y
 _atom_site_fract_z
 _atom_site_occupancy
  Mn  Mn0  1  0.000000  0.000000  0.000000  1
  Mn  Mn1  1  0.500000  0.200605  0.369037  1
  Mn  Mn2  1  0.500000  0.799395  0.630963  1
  Mn  Mn3  1  0.500000  0.686894  0.136347  1
  Mn  Mn4  1  0.500000  0.313106  0.863653  1
  Cu  Cu5  1  0.000000  0.500000  0.500000  1
  Pd  Pd6  1  0.500000  0.195348  0.113351  1
  Pd  Pd7  1  0.500000  0.804652  0.886649  1
  Pd  Pd8  1  0.500000  0.701124  0.385603  1
  Pd  Pd9  1  0.500000  0.298876  0.614397  1
  Pd  Pd10  1  0.000000  0.000000  0.500000  1
  Pd  Pd11  1  0.000000  0.500000  0.000000  1
  Pd  Pd12  1  0.000000  0.929947  0.243438  1
  Pd  Pd13  1  0.000000  0.070053  0.756562  1
  Pd  Pd14  1  0.000000  0.430855  0.256896  1
  Pd  Pd15  1  0.000000  0.569145  0.743104  1
