# generated using pymatgen
data_Zr10AlSiSnSb5
_symmetry_space_group_name_H-M   'P 1'
_cell_length_a   8.70020452
_cell_length_b   8.70020438
_cell_length_c   5.86842916
_cell_angle_alpha   89.98665509
_cell_angle_beta   89.98665126
_cell_angle_gamma   120.12083704
_symmetry_Int_Tables_number   1
_chemical_formula_structural   Zr10AlSiSnSb5
_chemical_formula_sum   'Zr10 Al1 Si1 Sn1 Sb5'
_cell_volume   384.22114948
_cell_formula_units_Z   1
loop_
 _symmetry_equiv_pos_site_id
 _symmetry_equiv_pos_as_xyz
  1  'x, y, z'
loop_
 _atom_site_type_symbol
 _atom_site_label
 _atom_site_symmetry_multiplicity
 _atom_site_fract_x
 _atom_site_fract_y
 _atom_site_fract_z
 _atom_site_occupancy
  Zr  Zr0  1  0.735262  0.735262  0.756499  1
  Zr  Zr1  1  0.266024  0.998866  0.756838  1
  Zr  Zr2  1  0.998866  0.266024  0.756838  1
  Zr  Zr3  1  0.263464  0.263464  0.242840  1
  Zr  Zr4  1  0.736147  0.999638  0.243411  1
  Zr  Zr5  1  0.999638  0.736147  0.243411  1
  Zr  Zr6  1  0.666800  0.333655  0.999087  1
  Zr  Zr7  1  0.333655  0.666800  0.999087  1
  Zr  Zr8  1  0.333524  0.667271  0.500604  1
  Zr  Zr9  1  0.667271  0.333524  0.500604  1
  Al  Al10  1  0.001392  0.001392  0.502304  1
  Si  Si11  1  0.000773  0.000773  0.998013  1
  Sn  Sn12  1  0.388680  0.388680  0.746585  1
  Sb  Sb13  1  0.608918  0.999961  0.747252  1
  Sb  Sb14  1  0.999961  0.608918  0.747252  1
  Sb  Sb15  1  0.606255  0.606255  0.253310  1
  Sb  Sb16  1  0.392533  0.000834  0.253032  1
  Sb  Sb17  1  0.000834  0.392533  0.253032  1
