# generated using pymatgen
data_Cs2ScSn11O24
_symmetry_space_group_name_H-M   'P 1'
_cell_length_a   7.82155053
_cell_length_b   7.89496058
_cell_length_c   9.64902800
_cell_angle_alpha   101.90097221
_cell_angle_beta   101.99703590
_cell_angle_gamma   87.57434722
_symmetry_Int_Tables_number   1
_chemical_formula_structural   Cs2ScSn11O24
_chemical_formula_sum   'Cs2 Sc1 Sn11 O24'
_cell_volume   570.29393368
_cell_formula_units_Z   1
loop_
 _symmetry_equiv_pos_site_id
 _symmetry_equiv_pos_as_xyz
  1  'x, y, z'
loop_
 _atom_site_type_symbol
 _atom_site_label
 _atom_site_symmetry_multiplicity
 _atom_site_fract_x
 _atom_site_fract_y
 _atom_site_fract_z
 _atom_site_occupancy
  Cs  Cs0  1  0.000736  0.998722  0.209131  1
  Cs  Cs1  1  0.007781  0.003973  0.796284  1
  Sc  Sc2  1  0.489375  0.187094  0.945965  1
  Sn  Sn3  1  0.485288  0.184228  0.613257  1
  Sn  Sn4  1  0.486732  0.183446  0.276223  1
  Sn  Sn5  1  0.184615  0.510873  0.114293  1
  Sn  Sn6  1  0.185983  0.516531  0.450526  1
  Sn  Sn7  1  0.184435  0.511760  0.784022  1
  Sn  Sn8  1  0.812976  0.484320  0.216022  1
  Sn  Sn9  1  0.814577  0.483541  0.549242  1
  Sn  Sn10  1  0.810491  0.488883  0.882717  1
  Sn  Sn11  1  0.513916  0.820085  0.723358  1
  Sn  Sn12  1  0.509382  0.818838  0.053703  1
  Sn  Sn13  1  0.518250  0.816731  0.389433  1
  O  O14  1  0.361805  0.050711  0.070682  1
  O  O15  1  0.366549  0.051373  0.402518  1
  O  O16  1  0.367002  0.051501  0.734757  1
  O  O17  1  0.292904  0.374382  0.277628  1
  O  O18  1  0.291861  0.375422  0.944036  1
  O  O19  1  0.296210  0.378415  0.612566  1
  O  O20  1  0.051311  0.633700  0.279378  1
  O  O21  1  0.051609  0.634546  0.615312  1
  O  O22  1  0.048631  0.638644  0.948565  1
  O  O23  1  0.619913  0.296295  0.485722  1
  O  O24  1  0.625022  0.296688  0.817980  1
  O  O25  1  0.626822  0.292932  0.155899  1
  O  O26  1  0.376203  0.704418  0.180916  1
  O  O27  1  0.381003  0.703876  0.513763  1
  O  O28  1  0.372123  0.706582  0.845539  1
  O  O29  1  0.945895  0.363078  0.049820  1
  O  O30  1  0.949657  0.364825  0.385304  1
  O  O31  1  0.946873  0.365403  0.719344  1
  O  O32  1  0.704223  0.625068  0.719734  1
  O  O33  1  0.699948  0.622193  0.054894  1
  O  O34  1  0.705286  0.621822  0.387732  1
  O  O35  1  0.636933  0.943097  0.931726  1
  O  O36  1  0.637965  0.946834  0.263696  1
  O  O37  1  0.639714  0.949165  0.598315  1
