# generated using pymatgen
data_Yb12Ga8PdPt7
_symmetry_space_group_name_H-M   'P 1'
_cell_length_a   5.70030244
_cell_length_b   7.83477009
_cell_length_c   13.84513414
_cell_angle_alpha   90.01488303
_cell_angle_beta   90.04400005
_cell_angle_gamma   89.99064293
_symmetry_Int_Tables_number   1
_chemical_formula_structural   Yb12Ga8PdPt7
_chemical_formula_sum   'Yb12 Ga8 Pd1 Pt7'
_cell_volume   618.33121952
_cell_formula_units_Z   1
loop_
 _symmetry_equiv_pos_site_id
 _symmetry_equiv_pos_as_xyz
  1  'x, y, z'
loop_
 _atom_site_type_symbol
 _atom_site_label
 _atom_site_symmetry_multiplicity
 _atom_site_fract_x
 _atom_site_fract_y
 _atom_site_fract_z
 _atom_site_occupancy
  Yb  Yb0  1  0.148471  0.606348  0.095800  1
  Yb  Yb1  1  0.148296  0.894690  0.904066  1
  Yb  Yb2  1  0.851561  0.105128  0.404194  1
  Yb  Yb3  1  0.851533  0.395008  0.595826  1
  Yb  Yb4  1  0.851663  0.395065  0.903527  1
  Yb  Yb5  1  0.852195  0.103400  0.096101  1
  Yb  Yb6  1  0.148662  0.894876  0.595894  1
  Yb  Yb7  1  0.148576  0.605144  0.404129  1
  Yb  Yb8  1  0.373891  0.251203  0.250747  1
  Yb  Yb9  1  0.375022  0.247606  0.749906  1
  Yb  Yb10  1  0.625490  0.753519  0.250712  1
  Yb  Yb11  1  0.625009  0.747588  0.750026  1
  Ga  Ga12  1  0.370138  0.249561  0.999723  1
  Ga  Ga13  1  0.628649  0.749778  0.500041  1
  Ga  Ga14  1  0.629309  0.750628  0.999530  1
  Ga  Ga15  1  0.371517  0.249957  0.500167  1
  Ga  Ga16  1  0.871511  0.404291  0.250104  1
  Ga  Ga17  1  0.871974  0.095386  0.750077  1
  Ga  Ga18  1  0.128004  0.904028  0.249991  1
  Ga  Ga19  1  0.128245  0.595590  0.749931  1
  Pd  Pd20  1  0.641370  0.466873  0.094736  1
  Pt  Pt21  1  0.642709  0.034542  0.904346  1
  Pt  Pt22  1  0.357040  0.966601  0.404142  1
  Pt  Pt23  1  0.356970  0.533432  0.595710  1
  Pt  Pt24  1  0.357911  0.533017  0.904792  1
  Pt  Pt25  1  0.358083  0.966687  0.095773  1
  Pt  Pt26  1  0.642922  0.033526  0.595918  1
  Pt  Pt27  1  0.643281  0.466526  0.404091  1
