# generated using pymatgen
data_Ti12CdInSn8
_symmetry_space_group_name_H-M   'P 1'
_cell_length_a   9.27735300
_cell_length_b   9.27735379
_cell_length_c   5.75507900
_cell_angle_alpha   90.00000000
_cell_angle_beta   90.00000000
_cell_angle_gamma   120.00000075
_symmetry_Int_Tables_number   1
_chemical_formula_structural   Ti12CdInSn8
_chemical_formula_sum   'Ti12 Cd1 In1 Sn8'
_cell_volume   428.97315815
_cell_formula_units_Z   1
loop_
 _symmetry_equiv_pos_site_id
 _symmetry_equiv_pos_as_xyz
  1  'x, y, z'
loop_
 _atom_site_type_symbol
 _atom_site_label
 _atom_site_symmetry_multiplicity
 _atom_site_fract_x
 _atom_site_fract_y
 _atom_site_fract_z
 _atom_site_occupancy
  Ti  Ti0  1  0.841934  0.683868  0.747537  1
  Ti  Ti1  1  0.158066  0.841934  0.252463  1
  Ti  Ti2  1  0.683868  0.841934  0.252463  1
  Ti  Ti3  1  0.316132  0.158066  0.747537  1
  Ti  Ti4  1  0.841934  0.158066  0.747537  1
  Ti  Ti5  1  0.158066  0.316132  0.252463  1
  Ti  Ti6  1  0.500000  0.000000  0.500000  1
  Ti  Ti7  1  0.500000  0.500000  0.000000  1
  Ti  Ti8  1  0.000000  0.500000  0.000000  1
  Ti  Ti9  1  0.000000  0.500000  0.500000  1
  Ti  Ti10  1  0.500000  0.000000  0.000000  1
  Ti  Ti11  1  0.500000  0.500000  0.500000  1
  Cd  Cd12  1  0.000000  0.000000  0.000000  1
  In  In13  1  0.000000  0.000000  0.500000  1
  Sn  Sn14  1  0.197773  0.395545  0.750315  1
  Sn  Sn15  1  0.802227  0.197773  0.249685  1
  Sn  Sn16  1  0.395545  0.197773  0.249685  1
  Sn  Sn17  1  0.604455  0.802227  0.750315  1
  Sn  Sn18  1  0.197773  0.802227  0.750315  1
  Sn  Sn19  1  0.802227  0.604455  0.249685  1
  Sn  Sn20  1  0.666667  0.333333  0.750378  1
  Sn  Sn21  1  0.333333  0.666667  0.249622  1
