# generated using pymatgen
data_Nb4V4Ge2AsP
_symmetry_space_group_name_H-M   'P 1'
_cell_length_a   3.47652400
_cell_length_b   6.59477308
_cell_length_c   7.95140750
_cell_angle_alpha   89.94732595
_cell_angle_beta   90.00000000
_cell_angle_gamma   90.00000000
_symmetry_Int_Tables_number   1
_chemical_formula_structural   Nb4V4Ge2AsP
_chemical_formula_sum   'Nb4 V4 Ge2 As1 P1'
_cell_volume   182.30094318
_cell_formula_units_Z   1
loop_
 _symmetry_equiv_pos_site_id
 _symmetry_equiv_pos_as_xyz
  1  'x, y, z'
loop_
 _atom_site_type_symbol
 _atom_site_label
 _atom_site_symmetry_multiplicity
 _atom_site_fract_x
 _atom_site_fract_y
 _atom_site_fract_z
 _atom_site_occupancy
  Nb  Nb0  1  0.250000  0.027912  0.833020  1
  Nb  Nb1  1  0.250000  0.555100  0.674980  1
  Nb  Nb2  1  0.750000  0.954044  0.163099  1
  Nb  Nb3  1  0.750000  0.452170  0.332758  1
  V  V4  1  0.250000  0.130360  0.442746  1
  V  V5  1  0.250000  0.635383  0.050885  1
  V  V6  1  0.750000  0.866623  0.566118  1
  V  V7  1  0.750000  0.380282  0.937788  1
  Ge  Ge8  1  0.250000  0.752121  0.359597  1
  Ge  Ge9  1  0.250000  0.254148  0.135403  1
  As  As10  1  0.750000  0.246495  0.641065  1
  P  P11  1  0.750000  0.745362  0.862542  1
