# generated using pymatgen
data_Th8Si13Ge
_symmetry_space_group_name_H-M   'P 1'
_cell_length_a   7.56323744
_cell_length_b   7.56323792
_cell_length_c   11.72499194
_cell_angle_alpha   90.01183372
_cell_angle_beta   90.01183099
_cell_angle_gamma   134.50450398
_symmetry_Int_Tables_number   1
_chemical_formula_structural   Th8Si13Ge
_chemical_formula_sum   'Th8 Si13 Ge1'
_cell_volume   478.33976991
_cell_formula_units_Z   1
loop_
 _symmetry_equiv_pos_site_id
 _symmetry_equiv_pos_as_xyz
  1  'x, y, z'
loop_
 _atom_site_type_symbol
 _atom_site_label
 _atom_site_symmetry_multiplicity
 _atom_site_fract_x
 _atom_site_fract_y
 _atom_site_fract_z
 _atom_site_occupancy
  Th  Th0  1  0.501276  0.995144  0.123514  1
  Th  Th1  1  0.995914  0.500002  0.876841  1
  Th  Th2  1  0.499998  0.004086  0.623159  1
  Th  Th3  1  0.004856  0.498724  0.376486  1
  Th  Th4  1  0.495167  0.504833  0.250000  1
  Th  Th5  1  0.504160  0.495840  0.750000  1
  Th  Th6  1  0.008381  0.008168  0.497246  1
  Th  Th7  1  0.991832  0.991619  0.002754  1
  Si  Si8  1  0.590330  0.416988  0.493844  1
  Si  Si9  1  0.416315  0.590305  0.506456  1
  Si  Si10  1  0.409695  0.583685  0.993544  1
  Si  Si11  1  0.583012  0.409670  0.006156  1
  Si  Si12  1  0.589783  0.925942  0.375262  1
  Si  Si13  1  0.926511  0.586101  0.623395  1
  Si  Si14  1  0.413899  0.073489  0.876605  1
  Si  Si15  1  0.074058  0.410217  0.124738  1
  Si  Si16  1  0.386458  0.069809  0.359488  1
  Si  Si17  1  0.068044  0.381073  0.641033  1
  Si  Si18  1  0.618927  0.931956  0.858967  1
  Si  Si19  1  0.930191  0.613542  0.140512  1
  Si  Si20  1  0.927084  0.072916  0.250000  1
  Ge  Ge21  1  0.064109  0.935891  0.750000  1
