# generated using pymatgen
data_Ho8Zr11Si16Pt
_symmetry_space_group_name_H-M   'P 1'
_cell_length_a   7.31705280
_cell_length_b   7.31705283
_cell_length_c   13.30425897
_cell_angle_alpha   90.27551389
_cell_angle_beta   89.72448656
_cell_angle_gamma   89.81604309
_symmetry_Int_Tables_number   1
_chemical_formula_structural   Ho8Zr11Si16Pt
_chemical_formula_sum   'Ho8 Zr11 Si16 Pt1'
_cell_volume   712.28001112
_cell_formula_units_Z   1
loop_
 _symmetry_equiv_pos_site_id
 _symmetry_equiv_pos_as_xyz
  1  'x, y, z'
loop_
 _atom_site_type_symbol
 _atom_site_label
 _atom_site_symmetry_multiplicity
 _atom_site_fract_x
 _atom_site_fract_y
 _atom_site_fract_z
 _atom_site_occupancy
  Ho  Ho0  1  0.347613  0.005098  0.463295  1
  Ho  Ho1  1  0.493720  0.850119  0.716441  1
  Ho  Ho2  1  0.502666  0.150488  0.208821  1
  Ho  Ho3  1  0.850119  0.493720  0.283559  1
  Ho  Ho4  1  0.150488  0.502666  0.791179  1
  Ho  Ho5  1  0.648193  0.001216  0.966437  1
  Ho  Ho6  1  0.005098  0.347613  0.536705  1
  Ho  Ho7  1  0.001216  0.648193  0.033563  1
  Zr  Zr8  1  0.179560  0.820144  0.247515  1
  Zr  Zr9  1  0.820144  0.179560  0.752485  1
  Zr  Zr10  1  0.676575  0.676575  0.500000  1
  Zr  Zr11  1  0.141691  0.004841  0.877021  1
  Zr  Zr12  1  0.497020  0.642541  0.119510  1
  Zr  Zr13  1  0.501286  0.357719  0.627660  1
  Zr  Zr14  1  0.642541  0.497020  0.880490  1
  Zr  Zr15  1  0.357719  0.501286  0.372340  1
  Zr  Zr16  1  0.856509  0.996924  0.373109  1
  Zr  Zr17  1  0.004841  0.141691  0.122979  1
  Zr  Zr18  1  0.996924  0.856509  0.626891  1
  Si  Si19  1  0.203624  0.144833  0.685276  1
  Si  Si20  1  0.364234  0.720936  0.927856  1
  Si  Si21  1  0.641903  0.292514  0.432539  1
  Si  Si22  1  0.720936  0.364234  0.072144  1
  Si  Si23  1  0.292514  0.641903  0.567461  1
  Si  Si24  1  0.794821  0.855194  0.180467  1
  Si  Si25  1  0.144833  0.203624  0.314724  1
  Si  Si26  1  0.855194  0.794821  0.819533  1
  Si  Si27  1  0.290969  0.939057  0.061620  1
  Si  Si28  1  0.553798  0.794762  0.311507  1
  Si  Si29  1  0.438648  0.208990  0.817782  1
  Si  Si30  1  0.794762  0.553798  0.688493  1
  Si  Si31  1  0.208990  0.438648  0.182218  1
  Si  Si32  1  0.703230  0.053508  0.563904  1
  Si  Si33  1  0.939057  0.290969  0.938380  1
  Si  Si34  1  0.053508  0.703230  0.436096  1
  Pt  Pt35  1  0.325053  0.325053  0.000000  1
