# generated using pymatgen
data_YPa2Sb4Pt3
_symmetry_space_group_name_H-M   'P 1'
_cell_length_a   8.45881000
_cell_length_b   8.45881057
_cell_length_c   8.45881065
_cell_angle_alpha   109.59250104
_cell_angle_beta   109.59250539
_cell_angle_gamma   109.22892734
_symmetry_Int_Tables_number   1
_chemical_formula_structural   YPa2Sb4Pt3
_chemical_formula_sum   'Y2 Pa4 Sb8 Pt6'
_cell_volume   465.90798847
_cell_formula_units_Z   2
loop_
 _symmetry_equiv_pos_site_id
 _symmetry_equiv_pos_as_xyz
  1  'x, y, z'
loop_
 _atom_site_type_symbol
 _atom_site_label
 _atom_site_symmetry_multiplicity
 _atom_site_fract_x
 _atom_site_fract_y
 _atom_site_fract_z
 _atom_site_occupancy
  Y  Y0  1  0.125000  0.875000  0.250000  1
  Y  Y1  1  0.375000  0.625000  0.750000  1
  Pa  Pa2  1  0.875437  0.250000  0.125437  1
  Pa  Pa3  1  0.624563  0.750000  0.374563  1
  Pa  Pa4  1  0.250000  0.124563  0.874563  1
  Pa  Pa5  1  0.750000  0.375437  0.625437  1
  Sb  Sb6  1  0.675899  0.500711  0.998920  1
  Sb  Sb7  1  0.498208  0.999289  0.675188  1
  Sb  Sb8  1  0.001792  0.676980  0.501080  1
  Sb  Sb9  1  0.824101  0.823020  0.824812  1
  Sb  Sb10  1  0.499289  0.998208  0.175188  1
  Sb  Sb11  1  0.176980  0.501792  0.001080  1
  Sb  Sb12  1  0.000711  0.175899  0.498920  1
  Sb  Sb13  1  0.323020  0.324101  0.324812  1
  Pt  Pt14  1  0.376826  0.250000  0.626826  1
  Pt  Pt15  1  0.123174  0.750000  0.873174  1
  Pt  Pt16  1  0.250000  0.623174  0.373174  1
  Pt  Pt17  1  0.750000  0.876826  0.126826  1
  Pt  Pt18  1  0.625000  0.375000  0.250000  1
  Pt  Pt19  1  0.875000  0.125000  0.750000  1
