# generated using pymatgen
data_ErSc(Zn4Ir)2
_symmetry_space_group_name_H-M   'P 1'
_cell_length_a   5.02583900
_cell_length_b   5.02583903
_cell_length_c   8.31590200
_cell_angle_alpha   90.00000000
_cell_angle_beta   90.00000000
_cell_angle_gamma   120.00000636
_symmetry_Int_Tables_number   1
_chemical_formula_structural   ErSc(Zn4Ir)2
_chemical_formula_sum   'Er1 Sc1 Zn8 Ir2'
_cell_volume   181.91022611
_cell_formula_units_Z   1
loop_
 _symmetry_equiv_pos_site_id
 _symmetry_equiv_pos_as_xyz
  1  'x, y, z'
loop_
 _atom_site_type_symbol
 _atom_site_label
 _atom_site_symmetry_multiplicity
 _atom_site_fract_x
 _atom_site_fract_y
 _atom_site_fract_z
 _atom_site_occupancy
  Er  Er0  1  0.666667  0.333333  0.437031  1
  Sc  Sc1  1  0.333333  0.666667  0.933793  1
  Zn  Zn2  1  0.000000  0.000000  0.998056  1
  Zn  Zn3  1  0.000000  0.000000  0.500665  1
  Zn  Zn4  1  0.170351  0.340703  0.242856  1
  Zn  Zn5  1  0.829698  0.170302  0.751634  1
  Zn  Zn6  1  0.340605  0.170302  0.751634  1
  Zn  Zn7  1  0.659297  0.829649  0.242856  1
  Zn  Zn8  1  0.170351  0.829649  0.242856  1
  Zn  Zn9  1  0.829698  0.659395  0.751634  1
  Ir  Ir10  1  0.333333  0.666667  0.578229  1
  Ir  Ir11  1  0.666667  0.333333  0.068757  1
