# generated using pymatgen
data_Ca4Ac2NdNi4Sn13
_symmetry_space_group_name_H-M   'P 1'
_cell_length_a   11.38095500
_cell_length_b   11.38095500
_cell_length_c   4.64938200
_cell_angle_alpha   90.00000000
_cell_angle_beta   90.00000000
_cell_angle_gamma   90.00000000
_symmetry_Int_Tables_number   1
_chemical_formula_structural   Ca4Ac2NdNi4Sn13
_chemical_formula_sum   'Ca4 Ac2 Nd1 Ni4 Sn13'
_cell_volume   602.21648856
_cell_formula_units_Z   1
loop_
 _symmetry_equiv_pos_site_id
 _symmetry_equiv_pos_as_xyz
  1  'x, y, z'
loop_
 _atom_site_type_symbol
 _atom_site_label
 _atom_site_symmetry_multiplicity
 _atom_site_fract_x
 _atom_site_fract_y
 _atom_site_fract_z
 _atom_site_occupancy
  Ca  Ca0  1  0.838355  0.171270  0.000000  1
  Ca  Ca1  1  0.828730  0.838355  0.000000  1
  Ca  Ca2  1  0.161645  0.828730  0.000000  1
  Ca  Ca3  1  0.171270  0.161645  0.000000  1
  Ac  Ac4  1  0.000000  0.500000  0.000000  1
  Ac  Ac5  1  0.500000  0.000000  0.000000  1
  Nd  Nd6  1  0.500000  0.500000  0.500000  1
  Ni  Ni7  1  0.777868  0.617235  0.500000  1
  Ni  Ni8  1  0.382765  0.777868  0.500000  1
  Ni  Ni9  1  0.617235  0.222132  0.500000  1
  Ni  Ni10  1  0.222132  0.382765  0.500000  1
  Sn  Sn11  1  0.019713  0.278042  0.500000  1
  Sn  Sn12  1  0.980287  0.721958  0.500000  1
  Sn  Sn13  1  0.216433  0.614290  0.500000  1
  Sn  Sn14  1  0.575712  0.307226  0.000000  1
  Sn  Sn15  1  0.692774  0.575712  0.000000  1
  Sn  Sn16  1  0.783567  0.385710  0.500000  1
  Sn  Sn17  1  0.721958  0.019713  0.500000  1
  Sn  Sn18  1  0.000000  0.000000  0.500000  1
  Sn  Sn19  1  0.278042  0.980287  0.500000  1
  Sn  Sn20  1  0.424288  0.692774  0.000000  1
  Sn  Sn21  1  0.614290  0.783567  0.500000  1
  Sn  Sn22  1  0.307226  0.424288  0.000000  1
  Sn  Sn23  1  0.385710  0.216433  0.500000  1
