# generated using pymatgen
data_Yb2Sc2CoOs7
_symmetry_space_group_name_H-M   'P 1'
_cell_length_a   5.21838807
_cell_length_b   5.21838820
_cell_length_c   8.66009465
_cell_angle_alpha   89.52537712
_cell_angle_beta   90.47462382
_cell_angle_gamma   120.65434221
_symmetry_Int_Tables_number   1
_chemical_formula_structural   Yb2Sc2CoOs7
_chemical_formula_sum   'Yb2 Sc2 Co1 Os7'
_cell_volume   202.86391391
_cell_formula_units_Z   1
loop_
 _symmetry_equiv_pos_site_id
 _symmetry_equiv_pos_as_xyz
  1  'x, y, z'
loop_
 _atom_site_type_symbol
 _atom_site_label
 _atom_site_symmetry_multiplicity
 _atom_site_fract_x
 _atom_site_fract_y
 _atom_site_fract_z
 _atom_site_occupancy
  Yb  Yb0  1  0.671177  0.328823  0.940805  1
  Yb  Yb1  1  0.335263  0.664737  0.062868  1
  Sc  Sc2  1  0.333136  0.666864  0.429803  1
  Sc  Sc3  1  0.667739  0.332261  0.567514  1
  Co  Co4  1  0.821513  0.178487  0.261620  1
  Os  Os5  1  0.007698  0.992302  0.493924  1
  Os  Os6  1  0.011544  0.988456  0.004717  1
  Os  Os7  1  0.821671  0.658033  0.254020  1
  Os  Os8  1  0.341967  0.178329  0.254020  1
  Os  Os9  1  0.165490  0.834510  0.747322  1
  Os  Os10  1  0.171153  0.348351  0.741693  1
  Os  Os11  1  0.651649  0.828847  0.741693  1
