# generated using pymatgen
data_ScCrTcO8
_symmetry_space_group_name_H-M   'P 1'
_cell_length_a   5.79637900
_cell_length_b   7.98064830
_cell_length_c   8.73753425
_cell_angle_alpha   94.04479387
_cell_angle_beta   90.00000000
_cell_angle_gamma   90.00000000
_symmetry_Int_Tables_number   1
_chemical_formula_structural   ScCrTcO8
_chemical_formula_sum   'Sc2 Cr2 Tc2 O16'
_cell_volume   403.18164438
_cell_formula_units_Z   2
loop_
 _symmetry_equiv_pos_site_id
 _symmetry_equiv_pos_as_xyz
  1  'x, y, z'
loop_
 _atom_site_type_symbol
 _atom_site_label
 _atom_site_symmetry_multiplicity
 _atom_site_fract_x
 _atom_site_fract_y
 _atom_site_fract_z
 _atom_site_occupancy
  Sc  Sc0  1  0.000000  0.500000  0.000000  1
  Sc  Sc1  1  0.500000  0.000000  0.500000  1
  Cr  Cr2  1  0.500000  0.317308  0.812513  1
  Cr  Cr3  1  0.500000  0.682692  0.187487  1
  Tc  Tc4  1  0.000000  0.189285  0.303480  1
  Tc  Tc5  1  0.000000  0.810715  0.696520  1
  O  O6  1  0.000000  0.969311  0.835990  1
  O  O7  1  0.000000  0.382493  0.220436  1
  O  O8  1  0.000000  0.617507  0.779564  1
  O  O9  1  0.000000  0.030689  0.164010  1
  O  O10  1  0.739123  0.335695  0.922141  1
  O  O11  1  0.739123  0.664305  0.077859  1
  O  O12  1  0.755538  0.831691  0.580594  1
  O  O13  1  0.755538  0.168309  0.419406  1
  O  O14  1  0.500000  0.127889  0.708903  1
  O  O15  1  0.500000  0.463988  0.697062  1
  O  O16  1  0.500000  0.872111  0.291097  1
  O  O17  1  0.500000  0.536012  0.302938  1
  O  O18  1  0.244462  0.831691  0.580594  1
  O  O19  1  0.244462  0.168309  0.419406  1
  O  O20  1  0.260877  0.335695  0.922141  1
  O  O21  1  0.260877  0.664305  0.077859  1
