# generated using pymatgen
data_DyEr(SeO3)3
_symmetry_space_group_name_H-M   'P 1'
_cell_length_a   7.06643134
_cell_length_b   8.11028041
_cell_length_c   9.06135000
_cell_angle_alpha   71.47314777
_cell_angle_beta   70.03532002
_cell_angle_gamma   66.09167110
_symmetry_Int_Tables_number   1
_chemical_formula_structural   DyEr(SeO3)3
_chemical_formula_sum   'Dy2 Er2 Se6 O18'
_cell_volume   436.39101168
_cell_formula_units_Z   2
loop_
 _symmetry_equiv_pos_site_id
 _symmetry_equiv_pos_as_xyz
  1  'x, y, z'
loop_
 _atom_site_type_symbol
 _atom_site_label
 _atom_site_symmetry_multiplicity
 _atom_site_fract_x
 _atom_site_fract_y
 _atom_site_fract_z
 _atom_site_occupancy
  Dy  Dy0  1  0.334448  0.726842  0.590728  1
  Dy  Dy1  1  0.665552  0.273158  0.409272  1
  Er  Er2  1  0.741693  0.735762  0.797764  1
  Er  Er3  1  0.258307  0.264238  0.202236  1
  Se  Se4  1  0.426673  0.776601  0.196971  1
  Se  Se5  1  0.573327  0.223399  0.803029  1
  Se  Se6  1  0.147425  0.749424  0.965849  1
  Se  Se7  1  0.852575  0.250576  0.034151  1
  Se  Se8  1  0.886936  0.759309  0.414509  1
  Se  Se9  1  0.113064  0.240691  0.585491  1
  O  O10  1  0.649812  0.791748  0.049038  1
  O  O11  1  0.350188  0.208252  0.950962  1
  O  O12  1  0.360784  0.945911  0.302892  1
  O  O13  1  0.639216  0.054089  0.697108  1
  O  O14  1  0.517529  0.595491  0.350631  1
  O  O15  1  0.482471  0.404509  0.649369  1
  O  O16  1  0.167207  0.564712  0.121347  1
  O  O17  1  0.832793  0.435288  0.878653  1
  O  O18  1  0.408856  0.709883  0.849438  1
  O  O19  1  0.591144  0.290117  0.150562  1
  O  O20  1  0.343642  0.252805  0.435217  1
  O  O21  1  0.656358  0.747195  0.564783  1
  O  O22  1  0.967472  0.292935  0.444488  1
  O  O23  1  0.032528  0.707065  0.555512  1
  O  O24  1  0.158472  0.012355  0.654988  1
  O  O25  1  0.841528  0.987645  0.345012  1
  O  O26  1  0.934477  0.306476  0.167104  1
  O  O27  1  0.065523  0.693524  0.832896  1
