# generated using pymatgen
data_Ho2Ga4Pt3
_symmetry_space_group_name_H-M   'P 1'
_cell_length_a   6.61419810
_cell_length_b   6.61419732
_cell_length_c   4.15620300
_cell_angle_alpha   90.00000000
_cell_angle_beta   90.00000000
_cell_angle_gamma   114.56152445
_symmetry_Int_Tables_number   1
_chemical_formula_structural   Ho2Ga4Pt3
_chemical_formula_sum   'Ho2 Ga4 Pt3'
_cell_volume   165.37169427
_cell_formula_units_Z   1
loop_
 _symmetry_equiv_pos_site_id
 _symmetry_equiv_pos_as_xyz
  1  'x, y, z'
loop_
 _atom_site_type_symbol
 _atom_site_label
 _atom_site_symmetry_multiplicity
 _atom_site_fract_x
 _atom_site_fract_y
 _atom_site_fract_z
 _atom_site_occupancy
  Ho  Ho0  1  0.423654  0.003856  0.500000  1
  Ho  Ho1  1  0.003856  0.423654  0.500000  1
  Ga  Ga2  1  0.601046  0.601046  0.500000  1
  Ga  Ga3  1  0.750289  0.019337  0.000000  1
  Ga  Ga4  1  0.019337  0.750289  0.000000  1
  Ga  Ga5  1  0.216612  0.216612  0.000000  1
  Pt  Pt6  1  0.366932  0.646646  0.000000  1
  Pt  Pt7  1  0.646646  0.366932  0.000000  1
  Pt  Pt8  1  0.971628  0.971628  0.500000  1
