# generated using pymatgen
data_Sr6Yb2Ta3NbO18
_symmetry_space_group_name_H-M   'P 1'
_cell_length_a   5.89871753
_cell_length_b   5.89951730
_cell_length_c   14.92149611
_cell_angle_alpha   89.96197682
_cell_angle_beta   89.97879436
_cell_angle_gamma   60.00585227
_symmetry_Int_Tables_number   1
_chemical_formula_structural   Sr6Yb2Ta3NbO18
_chemical_formula_sum   'Sr6 Yb2 Ta3 Nb1 O18'
_cell_volume   449.72040405
_cell_formula_units_Z   1
loop_
 _symmetry_equiv_pos_site_id
 _symmetry_equiv_pos_as_xyz
  1  'x, y, z'
loop_
 _atom_site_type_symbol
 _atom_site_label
 _atom_site_symmetry_multiplicity
 _atom_site_fract_x
 _atom_site_fract_y
 _atom_site_fract_z
 _atom_site_occupancy
  Sr  Sr0  1  0.000023  0.000022  0.251050  1
  Sr  Sr1  1  0.666480  0.667798  0.372901  1
  Sr  Sr2  1  0.667423  0.664172  0.123413  1
  Sr  Sr3  1  0.332578  0.335798  0.874932  1
  Sr  Sr4  1  0.333496  0.332237  0.627550  1
  Sr  Sr5  1  0.999989  0.999970  0.747980  1
  Yb  Yb6  1  0.999980  0.000003  0.500431  1
  Yb  Yb7  1  0.000013  0.999874  0.001044  1
  Ta  Ta8  1  0.667138  0.665847  0.651664  1
  Ta  Ta9  1  0.332870  0.334147  0.349192  1
  Ta  Ta10  1  0.334655  0.331145  0.149041  1
  Nb  Nb11  1  0.665277  0.668900  0.852748  1
  O  O12  1  0.585660  0.965645  0.749855  1
  O  O13  1  0.911288  0.741941  0.594203  1
  O  O14  1  0.912985  0.745491  0.906628  1
  O  O15  1  0.345335  0.909565  0.594772  1
  O  O16  1  0.342963  0.917260  0.907433  1
  O  O17  1  0.964419  0.449113  0.750709  1
  O  O18  1  0.448911  0.586071  0.751070  1
  O  O19  1  0.260757  0.648655  0.090722  1
  O  O20  1  0.255938  0.656969  0.404290  1
  O  O21  1  0.744011  0.343607  0.595418  1
  O  O22  1  0.739716  0.349211  0.909598  1
  O  O23  1  0.549683  0.413297  0.248312  1
  O  O24  1  0.037785  0.549355  0.248649  1
  O  O25  1  0.654753  0.084404  0.092848  1
  O  O26  1  0.655188  0.089918  0.404944  1
  O  O27  1  0.088707  0.255101  0.093601  1
  O  O28  1  0.088210  0.258015  0.405492  1
  O  O29  1  0.413767  0.036471  0.249511  1
