# generated using pymatgen
data_Gd2Al3Re
_symmetry_space_group_name_H-M   'P 1'
_cell_length_a   5.55031800
_cell_length_b   5.55031766
_cell_length_c   8.93069300
_cell_angle_alpha   90.00000000
_cell_angle_beta   90.00000000
_cell_angle_gamma   120.00000200
_symmetry_Int_Tables_number   1
_chemical_formula_structural   Gd2Al3Re
_chemical_formula_sum   'Gd4 Al6 Re2'
_cell_volume   238.26019327
_cell_formula_units_Z   2
loop_
 _symmetry_equiv_pos_site_id
 _symmetry_equiv_pos_as_xyz
  1  'x, y, z'
loop_
 _atom_site_type_symbol
 _atom_site_label
 _atom_site_symmetry_multiplicity
 _atom_site_fract_x
 _atom_site_fract_y
 _atom_site_fract_z
 _atom_site_occupancy
  Gd  Gd0  1  0.666666  0.333333  0.051035  1
  Gd  Gd1  1  0.666666  0.333333  0.448966  1
  Gd  Gd2  1  0.333333  0.666666  0.551035  1
  Gd  Gd3  1  0.333333  0.666666  0.948965  1
  Al  Al4  1  0.160933  0.321865  0.250000  1
  Al  Al5  1  0.160934  0.839067  0.250000  1
  Al  Al6  1  0.678134  0.839067  0.250000  1
  Al  Al7  1  0.321865  0.160932  0.750000  1
  Al  Al8  1  0.839067  0.160932  0.750000  1
  Al  Al9  1  0.839067  0.678136  0.750000  1
  Re  Re10  1  0.000000  0.000000  0.000000  1
  Re  Re11  1  0.000000  0.000000  0.500000  1
