# generated using pymatgen
data_EuGe2RuO7
_symmetry_space_group_name_H-M   'P 1'
_cell_length_a   5.60324356
_cell_length_b   5.60341365
_cell_length_c   4.86324426
_cell_angle_alpha   95.95080978
_cell_angle_beta   95.94684133
_cell_angle_gamma   102.69652727
_symmetry_Int_Tables_number   1
_chemical_formula_structural   EuGe2RuO7
_chemical_formula_sum   'Eu1 Ge2 Ru1 O7'
_cell_volume   146.89398466
_cell_formula_units_Z   1
loop_
 _symmetry_equiv_pos_site_id
 _symmetry_equiv_pos_as_xyz
  1  'x, y, z'
loop_
 _atom_site_type_symbol
 _atom_site_label
 _atom_site_symmetry_multiplicity
 _atom_site_fract_x
 _atom_site_fract_y
 _atom_site_fract_z
 _atom_site_occupancy
  Eu  Eu0  1  0.280730  0.719253  0.500056  1
  Ge  Ge1  1  0.784399  0.772735  0.075939  1
  Ge  Ge2  1  0.227263  0.215629  0.924059  1
  Ru  Ru3  1  0.674153  0.325862  0.499994  1
  O  O4  1  0.091313  0.908676  0.999937  1
  O  O5  1  0.383386  0.388203  0.243402  1
  O  O6  1  0.637029  0.972591  0.260695  1
  O  O7  1  0.878312  0.556346  0.285596  1
  O  O8  1  0.443648  0.121696  0.714375  1
  O  O9  1  0.027403  0.362999  0.739319  1
  O  O10  1  0.611782  0.616589  0.756625  1
