# generated using pymatgen
data_Tm10ZnIn8Rh3
_symmetry_space_group_name_H-M   'P 1'
_cell_length_a   3.56616800
_cell_length_b   8.04001828
_cell_length_c   18.10237448
_cell_angle_alpha   90.23996147
_cell_angle_beta   90.00000000
_cell_angle_gamma   90.00000000
_symmetry_Int_Tables_number   1
_chemical_formula_structural   Tm10ZnIn8Rh3
_chemical_formula_sum   'Tm10 Zn1 In8 Rh3'
_cell_volume   519.02774124
_cell_formula_units_Z   1
loop_
 _symmetry_equiv_pos_site_id
 _symmetry_equiv_pos_as_xyz
  1  'x, y, z'
loop_
 _atom_site_type_symbol
 _atom_site_label
 _atom_site_symmetry_multiplicity
 _atom_site_fract_x
 _atom_site_fract_y
 _atom_site_fract_z
 _atom_site_occupancy
  Tm  Tm0  1  0.000000  0.500176  0.500451  1
  Tm  Tm1  1  0.000000  0.000089  0.999052  1
  Tm  Tm2  1  0.000000  0.760712  0.281943  1
  Tm  Tm3  1  0.000000  0.252547  0.721634  1
  Tm  Tm4  1  0.000000  0.753586  0.778430  1
  Tm  Tm5  1  0.000000  0.225780  0.222656  1
  Tm  Tm6  1  0.000000  0.624712  0.080643  1
  Tm  Tm7  1  0.000000  0.383630  0.912174  1
  Tm  Tm8  1  0.000000  0.882116  0.587683  1
  Tm  Tm9  1  0.000000  0.116961  0.414839  1
  Zn  Zn10  1  0.500000  0.524524  0.198512  1
  In  In11  1  0.500000  0.708245  0.931094  1
  In  In12  1  0.500000  0.294542  0.066846  1
  In  In13  1  0.500000  0.793702  0.432836  1
  In  In14  1  0.500000  0.206779  0.567669  1
  In  In15  1  0.500000  0.571231  0.649618  1
  In  In16  1  0.500000  0.424689  0.350234  1
  In  In17  1  0.500000  0.926080  0.148605  1
  In  In18  1  0.500000  0.071640  0.850812  1
  Rh  Rh19  1  0.500000  0.475778  0.804180  1
  Rh  Rh20  1  0.500000  0.976136  0.695335  1
  Rh  Rh21  1  0.500000  0.026346  0.304753  1
