# generated using pymatgen
data_Ce8Ti8Nb3Si16Au
_symmetry_space_group_name_H-M   'P 1'
_cell_length_a   7.12187359
_cell_length_b   7.12187265
_cell_length_c   13.12805650
_cell_angle_alpha   90.27219255
_cell_angle_beta   89.72780077
_cell_angle_gamma   89.66637004
_symmetry_Int_Tables_number   1
_chemical_formula_structural   Ce8Ti8Nb3Si16Au
_chemical_formula_sum   'Ce8 Ti8 Nb3 Si16 Au1'
_cell_volume   665.84275645
_cell_formula_units_Z   1
loop_
 _symmetry_equiv_pos_site_id
 _symmetry_equiv_pos_as_xyz
  1  'x, y, z'
loop_
 _atom_site_type_symbol
 _atom_site_label
 _atom_site_symmetry_multiplicity
 _atom_site_fract_x
 _atom_site_fract_y
 _atom_site_fract_z
 _atom_site_occupancy
  Ce  Ce0  1  0.335926  0.004528  0.466885  1
  Ce  Ce1  1  0.493305  0.836373  0.717107  1
  Ce  Ce2  1  0.505360  0.161504  0.215462  1
  Ce  Ce3  1  0.836373  0.493305  0.282893  1
  Ce  Ce4  1  0.161504  0.505360  0.784538  1
  Ce  Ce5  1  0.661148  0.999764  0.967711  1
  Ce  Ce6  1  0.004528  0.335926  0.533115  1
  Ce  Ce7  1  0.999764  0.661148  0.032289  1
  Ti  Ti8  1  0.152948  0.010325  0.877833  1
  Ti  Ti9  1  0.497523  0.653676  0.124790  1
  Ti  Ti10  1  0.505421  0.345961  0.626092  1
  Ti  Ti11  1  0.653676  0.497523  0.875210  1
  Ti  Ti12  1  0.345961  0.505421  0.373908  1
  Ti  Ti13  1  0.844458  0.992641  0.375154  1
  Ti  Ti14  1  0.010325  0.152948  0.122167  1
  Ti  Ti15  1  0.992641  0.844458  0.624846  1
  Nb  Nb16  1  0.171432  0.828039  0.250003  1
  Nb  Nb17  1  0.828039  0.171432  0.749997  1
  Nb  Nb18  1  0.670276  0.670276  0.500000  1
  Si  Si19  1  0.199124  0.129697  0.687895  1
  Si  Si20  1  0.374393  0.718104  0.933316  1
  Si  Si21  1  0.628778  0.296559  0.436753  1
  Si  Si22  1  0.718104  0.374393  0.066684  1
  Si  Si23  1  0.296559  0.628778  0.563247  1
  Si  Si24  1  0.799369  0.870619  0.186267  1
  Si  Si25  1  0.129697  0.199124  0.312105  1
  Si  Si26  1  0.870619  0.799369  0.813733  1
  Si  Si27  1  0.290030  0.940706  0.066705  1
  Si  Si28  1  0.543521  0.789964  0.314049  1
  Si  Si29  1  0.457182  0.210043  0.811036  1
  Si  Si30  1  0.789964  0.543521  0.685951  1
  Si  Si31  1  0.210043  0.457182  0.188964  1
  Si  Si32  1  0.708836  0.043544  0.564508  1
  Si  Si33  1  0.940706  0.290030  0.933295  1
  Si  Si34  1  0.043544  0.708836  0.435492  1
  Au  Au35  1  0.328925  0.328925  0.000000  1
