# generated using pymatgen
data_Sc8Ti5Nb7Si15Sb
_symmetry_space_group_name_H-M   'P 1'
_cell_length_a   6.75849872
_cell_length_b   6.89035716
_cell_length_c   13.17804140
_cell_angle_alpha   89.94960205
_cell_angle_beta   90.37958960
_cell_angle_gamma   90.11634649
_symmetry_Int_Tables_number   1
_chemical_formula_structural   Sc8Ti5Nb7Si15Sb
_chemical_formula_sum   'Sc8 Ti5 Nb7 Si15 Sb1'
_cell_volume   613.66626361
_cell_formula_units_Z   1
loop_
 _symmetry_equiv_pos_site_id
 _symmetry_equiv_pos_as_xyz
  1  'x, y, z'
loop_
 _atom_site_type_symbol
 _atom_site_label
 _atom_site_symmetry_multiplicity
 _atom_site_fract_x
 _atom_site_fract_y
 _atom_site_fract_z
 _atom_site_occupancy
  Sc  Sc0  1  0.493439  0.670105  0.600493  1
  Sc  Sc1  1  0.999299  0.826510  0.903913  1
  Sc  Sc2  1  0.499251  0.326136  0.094752  1
  Sc  Sc3  1  0.014643  0.184394  0.399144  1
  Sc  Sc4  1  0.497282  0.332391  0.401332  1
  Sc  Sc5  1  0.998279  0.175079  0.095508  1
  Sc  Sc6  1  0.502115  0.675685  0.904197  1
  Sc  Sc7  1  0.005396  0.819078  0.601762  1
  Ti  Ti8  1  0.656099  0.183511  0.631193  1
  Ti  Ti9  1  0.162317  0.322918  0.875535  1
  Ti  Ti10  1  0.337040  0.823264  0.125472  1
  Ti  Ti11  1  0.846248  0.661029  0.369096  1
  Ti  Ti12  1  0.333942  0.824005  0.371836  1
  Nb  Nb13  1  0.837454  0.675643  0.124875  1
  Nb  Nb14  1  0.661667  0.174832  0.874486  1
  Nb  Nb15  1  0.160920  0.327371  0.627566  1
  Nb  Nb16  1  0.834092  0.494362  0.750019  1
  Nb  Nb17  1  0.334492  0.007242  0.750902  1
  Nb  Nb18  1  0.165385  0.505966  0.248954  1
  Nb  Nb19  1  0.665555  0.992144  0.244797  1
  Si  Si20  1  0.167192  0.532775  0.038583  1
  Si  Si21  1  0.331166  0.032056  0.961155  1
  Si  Si22  1  0.830419  0.465897  0.537742  1
  Si  Si23  1  0.318289  0.033984  0.540480  1
  Si  Si24  1  0.835225  0.466442  0.959668  1
  Si  Si25  1  0.663943  0.966413  0.039192  1
  Si  Si26  1  0.168419  0.538968  0.460957  1
  Si  Si27  1  0.455696  0.386484  0.753451  1
  Si  Si28  1  0.956686  0.116563  0.751084  1
  Si  Si29  1  0.541260  0.617484  0.249749  1
  Si  Si30  1  0.044214  0.883605  0.249441  1
  Si  Si31  1  0.703026  0.865149  0.749932  1
  Si  Si32  1  0.203666  0.634525  0.754472  1
  Si  Si33  1  0.298568  0.133218  0.247906  1
  Si  Si34  1  0.794366  0.361800  0.247647  1
  Sb  Sb35  1  0.682947  0.962969  0.462710  1
