# generated using pymatgen
data_DyEr3Al24Pt8Au
_symmetry_space_group_name_H-M   'P 1'
_cell_length_a   7.54605394
_cell_length_b   7.56414283
_cell_length_c   13.15137826
_cell_angle_alpha   84.55966697
_cell_angle_beta   79.01537683
_cell_angle_gamma   59.89214166
_symmetry_Int_Tables_number   1
_chemical_formula_structural   DyEr3Al24Pt8Au
_chemical_formula_sum   'Dy1 Er3 Al24 Pt8 Au1'
_cell_volume   637.49608456
_cell_formula_units_Z   1
loop_
 _symmetry_equiv_pos_site_id
 _symmetry_equiv_pos_as_xyz
  1  'x, y, z'
loop_
 _atom_site_type_symbol
 _atom_site_label
 _atom_site_symmetry_multiplicity
 _atom_site_fract_x
 _atom_site_fract_y
 _atom_site_fract_z
 _atom_site_occupancy
  Dy  Dy0  1  0.266788  0.501126  0.191428  1
  Er  Er1  1  0.392913  0.169234  0.808163  1
  Er  Er2  1  0.605865  0.831729  0.193052  1
  Er  Er3  1  0.734330  0.499225  0.808015  1
  Al  Al4  1  0.682909  0.834067  0.945199  1
  Al  Al5  1  0.315992  0.165649  0.056063  1
  Al  Al6  1  0.146818  0.838944  0.560017  1
  Al  Al7  1  0.854264  0.167262  0.436459  1
  Al  Al8  1  0.488201  0.159670  0.557572  1
  Al  Al9  1  0.520149  0.833530  0.439726  1
  Al  Al10  1  0.218038  0.165008  0.328853  1
  Al  Al11  1  0.777215  0.838931  0.673484  1
  Al  Al12  1  0.440589  0.506647  0.673663  1
  Al  Al13  1  0.562943  0.493771  0.328583  1
  Al  Al14  1  0.108725  0.155059  0.672399  1
  Al  Al15  1  0.890135  0.839747  0.329900  1
  Al  Al16  1  0.353782  0.498603  0.944729  1
  Al  Al17  1  0.647233  0.501015  0.056058  1
  Al  Al18  1  0.015327  0.167990  0.953531  1
  Al  Al19  1  0.983645  0.832525  0.047713  1
  Al  Al20  1  0.188011  0.499577  0.436575  1
  Al  Al21  1  0.806984  0.500058  0.557533  1
  Al  Al22  1  0.734224  0.163483  0.183567  1
  Al  Al23  1  0.267029  0.835535  0.816682  1
  Al  Al24  1  0.060450  0.633125  0.817898  1
  Al  Al25  1  0.938072  0.369123  0.184950  1
  Al  Al26  1  0.853893  0.042477  0.816164  1
  Al  Al27  1  0.144915  0.958352  0.184016  1
  Pt  Pt28  1  0.879114  0.508784  0.361295  1
  Pt  Pt29  1  0.657258  0.171412  0.999360  1
  Pt  Pt30  1  0.343112  0.828366  0.999648  1
  Pt  Pt31  1  0.537572  0.166372  0.361330  1
  Pt  Pt32  1  0.462761  0.833217  0.638383  1
  Pt  Pt33  1  0.778803  0.175438  0.636968  1
  Pt  Pt34  1  0.221468  0.824796  0.362627  1
  Pt  Pt35  1  0.999985  0.499871  0.000112  1
  Au  Au36  1  0.120487  0.490284  0.638287  1
