# generated using pymatgen
data_Dy3Ho2IrPt2
_symmetry_space_group_name_H-M   'P 1'
_cell_length_a   11.04148500
_cell_length_b   11.03622200
_cell_length_c   6.32110300
_cell_angle_alpha   90.00000000
_cell_angle_beta   90.00000000
_cell_angle_gamma   90.00000000
_symmetry_Int_Tables_number   1
_chemical_formula_structural   Dy3Ho2IrPt2
_chemical_formula_sum   'Dy12 Ho8 Ir4 Pt8'
_cell_volume   770.26609499
_cell_formula_units_Z   4
loop_
 _symmetry_equiv_pos_site_id
 _symmetry_equiv_pos_as_xyz
  1  'x, y, z'
loop_
 _atom_site_type_symbol
 _atom_site_label
 _atom_site_symmetry_multiplicity
 _atom_site_fract_x
 _atom_site_fract_y
 _atom_site_fract_z
 _atom_site_occupancy
  Dy  Dy0  1  0.294220  0.087607  0.374348  1
  Dy  Dy1  1  0.294220  0.912393  0.874348  1
  Dy  Dy2  1  0.705780  0.087607  0.874348  1
  Dy  Dy3  1  0.705780  0.912393  0.374348  1
  Dy  Dy4  1  0.587522  0.794304  0.874464  1
  Dy  Dy5  1  0.587522  0.205696  0.374464  1
  Dy  Dy6  1  0.412478  0.794304  0.374464  1
  Dy  Dy7  1  0.412478  0.205696  0.874464  1
  Dy  Dy8  1  0.205511  0.412413  0.625561  1
  Dy  Dy9  1  0.205511  0.587587  0.125561  1
  Dy  Dy10  1  0.794489  0.412413  0.125561  1
  Dy  Dy11  1  0.794489  0.587587  0.625561  1
  Ho  Ho12  1  0.912591  0.705440  0.125419  1
  Ho  Ho13  1  0.912591  0.294560  0.625419  1
  Ho  Ho14  1  0.087409  0.705440  0.625419  1
  Ho  Ho15  1  0.087409  0.294560  0.125419  1
  Ho  Ho16  1  0.000000  0.000000  0.500066  1
  Ho  Ho17  1  0.000000  0.000000  0.000066  1
  Ho  Ho18  1  0.500000  0.500000  0.000093  1
  Ho  Ho19  1  0.500000  0.500000  0.500093  1
  Ir  Ir20  1  0.500000  0.000000  0.120278  1
  Ir  Ir21  1  0.500000  0.000000  0.620278  1
  Ir  Ir22  1  0.000000  0.500000  0.879650  1
  Ir  Ir23  1  0.000000  0.500000  0.379650  1
  Pt  Pt24  1  0.846753  0.153663  0.250249  1
  Pt  Pt25  1  0.846753  0.846337  0.750249  1
  Pt  Pt26  1  0.153247  0.153663  0.750249  1
  Pt  Pt27  1  0.153247  0.846337  0.250249  1
  Pt  Pt28  1  0.653629  0.346499  0.749916  1
  Pt  Pt29  1  0.653629  0.653501  0.249916  1
  Pt  Pt30  1  0.346371  0.346499  0.249916  1
  Pt  Pt31  1  0.346371  0.653501  0.749916  1
