# generated using pymatgen
data_Cs8Na4SmY3Sb8
_symmetry_space_group_name_H-M   'P 1'
_cell_length_a   11.68469794
_cell_length_b   11.68469669
_cell_length_c   7.61716519
_cell_angle_alpha   90.04887202
_cell_angle_beta   89.95113280
_cell_angle_gamma   99.64893147
_symmetry_Int_Tables_number   1
_chemical_formula_structural   Cs8Na4SmY3Sb8
_chemical_formula_sum   'Cs8 Na4 Sm1 Y3 Sb8'
_cell_volume   1025.27486634
_cell_formula_units_Z   1
loop_
 _symmetry_equiv_pos_site_id
 _symmetry_equiv_pos_as_xyz
  1  'x, y, z'
loop_
 _atom_site_type_symbol
 _atom_site_label
 _atom_site_symmetry_multiplicity
 _atom_site_fract_x
 _atom_site_fract_y
 _atom_site_fract_z
 _atom_site_occupancy
  Cs  Cs0  1  0.070489  0.429714  0.250071  1
  Cs  Cs1  1  0.429714  0.070489  0.749929  1
  Cs  Cs2  1  0.929463  0.570421  0.749897  1
  Cs  Cs3  1  0.570421  0.929463  0.250103  1
  Cs  Cs4  1  0.677121  0.322870  0.212839  1
  Cs  Cs5  1  0.822635  0.177158  0.712672  1
  Cs  Cs6  1  0.322870  0.677121  0.787161  1
  Cs  Cs7  1  0.177158  0.822635  0.287328  1
  Na  Na8  1  0.382413  0.382413  0.000000  1
  Na  Na9  1  0.117898  0.117898  0.500000  1
  Na  Na10  1  0.617879  0.617879  0.000000  1
  Na  Na11  1  0.882004  0.882004  0.500000  1
  Sm  Sm12  1  0.131428  0.131428  0.000000  1
  Y  Y13  1  0.369404  0.369404  0.500000  1
  Y  Y14  1  0.868437  0.868437  0.000000  1
  Y  Y15  1  0.630776  0.630776  0.500000  1
  Sb  Sb16  1  0.841735  0.658299  0.249909  1
  Sb  Sb17  1  0.658299  0.841735  0.750091  1
  Sb  Sb18  1  0.158282  0.344043  0.747336  1
  Sb  Sb19  1  0.344043  0.158282  0.252664  1
  Sb  Sb20  1  0.902949  0.094402  0.212131  1
  Sb  Sb21  1  0.594983  0.405194  0.710332  1
  Sb  Sb22  1  0.094402  0.902949  0.787869  1
  Sb  Sb23  1  0.405194  0.594983  0.289668  1
