# generated using pymatgen
data_KBa9(IrO6)4
_symmetry_space_group_name_H-M   'P 1'
_cell_length_a   8.28581934
_cell_length_b   8.28301762
_cell_length_c   11.13983000
_cell_angle_alpha   111.81351260
_cell_angle_beta   111.82139986
_cell_angle_gamma   90.01900253
_symmetry_Int_Tables_number   1
_chemical_formula_structural   KBa9(IrO6)4
_chemical_formula_sum   'K1 Ba9 Ir4 O24'
_cell_volume   650.38396625
_cell_formula_units_Z   1
loop_
 _symmetry_equiv_pos_site_id
 _symmetry_equiv_pos_as_xyz
  1  'x, y, z'
loop_
 _atom_site_type_symbol
 _atom_site_label
 _atom_site_symmetry_multiplicity
 _atom_site_fract_x
 _atom_site_fract_y
 _atom_site_fract_z
 _atom_site_occupancy
  K  K0  1  0.499977  0.499977  0.999976  1
  Ba  Ba1  1  0.000074  0.000072  0.000140  1
  Ba  Ba2  1  0.452265  0.330497  0.286763  1
  Ba  Ba3  1  0.956559  0.452369  0.286773  1
  Ba  Ba4  1  0.330261  0.834455  0.286807  1
  Ba  Ba5  1  0.834569  0.956294  0.286826  1
  Ba  Ba6  1  0.165440  0.043653  0.713181  1
  Ba  Ba7  1  0.669813  0.165564  0.713200  1
  Ba  Ba8  1  0.043369  0.547602  0.713232  1
  Ba  Ba9  1  0.547743  0.669570  0.713247  1
  Ir  Ir10  1  0.500008  0.000006  0.000016  1
  Ir  Ir11  1  0.000008  0.500008  0.000016  1
  Ir  Ir12  1  0.240723  0.240739  0.481423  1
  Ir  Ir13  1  0.759305  0.759291  0.518629  1
  O  O14  1  0.308575  0.128833  0.000087  1
  O  O15  1  0.871043  0.308443  0.000017  1
  O  O16  1  0.128989  0.691593  0.000057  1
  O  O17  1  0.691472  0.871216  0.999996  1
  O  O18  1  0.664361  0.204205  0.146489  1
  O  O19  1  0.204039  0.482144  0.146619  1
  O  O20  1  0.942449  0.664487  0.146527  1
  O  O21  1  0.482238  0.942445  0.146636  1
  O  O22  1  0.135238  0.135327  0.270573  1
  O  O23  1  0.657013  0.656954  0.313968  1
  O  O24  1  0.461382  0.184338  0.472001  1
  O  O25  1  0.010662  0.287724  0.472093  1
  O  O26  1  0.287971  0.461538  0.472023  1
  O  O27  1  0.184178  0.010513  0.472027  1
  O  O28  1  0.815673  0.989076  0.527903  1
  O  O29  1  0.712112  0.538809  0.527910  1
  O  O30  1  0.988938  0.712356  0.527849  1
  O  O31  1  0.538963  0.815527  0.527936  1
  O  O32  1  0.342901  0.342958  0.685856  1
  O  O33  1  0.864750  0.864672  0.729411  1
  O  O34  1  0.517813  0.057524  0.853387  1
  O  O35  1  0.057498  0.335466  0.853484  1
  O  O36  1  0.796019  0.517908  0.853391  1
  O  O37  1  0.335612  0.795851  0.853537  1
