# generated using pymatgen
data_Lu10TlIn7Rh4
_symmetry_space_group_name_H-M   'P 1'
_cell_length_a   3.52105300
_cell_length_b   7.95288331
_cell_length_c   18.12455988
_cell_angle_alpha   90.07874474
_cell_angle_beta   90.00000000
_cell_angle_gamma   90.00000000
_symmetry_Int_Tables_number   1
_chemical_formula_structural   Lu10TlIn7Rh4
_chemical_formula_sum   'Lu10 Tl1 In7 Rh4'
_cell_volume   507.53293702
_cell_formula_units_Z   1
loop_
 _symmetry_equiv_pos_site_id
 _symmetry_equiv_pos_as_xyz
  1  'x, y, z'
loop_
 _atom_site_type_symbol
 _atom_site_label
 _atom_site_symmetry_multiplicity
 _atom_site_fract_x
 _atom_site_fract_y
 _atom_site_fract_z
 _atom_site_occupancy
  Lu  Lu0  1  0.000000  0.121397  0.912844  1
  Lu  Lu1  1  0.000000  0.754200  0.778190  1
  Lu  Lu2  1  0.000000  0.621975  0.586625  1
  Lu  Lu3  1  0.000000  0.254044  0.721316  1
  Lu  Lu4  1  0.000000  0.377868  0.413207  1
  Lu  Lu5  1  0.000000  0.246705  0.222115  1
  Lu  Lu6  1  0.000000  0.745861  0.278068  1
  Lu  Lu7  1  0.000000  0.878241  0.087737  1
  Lu  Lu8  1  0.000000  0.999751  0.499911  1
  Lu  Lu9  1  0.000000  0.498654  0.000218  1
  Tl  Tl10  1  0.500000  0.795619  0.934708  1
  In  In11  1  0.500000  0.564392  0.149214  1
  In  In12  1  0.500000  0.432688  0.850496  1
  In  In13  1  0.500000  0.064933  0.350897  1
  In  In14  1  0.500000  0.296511  0.566750  1
  In  In15  1  0.500000  0.934911  0.648987  1
  In  In16  1  0.500000  0.703529  0.432598  1
  In  In17  1  0.500000  0.203585  0.067300  1
  Rh  Rh18  1  0.500000  0.533945  0.695361  1
  Rh  Rh19  1  0.500000  0.466615  0.304649  1
  Rh  Rh20  1  0.500000  0.037140  0.803174  1
  Rh  Rh21  1  0.500000  0.967437  0.195635  1
