# generated using pymatgen
data_Ca2CeEr(NiB4)4
_symmetry_space_group_name_H-M   'P 1'
_cell_length_a   6.85032263
_cell_length_b   6.85032310
_cell_length_c   6.85032220
_cell_angle_alpha   112.85430962
_cell_angle_beta   112.85430762
_cell_angle_gamma   102.89832475
_symmetry_Int_Tables_number   1
_chemical_formula_structural   Ca2CeEr(NiB4)4
_chemical_formula_sum   'Ca2 Ce1 Er1 Ni4 B16'
_cell_volume   245.05963385
_cell_formula_units_Z   1
loop_
 _symmetry_equiv_pos_site_id
 _symmetry_equiv_pos_as_xyz
  1  'x, y, z'
loop_
 _atom_site_type_symbol
 _atom_site_label
 _atom_site_symmetry_multiplicity
 _atom_site_fract_x
 _atom_site_fract_y
 _atom_site_fract_z
 _atom_site_occupancy
  Ca  Ca0  1  0.796969  0.796969  0.000000  1
  Ca  Ca1  1  0.203031  0.203031  0.000000  1
  Ce  Ce2  1  0.250000  0.750000  0.500000  1
  Er  Er3  1  0.750000  0.250000  0.500000  1
  Ni  Ni4  1  0.271356  0.498765  0.772591  1
  Ni  Ni5  1  0.726174  0.498765  0.227409  1
  Ni  Ni6  1  0.501235  0.728644  0.227409  1
  Ni  Ni7  1  0.501235  0.273826  0.772591  1
  B  B8  1  0.276461  0.111550  0.389916  1
  B  B9  1  0.721635  0.886546  0.610084  1
  B  B10  1  0.276461  0.886546  0.164911  1
  B  B11  1  0.721635  0.111550  0.835089  1
  B  B12  1  0.113454  0.723539  0.835089  1
  B  B13  1  0.888450  0.278365  0.164911  1
  B  B14  1  0.113454  0.278365  0.389916  1
  B  B15  1  0.888450  0.723539  0.610084  1
  B  B16  1  0.111619  0.113370  0.528939  1
  B  B17  1  0.584429  0.582679  0.471061  1
  B  B18  1  0.111619  0.582679  0.998249  1
  B  B19  1  0.584429  0.113370  0.001751  1
  B  B20  1  0.886630  0.888381  0.471061  1
  B  B21  1  0.417321  0.415571  0.528939  1
  B  B22  1  0.886630  0.415571  0.998249  1
  B  B23  1  0.417321  0.888381  0.001751  1
