# generated using pymatgen
data_Y3ThCdTc
_symmetry_space_group_name_H-M   'P 1'
_cell_length_a   9.77499339
_cell_length_b   9.77499344
_cell_length_c   9.77499400
_cell_angle_alpha   60.00000486
_cell_angle_beta   60.00000471
_cell_angle_gamma   60.00000134
_symmetry_Int_Tables_number   1
_chemical_formula_structural   Y3ThCdTc
_chemical_formula_sum   'Y12 Th4 Cd4 Tc4'
_cell_volume   660.44169665
_cell_formula_units_Z   4
loop_
 _symmetry_equiv_pos_site_id
 _symmetry_equiv_pos_as_xyz
  1  'x, y, z'
loop_
 _atom_site_type_symbol
 _atom_site_label
 _atom_site_symmetry_multiplicity
 _atom_site_fract_x
 _atom_site_fract_y
 _atom_site_fract_z
 _atom_site_occupancy
  Y  Y0  1  0.809167  0.190833  0.190833  1
  Y  Y1  1  0.190833  0.809167  0.809167  1
  Y  Y2  1  0.190833  0.809167  0.190833  1
  Y  Y3  1  0.809167  0.190833  0.809167  1
  Y  Y4  1  0.190833  0.190833  0.809167  1
  Y  Y5  1  0.809167  0.809167  0.190833  1
  Y  Y6  1  0.939506  0.560494  0.560494  1
  Y  Y7  1  0.560494  0.939506  0.939506  1
  Y  Y8  1  0.560494  0.939506  0.560494  1
  Y  Y9  1  0.939506  0.560494  0.939506  1
  Y  Y10  1  0.560494  0.560494  0.939506  1
  Y  Y11  1  0.939506  0.939506  0.560494  1
  Th  Th12  1  0.345558  0.345558  0.345558  1
  Th  Th13  1  0.345558  0.345558  0.963325  1
  Th  Th14  1  0.345558  0.963325  0.345558  1
  Th  Th15  1  0.963325  0.345558  0.345558  1
  Cd  Cd16  1  0.580383  0.580383  0.580383  1
  Cd  Cd17  1  0.580383  0.580383  0.258850  1
  Cd  Cd18  1  0.580383  0.258850  0.580383  1
  Cd  Cd19  1  0.258850  0.580383  0.580383  1
  Tc  Tc20  1  0.141646  0.141646  0.141646  1
  Tc  Tc21  1  0.141646  0.141646  0.575062  1
  Tc  Tc22  1  0.141646  0.575062  0.141646  1
  Tc  Tc23  1  0.575062  0.141646  0.141646  1
