# generated using pymatgen
data_Pa2TeC2I
_symmetry_space_group_name_H-M   'P 1'
_cell_length_a   4.11857379
_cell_length_b   4.11857386
_cell_length_c   10.66116842
_cell_angle_alpha   87.23368191
_cell_angle_beta   87.23367910
_cell_angle_gamma   55.04464122
_symmetry_Int_Tables_number   1
_chemical_formula_structural   Pa2TeC2I
_chemical_formula_sum   'Pa2 Te1 C2 I1'
_cell_volume   147.99794722
_cell_formula_units_Z   1
loop_
 _symmetry_equiv_pos_site_id
 _symmetry_equiv_pos_as_xyz
  1  'x, y, z'
loop_
 _atom_site_type_symbol
 _atom_site_label
 _atom_site_symmetry_multiplicity
 _atom_site_fract_x
 _atom_site_fract_y
 _atom_site_fract_z
 _atom_site_occupancy
  Pa  Pa0  1  0.855624  0.855624  0.121663  1
  Pa  Pa1  1  0.144251  0.144251  0.868778  1
  Te  Te2  1  0.826666  0.826666  0.678686  1
  C  C3  1  0.420807  0.420807  0.965330  1
  C  C4  1  0.578669  0.578669  0.037530  1
  I  I5  1  0.173982  0.173982  0.328012  1
