# generated using pymatgen
data_Dy6TaCo16P12W
_symmetry_space_group_name_H-M   'P 1'
_cell_length_a   3.70564500
_cell_length_b   10.59245700
_cell_length_c   12.26782800
_cell_angle_alpha   90.00000000
_cell_angle_beta   90.00000000
_cell_angle_gamma   90.00000000
_symmetry_Int_Tables_number   1
_chemical_formula_structural   Dy6TaCo16P12W
_chemical_formula_sum   'Dy6 Ta1 Co16 P12 W1'
_cell_volume   481.53537778
_cell_formula_units_Z   1
loop_
 _symmetry_equiv_pos_site_id
 _symmetry_equiv_pos_as_xyz
  1  'x, y, z'
loop_
 _atom_site_type_symbol
 _atom_site_label
 _atom_site_symmetry_multiplicity
 _atom_site_fract_x
 _atom_site_fract_y
 _atom_site_fract_z
 _atom_site_occupancy
  Dy  Dy0  1  0.000000  0.500000  0.524975  1
  Dy  Dy1  1  0.500000  0.000000  0.473274  1
  Dy  Dy2  1  0.500000  0.819624  0.204726  1
  Dy  Dy3  1  0.500000  0.180376  0.204726  1
  Dy  Dy4  1  0.000000  0.679356  0.794769  1
  Dy  Dy5  1  0.000000  0.320644  0.794769  1
  Ta  Ta6  1  0.000000  0.000000  0.844698  1
  Co  Co7  1  0.500000  0.500000  0.701616  1
  Co  Co8  1  0.000000  0.000000  0.298169  1
  Co  Co9  1  0.000000  0.500000  0.988209  1
  Co  Co10  1  0.500000  0.000000  0.013624  1
  Co  Co11  1  0.500000  0.334416  0.992509  1
  Co  Co12  1  0.500000  0.665584  0.992509  1
  Co  Co13  1  0.000000  0.168882  0.009253  1
  Co  Co14  1  0.000000  0.831118  0.009253  1
  Co  Co15  1  0.500000  0.296282  0.431216  1
  Co  Co16  1  0.500000  0.703718  0.431216  1
  Co  Co17  1  0.000000  0.204752  0.567639  1
  Co  Co18  1  0.000000  0.795248  0.567639  1
  Co  Co19  1  0.500000  0.877644  0.706146  1
  Co  Co20  1  0.500000  0.122356  0.706146  1
  Co  Co21  1  0.000000  0.621445  0.293146  1
  Co  Co22  1  0.000000  0.378555  0.293146  1
  P  P23  1  0.500000  0.500000  0.881386  1
  P  P24  1  0.000000  0.000000  0.118528  1
  P  P25  1  0.500000  0.500000  0.351144  1
  P  P26  1  0.000000  0.000000  0.643713  1
  P  P27  1  0.500000  0.311572  0.615128  1
  P  P28  1  0.500000  0.688428  0.615128  1
  P  P29  1  0.000000  0.189351  0.383746  1
  P  P30  1  0.000000  0.810649  0.383746  1
  P  P31  1  0.500000  0.840213  0.894483  1
  P  P32  1  0.500000  0.159787  0.894483  1
  P  P33  1  0.000000  0.655397  0.108796  1
  P  P34  1  0.000000  0.344603  0.108796  1
  W  W35  1  0.500000  0.500000  0.157550  1
