# generated using pymatgen
data_SmY5CoBr10
_symmetry_space_group_name_H-M   'P 1'
_cell_length_a   7.37125970
_cell_length_b   9.13040972
_cell_length_c   9.27274906
_cell_angle_alpha   107.98815221
_cell_angle_beta   96.95312115
_cell_angle_gamma   104.67244703
_symmetry_Int_Tables_number   1
_chemical_formula_structural   SmY5CoBr10
_chemical_formula_sum   'Sm1 Y5 Co1 Br10'
_cell_volume   560.58924873
_cell_formula_units_Z   1
loop_
 _symmetry_equiv_pos_site_id
 _symmetry_equiv_pos_as_xyz
  1  'x, y, z'
loop_
 _atom_site_type_symbol
 _atom_site_label
 _atom_site_symmetry_multiplicity
 _atom_site_fract_x
 _atom_site_fract_y
 _atom_site_fract_z
 _atom_site_occupancy
  Sm  Sm0  1  0.031920  0.712790  0.411452  1
  Y  Y1  1  0.968118  0.282272  0.586900  1
  Y  Y2  1  0.878206  0.953311  0.744733  1
  Y  Y3  1  0.123026  0.046643  0.255777  1
  Y  Y4  1  0.356512  0.132191  0.677022  1
  Y  Y5  1  0.643645  0.869970  0.323556  1
  Co  Co6  1  0.000586  0.998561  0.499782  1
  Br  Br7  1  0.455974  0.822466  0.586304  1
  Br  Br8  1  0.548004  0.181181  0.416501  1
  Br  Br9  1  0.911588  0.627579  0.675302  1
  Br  Br10  1  0.085624  0.367559  0.328364  1
  Br  Br11  1  0.250081  0.085382  0.959103  1
  Br  Br12  1  0.751740  0.916484  0.041320  1
  Br  Br13  1  0.344964  0.449990  0.770638  1
  Br  Br14  1  0.645094  0.549888  0.226785  1
  Br  Br15  1  0.781563  0.254514  0.843544  1
  Br  Br16  1  0.223354  0.749216  0.152917  1
