# generated using pymatgen
data_SmLuTcB6
_symmetry_space_group_name_H-M   'P 1'
_cell_length_a   3.68046000
_cell_length_b   9.14777700
_cell_length_c   11.57729400
_cell_angle_alpha   90.00000000
_cell_angle_beta   90.00000000
_cell_angle_gamma   90.00000000
_symmetry_Int_Tables_number   1
_chemical_formula_structural   SmLuTcB6
_chemical_formula_sum   'Sm4 Lu4 Tc4 B24'
_cell_volume   389.78465089
_cell_formula_units_Z   4
loop_
 _symmetry_equiv_pos_site_id
 _symmetry_equiv_pos_as_xyz
  1  'x, y, z'
loop_
 _atom_site_type_symbol
 _atom_site_label
 _atom_site_symmetry_multiplicity
 _atom_site_fract_x
 _atom_site_fract_y
 _atom_site_fract_z
 _atom_site_occupancy
  Sm  Sm0  1  0.000000  0.323505  0.414385  1
  Sm  Sm1  1  0.000000  0.676495  0.585615  1
  Sm  Sm2  1  0.000000  0.823505  0.085615  1
  Sm  Sm3  1  0.000000  0.176495  0.914385  1
  Lu  Lu4  1  0.000000  0.943294  0.369806  1
  Lu  Lu5  1  0.000000  0.056706  0.630194  1
  Lu  Lu6  1  0.000000  0.443294  0.130194  1
  Lu  Lu7  1  0.000000  0.556706  0.869806  1
  Tc  Tc8  1  0.000000  0.640126  0.318822  1
  Tc  Tc9  1  0.000000  0.359874  0.681178  1
  Tc  Tc10  1  0.000000  0.140126  0.181178  1
  Tc  Tc11  1  0.000000  0.859874  0.818822  1
  B  B12  1  0.500000  0.554774  0.431009  1
  B  B13  1  0.500000  0.445226  0.568991  1
  B  B14  1  0.500000  0.054774  0.068991  1
  B  B15  1  0.500000  0.945226  0.931009  1
  B  B16  1  0.500000  0.750901  0.417022  1
  B  B17  1  0.500000  0.249099  0.582978  1
  B  B18  1  0.500000  0.250901  0.082978  1
  B  B19  1  0.500000  0.749099  0.917022  1
  B  B20  1  0.500000  0.792975  0.265930  1
  B  B21  1  0.500000  0.207025  0.734070  1
  B  B22  1  0.500000  0.292975  0.234070  1
  B  B23  1  0.500000  0.707025  0.765930  1
  B  B24  1  0.500000  0.630072  0.185072  1
  B  B25  1  0.500000  0.369928  0.814928  1
  B  B26  1  0.500000  0.130072  0.314928  1
  B  B27  1  0.500000  0.869928  0.685072  1
  B  B28  1  0.500000  0.983061  0.213589  1
  B  B29  1  0.500000  0.016939  0.786411  1
  B  B30  1  0.500000  0.483061  0.286411  1
  B  B31  1  0.500000  0.516939  0.713589  1
  B  B32  1  0.500000  0.597145  0.026702  1
  B  B33  1  0.500000  0.402855  0.973298  1
  B  B34  1  0.500000  0.097145  0.473298  1
  B  B35  1  0.500000  0.902855  0.526702  1
