# generated using pymatgen
data_Dy2Er3Tm5Bi6
_symmetry_space_group_name_H-M   'P 1'
_cell_length_a   8.20989300
_cell_length_b   9.45695600
_cell_length_c   11.95314800
_cell_angle_alpha   89.99680434
_cell_angle_beta   90.00000000
_cell_angle_gamma   90.00000000
_symmetry_Int_Tables_number   1
_chemical_formula_structural   Dy2Er3Tm5Bi6
_chemical_formula_sum   'Dy4 Er6 Tm10 Bi12'
_cell_volume   928.04954442
_cell_formula_units_Z   2
loop_
 _symmetry_equiv_pos_site_id
 _symmetry_equiv_pos_as_xyz
  1  'x, y, z'
loop_
 _atom_site_type_symbol
 _atom_site_label
 _atom_site_symmetry_multiplicity
 _atom_site_fract_x
 _atom_site_fract_y
 _atom_site_fract_z
 _atom_site_occupancy
  Dy  Dy0  1  0.312219  0.249995  0.218444  1
  Dy  Dy1  1  0.812219  0.250005  0.281556  1
  Dy  Dy2  1  0.687819  0.750035  0.781516  1
  Dy  Dy3  1  0.187819  0.749965  0.718484  1
  Er  Er4  1  0.352589  0.749964  0.216931  1
  Er  Er5  1  0.852589  0.750036  0.283069  1
  Er  Er6  1  0.647448  0.250033  0.783126  1
  Er  Er7  1  0.147448  0.249967  0.716874  1
  Er  Er8  1  0.692741  0.565424  0.059157  1
  Er  Er9  1  0.192741  0.934576  0.440843  1
  Tm  Tm10  1  0.307150  0.065704  0.940821  1
  Tm  Tm11  1  0.807150  0.434296  0.559179  1
  Tm  Tm12  1  0.307186  0.434279  0.940832  1
  Tm  Tm13  1  0.807186  0.065721  0.559168  1
  Tm  Tm14  1  0.692818  0.934389  0.059180  1
  Tm  Tm15  1  0.192818  0.565611  0.440820  1
  Tm  Tm16  1  0.476177  0.250027  0.488988  1
  Tm  Tm17  1  0.976177  0.249973  0.011012  1
  Tm  Tm18  1  0.523989  0.749940  0.511050  1
  Tm  Tm19  1  0.023989  0.750060  0.988950  1
  Bi  Bi20  1  0.405240  0.750088  0.958113  1
  Bi  Bi21  1  0.905240  0.749912  0.541887  1
  Bi  Bi22  1  0.594617  0.249746  0.041818  1
  Bi  Bi23  1  0.094617  0.250254  0.458182  1
  Bi  Bi24  1  0.565198  0.994819  0.325877  1
  Bi  Bi25  1  0.065198  0.505181  0.174123  1
  Bi  Bi26  1  0.434845  0.494812  0.674105  1
  Bi  Bi27  1  0.934845  0.005188  0.825895  1
  Bi  Bi28  1  0.434833  0.005172  0.674139  1
  Bi  Bi29  1  0.934833  0.494828  0.825861  1
  Bi  Bi30  1  0.565130  0.505176  0.325911  1
  Bi  Bi31  1  0.065130  0.994824  0.174089  1
