# generated using pymatgen
data_YbCeAsPt8
_symmetry_space_group_name_H-M   'P 1'
_cell_length_a   9.11247200
_cell_length_b   9.11258076
_cell_length_c   4.30929400
_cell_angle_alpha   90.00000000
_cell_angle_beta   90.00000000
_cell_angle_gamma   145.41429035
_symmetry_Int_Tables_number   1
_chemical_formula_structural   YbCeAsPt8
_chemical_formula_sum   'Yb1 Ce1 As1 Pt8'
_cell_volume   203.12131945
_cell_formula_units_Z   1
loop_
 _symmetry_equiv_pos_site_id
 _symmetry_equiv_pos_as_xyz
  1  'x, y, z'
loop_
 _atom_site_type_symbol
 _atom_site_label
 _atom_site_symmetry_multiplicity
 _atom_site_fract_x
 _atom_site_fract_y
 _atom_site_fract_z
 _atom_site_occupancy
  Yb  Yb0  1  0.624567  0.377535  0.500000  1
  Ce  Ce1  1  0.375066  0.626635  0.500000  1
  As  As2  1  0.235380  0.230773  0.000000  1
  Pt  Pt3  1  0.097991  0.870122  0.000000  1
  Pt  Pt4  1  0.884693  0.110538  0.000000  1
  Pt  Pt5  1  0.487762  0.981786  0.000000  1
  Pt  Pt6  1  0.987286  0.488453  0.000000  1
  Pt  Pt7  1  0.195470  0.790431  0.500000  1
  Pt  Pt8  1  0.788023  0.195588  0.500000  1
  Pt  Pt9  1  0.986491  0.987546  0.500000  1
  Pt  Pt10  1  0.650873  0.654191  0.000000  1
