# generated using pymatgen
data_Ca2PrNbO6
_symmetry_space_group_name_H-M   'P 1'
_cell_length_a   5.96383646
_cell_length_b   5.67621626
_cell_length_c   10.00030053
_cell_angle_alpha   55.59606262
_cell_angle_beta   89.40484438
_cell_angle_gamma   89.62383753
_symmetry_Int_Tables_number   1
_chemical_formula_structural   Ca2PrNbO6
_chemical_formula_sum   'Ca4 Pr2 Nb2 O12'
_cell_volume   279.29771386
_cell_formula_units_Z   2
loop_
 _symmetry_equiv_pos_site_id
 _symmetry_equiv_pos_as_xyz
  1  'x, y, z'
loop_
 _atom_site_type_symbol
 _atom_site_label
 _atom_site_symmetry_multiplicity
 _atom_site_fract_x
 _atom_site_fract_y
 _atom_site_fract_z
 _atom_site_occupancy
  Ca  Ca0  1  0.552085  0.272597  0.741503  1
  Ca  Ca1  1  0.447915  0.727403  0.258497  1
  Ca  Ca2  1  0.500000  0.500000  0.000000  1
  Ca  Ca3  1  0.000000  0.500000  0.500000  1
  Pr  Pr4  1  0.061289  0.727823  0.753827  1
  Pr  Pr5  1  0.938711  0.272177  0.246173  1
  Nb  Nb6  1  0.500000  0.000000  0.500000  1
  Nb  Nb7  1  0.000000  0.000000  0.000000  1
  O  O8  1  0.445740  0.893602  0.729291  1
  O  O9  1  0.554260  0.106398  0.270709  1
  O  O10  1  0.940195  0.112470  0.770508  1
  O  O11  1  0.059805  0.887530  0.229492  1
  O  O12  1  0.787946  0.762181  0.567809  1
  O  O13  1  0.212054  0.237819  0.432191  1
  O  O14  1  0.276667  0.255293  0.921357  1
  O  O15  1  0.723333  0.744707  0.078643  1
  O  O16  1  0.316624  0.657363  0.560010  1
  O  O17  1  0.683376  0.342637  0.439990  1
  O  O18  1  0.825493  0.344795  0.952628  1
  O  O19  1  0.174507  0.655205  0.047372  1
