# generated using pymatgen
data_Gd8Si13As
_symmetry_space_group_name_H-M   'P 1'
_cell_length_a   7.37525605
_cell_length_b   7.37525597
_cell_length_c   11.52674900
_cell_angle_alpha   89.74324527
_cell_angle_beta   89.74325304
_cell_angle_gamma   134.19311060
_symmetry_Int_Tables_number   1
_chemical_formula_structural   Gd8Si13As
_chemical_formula_sum   'Gd8 Si13 As1'
_cell_volume   449.51897445
_cell_formula_units_Z   1
loop_
 _symmetry_equiv_pos_site_id
 _symmetry_equiv_pos_as_xyz
  1  'x, y, z'
loop_
 _atom_site_type_symbol
 _atom_site_label
 _atom_site_symmetry_multiplicity
 _atom_site_fract_x
 _atom_site_fract_y
 _atom_site_fract_z
 _atom_site_occupancy
  Gd  Gd0  1  0.510994  0.002469  0.122040  1
  Gd  Gd1  1  0.006960  0.514610  0.877471  1
  Gd  Gd2  1  0.485390  0.993040  0.622529  1
  Gd  Gd3  1  0.997531  0.489006  0.377960  1
  Gd  Gd4  1  0.496420  0.503580  0.250000  1
  Gd  Gd5  1  0.502948  0.497052  0.750000  1
  Gd  Gd6  1  0.997804  0.996575  0.498894  1
  Gd  Gd7  1  0.003425  0.002196  0.001106  1
  Si  Si8  1  0.580277  0.405309  0.489994  1
  Si  Si9  1  0.412329  0.583131  0.506003  1
  Si  Si10  1  0.416869  0.587671  0.993997  1
  Si  Si11  1  0.594691  0.419723  0.010006  1
  Si  Si12  1  0.586795  0.924923  0.371642  1
  Si  Si13  1  0.913444  0.576009  0.622778  1
  Si  Si14  1  0.423991  0.086556  0.877222  1
  Si  Si15  1  0.075077  0.413205  0.128358  1
  Si  Si16  1  0.364135  0.050769  0.354152  1
  Si  Si17  1  0.055088  0.370188  0.642037  1
  Si  Si18  1  0.629812  0.944912  0.857963  1
  Si  Si19  1  0.949231  0.635865  0.145848  1
  Si  Si20  1  0.932185  0.067815  0.250000  1
  As  As21  1  0.064605  0.935395  0.750000  1
