# generated using pymatgen
data_Gd8Co(Si4Ag)3
_symmetry_space_group_name_H-M   'P 1'
_cell_length_a   8.18675700
_cell_length_b   8.18675715
_cell_length_c   8.21881800
_cell_angle_alpha   90.00000000
_cell_angle_beta   90.00000000
_cell_angle_gamma   119.99999535
_symmetry_Int_Tables_number   1
_chemical_formula_structural   Gd8Co(Si4Ag)3
_chemical_formula_sum   'Gd8 Co1 Si12 Ag3'
_cell_volume   477.04991535
_cell_formula_units_Z   1
loop_
 _symmetry_equiv_pos_site_id
 _symmetry_equiv_pos_as_xyz
  1  'x, y, z'
loop_
 _atom_site_type_symbol
 _atom_site_label
 _atom_site_symmetry_multiplicity
 _atom_site_fract_x
 _atom_site_fract_y
 _atom_site_fract_z
 _atom_site_occupancy
  Gd  Gd0  1  0.496278  0.992555  0.244144  1
  Gd  Gd1  1  0.495214  0.990428  0.756372  1
  Gd  Gd2  1  0.007445  0.503722  0.244144  1
  Gd  Gd3  1  0.009572  0.504786  0.756372  1
  Gd  Gd4  1  0.496278  0.503722  0.244144  1
  Gd  Gd5  1  0.495214  0.504786  0.756372  1
  Gd  Gd6  1  0.000000  0.000000  0.248197  1
  Gd  Gd7  1  0.000000  0.000000  0.750995  1
  Co  Co8  1  0.333333  0.666667  0.000960  1
  Si  Si9  1  0.173927  0.347854  0.001126  1
  Si  Si10  1  0.839581  0.679161  0.999033  1
  Si  Si11  1  0.652146  0.826073  0.001126  1
  Si  Si12  1  0.836641  0.673281  0.496591  1
  Si  Si13  1  0.320839  0.160419  0.999033  1
  Si  Si14  1  0.162736  0.325474  0.502210  1
  Si  Si15  1  0.173927  0.826073  0.001126  1
  Si  Si16  1  0.326719  0.163359  0.496591  1
  Si  Si17  1  0.839581  0.160419  0.999033  1
  Si  Si18  1  0.674526  0.837264  0.502210  1
  Si  Si19  1  0.836641  0.163359  0.496591  1
  Si  Si20  1  0.162736  0.837264  0.502210  1
  Ag  Ag21  1  0.666667  0.333333  0.998948  1
  Ag  Ag22  1  0.666667  0.333333  0.503724  1
  Ag  Ag23  1  0.333333  0.666667  0.498746  1
