# generated using pymatgen
data_Y3Er2SnSb2
_symmetry_space_group_name_H-M   'P 1'
_cell_length_a   6.39798802
_cell_length_b   8.94253550
_cell_length_c   8.95189905
_cell_angle_alpha   120.02471567
_cell_angle_beta   89.99151668
_cell_angle_gamma   90.00078224
_symmetry_Int_Tables_number   1
_chemical_formula_structural   Y3Er2SnSb2
_chemical_formula_sum   'Y6 Er4 Sn2 Sb4'
_cell_volume   443.44695978
_cell_formula_units_Z   2
loop_
 _symmetry_equiv_pos_site_id
 _symmetry_equiv_pos_as_xyz
  1  'x, y, z'
loop_
 _atom_site_type_symbol
 _atom_site_label
 _atom_site_symmetry_multiplicity
 _atom_site_fract_x
 _atom_site_fract_y
 _atom_site_fract_z
 _atom_site_occupancy
  Y  Y0  1  0.750008  0.246130  0.001752  1
  Y  Y1  1  0.749987  0.753945  0.755683  1
  Y  Y2  1  0.749977  0.000053  0.243911  1
  Y  Y3  1  0.249977  0.754269  0.999102  1
  Y  Y4  1  0.249974  0.245748  0.244821  1
  Y  Y5  1  0.249983  0.000052  0.753952  1
  Er  Er6  1  0.499536  0.334356  0.667191  1
  Er  Er7  1  0.499579  0.665602  0.332764  1
  Er  Er8  1  0.000284  0.665642  0.332828  1
  Er  Er9  1  0.000330  0.334280  0.667171  1
  Sn  Sn10  1  0.750172  0.608678  0.000540  1
  Sn  Sn11  1  0.750225  0.391217  0.391770  1
  Sb  Sb12  1  0.749978  0.999997  0.609265  1
  Sb  Sb13  1  0.249992  0.390370  0.999674  1
  Sb  Sb14  1  0.249997  0.609654  0.609319  1
  Sb  Sb15  1  0.250005  0.000007  0.390256  1
