# generated using pymatgen
data_ErBeRu2C
_symmetry_space_group_name_H-M   'P 1'
_cell_length_a   5.64957593
_cell_length_b   5.64957751
_cell_length_c   6.98446500
_cell_angle_alpha   90.00000000
_cell_angle_beta   90.00000000
_cell_angle_gamma   140.97210572
_symmetry_Int_Tables_number   1
_chemical_formula_structural   ErBeRu2C
_chemical_formula_sum   'Er2 Be2 Ru4 C2'
_cell_volume   140.37757665
_cell_formula_units_Z   2
loop_
 _symmetry_equiv_pos_site_id
 _symmetry_equiv_pos_as_xyz
  1  'x, y, z'
loop_
 _atom_site_type_symbol
 _atom_site_label
 _atom_site_symmetry_multiplicity
 _atom_site_fract_x
 _atom_site_fract_y
 _atom_site_fract_z
 _atom_site_occupancy
  Er  Er0  1  0.544554  0.455446  0.250000  1
  Er  Er1  1  0.455446  0.544554  0.750000  1
  Be  Be2  1  0.271516  0.728484  0.250000  1
  Be  Be3  1  0.728484  0.271516  0.750000  1
  Ru  Ru4  1  0.827030  0.172970  0.056856  1
  Ru  Ru5  1  0.172970  0.827030  0.943144  1
  Ru  Ru6  1  0.172970  0.827030  0.556856  1
  Ru  Ru7  1  0.827030  0.172970  0.443144  1
  C  C8  1  0.000000  0.000000  0.000000  1
  C  C9  1  0.000000  0.000000  0.500000  1
