# generated using pymatgen
data_SmCd(CuPt)2
_symmetry_space_group_name_H-M   'P 1'
_cell_length_a   5.12714199
_cell_length_b   5.25182228
_cell_length_c   5.25182249
_cell_angle_alpha   63.49337896
_cell_angle_beta   60.78226312
_cell_angle_gamma   60.78226237
_symmetry_Int_Tables_number   1
_chemical_formula_structural   SmCd(CuPt)2
_chemical_formula_sum   'Sm1 Cd1 Cu2 Pt2'
_cell_volume   103.62492963
_cell_formula_units_Z   1
loop_
 _symmetry_equiv_pos_site_id
 _symmetry_equiv_pos_as_xyz
  1  'x, y, z'
loop_
 _atom_site_type_symbol
 _atom_site_label
 _atom_site_symmetry_multiplicity
 _atom_site_fract_x
 _atom_site_fract_y
 _atom_site_fract_z
 _atom_site_occupancy
  Sm  Sm0  1  0.253081  0.246919  0.246919  1
  Cd  Cd1  1  0.007487  0.992513  0.992513  1
  Cu  Cu2  1  0.122174  0.628559  0.628559  1
  Cu  Cu3  1  0.620709  0.628559  0.628559  1
  Pt  Pt4  1  0.623275  0.628059  0.125393  1
  Pt  Pt5  1  0.623275  0.125393  0.628059  1
