# generated using pymatgen
data_Tb5Er7Th4(MgRh)4
_symmetry_space_group_name_H-M   'P 1'
_cell_length_a   9.78436059
_cell_length_b   9.76444604
_cell_length_c   9.76444589
_cell_angle_alpha   59.93866255
_cell_angle_beta   59.93251096
_cell_angle_gamma   59.93251074
_symmetry_Int_Tables_number   1
_chemical_formula_structural   Tb5Er7Th4(MgRh)4
_chemical_formula_sum   'Tb5 Er7 Th4 Mg4 Rh4'
_cell_volume   658.66953046
_cell_formula_units_Z   1
loop_
 _symmetry_equiv_pos_site_id
 _symmetry_equiv_pos_as_xyz
  1  'x, y, z'
loop_
 _atom_site_type_symbol
 _atom_site_label
 _atom_site_symmetry_multiplicity
 _atom_site_fract_x
 _atom_site_fract_y
 _atom_site_fract_z
 _atom_site_occupancy
  Tb  Tb0  1  0.564647  0.935353  0.935353  1
  Tb  Tb1  1  0.565863  0.935033  0.565271  1
  Tb  Tb2  1  0.933833  0.565271  0.935033  1
  Tb  Tb3  1  0.565863  0.565271  0.935033  1
  Tb  Tb4  1  0.933833  0.935033  0.565271  1
  Er  Er5  1  0.813243  0.186757  0.186757  1
  Er  Er6  1  0.185434  0.814566  0.814566  1
  Er  Er7  1  0.185797  0.813597  0.186725  1
  Er  Er8  1  0.813880  0.186725  0.813597  1
  Er  Er9  1  0.185797  0.186725  0.813597  1
  Er  Er10  1  0.813880  0.813597  0.186725  1
  Er  Er11  1  0.934561  0.565439  0.565439  1
  Th  Th12  1  0.347506  0.348744  0.348744  1
  Th  Th13  1  0.348480  0.349876  0.953166  1
  Th  Th14  1  0.348480  0.953166  0.349876  1
  Th  Th15  1  0.955007  0.348744  0.348744  1
  Mg  Mg16  1  0.581393  0.579763  0.579763  1
  Mg  Mg17  1  0.580579  0.579320  0.259523  1
  Mg  Mg18  1  0.580579  0.259523  0.579320  1
  Mg  Mg19  1  0.259083  0.579763  0.579763  1
  Rh  Rh20  1  0.145283  0.143210  0.143210  1
  Rh  Rh21  1  0.144343  0.142977  0.568334  1
  Rh  Rh22  1  0.144343  0.568334  0.142977  1
  Rh  Rh23  1  0.568294  0.143210  0.143210  1
