# generated using pymatgen
data_Tb2NdGa9Pd2
_symmetry_space_group_name_H-M   'P 1'
_cell_length_a   8.23010941
_cell_length_b   8.23010909
_cell_length_c   8.23011041
_cell_angle_alpha   149.47508058
_cell_angle_beta   109.32466267
_cell_angle_gamma   78.91127459
_symmetry_Int_Tables_number   1
_chemical_formula_structural   Tb2NdGa9Pd2
_chemical_formula_sum   'Tb2 Nd1 Ga9 Pd2'
_cell_volume   262.14239663
_cell_formula_units_Z   1
loop_
 _symmetry_equiv_pos_site_id
 _symmetry_equiv_pos_as_xyz
  1  'x, y, z'
loop_
 _atom_site_type_symbol
 _atom_site_label
 _atom_site_symmetry_multiplicity
 _atom_site_fract_x
 _atom_site_fract_y
 _atom_site_fract_z
 _atom_site_occupancy
  Tb  Tb0  1  0.197699  0.197699  0.000000  1
  Tb  Tb1  1  0.802301  0.802301  0.000000  1
  Nd  Nd2  1  0.500000  0.500000  0.000000  1
  Ga  Ga3  1  0.643945  0.360424  0.283522  1
  Ga  Ga4  1  0.356055  0.639576  0.716478  1
  Ga  Ga5  1  0.076902  0.360424  0.716478  1
  Ga  Ga6  1  0.923098  0.639576  0.283522  1
  Ga  Ga7  1  0.523268  0.158194  0.365072  1
  Ga  Ga8  1  0.476732  0.841806  0.634928  1
  Ga  Ga9  1  0.793123  0.158194  0.634928  1
  Ga  Ga10  1  0.206877  0.841806  0.365072  1
  Ga  Ga11  1  0.000000  0.500000  0.500000  1
  Pd  Pd12  1  0.185787  0.000000  0.185787  1
  Pd  Pd13  1  0.814213  0.000000  0.814213  1
