# generated using pymatgen
data_Er2MgCu9
_symmetry_space_group_name_H-M   'P 1'
_cell_length_a   5.06643300
_cell_length_b   5.06643302
_cell_length_c   16.24120800
_cell_angle_alpha   90.00000000
_cell_angle_beta   90.00000000
_cell_angle_gamma   119.99999332
_symmetry_Int_Tables_number   1
_chemical_formula_structural   Er2MgCu9
_chemical_formula_sum   'Er4 Mg2 Cu18'
_cell_volume   361.03856875
_cell_formula_units_Z   2
loop_
 _symmetry_equiv_pos_site_id
 _symmetry_equiv_pos_as_xyz
  1  'x, y, z'
loop_
 _atom_site_type_symbol
 _atom_site_label
 _atom_site_symmetry_multiplicity
 _atom_site_fract_x
 _atom_site_fract_y
 _atom_site_fract_z
 _atom_site_occupancy
  Er  Er0  1  0.666667  0.333333  0.238867  1
  Er  Er1  1  0.333333  0.666667  0.738867  1
  Er  Er2  1  0.666667  0.333333  0.467746  1
  Er  Er3  1  0.333333  0.666667  0.967746  1
  Mg  Mg4  1  0.666667  0.333333  0.037416  1
  Mg  Mg5  1  0.333333  0.666667  0.537416  1
  Cu  Cu6  1  0.333333  0.666667  0.250333  1
  Cu  Cu7  1  0.666667  0.333333  0.750333  1
  Cu  Cu8  1  0.168509  0.831491  0.375956  1
  Cu  Cu9  1  0.168509  0.337019  0.375956  1
  Cu  Cu10  1  0.000000  0.000000  0.752270  1
  Cu  Cu11  1  0.000000  0.000000  0.252270  1
  Cu  Cu12  1  0.000000  0.000000  0.001120  1
  Cu  Cu13  1  0.000000  0.000000  0.501120  1
  Cu  Cu14  1  0.166515  0.333029  0.124794  1
  Cu  Cu15  1  0.833485  0.166515  0.624794  1
  Cu  Cu16  1  0.333029  0.166515  0.624794  1
  Cu  Cu17  1  0.666971  0.833485  0.124794  1
  Cu  Cu18  1  0.166515  0.833485  0.124794  1
  Cu  Cu19  1  0.831491  0.662981  0.875956  1
  Cu  Cu20  1  0.831491  0.168509  0.875956  1
  Cu  Cu21  1  0.833485  0.666971  0.624794  1
  Cu  Cu22  1  0.337019  0.168509  0.875956  1
  Cu  Cu23  1  0.662981  0.831491  0.375956  1
