# generated using pymatgen
data_LaCeHf2O7
_symmetry_space_group_name_H-M   'P 1'
_cell_length_a   7.60841280
_cell_length_b   7.62766532
_cell_length_c   7.62766610
_cell_angle_alpha   60.05265402
_cell_angle_beta   60.08346463
_cell_angle_gamma   60.08346472
_symmetry_Int_Tables_number   1
_chemical_formula_structural   LaCeHf2O7
_chemical_formula_sum   'La2 Ce2 Hf4 O14'
_cell_volume   313.53214318
_cell_formula_units_Z   2
loop_
 _symmetry_equiv_pos_site_id
 _symmetry_equiv_pos_as_xyz
  1  'x, y, z'
loop_
 _atom_site_type_symbol
 _atom_site_label
 _atom_site_symmetry_multiplicity
 _atom_site_fract_x
 _atom_site_fract_y
 _atom_site_fract_z
 _atom_site_occupancy
  La  La0  1  0.125000  0.625000  0.125000  1
  La  La1  1  0.125000  0.125000  0.625000  1
  Ce  Ce2  1  0.625000  0.125000  0.125000  1
  Ce  Ce3  1  0.125000  0.125000  0.125000  1
  Hf  Hf4  1  0.625000  0.125000  0.625000  1
  Hf  Hf5  1  0.625000  0.625000  0.125000  1
  Hf  Hf6  1  0.125000  0.625000  0.625000  1
  Hf  Hf7  1  0.625000  0.625000  0.625000  1
  O  O8  1  0.997252  0.002748  0.002748  1
  O  O9  1  0.252748  0.247252  0.247252  1
  O  O10  1  0.293931  0.294451  0.706464  1
  O  O11  1  0.544846  0.543536  0.955549  1
  O  O12  1  0.705154  0.294451  0.706464  1
  O  O13  1  0.705896  0.294104  0.294104  1
  O  O14  1  0.294490  0.705510  0.705510  1
  O  O15  1  0.293931  0.706464  0.294451  1
  O  O16  1  0.705154  0.706464  0.294451  1
  O  O17  1  0.955510  0.544490  0.544490  1
  O  O18  1  0.544104  0.955896  0.955896  1
  O  O19  1  0.956069  0.955549  0.543536  1
  O  O20  1  0.956069  0.543536  0.955549  1
  O  O21  1  0.544846  0.955549  0.543536  1
