# generated using pymatgen
data_CeTmCr2F14
_symmetry_space_group_name_H-M   'P 1'
_cell_length_a   5.61575773
_cell_length_b   5.84456432
_cell_length_c   8.06493491
_cell_angle_alpha   102.04927043
_cell_angle_beta   90.51156063
_cell_angle_gamma   89.69609538
_symmetry_Int_Tables_number   1
_chemical_formula_structural   CeTmCr2F14
_chemical_formula_sum   'Ce1 Tm1 Cr2 F14'
_cell_volume   258.86075853
_cell_formula_units_Z   1
loop_
 _symmetry_equiv_pos_site_id
 _symmetry_equiv_pos_as_xyz
  1  'x, y, z'
loop_
 _atom_site_type_symbol
 _atom_site_label
 _atom_site_symmetry_multiplicity
 _atom_site_fract_x
 _atom_site_fract_y
 _atom_site_fract_z
 _atom_site_occupancy
  Ce  Ce0  1  0.700332  0.653047  0.690830  1
  Tm  Tm1  1  0.201289  0.325991  0.300634  1
  Cr  Cr2  1  0.710426  0.812373  0.226361  1
  Cr  Cr3  1  0.207336  0.187838  0.775104  1
  F  F4  1  0.895478  0.453841  0.477801  1
  F  F5  1  0.398684  0.543745  0.511724  1
  F  F6  1  0.425644  0.926479  0.769046  1
  F  F7  1  0.920234  0.061790  0.231926  1
  F  F8  1  0.946318  0.961179  0.758312  1
  F  F9  1  0.457878  0.031312  0.238792  1
  F  F10  1  0.993471  0.453478  0.794776  1
  F  F11  1  0.500469  0.565062  0.211745  1
  F  F12  1  0.703417  0.769930  0.994640  1
  F  F13  1  0.203685  0.236908  0.020898  1
  F  F14  1  0.712210  0.872561  0.459211  1
  F  F15  1  0.210901  0.140816  0.530481  1
  F  F16  1  0.487755  0.388854  0.791700  1
  F  F17  1  0.977192  0.614795  0.216018  1
