# generated using pymatgen
data_Hf2ZrSc5(InAu2)4
_symmetry_space_group_name_H-M   'P 1'
_cell_length_a   7.63395813
_cell_length_b   7.63505144
_cell_length_c   7.06953000
_cell_angle_alpha   90.00000000
_cell_angle_beta   90.00000000
_cell_angle_gamma   89.83870072
_symmetry_Int_Tables_number   1
_chemical_formula_structural   Hf2ZrSc5(InAu2)4
_chemical_formula_sum   'Hf2 Zr1 Sc5 In4 Au8'
_cell_volume   412.05061042
_cell_formula_units_Z   1
loop_
 _symmetry_equiv_pos_site_id
 _symmetry_equiv_pos_as_xyz
  1  'x, y, z'
loop_
 _atom_site_type_symbol
 _atom_site_label
 _atom_site_symmetry_multiplicity
 _atom_site_fract_x
 _atom_site_fract_y
 _atom_site_fract_z
 _atom_site_occupancy
  Hf  Hf0  1  0.852922  0.857737  0.000000  1
  Hf  Hf1  1  0.686984  0.312198  0.000000  1
  Zr  Zr2  1  0.144042  0.148565  0.000000  1
  Sc  Sc3  1  0.647934  0.352495  0.500000  1
  Sc  Sc4  1  0.351627  0.648676  0.500000  1
  Sc  Sc5  1  0.312012  0.687122  0.000000  1
  Sc  Sc6  1  0.814504  0.811888  0.500000  1
  Sc  Sc7  1  0.187342  0.184743  0.500000  1
  In  In8  1  0.499434  0.998997  0.243729  1
  In  In9  1  0.499434  0.998997  0.756271  1
  In  In10  1  0.001086  0.499234  0.243739  1
  In  In11  1  0.001086  0.499234  0.756261  1
  Au  Au12  1  0.371222  0.369723  0.213498  1
  Au  Au13  1  0.633349  0.631749  0.788923  1
  Au  Au14  1  0.633349  0.631749  0.211077  1
  Au  Au15  1  0.866316  0.131129  0.710101  1
  Au  Au16  1  0.866316  0.131129  0.289899  1
  Au  Au17  1  0.371222  0.369723  0.786502  1
  Au  Au18  1  0.129909  0.867457  0.288018  1
  Au  Au19  1  0.129909  0.867457  0.711982  1
