# generated using pymatgen
data_Ho2Th2Ga12Tc
_symmetry_space_group_name_H-M   'P 1'
_cell_length_a   7.61424609
_cell_length_b   7.53702147
_cell_length_c   7.53702106
_cell_angle_alpha   109.18164451
_cell_angle_beta   109.40922080
_cell_angle_gamma   109.40923232
_symmetry_Int_Tables_number   1
_chemical_formula_structural   Ho2Th2Ga12Tc
_chemical_formula_sum   'Ho2 Th2 Ga12 Tc1'
_cell_volume   334.65688073
_cell_formula_units_Z   1
loop_
 _symmetry_equiv_pos_site_id
 _symmetry_equiv_pos_as_xyz
  1  'x, y, z'
loop_
 _atom_site_type_symbol
 _atom_site_label
 _atom_site_symmetry_multiplicity
 _atom_site_fract_x
 _atom_site_fract_y
 _atom_site_fract_z
 _atom_site_occupancy
  Ho  Ho0  1  0.500000  0.000000  0.000000  1
  Ho  Ho1  1  0.500000  0.500000  0.500000  1
  Th  Th2  1  0.000000  0.000000  0.500000  1
  Th  Th3  1  0.000000  0.500000  0.000000  1
  Ga  Ga4  1  0.743669  0.249795  0.493874  1
  Ga  Ga5  1  0.743669  0.493874  0.249795  1
  Ga  Ga6  1  0.500000  0.250000  0.750000  1
  Ga  Ga7  1  0.256331  0.506126  0.750205  1
  Ga  Ga8  1  0.256331  0.750205  0.506126  1
  Ga  Ga9  1  0.500000  0.750000  0.250000  1
  Ga  Ga10  1  0.704149  0.708522  0.995627  1
  Ga  Ga11  1  0.295851  0.004373  0.291478  1
  Ga  Ga12  1  0.000000  0.291965  0.291965  1
  Ga  Ga13  1  0.295851  0.291478  0.004373  1
  Ga  Ga14  1  0.704149  0.995627  0.708522  1
  Ga  Ga15  1  0.000000  0.708035  0.708035  1
  Tc  Tc16  1  0.000000  0.000000  0.000000  1
