# generated using pymatgen
data_YHoEr14(Ga3Co)2
_symmetry_space_group_name_H-M   'P 1'
_cell_length_a   9.93281700
_cell_length_b   9.93281738
_cell_length_c   6.86556900
_cell_angle_alpha   90.00000000
_cell_angle_beta   90.00000000
_cell_angle_gamma   120.00000207
_symmetry_Int_Tables_number   1
_chemical_formula_structural   YHoEr14(Ga3Co)2
_chemical_formula_sum   'Y1 Ho1 Er14 Ga6 Co2'
_cell_volume   586.61348699
_cell_formula_units_Z   1
loop_
 _symmetry_equiv_pos_site_id
 _symmetry_equiv_pos_as_xyz
  1  'x, y, z'
loop_
 _atom_site_type_symbol
 _atom_site_label
 _atom_site_symmetry_multiplicity
 _atom_site_fract_x
 _atom_site_fract_y
 _atom_site_fract_z
 _atom_site_occupancy
  Y  Y0  1  0.000000  0.000000  0.770184  1
  Ho  Ho1  1  0.000000  0.000000  0.270066  1
  Er  Er2  1  0.173458  0.826542  0.991337  1
  Er  Er3  1  0.826550  0.173450  0.491281  1
  Er  Er4  1  0.173458  0.346915  0.991337  1
  Er  Er5  1  0.653085  0.826542  0.991337  1
  Er  Er6  1  0.346899  0.173450  0.491281  1
  Er  Er7  1  0.826550  0.653101  0.491281  1
  Er  Er8  1  0.333333  0.666667  0.672119  1
  Er  Er9  1  0.666667  0.333333  0.172123  1
  Er  Er10  1  0.464115  0.535885  0.292854  1
  Er  Er11  1  0.535884  0.464116  0.792843  1
  Er  Er12  1  0.464115  0.928229  0.292854  1
  Er  Er13  1  0.071771  0.535885  0.292854  1
  Er  Er14  1  0.928232  0.464116  0.792843  1
  Er  Er15  1  0.535884  0.071768  0.792843  1
  Ga  Ga16  1  0.163695  0.836305  0.540002  1
  Ga  Ga17  1  0.836310  0.163690  0.040034  1
  Ga  Ga18  1  0.163695  0.327392  0.540002  1
  Ga  Ga19  1  0.672608  0.836305  0.540002  1
  Ga  Ga20  1  0.327380  0.163690  0.040034  1
  Ga  Ga21  1  0.836310  0.672620  0.040034  1
  Co  Co22  1  0.333333  0.666667  0.058272  1
  Co  Co23  1  0.666667  0.333333  0.558308  1
