# generated using pymatgen
data_Zr3Ti3BSb2
_symmetry_space_group_name_H-M   'P 1'
_cell_length_a   7.21667900
_cell_length_b   7.21667895
_cell_length_c   3.74726300
_cell_angle_alpha   90.00000000
_cell_angle_beta   90.00000000
_cell_angle_gamma   120.00000481
_symmetry_Int_Tables_number   1
_chemical_formula_structural   Zr3Ti3BSb2
_chemical_formula_sum   'Zr3 Ti3 B1 Sb2'
_cell_volume   169.01278534
_cell_formula_units_Z   1
loop_
 _symmetry_equiv_pos_site_id
 _symmetry_equiv_pos_as_xyz
  1  'x, y, z'
loop_
 _atom_site_type_symbol
 _atom_site_label
 _atom_site_symmetry_multiplicity
 _atom_site_fract_x
 _atom_site_fract_y
 _atom_site_fract_z
 _atom_site_occupancy
  Zr  Zr0  1  0.000000  0.376667  0.500000  1
  Zr  Zr1  1  0.623333  0.623333  0.500000  1
  Zr  Zr2  1  0.376667  0.000000  0.500000  1
  Ti  Ti3  1  0.000000  0.781946  0.000000  1
  Ti  Ti4  1  0.218054  0.218054  0.000000  1
  Ti  Ti5  1  0.781946  0.000000  0.000000  1
  B  B6  1  0.000000  0.000000  0.500000  1
  Sb  Sb7  1  0.333333  0.666667  0.000000  1
  Sb  Sb8  1  0.666667  0.333333  0.000000  1
