# generated using pymatgen
data_Ho3Lu17(Pd2Ru)4
_symmetry_space_group_name_H-M   'P 1'
_cell_length_a   10.89070901
_cell_length_b   10.89576679
_cell_length_c   6.48652500
_cell_angle_alpha   89.97320776
_cell_angle_beta   89.99821127
_cell_angle_gamma   89.98105792
_symmetry_Int_Tables_number   1
_chemical_formula_structural   Ho3Lu17(Pd2Ru)4
_chemical_formula_sum   'Ho3 Lu17 Pd8 Ru4'
_cell_volume   769.70796004
_cell_formula_units_Z   1
loop_
 _symmetry_equiv_pos_site_id
 _symmetry_equiv_pos_as_xyz
  1  'x, y, z'
loop_
 _atom_site_type_symbol
 _atom_site_label
 _atom_site_symmetry_multiplicity
 _atom_site_fract_x
 _atom_site_fract_y
 _atom_site_fract_z
 _atom_site_occupancy
  Ho  Ho0  1  0.914539  0.297657  0.627103  1
  Ho  Ho1  1  0.084913  0.702628  0.627036  1
  Ho  Ho2  1  0.085383  0.297660  0.127125  1
  Lu  Lu3  1  0.299186  0.083772  0.375125  1
  Lu  Lu4  1  0.299301  0.916089  0.875180  1
  Lu  Lu5  1  0.700652  0.083801  0.874732  1
  Lu  Lu6  1  0.701268  0.915600  0.374539  1
  Lu  Lu7  1  0.584362  0.798711  0.874647  1
  Lu  Lu8  1  0.584267  0.201198  0.374547  1
  Lu  Lu9  1  0.415786  0.798834  0.374397  1
  Lu  Lu10  1  0.415786  0.201280  0.874313  1
  Lu  Lu11  1  0.202619  0.415545  0.625398  1
  Lu  Lu12  1  0.202043  0.585007  0.125507  1
  Lu  Lu13  1  0.797510  0.416396  0.125492  1
  Lu  Lu14  1  0.797487  0.585066  0.625377  1
  Lu  Lu15  1  0.914897  0.701442  0.125592  1
  Lu  Lu16  1  0.999845  0.999829  0.499124  1
  Lu  Lu17  1  0.999632  0.999279  0.999396  1
  Lu  Lu18  1  0.499970  0.500091  0.999962  1
  Lu  Lu19  1  0.500123  0.500204  0.499757  1
  Pd  Pd20  1  0.845600  0.150944  0.247447  1
  Pd  Pd21  1  0.846048  0.848133  0.750575  1
  Pd  Pd22  1  0.154190  0.150730  0.747451  1
  Pd  Pd23  1  0.153230  0.848238  0.246858  1
  Pd  Pd24  1  0.650786  0.347758  0.750961  1
  Pd  Pd25  1  0.652613  0.652586  0.249880  1
  Pd  Pd26  1  0.349321  0.347645  0.251007  1
  Pd  Pd27  1  0.349224  0.652422  0.750824  1
  Ru  Ru28  1  0.500187  0.999933  0.125382  1
  Ru  Ru29  1  0.500043  0.999832  0.625335  1
  Ru  Ru30  1  0.999607  0.500937  0.875505  1
  Ru  Ru31  1  0.999580  0.500756  0.374427  1
