# generated using pymatgen
data_Li12Ca6Si4N
_symmetry_space_group_name_H-M   'P 1'
_cell_length_a   8.40870879
_cell_length_b   8.40870963
_cell_length_c   8.40870900
_cell_angle_alpha   109.47121190
_cell_angle_beta   109.47121392
_cell_angle_gamma   109.47122873
_symmetry_Int_Tables_number   1
_chemical_formula_structural   Li12Ca6Si4N
_chemical_formula_sum   'Li12 Ca6 Si4 N1'
_cell_volume   457.68443109
_cell_formula_units_Z   1
loop_
 _symmetry_equiv_pos_site_id
 _symmetry_equiv_pos_as_xyz
  1  'x, y, z'
loop_
 _atom_site_type_symbol
 _atom_site_label
 _atom_site_symmetry_multiplicity
 _atom_site_fract_x
 _atom_site_fract_y
 _atom_site_fract_z
 _atom_site_occupancy
  Li  Li0  1  0.652297  0.326149  0.326149  1
  Li  Li1  1  0.326149  0.000000  0.673851  1
  Li  Li2  1  0.326149  0.652297  0.326149  1
  Li  Li3  1  0.326149  0.326149  0.652297  1
  Li  Li4  1  0.326149  0.673851  0.000000  1
  Li  Li5  1  0.000000  0.326149  0.673851  1
  Li  Li6  1  0.000000  0.673851  0.326149  1
  Li  Li7  1  0.673851  0.673851  0.347703  1
  Li  Li8  1  0.673851  0.000000  0.326149  1
  Li  Li9  1  0.673851  0.326149  0.000000  1
  Li  Li10  1  0.673851  0.347703  0.673851  1
  Li  Li11  1  0.347703  0.673851  0.673851  1
  Ca  Ca12  1  0.000000  0.247477  0.247477  1
  Ca  Ca13  1  0.247477  0.000000  0.247477  1
  Ca  Ca14  1  0.752523  0.000000  0.752523  1
  Ca  Ca15  1  0.752523  0.752523  0.000000  1
  Ca  Ca16  1  0.247477  0.247477  0.000000  1
  Ca  Ca17  1  0.000000  0.752523  0.752523  1
  Si  Si18  1  0.500000  0.500000  0.500000  1
  Si  Si19  1  0.500000  0.000000  0.000000  1
  Si  Si20  1  0.000000  0.500000  0.000000  1
  Si  Si21  1  0.000000  0.000000  0.500000  1
  N  N22  1  0.000000  0.000000  0.000000  1
