# generated using pymatgen
data_Tm3In4AgRu
_symmetry_space_group_name_H-M   'P 1'
_cell_length_a   8.10217400
_cell_length_b   8.10217442
_cell_length_c   3.63282500
_cell_angle_alpha   90.00000000
_cell_angle_beta   90.00000000
_cell_angle_gamma   119.99999827
_symmetry_Int_Tables_number   1
_chemical_formula_structural   Tm3In4AgRu
_chemical_formula_sum   'Tm3 In4 Ag1 Ru1'
_cell_volume   206.52768219
_cell_formula_units_Z   1
loop_
 _symmetry_equiv_pos_site_id
 _symmetry_equiv_pos_as_xyz
  1  'x, y, z'
loop_
 _atom_site_type_symbol
 _atom_site_label
 _atom_site_symmetry_multiplicity
 _atom_site_fract_x
 _atom_site_fract_y
 _atom_site_fract_z
 _atom_site_occupancy
  Tm  Tm0  1  0.290789  0.248142  0.500000  1
  Tm  Tm1  1  0.751858  0.042645  0.500000  1
  Tm  Tm2  1  0.957355  0.709211  0.500000  1
  In  In3  1  0.059019  0.392655  0.000000  1
  In  In4  1  0.607345  0.666365  0.000000  1
  In  In5  1  0.333635  0.940981  0.000000  1
  In  In6  1  0.666667  0.333333  0.000000  1
  Ag  Ag7  1  0.333333  0.666667  0.500000  1
  Ru  Ru8  1  0.000000  0.000000  0.000000  1
