# generated using pymatgen
data_Dy2Er6Re(B8Ir)3
_symmetry_space_group_name_H-M   'P 1'
_cell_length_a   3.64578300
_cell_length_b   9.15044929
_cell_length_c   11.48600901
_cell_angle_alpha   90.13450232
_cell_angle_beta   90.00000000
_cell_angle_gamma   90.00000000
_symmetry_Int_Tables_number   1
_chemical_formula_structural   Dy2Er6Re(B8Ir)3
_chemical_formula_sum   'Dy2 Er6 Re1 B24 Ir3'
_cell_volume   383.17855041
_cell_formula_units_Z   1
loop_
 _symmetry_equiv_pos_site_id
 _symmetry_equiv_pos_as_xyz
  1  'x, y, z'
loop_
 _atom_site_type_symbol
 _atom_site_label
 _atom_site_symmetry_multiplicity
 _atom_site_fract_x
 _atom_site_fract_y
 _atom_site_fract_z
 _atom_site_occupancy
  Dy  Dy0  1  0.000000  0.320757  0.413542  1
  Dy  Dy1  1  0.000000  0.682977  0.590566  1
  Er  Er2  1  0.000000  0.820543  0.082590  1
  Er  Er3  1  0.000000  0.175925  0.912133  1
  Er  Er4  1  0.000000  0.943741  0.373040  1
  Er  Er5  1  0.000000  0.053848  0.626345  1
  Er  Er6  1  0.000000  0.443522  0.125918  1
  Er  Er7  1  0.000000  0.557346  0.875220  1
  Re  Re8  1  0.000000  0.862866  0.821757  1
  B  B9  1  0.500000  0.553608  0.433979  1
  B  B10  1  0.500000  0.447558  0.566880  1
  B  B11  1  0.500000  0.053149  0.066098  1
  B  B12  1  0.500000  0.947043  0.933530  1
  B  B13  1  0.500000  0.750565  0.420306  1
  B  B14  1  0.500000  0.250328  0.579299  1
  B  B15  1  0.500000  0.248894  0.078707  1
  B  B16  1  0.500000  0.752078  0.920333  1
  B  B17  1  0.500000  0.792285  0.264984  1
  B  B18  1  0.500000  0.207662  0.733522  1
  B  B19  1  0.500000  0.292722  0.234489  1
  B  B20  1  0.500000  0.708226  0.766601  1
  B  B21  1  0.500000  0.631164  0.184385  1
  B  B22  1  0.500000  0.368184  0.815871  1
  B  B23  1  0.500000  0.131757  0.315245  1
  B  B24  1  0.500000  0.869182  0.685702  1
  B  B25  1  0.500000  0.981278  0.212650  1
  B  B26  1  0.500000  0.017779  0.786686  1
  B  B27  1  0.500000  0.481306  0.287072  1
  B  B28  1  0.500000  0.518032  0.714561  1
  B  B29  1  0.500000  0.608910  0.031370  1
  B  B30  1  0.500000  0.388665  0.969990  1
  B  B31  1  0.500000  0.108949  0.469312  1
  B  B32  1  0.500000  0.891999  0.528627  1
  Ir  Ir33  1  0.000000  0.637349  0.322294  1
  Ir  Ir34  1  0.000000  0.362629  0.678353  1
  Ir  Ir35  1  0.000000  0.137171  0.178044  1
