# generated using pymatgen
data_Yb2Ho(BiRh)3
_symmetry_space_group_name_H-M   'P 1'
_cell_length_a   7.54739165
_cell_length_b   7.54739279
_cell_length_c   4.07963200
_cell_angle_alpha   90.00000000
_cell_angle_beta   90.00000000
_cell_angle_gamma   118.78585128
_symmetry_Int_Tables_number   1
_chemical_formula_structural   Yb2Ho(BiRh)3
_chemical_formula_sum   'Yb2 Ho1 Bi3 Rh3'
_cell_volume   203.67132703
_cell_formula_units_Z   1
loop_
 _symmetry_equiv_pos_site_id
 _symmetry_equiv_pos_as_xyz
  1  'x, y, z'
loop_
 _atom_site_type_symbol
 _atom_site_label
 _atom_site_symmetry_multiplicity
 _atom_site_fract_x
 _atom_site_fract_y
 _atom_site_fract_z
 _atom_site_occupancy
  Yb  Yb0  1  0.599731  0.000848  0.000000  1
  Yb  Yb1  1  0.000848  0.599731  0.000000  1
  Ho  Ho2  1  0.400307  0.400307  0.000000  1
  Bi  Bi3  1  0.266279  0.994264  0.500000  1
  Bi  Bi4  1  0.994264  0.266279  0.500000  1
  Bi  Bi5  1  0.740273  0.740273  0.500000  1
  Rh  Rh6  1  0.334994  0.651659  0.500000  1
  Rh  Rh7  1  0.651659  0.334994  0.500000  1
  Rh  Rh8  1  0.011644  0.011644  0.000000  1
