# generated using pymatgen
data_Yb11Ho5(TmSn4)4
_symmetry_space_group_name_H-M   'P 1'
_cell_length_a   7.80821705
_cell_length_b   8.40027757
_cell_length_c   15.90871903
_cell_angle_alpha   90.00724757
_cell_angle_beta   89.99910899
_cell_angle_gamma   89.88281791
_symmetry_Int_Tables_number   1
_chemical_formula_structural   Yb11Ho5(TmSn4)4
_chemical_formula_sum   'Yb11 Ho5 Tm4 Sn16'
_cell_volume   1043.46963087
_cell_formula_units_Z   1
loop_
 _symmetry_equiv_pos_site_id
 _symmetry_equiv_pos_as_xyz
  1  'x, y, z'
loop_
 _atom_site_type_symbol
 _atom_site_label
 _atom_site_symmetry_multiplicity
 _atom_site_fract_x
 _atom_site_fract_y
 _atom_site_fract_z
 _atom_site_occupancy
  Yb  Yb0  1  0.503920  0.687335  0.593537  1
  Yb  Yb1  1  0.003935  0.815179  0.908345  1
  Yb  Yb2  1  0.494305  0.311974  0.092245  1
  Yb  Yb3  1  0.995766  0.187124  0.408141  1
  Yb  Yb4  1  0.494429  0.311981  0.407793  1
  Yb  Yb5  1  0.995923  0.187121  0.091823  1
  Yb  Yb6  1  0.503783  0.687294  0.906494  1
  Yb  Yb7  1  0.003834  0.815235  0.591667  1
  Yb  Yb8  1  0.336213  0.989832  0.750004  1
  Yb  Yb9  1  0.163724  0.488168  0.249940  1
  Yb  Yb10  1  0.663383  0.009605  0.249971  1
  Ho  Ho11  1  0.826345  0.664212  0.378264  1
  Ho  Ho12  1  0.326192  0.833235  0.377969  1
  Ho  Ho13  1  0.826362  0.664252  0.121731  1
  Ho  Ho14  1  0.674064  0.163903  0.877782  1
  Ho  Ho15  1  0.175433  0.334838  0.622871  1
  Tm  Tm16  1  0.674204  0.163801  0.622237  1
  Tm  Tm17  1  0.175344  0.335051  0.877165  1
  Tm  Tm18  1  0.326089  0.833379  0.122016  1
  Tm  Tm19  1  0.837949  0.509906  0.749986  1
  Sn  Sn20  1  0.671947  0.962920  0.459455  1
  Sn  Sn21  1  0.171964  0.536588  0.040018  1
  Sn  Sn22  1  0.328268  0.037056  0.959351  1
  Sn  Sn23  1  0.828280  0.465287  0.544064  1
  Sn  Sn24  1  0.329100  0.037075  0.540838  1
  Sn  Sn25  1  0.829067  0.465511  0.955976  1
  Sn  Sn26  1  0.671545  0.962580  0.040836  1
  Sn  Sn27  1  0.171557  0.536494  0.459866  1
  Sn  Sn28  1  0.475911  0.379551  0.750053  1
  Sn  Sn29  1  0.971685  0.132777  0.749970  1
  Sn  Sn30  1  0.527717  0.625177  0.249892  1
  Sn  Sn31  1  0.027625  0.872171  0.249830  1
  Sn  Sn32  1  0.721766  0.865285  0.749923  1
  Sn  Sn33  1  0.209742  0.631062  0.750106  1
  Sn  Sn34  1  0.280823  0.126326  0.249872  1
  Sn  Sn35  1  0.781807  0.370713  0.249966  1
