# generated using pymatgen
data_Np4Re6Si6Os
_symmetry_space_group_name_H-M   'P 1'
_cell_length_a   7.14230561
_cell_length_b   7.13265268
_cell_length_c   7.14230401
_cell_angle_alpha   109.34750320
_cell_angle_beta   109.38071388
_cell_angle_gamma   109.74068974
_symmetry_Int_Tables_number   1
_chemical_formula_structural   Np4Re6Si6Os
_chemical_formula_sum   'Np4 Re6 Si6 Os1'
_cell_volume   279.90120745
_cell_formula_units_Z   1
loop_
 _symmetry_equiv_pos_site_id
 _symmetry_equiv_pos_as_xyz
  1  'x, y, z'
loop_
 _atom_site_type_symbol
 _atom_site_label
 _atom_site_symmetry_multiplicity
 _atom_site_fract_x
 _atom_site_fract_y
 _atom_site_fract_z
 _atom_site_occupancy
  Np  Np0  1  0.498612  0.501381  0.499992  1
  Np  Np1  1  0.001429  0.998594  0.500018  1
  Np  Np2  1  0.498576  0.998594  0.997165  1
  Np  Np3  1  0.001389  0.501381  0.002770  1
  Re  Re4  1  0.500452  0.250274  0.749821  1
  Re  Re5  1  0.500881  0.751004  0.250123  1
  Re  Re6  1  0.249151  0.499327  0.749849  1
  Re  Re7  1  0.749478  0.499327  0.250176  1
  Re  Re8  1  0.250010  0.750284  0.500274  1
  Re  Re9  1  0.000018  0.999965  0.999947  1
  Si  Si10  1  0.306914  0.307038  0.000124  1
  Si  Si11  1  0.998389  0.305678  0.307288  1
  Si  Si12  1  0.998202  0.690929  0.692727  1
  Si  Si13  1  0.694462  0.001676  0.692743  1
  Si  Si14  1  0.308933  0.001676  0.307214  1
  Si  Si15  1  0.693101  0.693041  0.999939  1
  Os  Os16  1  0.750001  0.249831  0.499830  1
