# generated using pymatgen
data_La8Y2AlPb5
_symmetry_space_group_name_H-M   'P 1'
_cell_length_a   9.44485451
_cell_length_b   9.44481741
_cell_length_c   9.44485400
_cell_angle_alpha   96.35505082
_cell_angle_beta   96.35573380
_cell_angle_gamma   141.13374883
_symmetry_Int_Tables_number   1
_chemical_formula_structural   La8Y2AlPb5
_chemical_formula_sum   'La8 Y2 Al1 Pb5'
_cell_volume   498.56969442
_cell_formula_units_Z   1
loop_
 _symmetry_equiv_pos_site_id
 _symmetry_equiv_pos_as_xyz
  1  'x, y, z'
loop_
 _atom_site_type_symbol
 _atom_site_label
 _atom_site_symmetry_multiplicity
 _atom_site_fract_x
 _atom_site_fract_y
 _atom_site_fract_z
 _atom_site_occupancy
  La  La0  1  0.905081  0.214960  0.132984  1
  La  La1  1  0.214973  0.081926  0.309779  1
  La  La2  1  0.772007  0.905113  0.690164  1
  La  La3  1  0.081837  0.772120  0.866933  1
  La  La4  1  0.727853  0.418074  0.133047  1
  La  La5  1  0.285050  0.594887  0.866894  1
  La  La6  1  0.594813  0.727880  0.309716  1
  La  La7  1  0.418024  0.285040  0.690121  1
  Y  Y8  1  0.750083  0.250000  0.500083  1
  Y  Y9  1  0.250082  0.750000  0.500082  1
  Al  Al10  1  0.750036  0.750000  0.000036  1
  Pb  Pb11  1  0.250043  0.250000  0.000043  1
  Pb  Pb12  1  0.845090  0.654986  0.499961  1
  Pb  Pb13  1  0.655061  0.154984  0.809979  1
  Pb  Pb14  1  0.344974  0.845014  0.190102  1
  Pb  Pb15  1  0.154994  0.345016  0.500077  1
