# generated using pymatgen
data_Pr5SiGeSe3
_symmetry_space_group_name_H-M   'P 1'
_cell_length_a   7.45472272
_cell_length_b   7.45472215
_cell_length_c   7.46413464
_cell_angle_alpha   99.09203796
_cell_angle_beta   99.84569558
_cell_angle_gamma   132.11095079
_symmetry_Int_Tables_number   1
_chemical_formula_structural   Pr5SiGeSe3
_chemical_formula_sum   'Pr5 Si1 Ge1 Se3'
_cell_volume   281.29959380
_cell_formula_units_Z   1
loop_
 _symmetry_equiv_pos_site_id
 _symmetry_equiv_pos_as_xyz
  1  'x, y, z'
loop_
 _atom_site_type_symbol
 _atom_site_label
 _atom_site_symmetry_multiplicity
 _atom_site_fract_x
 _atom_site_fract_y
 _atom_site_fract_z
 _atom_site_occupancy
  Pr  Pr0  1  0.397327  0.790673  0.188000  1
  Pr  Pr1  1  0.001626  0.996723  0.998349  1
  Pr  Pr2  1  0.597494  0.204749  0.802243  1
  Pr  Pr3  1  0.204847  0.408611  0.613457  1
  Pr  Pr4  1  0.798423  0.599274  0.397698  1
  Si  Si5  1  0.501505  0.500934  0.002439  1
  Ge  Ge6  1  0.097551  0.698925  0.796475  1
  Se  Se7  1  0.698321  0.900148  0.598467  1
  Se  Se8  1  0.300426  0.098734  0.399161  1
  Se  Se9  1  0.902481  0.301229  0.203710  1
