# generated using pymatgen
data_Pr10Os3Rh
_symmetry_space_group_name_H-M   'P 1'
_cell_length_a   8.99200743
_cell_length_b   9.00637713
_cell_length_c   7.48424051
_cell_angle_alpha   83.68804168
_cell_angle_beta   83.63432317
_cell_angle_gamma   43.73070815
_symmetry_Int_Tables_number   1
_chemical_formula_structural   Pr10Os3Rh
_chemical_formula_sum   'Pr10 Os3 Rh1'
_cell_volume   416.01265354
_cell_formula_units_Z   1
loop_
 _symmetry_equiv_pos_site_id
 _symmetry_equiv_pos_as_xyz
  1  'x, y, z'
loop_
 _atom_site_type_symbol
 _atom_site_label
 _atom_site_symmetry_multiplicity
 _atom_site_fract_x
 _atom_site_fract_y
 _atom_site_fract_z
 _atom_site_occupancy
  Pr  Pr0  1  0.017180  0.800607  0.916031  1
  Pr  Pr1  1  0.202139  0.984636  0.584674  1
  Pr  Pr2  1  0.981482  0.201760  0.085751  1
  Pr  Pr3  1  0.796121  0.021860  0.412183  1
  Pr  Pr4  1  0.361060  0.202674  0.818519  1
  Pr  Pr5  1  0.786915  0.642951  0.684866  1
  Pr  Pr6  1  0.643858  0.790908  0.185157  1
  Pr  Pr7  1  0.207367  0.356674  0.314545  1
  Pr  Pr8  1  0.573154  0.427779  0.750944  1
  Pr  Pr9  1  0.429377  0.573113  0.246122  1
  Os  Os10  1  0.399339  0.822247  0.924784  1
  Os  Os11  1  0.822942  0.398076  0.426826  1
  Os  Os12  1  0.601541  0.176675  0.074842  1
  Rh  Rh13  1  0.177526  0.600039  0.574756  1
