# generated using pymatgen
data_Lu10GaSi4Bi
_symmetry_space_group_name_H-M   'P 1'
_cell_length_a   8.36472834
_cell_length_b   8.38768141
_cell_length_c   6.23677300
_cell_angle_alpha   90.00000000
_cell_angle_beta   90.00000000
_cell_angle_gamma   119.94224271
_symmetry_Int_Tables_number   1
_chemical_formula_structural   Lu10GaSi4Bi
_chemical_formula_sum   'Lu10 Ga1 Si4 Bi1'
_cell_volume   379.17247379
_cell_formula_units_Z   1
loop_
 _symmetry_equiv_pos_site_id
 _symmetry_equiv_pos_as_xyz
  1  'x, y, z'
loop_
 _atom_site_type_symbol
 _atom_site_label
 _atom_site_symmetry_multiplicity
 _atom_site_fract_x
 _atom_site_fract_y
 _atom_site_fract_z
 _atom_site_occupancy
  Lu  Lu0  1  0.678104  0.346624  0.004246  1
  Lu  Lu1  1  0.330590  0.653712  0.495699  1
  Lu  Lu2  1  0.330590  0.653712  0.004301  1
  Lu  Lu3  1  0.678104  0.346624  0.495754  1
  Lu  Lu4  1  0.769474  0.999639  0.750000  1
  Lu  Lu5  1  0.758032  0.759384  0.250000  1
  Lu  Lu6  1  0.998115  0.241911  0.250000  1
  Lu  Lu7  1  0.983324  0.745623  0.750000  1
  Lu  Lu8  1  0.236890  0.253218  0.750000  1
  Lu  Lu9  1  0.238129  0.999112  0.250000  1
  Ga  Ga10  1  0.395443  0.391995  0.250000  1
  Si  Si11  1  0.002763  0.609248  0.250000  1
  Si  Si12  1  0.997536  0.394740  0.750000  1
  Si  Si13  1  0.603061  0.604571  0.750000  1
  Si  Si14  1  0.606472  0.000134  0.250000  1
  Bi  Bi15  1  0.393375  0.999752  0.750000  1
