# generated using pymatgen
data_HfScTi4Sn5
_symmetry_space_group_name_H-M   'P 1'
_cell_length_a   10.55713695
_cell_length_b   10.58772187
_cell_length_c   10.58772021
_cell_angle_alpha   149.06495551
_cell_angle_beta   131.70224561
_cell_angle_gamma   58.49330057
_symmetry_Int_Tables_number   1
_chemical_formula_structural   HfScTi4Sn5
_chemical_formula_sum   'Hf2 Sc2 Ti8 Sn10'
_cell_volume   450.64831935
_cell_formula_units_Z   2
loop_
 _symmetry_equiv_pos_site_id
 _symmetry_equiv_pos_as_xyz
  1  'x, y, z'
loop_
 _atom_site_type_symbol
 _atom_site_label
 _atom_site_symmetry_multiplicity
 _atom_site_fract_x
 _atom_site_fract_y
 _atom_site_fract_z
 _atom_site_occupancy
  Hf  Hf0  1  0.253543  0.143908  0.109636  1
  Hf  Hf1  1  0.746457  0.856092  0.890364  1
  Sc  Sc2  1  0.033965  0.644091  0.389875  1
  Sc  Sc3  1  0.966035  0.355909  0.610125  1
  Ti  Ti4  1  0.310646  0.557572  0.249659  1
  Ti  Ti5  1  0.689354  0.442428  0.750341  1
  Ti  Ti6  1  0.689354  0.939013  0.246925  1
  Ti  Ti7  1  0.310646  0.060987  0.753075  1
  Ti  Ti8  1  0.675764  0.435020  0.240743  1
  Ti  Ti9  1  0.324236  0.564980  0.759257  1
  Ti  Ti10  1  0.193810  0.935238  0.258572  1
  Ti  Ti11  1  0.806190  0.064762  0.741428  1
  Sn  Sn12  1  0.586966  0.288391  0.298575  1
  Sn  Sn13  1  0.413034  0.711609  0.701425  1
  Sn  Sn14  1  0.991713  0.788587  0.203125  1
  Sn  Sn15  1  0.008287  0.211413  0.796875  1
  Sn  Sn16  1  0.000000  0.249914  0.249914  1
  Sn  Sn17  1  0.000000  0.750086  0.750086  1
  Sn  Sn18  1  0.469325  0.067791  0.401533  1
  Sn  Sn19  1  0.530675  0.932209  0.598467  1
  Sn  Sn20  1  0.668154  0.567954  0.100200  1
  Sn  Sn21  1  0.331846  0.432046  0.899800  1
