# generated using pymatgen
data_Tb8Sc12Sn15Au
_symmetry_space_group_name_H-M   'P 1'
_cell_length_a   7.61799800
_cell_length_b   7.95811938
_cell_length_c   14.80576200
_cell_angle_alpha   90.00000000
_cell_angle_beta   90.00000000
_cell_angle_gamma   89.81748823
_symmetry_Int_Tables_number   1
_chemical_formula_structural   Tb8Sc12Sn15Au
_chemical_formula_sum   'Tb8 Sc12 Sn15 Au1'
_cell_volume   897.59384172
_cell_formula_units_Z   1
loop_
 _symmetry_equiv_pos_site_id
 _symmetry_equiv_pos_as_xyz
  1  'x, y, z'
loop_
 _atom_site_type_symbol
 _atom_site_label
 _atom_site_symmetry_multiplicity
 _atom_site_fract_x
 _atom_site_fract_y
 _atom_site_fract_z
 _atom_site_occupancy
  Tb  Tb0  1  0.994060  0.178428  0.093305  1
  Tb  Tb1  1  0.004736  0.821013  0.907352  1
  Tb  Tb2  1  0.506076  0.679621  0.905682  1
  Tb  Tb3  1  0.004736  0.821013  0.592648  1
  Tb  Tb4  1  0.492958  0.322380  0.093836  1
  Tb  Tb5  1  0.994060  0.178428  0.406695  1
  Tb  Tb6  1  0.492958  0.322380  0.406164  1
  Tb  Tb7  1  0.506076  0.679621  0.594318  1
  Sc  Sc8  1  0.172441  0.496210  0.750000  1
  Sc  Sc9  1  0.831857  0.503411  0.250000  1
  Sc  Sc10  1  0.332569  0.996633  0.250000  1
  Sc  Sc11  1  0.679700  0.007996  0.750000  1
  Sc  Sc12  1  0.323501  0.161506  0.628155  1
  Sc  Sc13  1  0.663061  0.839069  0.373138  1
  Sc  Sc14  1  0.161030  0.661553  0.372834  1
  Sc  Sc15  1  0.663061  0.839069  0.126862  1
  Sc  Sc16  1  0.848068  0.331896  0.629885  1
  Sc  Sc17  1  0.323501  0.161506  0.871845  1
  Sc  Sc18  1  0.848068  0.331896  0.870115  1
  Sc  Sc19  1  0.161030  0.661553  0.127166  1
  Sn  Sn20  1  0.969625  0.876058  0.250000  1
  Sn  Sn21  1  0.468928  0.624926  0.250000  1
  Sn  Sn22  1  0.535126  0.373718  0.750000  1
  Sn  Sn23  1  0.300947  0.858484  0.750000  1
  Sn  Sn24  1  0.690287  0.151260  0.250000  1
  Sn  Sn25  1  0.188968  0.349937  0.250000  1
  Sn  Sn26  1  0.808846  0.646432  0.750000  1
  Sn  Sn27  1  0.183718  0.459819  0.541922  1
  Sn  Sn28  1  0.816336  0.541757  0.459159  1
  Sn  Sn29  1  0.320345  0.957092  0.458269  1
  Sn  Sn30  1  0.816336  0.541757  0.040841  1
  Sn  Sn31  1  0.679994  0.042847  0.543752  1
  Sn  Sn32  1  0.183718  0.459819  0.958078  1
  Sn  Sn33  1  0.679994  0.042847  0.956248  1
  Sn  Sn34  1  0.320345  0.957092  0.041731  1
  Au  Au35  1  0.032944  0.120971  0.750000  1
