# generated using pymatgen
data_YbLuZr2(Al3Ir)6
_symmetry_space_group_name_H-M   'P 1'
_cell_length_a   7.51387247
_cell_length_b   7.50545754
_cell_length_c   9.36102600
_cell_angle_alpha   90.00000000
_cell_angle_beta   90.00000000
_cell_angle_gamma   119.68306773
_symmetry_Int_Tables_number   1
_chemical_formula_structural   YbLuZr2(Al3Ir)6
_chemical_formula_sum   'Yb1 Lu1 Zr2 Al18 Ir6'
_cell_volume   458.64134948
_cell_formula_units_Z   1
loop_
 _symmetry_equiv_pos_site_id
 _symmetry_equiv_pos_as_xyz
  1  'x, y, z'
loop_
 _atom_site_type_symbol
 _atom_site_label
 _atom_site_symmetry_multiplicity
 _atom_site_fract_x
 _atom_site_fract_y
 _atom_site_fract_z
 _atom_site_occupancy
  Yb  Yb0  1  0.670615  0.994034  0.250000  1
  Lu  Lu1  1  0.330043  0.005945  0.750000  1
  Zr  Zr2  1  0.994117  0.671448  0.250000  1
  Zr  Zr3  1  0.004472  0.327268  0.750000  1
  Al  Al4  1  0.126735  0.123967  0.250000  1
  Al  Al5  1  0.874108  0.875524  0.750000  1
  Al  Al6  1  0.999500  0.336509  0.075353  1
  Al  Al7  1  0.000477  0.663779  0.924472  1
  Al  Al8  1  0.000477  0.663779  0.575528  1
  Al  Al9  1  0.333402  0.998582  0.422265  1
  Al  Al10  1  0.999500  0.336509  0.424647  1
  Al  Al11  1  0.666528  0.000645  0.577305  1
  Al  Al12  1  0.666528  0.000645  0.922695  1
  Al  Al13  1  0.333402  0.998582  0.077735  1
  Al  Al14  1  0.331429  0.333300  0.556800  1
  Al  Al15  1  0.668709  0.667223  0.443460  1
  Al  Al16  1  0.668709  0.667223  0.056540  1
  Al  Al17  1  0.331429  0.333300  0.943200  1
  Al  Al18  1  0.334000  0.548468  0.250000  1
  Al  Al19  1  0.664461  0.451043  0.750000  1
  Al  Al20  1  0.555343  0.345263  0.250000  1
  Al  Al21  1  0.445707  0.657151  0.750000  1
  Ir  Ir22  1  0.671984  0.327859  0.997787  1
  Ir  Ir23  1  0.326618  0.671445  0.999489  1
  Ir  Ir24  1  0.326618  0.671445  0.500511  1
  Ir  Ir25  1  0.671984  0.327859  0.502213  1
  Ir  Ir26  1  0.001551  0.000603  0.998816  1
  Ir  Ir27  1  0.001551  0.000603  0.501184  1
