# generated using pymatgen
data_Ho2Ga9Ir2Pt
_symmetry_space_group_name_H-M   'P 1'
_cell_length_a   7.62150028
_cell_length_b   7.62150033
_cell_length_c   9.45704000
_cell_angle_alpha   90.00000000
_cell_angle_beta   90.00000000
_cell_angle_gamma   119.95589511
_symmetry_Int_Tables_number   1
_chemical_formula_structural   Ho2Ga9Ir2Pt
_chemical_formula_sum   'Ho4 Ga18 Ir4 Pt2'
_cell_volume   475.94814919
_cell_formula_units_Z   2
loop_
 _symmetry_equiv_pos_site_id
 _symmetry_equiv_pos_as_xyz
  1  'x, y, z'
loop_
 _atom_site_type_symbol
 _atom_site_label
 _atom_site_symmetry_multiplicity
 _atom_site_fract_x
 _atom_site_fract_y
 _atom_site_fract_z
 _atom_site_occupancy
  Ho  Ho0  1  0.996732  0.668855  0.250000  1
  Ho  Ho1  1  0.003268  0.331145  0.750000  1
  Ho  Ho2  1  0.668855  0.996732  0.250000  1
  Ho  Ho3  1  0.331145  0.003268  0.750000  1
  Ga  Ga4  1  0.130899  0.130899  0.250000  1
  Ga  Ga5  1  0.869101  0.869101  0.750000  1
  Ga  Ga6  1  0.998098  0.337706  0.081789  1
  Ga  Ga7  1  0.001902  0.662294  0.918211  1
  Ga  Ga8  1  0.001902  0.662294  0.581789  1
  Ga  Ga9  1  0.337706  0.998098  0.418211  1
  Ga  Ga10  1  0.998098  0.337706  0.418211  1
  Ga  Ga11  1  0.662294  0.001902  0.581789  1
  Ga  Ga12  1  0.662294  0.001902  0.918211  1
  Ga  Ga13  1  0.337706  0.998098  0.081789  1
  Ga  Ga14  1  0.335517  0.335517  0.568421  1
  Ga  Ga15  1  0.664483  0.664483  0.431579  1
  Ga  Ga16  1  0.664483  0.664483  0.068421  1
  Ga  Ga17  1  0.335517  0.335517  0.931579  1
  Ga  Ga18  1  0.337680  0.546574  0.250000  1
  Ga  Ga19  1  0.662320  0.453426  0.750000  1
  Ga  Ga20  1  0.546574  0.337680  0.250000  1
  Ga  Ga21  1  0.453426  0.662320  0.750000  1
  Ir  Ir22  1  0.671334  0.328666  0.000000  1
  Ir  Ir23  1  0.328666  0.671334  0.000000  1
  Ir  Ir24  1  0.328666  0.671334  0.500000  1
  Ir  Ir25  1  0.671334  0.328666  0.500000  1
  Pt  Pt26  1  0.000000  0.000000  0.000000  1
  Pt  Pt27  1  0.000000  0.000000  0.500000  1
