# generated using pymatgen
data_HfZr5Ta4(Si3N)2
_symmetry_space_group_name_H-M   'P 1'
_cell_length_a   7.79361154
_cell_length_b   7.79361154
_cell_length_c   5.43895700
_cell_angle_alpha   90.00000000
_cell_angle_beta   90.00000000
_cell_angle_gamma   120.10920143
_symmetry_Int_Tables_number   1
_chemical_formula_structural   HfZr5Ta4(Si3N)2
_chemical_formula_sum   'Hf1 Zr5 Ta4 Si6 N2'
_cell_volume   285.78854901
_cell_formula_units_Z   1
loop_
 _symmetry_equiv_pos_site_id
 _symmetry_equiv_pos_as_xyz
  1  'x, y, z'
loop_
 _atom_site_type_symbol
 _atom_site_label
 _atom_site_symmetry_multiplicity
 _atom_site_fract_x
 _atom_site_fract_y
 _atom_site_fract_z
 _atom_site_occupancy
  Hf  Hf0  1  0.233691  0.233691  0.750000  1
  Zr  Zr1  1  0.238194  0.000787  0.250000  1
  Zr  Zr2  1  0.762190  0.999691  0.750000  1
  Zr  Zr3  1  0.000787  0.238194  0.250000  1
  Zr  Zr4  1  0.999691  0.762190  0.750000  1
  Zr  Zr5  1  0.764211  0.764211  0.250000  1
  Ta  Ta6  1  0.332998  0.665891  0.999365  1
  Ta  Ta7  1  0.665891  0.332998  0.999365  1
  Ta  Ta8  1  0.665891  0.332998  0.500635  1
  Ta  Ta9  1  0.332998  0.665891  0.500635  1
  Si  Si10  1  0.590513  0.999936  0.250000  1
  Si  Si11  1  0.408664  0.000106  0.750000  1
  Si  Si12  1  0.999936  0.590513  0.250000  1
  Si  Si13  1  0.000106  0.408664  0.750000  1
  Si  Si14  1  0.409973  0.409973  0.250000  1
  Si  Si15  1  0.588301  0.588301  0.750000  1
  N  N16  1  0.002983  0.002983  0.998173  1
  N  N17  1  0.002983  0.002983  0.501827  1
