# generated using pymatgen
data_Sm3Ho(AuO3)4
_symmetry_space_group_name_H-M   'P 1'
_cell_length_a   3.91258542
_cell_length_b   5.64178700
_cell_length_c   12.99581935
_cell_angle_alpha   90.00000000
_cell_angle_beta   90.16144766
_cell_angle_gamma   90.00000000
_symmetry_Int_Tables_number   1
_chemical_formula_structural   Sm3Ho(AuO3)4
_chemical_formula_sum   'Sm3 Ho1 Au4 O12'
_cell_volume   286.86823395
_cell_formula_units_Z   1
loop_
 _symmetry_equiv_pos_site_id
 _symmetry_equiv_pos_as_xyz
  1  'x, y, z'
loop_
 _atom_site_type_symbol
 _atom_site_label
 _atom_site_symmetry_multiplicity
 _atom_site_fract_x
 _atom_site_fract_y
 _atom_site_fract_z
 _atom_site_occupancy
  Sm  Sm0  1  0.260237  0.750000  0.077423  1
  Sm  Sm1  1  0.260076  0.250000  0.424805  1
  Sm  Sm2  1  0.739553  0.250000  0.921407  1
  Ho  Ho3  1  0.736701  0.750000  0.575788  1
  Au  Au4  1  0.066103  0.750000  0.828232  1
  Au  Au5  1  0.067554  0.250000  0.668036  1
  Au  Au6  1  0.934844  0.250000  0.170489  1
  Au  Au7  1  0.934623  0.750000  0.332307  1
  O  O8  1  0.193378  0.500045  0.251492  1
  O  O9  1  0.806649  0.997562  0.746288  1
  O  O10  1  0.806649  0.502438  0.746288  1
  O  O11  1  0.193378  0.999955  0.251492  1
  O  O12  1  0.743241  0.498324  0.075598  1
  O  O13  1  0.741813  0.503897  0.428013  1
  O  O14  1  0.257531  0.998756  0.923443  1
  O  O15  1  0.257543  0.994131  0.575923  1
  O  O16  1  0.741813  0.996103  0.428013  1
  O  O17  1  0.743241  0.001676  0.075598  1
  O  O18  1  0.257543  0.505869  0.575923  1
  O  O19  1  0.257531  0.501244  0.923443  1
