# generated using pymatgen
data_U3TiAs2P3
_symmetry_space_group_name_H-M   'P 1'
_cell_length_a   8.31467600
_cell_length_b   8.31467495
_cell_length_c   5.58732500
_cell_angle_alpha   90.00000000
_cell_angle_beta   90.00000000
_cell_angle_gamma   119.99999624
_symmetry_Int_Tables_number   1
_chemical_formula_structural   U3TiAs2P3
_chemical_formula_sum   'U6 Ti2 As4 P6'
_cell_volume   334.52238788
_cell_formula_units_Z   2
loop_
 _symmetry_equiv_pos_site_id
 _symmetry_equiv_pos_as_xyz
  1  'x, y, z'
loop_
 _atom_site_type_symbol
 _atom_site_label
 _atom_site_symmetry_multiplicity
 _atom_site_fract_x
 _atom_site_fract_y
 _atom_site_fract_z
 _atom_site_occupancy
  U  U0  1  0.377493  0.000000  0.750000  1
  U  U1  1  0.377493  0.377493  0.250000  1
  U  U2  1  0.000000  0.622507  0.250000  1
  U  U3  1  0.000000  0.377493  0.750000  1
  U  U4  1  0.622507  0.622507  0.750000  1
  U  U5  1  0.622507  0.000000  0.250000  1
  Ti  Ti6  1  0.000000  0.000000  0.000000  1
  Ti  Ti7  1  0.000000  0.000000  0.500000  1
  As  As8  1  0.666667  0.333333  0.500000  1
  As  As9  1  0.333333  0.666667  0.000000  1
  As  As10  1  0.333333  0.666667  0.500000  1
  As  As11  1  0.666667  0.333333  0.000000  1
  P  P12  1  0.740498  0.000000  0.750000  1
  P  P13  1  0.740498  0.740498  0.250000  1
  P  P14  1  0.259502  0.000000  0.250000  1
  P  P15  1  0.259502  0.259502  0.750000  1
  P  P16  1  0.000000  0.740498  0.750000  1
  P  P17  1  0.000000  0.259502  0.250000  1
