# generated using pymatgen
data_Cs2K6ZrSnS8
_symmetry_space_group_name_H-M   'P 1'
_cell_length_a   8.15275242
_cell_length_b   10.09249200
_cell_length_c   15.36854627
_cell_angle_alpha   90.00000000
_cell_angle_beta   90.19212205
_cell_angle_gamma   90.00000000
_symmetry_Int_Tables_number   1
_chemical_formula_structural   Cs2K6ZrSnS8
_chemical_formula_sum   'Cs4 K12 Zr2 Sn2 S16'
_cell_volume   1264.54129287
_cell_formula_units_Z   2
loop_
 _symmetry_equiv_pos_site_id
 _symmetry_equiv_pos_as_xyz
  1  'x, y, z'
loop_
 _atom_site_type_symbol
 _atom_site_label
 _atom_site_symmetry_multiplicity
 _atom_site_fract_x
 _atom_site_fract_y
 _atom_site_fract_z
 _atom_site_occupancy
  Cs  Cs0  1  0.000000  0.000000  0.000000  1
  Cs  Cs1  1  0.500000  0.000000  0.500000  1
  Cs  Cs2  1  0.000000  0.500000  0.000000  1
  Cs  Cs3  1  0.500000  0.500000  0.500000  1
  K  K4  1  0.973151  0.750000  0.434952  1
  K  K5  1  0.468673  0.250000  0.068753  1
  K  K6  1  0.026849  0.250000  0.565048  1
  K  K7  1  0.531327  0.750000  0.931247  1
  K  K8  1  0.826474  0.053569  0.267084  1
  K  K9  1  0.330333  0.939937  0.230068  1
  K  K10  1  0.173526  0.553569  0.732916  1
  K  K11  1  0.669667  0.439937  0.769932  1
  K  K12  1  0.173526  0.946431  0.732916  1
  K  K13  1  0.669667  0.060063  0.769932  1
  K  K14  1  0.826474  0.446431  0.267084  1
  K  K15  1  0.330333  0.560063  0.230068  1
  Zr  Zr16  1  0.773699  0.750000  0.675577  1
  Zr  Zr17  1  0.226301  0.250000  0.324423  1
  Sn  Sn18  1  0.726999  0.750000  0.171033  1
  Sn  Sn19  1  0.273001  0.250000  0.828967  1
  S  S20  1  0.975325  0.250000  0.821355  1
  S  S21  1  0.523952  0.250000  0.317681  1
  S  S22  1  0.476048  0.750000  0.682319  1
  S  S23  1  0.024675  0.750000  0.178645  1
  S  S24  1  0.625023  0.555738  0.097258  1
  S  S25  1  0.129983  0.446998  0.397107  1
  S  S26  1  0.374977  0.055738  0.902742  1
  S  S27  1  0.870017  0.946998  0.602893  1
  S  S28  1  0.374977  0.444262  0.902742  1
  S  S29  1  0.870017  0.553002  0.602893  1
  S  S30  1  0.625023  0.944262  0.097258  1
  S  S31  1  0.129983  0.053002  0.397107  1
  S  S32  1  0.621614  0.750000  0.320482  1
  S  S33  1  0.116285  0.250000  0.176781  1
  S  S34  1  0.378386  0.250000  0.679518  1
  S  S35  1  0.883715  0.750000  0.823219  1
