# generated using pymatgen
data_Rb3Na2SnP3
_symmetry_space_group_name_H-M   'P 1'
_cell_length_a   10.74370639
_cell_length_b   10.74370549
_cell_length_c   15.85942500
_cell_angle_alpha   90.00000000
_cell_angle_beta   90.00000000
_cell_angle_gamma   143.06235013
_symmetry_Int_Tables_number   1
_chemical_formula_structural   Rb3Na2SnP3
_chemical_formula_sum   'Rb12 Na8 Sn4 P12'
_cell_volume   1100.09656512
_cell_formula_units_Z   4
loop_
 _symmetry_equiv_pos_site_id
 _symmetry_equiv_pos_as_xyz
  1  'x, y, z'
loop_
 _atom_site_type_symbol
 _atom_site_label
 _atom_site_symmetry_multiplicity
 _atom_site_fract_x
 _atom_site_fract_y
 _atom_site_fract_z
 _atom_site_occupancy
  Rb  Rb0  1  0.940282  0.606125  0.826867  1
  Rb  Rb1  1  0.559718  0.893875  0.326867  1
  Rb  Rb2  1  0.393875  0.059718  0.173133  1
  Rb  Rb3  1  0.059718  0.393875  0.173133  1
  Rb  Rb4  1  0.893875  0.559718  0.326867  1
  Rb  Rb5  1  0.440282  0.106125  0.673133  1
  Rb  Rb6  1  0.606125  0.940282  0.826867  1
  Rb  Rb7  1  0.265550  0.265550  0.322018  1
  Rb  Rb8  1  0.765550  0.765550  0.177982  1
  Rb  Rb9  1  0.234450  0.234450  0.822018  1
  Rb  Rb10  1  0.734450  0.734450  0.677982  1
  Rb  Rb11  1  0.106125  0.440282  0.673133  1
  Na  Na12  1  0.919389  0.080611  0.000000  1
  Na  Na13  1  0.580611  0.419389  0.500000  1
  Na  Na14  1  0.080611  0.919389  0.000000  1
  Na  Na15  1  0.419389  0.580611  0.500000  1
  Na  Na16  1  0.754436  0.245564  0.000000  1
  Na  Na17  1  0.745564  0.254436  0.500000  1
  Na  Na18  1  0.245564  0.754436  0.000000  1
  Na  Na19  1  0.254436  0.745564  0.500000  1
  Sn  Sn20  1  0.587805  0.412195  0.000000  1
  Sn  Sn21  1  0.912195  0.087805  0.500000  1
  Sn  Sn22  1  0.412195  0.587805  0.000000  1
  Sn  Sn23  1  0.087805  0.912195  0.500000  1
  P  P24  1  0.876603  0.561589  0.097311  1
  P  P25  1  0.438411  0.123397  0.902689  1
  P  P26  1  0.623397  0.938411  0.597311  1
  P  P27  1  0.938411  0.623397  0.597311  1
  P  P28  1  0.123397  0.438411  0.902689  1
  P  P29  1  0.561589  0.876603  0.097311  1
  P  P30  1  0.376603  0.061589  0.402689  1
  P  P31  1  0.202216  0.202216  0.587390  1
  P  P32  1  0.702216  0.702216  0.912610  1
  P  P33  1  0.297784  0.297784  0.087390  1
  P  P34  1  0.061589  0.376603  0.402689  1
  P  P35  1  0.797784  0.797784  0.412610  1
