# generated using pymatgen
data_Li4SmTm3Pt4
_symmetry_space_group_name_H-M   'P 1'
_cell_length_a   3.98083100
_cell_length_b   6.96280480
_cell_length_c   8.38332000
_cell_angle_alpha   89.94861091
_cell_angle_beta   90.00000000
_cell_angle_gamma   90.00000000
_symmetry_Int_Tables_number   1
_chemical_formula_structural   Li4SmTm3Pt4
_chemical_formula_sum   'Li4 Sm1 Tm3 Pt4'
_cell_volume   232.36666774
_cell_formula_units_Z   1
loop_
 _symmetry_equiv_pos_site_id
 _symmetry_equiv_pos_as_xyz
  1  'x, y, z'
loop_
 _atom_site_type_symbol
 _atom_site_label
 _atom_site_symmetry_multiplicity
 _atom_site_fract_x
 _atom_site_fract_y
 _atom_site_fract_z
 _atom_site_occupancy
  Li  Li0  1  0.250000  0.625532  0.555801  1
  Li  Li1  1  0.250000  0.122213  0.944155  1
  Li  Li2  1  0.750000  0.375623  0.441117  1
  Li  Li3  1  0.750000  0.878647  0.058697  1
  Sm  Sm4  1  0.750000  0.450451  0.820803  1
  Tm  Tm5  1  0.250000  0.047211  0.320101  1
  Tm  Tm6  1  0.250000  0.550137  0.181399  1
  Tm  Tm7  1  0.750000  0.949555  0.675569  1
  Pt  Pt8  1  0.250000  0.237069  0.621480  1
  Pt  Pt9  1  0.250000  0.754003  0.875024  1
  Pt  Pt10  1  0.750000  0.754911  0.372425  1
  Pt  Pt11  1  0.750000  0.254651  0.133430  1
