# generated using pymatgen
data_CoCu2Ni2(AsO4)3
_symmetry_space_group_name_H-M   'P 1'
_cell_length_a   8.87230407
_cell_length_b   8.86363658
_cell_length_c   6.80715200
_cell_angle_alpha   74.78114693
_cell_angle_beta   74.78877812
_cell_angle_gamma   94.73588184
_symmetry_Int_Tables_number   1
_chemical_formula_structural   CoCu2Ni2(AsO4)3
_chemical_formula_sum   'Co2 Cu4 Ni4 As6 O24'
_cell_volume   491.81298704
_cell_formula_units_Z   2
loop_
 _symmetry_equiv_pos_site_id
 _symmetry_equiv_pos_as_xyz
  1  'x, y, z'
loop_
 _atom_site_type_symbol
 _atom_site_label
 _atom_site_symmetry_multiplicity
 _atom_site_fract_x
 _atom_site_fract_y
 _atom_site_fract_z
 _atom_site_occupancy
  Co  Co0  1  0.055013  0.373635  0.380596  1
  Co  Co1  1  0.944987  0.626365  0.619404  1
  Cu  Cu2  1  0.000000  0.000000  0.000000  1
  Cu  Cu3  1  0.000000  0.000000  0.500000  1
  Cu  Cu4  1  0.498624  0.503163  0.248859  1
  Cu  Cu5  1  0.501376  0.496837  0.751141  1
  Ni  Ni6  1  0.741563  0.258603  0.249104  1
  Ni  Ni7  1  0.258436  0.741397  0.750896  1
  Ni  Ni8  1  0.626277  0.946225  0.120316  1
  Ni  Ni9  1  0.373723  0.053775  0.879684  1
  As  As10  1  0.350719  0.114163  0.377986  1
  As  As11  1  0.649281  0.885837  0.622014  1
  As  As12  1  0.885138  0.652031  0.120318  1
  As  As13  1  0.114862  0.347969  0.879682  1
  As  As14  1  0.289619  0.713347  0.250032  1
  As  As15  1  0.710381  0.286653  0.749968  1
  O  O16  1  0.254749  0.818470  0.019783  1
  O  O17  1  0.745251  0.181530  0.980217  1
  O  O18  1  0.182955  0.746090  0.481004  1
  O  O19  1  0.817045  0.253910  0.518996  1
  O  O20  1  0.496402  0.276039  0.317900  1
  O  O21  1  0.503598  0.723961  0.682100  1
  O  O22  1  0.724906  0.504767  0.179733  1
  O  O23  1  0.275094  0.495233  0.820267  1
  O  O24  1  0.827410  0.835511  0.113050  1
  O  O25  1  0.172590  0.164489  0.886950  1
  O  O26  1  0.167019  0.170934  0.384928  1
  O  O27  1  0.832981  0.829066  0.615072  1
  O  O28  1  0.665187  0.012136  0.375368  1
  O  O29  1  0.334813  0.987864  0.624632  1
  O  O30  1  0.987526  0.332062  0.125372  1
  O  O31  1  0.012474  0.667938  0.874628  1
  O  O32  1  0.405122  0.023286  0.180508  1
  O  O33  1  0.594878  0.976714  0.819492  1
  O  O34  1  0.976963  0.598055  0.316742  1
  O  O35  1  0.023037  0.401945  0.683258  1
  O  O36  1  0.491892  0.726141  0.232702  1
  O  O37  1  0.508108  0.273859  0.767298  1
  O  O38  1  0.275681  0.510222  0.268120  1
  O  O39  1  0.724319  0.489778  0.731880  1
