# generated using pymatgen
data_Pr3InAg2Pd3
_symmetry_space_group_name_H-M   'P 1'
_cell_length_a   7.74868572
_cell_length_b   7.62492323
_cell_length_c   4.05298400
_cell_angle_alpha   90.00000000
_cell_angle_beta   90.00000000
_cell_angle_gamma   119.47304412
_symmetry_Int_Tables_number   1
_chemical_formula_structural   Pr3InAg2Pd3
_chemical_formula_sum   'Pr3 In1 Ag2 Pd3'
_cell_volume   208.47343572
_cell_formula_units_Z   1
loop_
 _symmetry_equiv_pos_site_id
 _symmetry_equiv_pos_as_xyz
  1  'x, y, z'
loop_
 _atom_site_type_symbol
 _atom_site_label
 _atom_site_symmetry_multiplicity
 _atom_site_fract_x
 _atom_site_fract_y
 _atom_site_fract_z
 _atom_site_occupancy
  Pr  Pr0  1  0.409295  0.402883  0.500000  1
  Pr  Pr1  1  0.590705  0.993587  0.500000  1
  Pr  Pr2  1  0.000000  0.606827  0.500000  1
  In  In3  1  0.000000  0.251282  0.000000  1
  Ag  Ag4  1  0.745632  0.746408  0.000000  1
  Ag  Ag5  1  0.254368  0.000776  0.000000  1
  Pd  Pd6  1  0.671668  0.329030  0.000000  1
  Pd  Pd7  1  0.328332  0.657363  0.000000  1
  Pd  Pd8  1  0.000000  0.011845  0.500000  1
