# generated using pymatgen
data_Y3Er3Hg10
_symmetry_space_group_name_H-M   'P 1'
_cell_length_a   6.36455129
_cell_length_b   6.36455020
_cell_length_c   10.17562033
_cell_angle_alpha   90.06320325
_cell_angle_beta   90.06320401
_cell_angle_gamma   104.91844519
_symmetry_Int_Tables_number   1
_chemical_formula_structural   Y3Er3Hg10
_chemical_formula_sum   'Y3 Er3 Hg10'
_cell_volume   398.29479883
_cell_formula_units_Z   1
loop_
 _symmetry_equiv_pos_site_id
 _symmetry_equiv_pos_as_xyz
  1  'x, y, z'
loop_
 _atom_site_type_symbol
 _atom_site_label
 _atom_site_symmetry_multiplicity
 _atom_site_fract_x
 _atom_site_fract_y
 _atom_site_fract_z
 _atom_site_occupancy
  Y  Y0  1  0.212064  0.787936  0.500000  1
  Y  Y1  1  0.213494  0.786506  0.000000  1
  Y  Y2  1  0.787937  0.212063  0.500000  1
  Er  Er3  1  0.580729  0.579941  0.250128  1
  Er  Er4  1  0.420059  0.419271  0.749872  1
  Er  Er5  1  0.786133  0.213867  0.000000  1
  Hg  Hg6  1  0.976783  0.976697  0.248534  1
  Hg  Hg7  1  0.023303  0.023217  0.751466  1
  Hg  Hg8  1  0.295357  0.296740  0.032009  1
  Hg  Hg9  1  0.703260  0.704643  0.967991  1
  Hg  Hg10  1  0.297634  0.297298  0.466775  1
  Hg  Hg11  1  0.702702  0.702366  0.533225  1
  Hg  Hg12  1  0.484802  0.044576  0.248742  1
  Hg  Hg13  1  0.955424  0.515198  0.751258  1
  Hg  Hg14  1  0.518297  0.957976  0.750666  1
  Hg  Hg15  1  0.042024  0.481703  0.249334  1
