# generated using pymatgen
data_YbDy(ThB8)2
_symmetry_space_group_name_H-M   'P 1'
_cell_length_a   7.18173860
_cell_length_b   7.18173803
_cell_length_c   4.07854700
_cell_angle_alpha   90.00000000
_cell_angle_beta   90.00000000
_cell_angle_gamma   91.24175743
_symmetry_Int_Tables_number   1
_chemical_formula_structural   YbDy(ThB8)2
_chemical_formula_sum   'Yb1 Dy1 Th2 B16'
_cell_volume   210.31130623
_cell_formula_units_Z   1
loop_
 _symmetry_equiv_pos_site_id
 _symmetry_equiv_pos_as_xyz
  1  'x, y, z'
loop_
 _atom_site_type_symbol
 _atom_site_label
 _atom_site_symmetry_multiplicity
 _atom_site_fract_x
 _atom_site_fract_y
 _atom_site_fract_z
 _atom_site_occupancy
  Yb  Yb0  1  0.682384  0.817616  0.000000  1
  Dy  Dy1  1  0.317300  0.182700  0.000000  1
  Th  Th2  1  0.813111  0.313036  0.000000  1
  Th  Th3  1  0.186964  0.686889  0.000000  1
  B  B4  1  0.500727  0.501582  0.797261  1
  B  B5  1  0.998418  0.999273  0.797261  1
  B  B6  1  0.500727  0.501582  0.202739  1
  B  B7  1  0.998418  0.999273  0.202739  1
  B  B8  1  0.913250  0.586750  0.500000  1
  B  B9  1  0.087454  0.412546  0.500000  1
  B  B10  1  0.410779  0.911712  0.500000  1
  B  B11  1  0.588288  0.089221  0.500000  1
  B  B12  1  0.675608  0.539899  0.500000  1
  B  B13  1  0.324872  0.458785  0.500000  1
  B  B14  1  0.176308  0.963172  0.500000  1
  B  B15  1  0.824276  0.037027  0.500000  1
  B  B16  1  0.462973  0.675724  0.500000  1
  B  B17  1  0.536828  0.323692  0.500000  1
  B  B18  1  0.041215  0.175128  0.500000  1
  B  B19  1  0.960101  0.824392  0.500000  1
