# generated using pymatgen
data_Na16SiSnP8
_symmetry_space_group_name_H-M   'P 1'
_cell_length_a   9.58561689
_cell_length_b   9.58561626
_cell_length_c   9.58561600
_cell_angle_alpha   60.00000088
_cell_angle_beta   60.00000309
_cell_angle_gamma   60.00000185
_symmetry_Int_Tables_number   1
_chemical_formula_structural   Na16SiSnP8
_chemical_formula_sum   'Na16 Si1 Sn1 P8'
_cell_volume   622.79505396
_cell_formula_units_Z   1
loop_
 _symmetry_equiv_pos_site_id
 _symmetry_equiv_pos_as_xyz
  1  'x, y, z'
loop_
 _atom_site_type_symbol
 _atom_site_label
 _atom_site_symmetry_multiplicity
 _atom_site_fract_x
 _atom_site_fract_y
 _atom_site_fract_z
 _atom_site_occupancy
  Na  Na0  1  0.628134  0.628134  0.115600  1
  Na  Na1  1  0.628134  0.115600  0.628134  1
  Na  Na2  1  0.115600  0.628134  0.628134  1
  Na  Na3  1  0.628134  0.628134  0.628134  1
  Na  Na4  1  0.028201  0.471799  0.471799  1
  Na  Na5  1  0.774695  0.225305  0.225305  1
  Na  Na6  1  0.471799  0.028201  0.471799  1
  Na  Na7  1  0.471799  0.471799  0.028201  1
  Na  Na8  1  0.028201  0.028201  0.471799  1
  Na  Na9  1  0.028201  0.471799  0.028201  1
  Na  Na10  1  0.471799  0.028201  0.028201  1
  Na  Na11  1  0.774695  0.225305  0.774695  1
  Na  Na12  1  0.225305  0.774695  0.225305  1
  Na  Na13  1  0.225305  0.225305  0.774695  1
  Na  Na14  1  0.774695  0.774695  0.225305  1
  Na  Na15  1  0.225305  0.774695  0.774695  1
  Si  Si16  1  0.750000  0.750000  0.750000  1
  Sn  Sn17  1  0.500000  0.500000  0.500000  1
  P  P18  1  0.850033  0.850033  0.449903  1
  P  P19  1  0.850033  0.449903  0.850033  1
  P  P20  1  0.390525  0.390525  0.828423  1
  P  P21  1  0.390525  0.828423  0.390525  1
  P  P22  1  0.828423  0.390525  0.390525  1
  P  P23  1  0.850033  0.850033  0.850033  1
  P  P24  1  0.449903  0.850033  0.850033  1
  P  P25  1  0.390525  0.390525  0.390525  1
