# generated using pymatgen
data_Tb2Lu2BBr6
_symmetry_space_group_name_H-M   'P 1'
_cell_length_a   3.92612600
_cell_length_b   13.08906200
_cell_length_c   13.56962200
_cell_angle_alpha   90.00000000
_cell_angle_beta   90.00000000
_cell_angle_gamma   90.00000000
_symmetry_Int_Tables_number   1
_chemical_formula_structural   Tb2Lu2BBr6
_chemical_formula_sum   'Tb4 Lu4 B2 Br12'
_cell_volume   697.33346586
_cell_formula_units_Z   2
loop_
 _symmetry_equiv_pos_site_id
 _symmetry_equiv_pos_as_xyz
  1  'x, y, z'
loop_
 _atom_site_type_symbol
 _atom_site_label
 _atom_site_symmetry_multiplicity
 _atom_site_fract_x
 _atom_site_fract_y
 _atom_site_fract_z
 _atom_site_occupancy
  Tb  Tb0  1  0.500000  0.123532  0.854968  1
  Tb  Tb1  1  0.500000  0.876468  0.145032  1
  Tb  Tb2  1  0.500000  0.623532  0.645032  1
  Tb  Tb3  1  0.500000  0.376468  0.354968  1
  Lu  Lu4  1  0.000000  0.098990  0.078586  1
  Lu  Lu5  1  0.000000  0.901010  0.921414  1
  Lu  Lu6  1  0.000000  0.598990  0.421414  1
  Lu  Lu7  1  0.000000  0.401010  0.578586  1
  B  B8  1  0.500000  0.000000  0.000000  1
  B  B9  1  0.500000  0.500000  0.500000  1
  Br  Br10  1  0.500000  0.271259  0.679084  1
  Br  Br11  1  0.500000  0.728741  0.320916  1
  Br  Br12  1  0.500000  0.771259  0.820916  1
  Br  Br13  1  0.500000  0.228741  0.179084  1
  Br  Br14  1  0.000000  0.262377  0.934422  1
  Br  Br15  1  0.000000  0.737623  0.065578  1
  Br  Br16  1  0.000000  0.484014  0.238683  1
  Br  Br17  1  0.000000  0.515986  0.761317  1
  Br  Br18  1  0.000000  0.984014  0.261317  1
  Br  Br19  1  0.000000  0.015986  0.738683  1
  Br  Br20  1  0.000000  0.237623  0.434422  1
  Br  Br21  1  0.000000  0.762377  0.565578  1
