# generated using pymatgen
data_Li(TmSn)4
_symmetry_space_group_name_H-M   'P 1'
_cell_length_a   7.44499500
_cell_length_b   8.13465700
_cell_length_c   15.30139200
_cell_angle_alpha   90.00000000
_cell_angle_beta   90.00000000
_cell_angle_gamma   90.00000000
_symmetry_Int_Tables_number   1
_chemical_formula_structural   Li(TmSn)4
_chemical_formula_sum   'Li4 Tm16 Sn16'
_cell_volume   926.69025756
_cell_formula_units_Z   4
loop_
 _symmetry_equiv_pos_site_id
 _symmetry_equiv_pos_as_xyz
  1  'x, y, z'
loop_
 _atom_site_type_symbol
 _atom_site_label
 _atom_site_symmetry_multiplicity
 _atom_site_fract_x
 _atom_site_fract_y
 _atom_site_fract_z
 _atom_site_occupancy
  Li  Li0  1  0.157088  0.511155  0.750000  1
  Li  Li1  1  0.842912  0.488845  0.250000  1
  Li  Li2  1  0.342912  0.011155  0.250000  1
  Li  Li3  1  0.657088  0.988845  0.750000  1
  Tm  Tm4  1  0.330512  0.162475  0.629034  1
  Tm  Tm5  1  0.669488  0.837525  0.370966  1
  Tm  Tm6  1  0.169488  0.662475  0.370966  1
  Tm  Tm7  1  0.669488  0.837525  0.129034  1
  Tm  Tm8  1  0.830512  0.337525  0.629034  1
  Tm  Tm9  1  0.330512  0.162475  0.870966  1
  Tm  Tm10  1  0.830512  0.337525  0.870966  1
  Tm  Tm11  1  0.169488  0.662475  0.129034  1
  Tm  Tm12  1  0.997687  0.188782  0.090335  1
  Tm  Tm13  1  0.002313  0.811218  0.909665  1
  Tm  Tm14  1  0.502313  0.688782  0.909665  1
  Tm  Tm15  1  0.002313  0.811218  0.590335  1
  Tm  Tm16  1  0.497687  0.311218  0.090335  1
  Tm  Tm17  1  0.997687  0.188782  0.409665  1
  Tm  Tm18  1  0.497687  0.311218  0.409665  1
  Tm  Tm19  1  0.502313  0.688782  0.590335  1
  Sn  Sn20  1  0.010158  0.089921  0.750000  1
  Sn  Sn21  1  0.989842  0.910079  0.250000  1
  Sn  Sn22  1  0.489842  0.589921  0.250000  1
  Sn  Sn23  1  0.510158  0.410079  0.750000  1
  Sn  Sn24  1  0.300293  0.844566  0.750000  1
  Sn  Sn25  1  0.699707  0.155434  0.250000  1
  Sn  Sn26  1  0.199707  0.344566  0.250000  1
  Sn  Sn27  1  0.800293  0.655434  0.750000  1
  Sn  Sn28  1  0.183932  0.461238  0.541047  1
  Sn  Sn29  1  0.816068  0.538762  0.458953  1
  Sn  Sn30  1  0.316068  0.961238  0.458953  1
  Sn  Sn31  1  0.816068  0.538762  0.041047  1
  Sn  Sn32  1  0.683932  0.038762  0.541047  1
  Sn  Sn33  1  0.183932  0.461238  0.958953  1
  Sn  Sn34  1  0.683932  0.038762  0.958953  1
  Sn  Sn35  1  0.316068  0.961238  0.041047  1
