# generated using pymatgen
data_YHo9(In2Bi)2
_symmetry_space_group_name_H-M   'P 1'
_cell_length_a   9.02172304
_cell_length_b   9.01625758
_cell_length_c   6.61050000
_cell_angle_alpha   90.00000000
_cell_angle_beta   90.00000000
_cell_angle_gamma   119.99646501
_symmetry_Int_Tables_number   1
_chemical_formula_structural   YHo9(In2Bi)2
_chemical_formula_sum   'Y1 Ho9 In4 Bi2'
_cell_volume   465.68924797
_cell_formula_units_Z   1
loop_
 _symmetry_equiv_pos_site_id
 _symmetry_equiv_pos_as_xyz
  1  'x, y, z'
loop_
 _atom_site_type_symbol
 _atom_site_label
 _atom_site_symmetry_multiplicity
 _atom_site_fract_x
 _atom_site_fract_y
 _atom_site_fract_z
 _atom_site_occupancy
  Y  Y0  1  0.768789  0.760722  0.750000  1
  Ho  Ho1  1  0.670702  0.337827  0.006496  1
  Ho  Ho2  1  0.329213  0.667131  0.006513  1
  Ho  Ho3  1  0.329213  0.667131  0.493487  1
  Ho  Ho4  1  0.670702  0.337827  0.493504  1
  Ho  Ho5  1  0.231234  0.991699  0.750000  1
  Ho  Ho6  1  0.000117  0.242684  0.750000  1
  Ho  Ho7  1  0.237497  0.237819  0.250000  1
  Ho  Ho8  1  0.762453  0.000428  0.250000  1
  Ho  Ho9  1  0.000110  0.760588  0.250000  1
  In  In10  1  0.000268  0.597924  0.750000  1
  In  In11  1  0.604334  0.606451  0.250000  1
  In  In12  1  0.395621  0.002138  0.250000  1
  In  In13  1  0.999991  0.396204  0.250000  1
  Bi  Bi14  1  0.394747  0.393953  0.750000  1
  Bi  Bi15  1  0.605008  0.999473  0.750000  1
