# generated using pymatgen
data_Al3Ga4IrSe12
_symmetry_space_group_name_H-M   'P 1'
_cell_length_a   3.80974800
_cell_length_b   10.45054802
_cell_length_c   12.72555116
_cell_angle_alpha   89.18077057
_cell_angle_beta   90.00000000
_cell_angle_gamma   90.00000000
_symmetry_Int_Tables_number   1
_chemical_formula_structural   Al3Ga4IrSe12
_chemical_formula_sum   'Al3 Ga4 Ir1 Se12'
_cell_volume   506.60272450
_cell_formula_units_Z   1
loop_
 _symmetry_equiv_pos_site_id
 _symmetry_equiv_pos_as_xyz
  1  'x, y, z'
loop_
 _atom_site_type_symbol
 _atom_site_label
 _atom_site_symmetry_multiplicity
 _atom_site_fract_x
 _atom_site_fract_y
 _atom_site_fract_z
 _atom_site_occupancy
  Al  Al0  1  0.250000  0.401830  0.614941  1
  Al  Al1  1  0.750000  0.603160  0.388406  1
  Al  Al2  1  0.250000  0.897073  0.886629  1
  Ga  Ga3  1  0.750000  0.265619  0.797650  1
  Ga  Ga4  1  0.250000  0.740117  0.205802  1
  Ga  Ga5  1  0.750000  0.765392  0.706878  1
  Ga  Ga6  1  0.250000  0.236553  0.296231  1
  Ir  Ir7  1  0.750000  0.088765  0.105912  1
  Se  Se8  1  0.250000  0.932898  0.091053  1
  Se  Se9  1  0.750000  0.070150  0.907333  1
  Se  Se10  1  0.250000  0.429199  0.407443  1
  Se  Se11  1  0.750000  0.575722  0.597058  1
  Se  Se12  1  0.750000  0.088949  0.304837  1
  Se  Se13  1  0.250000  0.910747  0.683074  1
  Se  Se14  1  0.750000  0.595268  0.183141  1
  Se  Se15  1  0.250000  0.409648  0.819307  1
  Se  Se16  1  0.250000  0.249529  0.104164  1
  Se  Se17  1  0.750000  0.733748  0.896858  1
  Se  Se18  1  0.250000  0.766347  0.395300  1
  Se  Se19  1  0.750000  0.239286  0.607981  1
