# generated using pymatgen
data_Yb5CeRu2
_symmetry_space_group_name_H-M   'P 1'
_cell_length_a   6.36876746
_cell_length_b   7.51169706
_cell_length_c   9.61605800
_cell_angle_alpha   90.00000000
_cell_angle_beta   90.00000000
_cell_angle_gamma   86.95151815
_symmetry_Int_Tables_number   1
_chemical_formula_structural   Yb5CeRu2
_chemical_formula_sum   'Yb10 Ce2 Ru4'
_cell_volume   459.38363766
_cell_formula_units_Z   2
loop_
 _symmetry_equiv_pos_site_id
 _symmetry_equiv_pos_as_xyz
  1  'x, y, z'
loop_
 _atom_site_type_symbol
 _atom_site_label
 _atom_site_symmetry_multiplicity
 _atom_site_fract_x
 _atom_site_fract_y
 _atom_site_fract_z
 _atom_site_occupancy
  Yb  Yb0  1  0.667878  0.167764  0.068420  1
  Yb  Yb1  1  0.365974  0.540104  0.250000  1
  Yb  Yb2  1  0.842329  0.671893  0.069803  1
  Yb  Yb3  1  0.157671  0.328107  0.930197  1
  Yb  Yb4  1  0.332122  0.832236  0.931580  1
  Yb  Yb5  1  0.634026  0.459896  0.750000  1
  Yb  Yb6  1  0.332122  0.832236  0.568420  1
  Yb  Yb7  1  0.157671  0.328107  0.569803  1
  Yb  Yb8  1  0.842329  0.671893  0.430197  1
  Yb  Yb9  1  0.667878  0.167764  0.431580  1
  Ce  Ce10  1  0.839288  0.941096  0.750000  1
  Ce  Ce11  1  0.160712  0.058904  0.250000  1
  Ru  Ru12  1  0.993516  0.342540  0.250000  1
  Ru  Ru13  1  0.517899  0.103374  0.750000  1
  Ru  Ru14  1  0.482101  0.896626  0.250000  1
  Ru  Ru15  1  0.006484  0.657460  0.750000  1
