# generated using pymatgen
data_TaFe2Rh9
_symmetry_space_group_name_H-M   'P 1'
_cell_length_a   3.85738800
_cell_length_b   3.85738800
_cell_length_c   11.53134400
_cell_angle_alpha   90.00000000
_cell_angle_beta   90.00000000
_cell_angle_gamma   90.00000000
_symmetry_Int_Tables_number   1
_chemical_formula_structural   TaFe2Rh9
_chemical_formula_sum   'Ta1 Fe2 Rh9'
_cell_volume   171.57996634
_cell_formula_units_Z   1
loop_
 _symmetry_equiv_pos_site_id
 _symmetry_equiv_pos_as_xyz
  1  'x, y, z'
loop_
 _atom_site_type_symbol
 _atom_site_label
 _atom_site_symmetry_multiplicity
 _atom_site_fract_x
 _atom_site_fract_y
 _atom_site_fract_z
 _atom_site_occupancy
  Ta  Ta0  1  0.000000  0.000000  0.000000  1
  Fe  Fe1  1  0.000000  0.000000  0.337208  1
  Fe  Fe2  1  0.000000  0.000000  0.662792  1
  Rh  Rh3  1  0.500000  0.500000  0.000000  1
  Rh  Rh4  1  0.500000  0.500000  0.334984  1
  Rh  Rh5  1  0.500000  0.500000  0.665016  1
  Rh  Rh6  1  0.500000  0.000000  0.170581  1
  Rh  Rh7  1  0.500000  0.000000  0.500000  1
  Rh  Rh8  1  0.500000  0.000000  0.829419  1
  Rh  Rh9  1  0.000000  0.500000  0.170581  1
  Rh  Rh10  1  0.000000  0.500000  0.500000  1
  Rh  Rh11  1  0.000000  0.500000  0.829419  1
