# generated using pymatgen
data_Sm3Er(ZnSi3)2
_symmetry_space_group_name_H-M   'P 1'
_cell_length_a   4.15203700
_cell_length_b   4.15338500
_cell_length_c   13.71955600
_cell_angle_alpha   90.00000000
_cell_angle_beta   90.00000000
_cell_angle_gamma   90.00000000
_symmetry_Int_Tables_number   1
_chemical_formula_structural   Sm3Er(ZnSi3)2
_chemical_formula_sum   'Sm3 Er1 Zn2 Si6'
_cell_volume   236.59385566
_cell_formula_units_Z   1
loop_
 _symmetry_equiv_pos_site_id
 _symmetry_equiv_pos_as_xyz
  1  'x, y, z'
loop_
 _atom_site_type_symbol
 _atom_site_label
 _atom_site_symmetry_multiplicity
 _atom_site_fract_x
 _atom_site_fract_y
 _atom_site_fract_z
 _atom_site_occupancy
  Sm  Sm0  1  0.000000  0.000000  0.504561  1
  Sm  Sm1  1  0.500000  0.000000  0.748438  1
  Sm  Sm2  1  0.000000  0.500000  0.244943  1
  Er  Er3  1  0.500000  0.500000  0.004286  1
  Zn  Zn4  1  0.000000  0.000000  0.915504  1
  Zn  Zn5  1  0.500000  0.500000  0.414407  1
  Si  Si6  1  0.000000  0.500000  0.836448  1
  Si  Si7  1  0.500000  0.000000  0.332535  1
  Si  Si8  1  0.000000  0.000000  0.082878  1
  Si  Si9  1  0.500000  0.500000  0.584705  1
  Si  Si10  1  0.500000  0.000000  0.163686  1
  Si  Si11  1  0.000000  0.500000  0.667609  1
