# generated using pymatgen
data_Li4CaPr2NdSi8
_symmetry_space_group_name_H-M   'P 1'
_cell_length_a   3.86028800
_cell_length_b   7.83091640
_cell_length_c   10.54181898
_cell_angle_alpha   89.94597531
_cell_angle_beta   90.00000000
_cell_angle_gamma   90.00000000
_symmetry_Int_Tables_number   1
_chemical_formula_structural   Li4CaPr2NdSi8
_chemical_formula_sum   'Li4 Ca1 Pr2 Nd1 Si8'
_cell_volume   318.67475157
_cell_formula_units_Z   1
loop_
 _symmetry_equiv_pos_site_id
 _symmetry_equiv_pos_as_xyz
  1  'x, y, z'
loop_
 _atom_site_type_symbol
 _atom_site_label
 _atom_site_symmetry_multiplicity
 _atom_site_fract_x
 _atom_site_fract_y
 _atom_site_fract_z
 _atom_site_occupancy
  Li  Li0  1  0.250000  0.997997  0.391255  1
  Li  Li1  1  0.750000  0.005609  0.609533  1
  Li  Li2  1  0.250000  0.493762  0.112078  1
  Li  Li3  1  0.750000  0.504439  0.890206  1
  Ca  Ca4  1  0.750000  0.365025  0.365618  1
  Pr  Pr5  1  0.250000  0.133813  0.864027  1
  Pr  Pr6  1  0.750000  0.865614  0.134445  1
  Nd  Nd7  1  0.250000  0.632984  0.634057  1
  Si  Si8  1  0.750000  0.270763  0.069744  1
  Si  Si9  1  0.250000  0.726967  0.929513  1
  Si  Si10  1  0.750000  0.772766  0.431078  1
  Si  Si11  1  0.250000  0.232977  0.568952  1
  Si  Si12  1  0.750000  0.831739  0.820516  1
  Si  Si13  1  0.250000  0.164451  0.175760  1
  Si  Si14  1  0.750000  0.334723  0.678689  1
  Si  Si15  1  0.250000  0.666372  0.324531  1
