# generated using pymatgen
data_Ta2MnNiP2
_symmetry_space_group_name_H-M   'P 1'
_cell_length_a   3.61007600
_cell_length_b   6.15431708
_cell_length_c   7.01605365
_cell_angle_alpha   89.54872740
_cell_angle_beta   90.00000000
_cell_angle_gamma   90.00000000
_symmetry_Int_Tables_number   1
_chemical_formula_structural   Ta2MnNiP2
_chemical_formula_sum   'Ta4 Mn2 Ni2 P4'
_cell_volume   155.87470447
_cell_formula_units_Z   2
loop_
 _symmetry_equiv_pos_site_id
 _symmetry_equiv_pos_as_xyz
  1  'x, y, z'
loop_
 _atom_site_type_symbol
 _atom_site_label
 _atom_site_symmetry_multiplicity
 _atom_site_fract_x
 _atom_site_fract_y
 _atom_site_fract_z
 _atom_site_occupancy
  Ta  Ta0  1  0.750000  0.981977  0.819982  1
  Ta  Ta1  1  0.250000  0.525061  0.332158  1
  Ta  Ta2  1  0.250000  0.017998  0.180017  1
  Ta  Ta3  1  0.750000  0.474936  0.667836  1
  Mn  Mn4  1  0.750000  0.856632  0.439026  1
  Mn  Mn5  1  0.250000  0.143428  0.560975  1
  Ni  Ni6  1  0.750000  0.351523  0.067361  1
  Ni  Ni7  1  0.250000  0.648467  0.932649  1
  P  P8  1  0.250000  0.779033  0.616814  1
  P  P9  1  0.750000  0.220963  0.383152  1
  P  P10  1  0.250000  0.273474  0.873062  1
  P  P11  1  0.750000  0.726507  0.126969  1
