# generated using pymatgen
data_Lu2ZnB2Rh5
_symmetry_space_group_name_H-M   'P 1'
_cell_length_a   3.15409100
_cell_length_b   9.44171100
_cell_length_c   9.44171100
_cell_angle_alpha   90.00000000
_cell_angle_beta   90.00000000
_cell_angle_gamma   90.00000000
_symmetry_Int_Tables_number   1
_chemical_formula_structural   Lu2ZnB2Rh5
_chemical_formula_sum   'Lu4 Zn2 B4 Rh10'
_cell_volume   281.17430172
_cell_formula_units_Z   2
loop_
 _symmetry_equiv_pos_site_id
 _symmetry_equiv_pos_as_xyz
  1  'x, y, z'
loop_
 _atom_site_type_symbol
 _atom_site_label
 _atom_site_symmetry_multiplicity
 _atom_site_fract_x
 _atom_site_fract_y
 _atom_site_fract_z
 _atom_site_occupancy
  Lu  Lu0  1  0.000000  0.824744  0.175256  1
  Lu  Lu1  1  0.000000  0.324743  0.324743  1
  Lu  Lu2  1  0.000000  0.675256  0.675256  1
  Lu  Lu3  1  0.000000  0.175256  0.824744  1
  Zn  Zn4  1  0.000000  0.500000  0.000000  1
  Zn  Zn5  1  0.000000  0.000000  0.500000  1
  B  B6  1  0.000000  0.124390  0.124390  1
  B  B7  1  0.000000  0.624390  0.375611  1
  B  B8  1  0.000000  0.375611  0.624390  1
  B  B9  1  0.000000  0.875611  0.875611  1
  Rh  Rh10  1  0.500001  0.000000  0.000000  1
  Rh  Rh11  1  0.500001  0.281353  0.070884  1
  Rh  Rh12  1  0.500001  0.570884  0.218649  1
  Rh  Rh13  1  0.500001  0.070884  0.281353  1
  Rh  Rh14  1  0.500001  0.781353  0.429117  1
  Rh  Rh15  1  0.500001  0.500000  0.500000  1
  Rh  Rh16  1  0.500001  0.218649  0.570884  1
  Rh  Rh17  1  0.500001  0.929117  0.718648  1
  Rh  Rh18  1  0.500001  0.429117  0.781353  1
  Rh  Rh19  1  0.500001  0.718648  0.929117  1
