# generated using pymatgen
data_Sc4AlZn(B2Rh5)2
_symmetry_space_group_name_H-M   'P 1'
_cell_length_a   9.36920300
_cell_length_b   9.36920300
_cell_length_c   3.06480300
_cell_angle_alpha   90.00000000
_cell_angle_beta   90.00000000
_cell_angle_gamma   90.00000000
_symmetry_Int_Tables_number   1
_chemical_formula_structural   Sc4AlZn(B2Rh5)2
_chemical_formula_sum   'Sc4 Al1 Zn1 B4 Rh10'
_cell_volume   269.03442923
_cell_formula_units_Z   1
loop_
 _symmetry_equiv_pos_site_id
 _symmetry_equiv_pos_as_xyz
  1  'x, y, z'
loop_
 _atom_site_type_symbol
 _atom_site_label
 _atom_site_symmetry_multiplicity
 _atom_site_fract_x
 _atom_site_fract_y
 _atom_site_fract_z
 _atom_site_occupancy
  Sc  Sc0  1  0.824699  0.324855  0.000000  1
  Sc  Sc1  1  0.324855  0.175301  0.000000  1
  Sc  Sc2  1  0.675145  0.824699  0.000000  1
  Sc  Sc3  1  0.175301  0.675145  0.000000  1
  Al  Al4  1  0.500000  0.500000  0.000000  1
  Zn  Zn5  1  0.000000  0.000000  0.000000  1
  B  B6  1  0.627059  0.122757  0.000000  1
  B  B7  1  0.122757  0.372941  0.000000  1
  B  B8  1  0.877243  0.627059  0.000000  1
  B  B9  1  0.372941  0.877243  0.000000  1
  Rh  Rh10  1  0.070896  0.217511  0.500000  1
  Rh  Rh11  1  0.217511  0.929104  0.500000  1
  Rh  Rh12  1  0.782489  0.070896  0.500000  1
  Rh  Rh13  1  0.929104  0.782489  0.500000  1
  Rh  Rh14  1  0.430311  0.716126  0.500000  1
  Rh  Rh15  1  0.569689  0.283874  0.500000  1
  Rh  Rh16  1  0.716126  0.569689  0.500000  1
  Rh  Rh17  1  0.283874  0.430311  0.500000  1
  Rh  Rh18  1  0.500000  0.000000  0.500000  1
  Rh  Rh19  1  0.000000  0.500000  0.500000  1
