# generated using pymatgen
data_CaLaPrB10O19
_symmetry_space_group_name_H-M   'P 1'
_cell_length_a   6.46881244
_cell_length_b   6.46714505
_cell_length_c   9.18218021
_cell_angle_alpha   91.50790303
_cell_angle_beta   91.48850109
_cell_angle_gamma   61.52929849
_symmetry_Int_Tables_number   1
_chemical_formula_structural   CaLaPrB10O19
_chemical_formula_sum   'Ca1 La1 Pr1 B10 O19'
_cell_volume   337.52102018
_cell_formula_units_Z   1
loop_
 _symmetry_equiv_pos_site_id
 _symmetry_equiv_pos_as_xyz
  1  'x, y, z'
loop_
 _atom_site_type_symbol
 _atom_site_label
 _atom_site_symmetry_multiplicity
 _atom_site_fract_x
 _atom_site_fract_y
 _atom_site_fract_z
 _atom_site_occupancy
  Ca  Ca0  1  0.189319  0.811045  0.499921  1
  La  La1  1  0.841205  0.834777  0.855608  1
  Pr  Pr2  1  0.167102  0.156421  0.143660  1
  B  B3  1  0.240560  0.625059  0.126475  1
  B  B4  1  0.637126  0.283794  0.161842  1
  B  B5  1  0.814528  0.839363  0.208095  1
  B  B6  1  0.555513  0.674159  0.270419  1
  B  B7  1  0.746506  0.788364  0.471501  1
  B  B8  1  0.211409  0.253340  0.527860  1
  B  B9  1  0.326036  0.444438  0.729070  1
  B  B10  1  0.160816  0.185502  0.791787  1
  B  B11  1  0.715950  0.363007  0.838342  1
  B  B12  1  0.374423  0.759279  0.873826  1
  O  O13  1  0.234856  0.766099  0.000624  1
  O  O14  1  0.409068  0.365427  0.114539  1
  O  O15  1  0.805343  0.051947  0.134565  1
  O  O16  1  0.010006  0.634015  0.136400  1
  O  O17  1  0.590659  0.840807  0.181356  1
  O  O18  1  0.719090  0.425397  0.222542  1
  O  O19  1  0.307292  0.726097  0.253637  1
  O  O20  1  0.856275  0.852795  0.365015  1
  O  O21  1  0.192426  0.195274  0.388058  1
  O  O22  1  0.594433  0.702382  0.427351  1
  O  O23  1  0.297352  0.405721  0.572304  1
  O  O24  1  0.804176  0.807437  0.611780  1
  O  O25  1  0.147055  0.143635  0.635012  1
  O  O26  1  0.274529  0.692567  0.746248  1
  O  O27  1  0.575208  0.281011  0.776422  1
  O  O28  1  0.161013  0.408209  0.818473  1
  O  O29  1  0.364863  0.990241  0.864197  1
  O  O30  1  0.948070  0.196727  0.866759  1
  O  O31  1  0.632886  0.590562  0.886309  1
