# generated using pymatgen
data_Dy4Si3(IrRh)2
_symmetry_space_group_name_H-M   'P 1'
_cell_length_a   10.68551391
_cell_length_b   10.68551399
_cell_length_c   7.72849825
_cell_angle_alpha   71.77975713
_cell_angle_beta   71.77975568
_cell_angle_gamma   30.05014162
_symmetry_Int_Tables_number   1
_chemical_formula_structural   Dy4Si3(IrRh)2
_chemical_formula_sum   'Dy8 Si6 Ir4 Rh4'
_cell_volume   418.09216999
_cell_formula_units_Z   2
loop_
 _symmetry_equiv_pos_site_id
 _symmetry_equiv_pos_as_xyz
  1  'x, y, z'
loop_
 _atom_site_type_symbol
 _atom_site_label
 _atom_site_symmetry_multiplicity
 _atom_site_fract_x
 _atom_site_fract_y
 _atom_site_fract_z
 _atom_site_occupancy
  Dy  Dy0  1  0.787738  0.552151  0.598879  1
  Dy  Dy1  1  0.447849  0.212262  0.901121  1
  Dy  Dy2  1  0.212262  0.447849  0.401121  1
  Dy  Dy3  1  0.552151  0.787738  0.098879  1
  Dy  Dy4  1  0.791506  0.070305  0.171301  1
  Dy  Dy5  1  0.929695  0.208494  0.328699  1
  Dy  Dy6  1  0.208494  0.929695  0.828699  1
  Dy  Dy7  1  0.070305  0.791506  0.671301  1
  Si  Si8  1  0.953377  0.702444  0.057596  1
  Si  Si9  1  0.297556  0.046623  0.442404  1
  Si  Si10  1  0.046623  0.297556  0.942404  1
  Si  Si11  1  0.702444  0.953377  0.557596  1
  Si  Si12  1  0.606927  0.393073  0.750000  1
  Si  Si13  1  0.393073  0.606927  0.250000  1
  Ir  Ir14  1  0.587858  0.287883  0.525474  1
  Ir  Ir15  1  0.712117  0.412142  0.974526  1
  Ir  Ir16  1  0.412142  0.712117  0.474526  1
  Ir  Ir17  1  0.287883  0.587858  0.025474  1
  Rh  Rh18  1  0.629583  0.928586  0.309535  1
  Rh  Rh19  1  0.071414  0.370417  0.190465  1
  Rh  Rh20  1  0.370417  0.071414  0.690465  1
  Rh  Rh21  1  0.928586  0.629583  0.809535  1
