# generated using pymatgen
data_Dy3In3CuAgIr
_symmetry_space_group_name_H-M   'P 1'
_cell_length_a   7.66547400
_cell_length_b   7.66547258
_cell_length_c   3.90334600
_cell_angle_alpha   90.00000000
_cell_angle_beta   90.00000000
_cell_angle_gamma   120.00000728
_symmetry_Int_Tables_number   1
_chemical_formula_structural   Dy3In3CuAgIr
_chemical_formula_sum   'Dy3 In3 Cu1 Ag1 Ir1'
_cell_volume   198.63034593
_cell_formula_units_Z   1
loop_
 _symmetry_equiv_pos_site_id
 _symmetry_equiv_pos_as_xyz
  1  'x, y, z'
loop_
 _atom_site_type_symbol
 _atom_site_label
 _atom_site_symmetry_multiplicity
 _atom_site_fract_x
 _atom_site_fract_y
 _atom_site_fract_z
 _atom_site_occupancy
  Dy  Dy0  1  0.394017  0.973753  0.500000  1
  Dy  Dy1  1  0.026247  0.420265  0.500000  1
  Dy  Dy2  1  0.579735  0.605983  0.500000  1
  In  In3  1  0.750505  0.002889  0.000000  1
  In  In4  1  0.997111  0.747617  0.000000  1
  In  In5  1  0.252383  0.249495  0.000000  1
  Cu  Cu6  1  0.000000  0.000000  0.500000  1
  Ag  Ag7  1  0.666667  0.333333  0.000000  1
  Ir  Ir8  1  0.333333  0.666667  0.000000  1
