# generated using pymatgen
data_TbBe3Ir2
_symmetry_space_group_name_H-M   'P 1'
_cell_length_a   4.94127302
_cell_length_b   5.50660404
_cell_length_c   3.56222400
_cell_angle_alpha   90.00000000
_cell_angle_beta   90.00000000
_cell_angle_gamma   123.86272658
_symmetry_Int_Tables_number   1
_chemical_formula_structural   TbBe3Ir2
_chemical_formula_sum   'Tb1 Be3 Ir2'
_cell_volume   80.48559570
_cell_formula_units_Z   1
loop_
 _symmetry_equiv_pos_site_id
 _symmetry_equiv_pos_as_xyz
  1  'x, y, z'
loop_
 _atom_site_type_symbol
 _atom_site_label
 _atom_site_symmetry_multiplicity
 _atom_site_fract_x
 _atom_site_fract_y
 _atom_site_fract_z
 _atom_site_occupancy
  Tb  Tb0  1  0.000000  0.000000  0.000000  1
  Be  Be1  1  0.690866  0.345434  0.000000  1
  Be  Be2  1  0.309135  0.654568  0.000000  1
  Be  Be3  1  0.000000  0.499999  0.500000  1
  Ir  Ir4  1  0.500000  0.000000  0.500000  1
  Ir  Ir5  1  0.499999  0.499999  0.500000  1
