# generated using pymatgen
data_Sm2MnFe7Co4P7
_symmetry_space_group_name_H-M   'P 1'
_cell_length_a   9.04342023
_cell_length_b   9.06576940
_cell_length_c   3.63790200
_cell_angle_alpha   90.00000000
_cell_angle_beta   90.00000000
_cell_angle_gamma   120.07560916
_symmetry_Int_Tables_number   1
_chemical_formula_structural   Sm2MnFe7Co4P7
_chemical_formula_sum   'Sm2 Mn1 Fe7 Co4 P7'
_cell_volume   258.09977099
_cell_formula_units_Z   1
loop_
 _symmetry_equiv_pos_site_id
 _symmetry_equiv_pos_as_xyz
  1  'x, y, z'
loop_
 _atom_site_type_symbol
 _atom_site_label
 _atom_site_symmetry_multiplicity
 _atom_site_fract_x
 _atom_site_fract_y
 _atom_site_fract_z
 _atom_site_occupancy
  Sm  Sm0  1  0.666304  0.331767  0.000000  1
  Sm  Sm1  1  0.331050  0.666786  0.500000  1
  Mn  Mn2  1  0.884172  0.781157  0.000000  1
  Fe  Fe3  1  0.627964  0.569244  0.500000  1
  Fe  Fe4  1  0.154264  0.273454  0.500000  1
  Fe  Fe5  1  0.726726  0.879899  0.500000  1
  Fe  Fe6  1  0.118749  0.848992  0.500000  1
  Fe  Fe7  1  0.048694  0.614039  0.000000  1
  Fe  Fe8  1  0.228892  0.103451  0.000000  1
  Fe  Fe9  1  0.898822  0.126418  0.000000  1
  Co  Co10  1  0.430095  0.057847  0.500000  1
  Co  Co11  1  0.941222  0.368392  0.500000  1
  Co  Co12  1  0.383152  0.433609  0.000000  1
  Co  Co13  1  0.564381  0.949632  0.000000  1
  P  P14  1  0.109918  0.398288  0.000000  1
  P  P15  1  0.597316  0.708408  0.000000  1
  P  P16  1  0.284453  0.887949  0.000000  1
  P  P17  1  0.001077  0.004013  0.500000  1
  P  P18  1  0.406316  0.297485  0.500000  1
  P  P19  1  0.704164  0.107766  0.500000  1
  P  P20  1  0.892269  0.591405  0.500000  1
