# generated using pymatgen
data_TbHo19(Bi2As)4
_symmetry_space_group_name_H-M   'P 1'
_cell_length_a   8.03639298
_cell_length_b   9.13470500
_cell_length_c   12.04331847
_cell_angle_alpha   90.00000000
_cell_angle_beta   90.05655895
_cell_angle_gamma   90.00000000
_symmetry_Int_Tables_number   1
_chemical_formula_structural   TbHo19(Bi2As)4
_chemical_formula_sum   'Tb1 Ho19 Bi8 As4'
_cell_volume   884.10053085
_cell_formula_units_Z   1
loop_
 _symmetry_equiv_pos_site_id
 _symmetry_equiv_pos_as_xyz
  1  'x, y, z'
loop_
 _atom_site_type_symbol
 _atom_site_label
 _atom_site_symmetry_multiplicity
 _atom_site_fract_x
 _atom_site_fract_y
 _atom_site_fract_z
 _atom_site_occupancy
  Tb  Tb0  1  0.156631  0.750000  0.211442  1
  Ho  Ho1  1  0.817169  0.556174  0.062803  1
  Ho  Ho2  1  0.682857  0.943828  0.562826  1
  Ho  Ho3  1  0.182835  0.056210  0.937168  1
  Ho  Ho4  1  0.317142  0.443600  0.437219  1
  Ho  Ho5  1  0.182835  0.443790  0.937168  1
  Ho  Ho6  1  0.317142  0.056400  0.437219  1
  Ho  Ho7  1  0.817169  0.943826  0.062803  1
  Ho  Ho8  1  0.682857  0.556172  0.562826  1
  Ho  Ho9  1  0.343771  0.750000  0.710917  1
  Ho  Ho10  1  0.843779  0.250000  0.789196  1
  Ho  Ho11  1  0.656210  0.250000  0.289208  1
  Ho  Ho12  1  0.463800  0.750000  0.999863  1
  Ho  Ho13  1  0.036084  0.750000  0.500064  1
  Ho  Ho14  1  0.536208  0.250000  0.000052  1
  Ho  Ho15  1  0.963733  0.250000  0.500005  1
  Ho  Ho16  1  0.634378  0.750000  0.292775  1
  Ho  Ho17  1  0.865935  0.750000  0.792793  1
  Ho  Ho18  1  0.365963  0.250000  0.707214  1
  Ho  Ho19  1  0.134234  0.250000  0.207297  1
  Bi  Bi20  1  0.925119  0.509537  0.327102  1
  Bi  Bi21  1  0.574400  0.990056  0.826806  1
  Bi  Bi22  1  0.074398  0.009981  0.673131  1
  Bi  Bi23  1  0.426053  0.489709  0.173100  1
  Bi  Bi24  1  0.074398  0.490019  0.673131  1
  Bi  Bi25  1  0.426053  0.010291  0.173100  1
  Bi  Bi26  1  0.925119  0.990463  0.327102  1
  Bi  Bi27  1  0.574400  0.509944  0.826806  1
  As  As28  1  0.412604  0.750000  0.478468  1
  As  As29  1  0.086748  0.750000  0.977648  1
  As  As30  1  0.587213  0.250000  0.521406  1
  As  As31  1  0.912765  0.250000  0.021338  1
