# generated using pymatgen
data_BaUNO2
_symmetry_space_group_name_H-M   'P 1'
_cell_length_a   6.27488200
_cell_length_b   6.28922100
_cell_length_c   8.56805900
_cell_angle_alpha   90.00000000
_cell_angle_beta   90.00000000
_cell_angle_gamma   90.00000000
_symmetry_Int_Tables_number   1
_chemical_formula_structural   BaUNO2
_chemical_formula_sum   'Ba4 U4 N4 O8'
_cell_volume   338.13090552
_cell_formula_units_Z   4
loop_
 _symmetry_equiv_pos_site_id
 _symmetry_equiv_pos_as_xyz
  1  'x, y, z'
loop_
 _atom_site_type_symbol
 _atom_site_label
 _atom_site_symmetry_multiplicity
 _atom_site_fract_x
 _atom_site_fract_y
 _atom_site_fract_z
 _atom_site_occupancy
  Ba  Ba0  1  0.009213  0.998772  0.750000  1
  Ba  Ba1  1  0.490788  0.498772  0.250000  1
  Ba  Ba2  1  0.509212  0.501228  0.750000  1
  Ba  Ba3  1  0.990788  0.001228  0.250000  1
  U  U4  1  0.000000  0.500000  0.000000  1
  U  U5  1  0.000000  0.500000  0.500000  1
  U  U6  1  0.500000  0.000000  0.500000  1
  U  U7  1  0.500000  0.000000  0.000000  1
  N  N8  1  0.502222  0.960060  0.250000  1
  N  N9  1  0.002222  0.539940  0.250000  1
  N  N10  1  0.497778  0.039940  0.750000  1
  N  N11  1  0.997778  0.460060  0.750000  1
  O  O12  1  0.235240  0.235764  0.022306  1
  O  O13  1  0.735240  0.264236  0.477694  1
  O  O14  1  0.735240  0.264236  0.022306  1
  O  O15  1  0.764760  0.764236  0.522306  1
  O  O16  1  0.235240  0.235764  0.477694  1
  O  O17  1  0.264760  0.735764  0.977694  1
  O  O18  1  0.264760  0.735764  0.522306  1
  O  O19  1  0.764760  0.764236  0.977694  1
