# generated using pymatgen
data_Ca3Yb2Sb3
_symmetry_space_group_name_H-M   'P 1'
_cell_length_a   9.05654400
_cell_length_b   9.05654335
_cell_length_c   6.96035000
_cell_angle_alpha   90.00000000
_cell_angle_beta   90.00000000
_cell_angle_gamma   119.99999507
_symmetry_Int_Tables_number   1
_chemical_formula_structural   Ca3Yb2Sb3
_chemical_formula_sum   'Ca6 Yb4 Sb6'
_cell_volume   494.40938206
_cell_formula_units_Z   2
loop_
 _symmetry_equiv_pos_site_id
 _symmetry_equiv_pos_as_xyz
  1  'x, y, z'
loop_
 _atom_site_type_symbol
 _atom_site_label
 _atom_site_symmetry_multiplicity
 _atom_site_fract_x
 _atom_site_fract_y
 _atom_site_fract_z
 _atom_site_occupancy
  Ca  Ca0  1  0.252220  0.000000  0.250000  1
  Ca  Ca1  1  0.252220  0.252220  0.750000  1
  Ca  Ca2  1  0.000000  0.747780  0.750000  1
  Ca  Ca3  1  0.000000  0.252220  0.250000  1
  Ca  Ca4  1  0.747780  0.747780  0.250000  1
  Ca  Ca5  1  0.747780  0.000000  0.750000  1
  Yb  Yb6  1  0.333333  0.666667  0.000000  1
  Yb  Yb7  1  0.666667  0.333333  0.500000  1
  Yb  Yb8  1  0.666667  0.333333  0.000000  1
  Yb  Yb9  1  0.333333  0.666667  0.500000  1
  Sb  Sb10  1  0.610633  0.000000  0.250000  1
  Sb  Sb11  1  0.610633  0.610633  0.750000  1
  Sb  Sb12  1  0.000000  0.389367  0.750000  1
  Sb  Sb13  1  0.000000  0.610633  0.250000  1
  Sb  Sb14  1  0.389367  0.389367  0.250000  1
  Sb  Sb15  1  0.389367  0.000000  0.750000  1
