# generated using pymatgen
data_DyHo7Re2(B12Os)2
_symmetry_space_group_name_H-M   'P 1'
_cell_length_a   3.66030600
_cell_length_b   9.14697069
_cell_length_c   11.53200702
_cell_angle_alpha   90.13759713
_cell_angle_beta   90.00000000
_cell_angle_gamma   90.00000000
_symmetry_Int_Tables_number   1
_chemical_formula_structural   DyHo7Re2(B12Os)2
_chemical_formula_sum   'Dy1 Ho7 Re2 B24 Os2'
_cell_volume   386.09868888
_cell_formula_units_Z   1
loop_
 _symmetry_equiv_pos_site_id
 _symmetry_equiv_pos_as_xyz
  1  'x, y, z'
loop_
 _atom_site_type_symbol
 _atom_site_label
 _atom_site_symmetry_multiplicity
 _atom_site_fract_x
 _atom_site_fract_y
 _atom_site_fract_z
 _atom_site_occupancy
  Dy  Dy0  1  0.000000  0.320817  0.412480  1
  Ho  Ho1  1  0.000000  0.679247  0.587543  1
  Ho  Ho2  1  0.000000  0.824637  0.084721  1
  Ho  Ho3  1  0.000000  0.175356  0.915268  1
  Ho  Ho4  1  0.000000  0.943337  0.370779  1
  Ho  Ho5  1  0.000000  0.056567  0.629245  1
  Ho  Ho6  1  0.000000  0.442585  0.128765  1
  Ho  Ho7  1  0.000000  0.557435  0.871204  1
  Re  Re8  1  0.000000  0.138225  0.179461  1
  Re  Re9  1  0.000000  0.861698  0.820449  1
  B  B10  1  0.500000  0.553803  0.433104  1
  B  B11  1  0.500000  0.446376  0.566995  1
  B  B12  1  0.500000  0.053034  0.066797  1
  B  B13  1  0.500000  0.946952  0.933200  1
  B  B14  1  0.500000  0.748648  0.418868  1
  B  B15  1  0.500000  0.251349  0.581299  1
  B  B16  1  0.500000  0.248713  0.080938  1
  B  B17  1  0.500000  0.751287  0.919042  1
  B  B18  1  0.500000  0.790746  0.265881  1
  B  B19  1  0.500000  0.209259  0.734144  1
  B  B20  1  0.500000  0.291671  0.234509  1
  B  B21  1  0.500000  0.708248  0.765355  1
  B  B22  1  0.500000  0.630940  0.186020  1
  B  B23  1  0.500000  0.369085  0.813974  1
  B  B24  1  0.500000  0.131287  0.314776  1
  B  B25  1  0.500000  0.868588  0.685131  1
  B  B26  1  0.500000  0.982560  0.212483  1
  B  B27  1  0.500000  0.017421  0.787511  1
  B  B28  1  0.500000  0.483093  0.287922  1
  B  B29  1  0.500000  0.517084  0.712019  1
  B  B30  1  0.500000  0.603361  0.028870  1
  B  B31  1  0.500000  0.396647  0.971120  1
  B  B32  1  0.500000  0.103663  0.471455  1
  B  B33  1  0.500000  0.896121  0.528601  1
  Os  Os34  1  0.000000  0.637551  0.321875  1
  Os  Os35  1  0.000000  0.362612  0.678197  1
