# generated using pymatgen
data_Ti3BeRe2P2Ru
_symmetry_space_group_name_H-M   'P 1'
_cell_length_a   6.54190656
_cell_length_b   6.54190719
_cell_length_c   3.25957900
_cell_angle_alpha   90.00000000
_cell_angle_beta   90.00000000
_cell_angle_gamma   120.27296465
_symmetry_Int_Tables_number   1
_chemical_formula_structural   Ti3BeRe2P2Ru
_chemical_formula_sum   'Ti3 Be1 Re2 P2 Ru1'
_cell_volume   120.47577138
_cell_formula_units_Z   1
loop_
 _symmetry_equiv_pos_site_id
 _symmetry_equiv_pos_as_xyz
  1  'x, y, z'
loop_
 _atom_site_type_symbol
 _atom_site_label
 _atom_site_symmetry_multiplicity
 _atom_site_fract_x
 _atom_site_fract_y
 _atom_site_fract_z
 _atom_site_occupancy
  Ti  Ti0  1  0.394894  0.394894  0.500000  1
  Ti  Ti1  1  0.601163  0.007375  0.500000  1
  Ti  Ti2  1  0.007375  0.601163  0.500000  1
  Be  Be3  1  0.993973  0.993973  0.500000  1
  Re  Re4  1  0.000699  0.251400  0.000000  1
  Re  Re5  1  0.251400  0.000699  0.000000  1
  P  P6  1  0.668190  0.336827  0.000000  1
  P  P7  1  0.336827  0.668190  0.000000  1
  Ru  Ru8  1  0.745479  0.745479  0.000000  1
