# generated using pymatgen
data_Hf4Ti4As3Se
_symmetry_space_group_name_H-M   'P 1'
_cell_length_a   6.89028032
_cell_length_b   3.61568500
_cell_length_c   8.41036599
_cell_angle_alpha   90.00000000
_cell_angle_beta   89.58499023
_cell_angle_gamma   90.00000000
_symmetry_Int_Tables_number   1
_chemical_formula_structural   Hf4Ti4As3Se
_chemical_formula_sum   'Hf4 Ti4 As3 Se1'
_cell_volume   209.52265132
_cell_formula_units_Z   1
loop_
 _symmetry_equiv_pos_site_id
 _symmetry_equiv_pos_as_xyz
  1  'x, y, z'
loop_
 _atom_site_type_symbol
 _atom_site_label
 _atom_site_symmetry_multiplicity
 _atom_site_fract_x
 _atom_site_fract_y
 _atom_site_fract_z
 _atom_site_occupancy
  Hf  Hf0  1  0.955508  0.750001  0.165765  1
  Hf  Hf1  1  0.461473  0.750001  0.336890  1
  Hf  Hf2  1  0.541623  0.250000  0.666517  1
  Hf  Hf3  1  0.039128  0.250000  0.830466  1
  Ti  Ti4  1  0.633813  0.250000  0.060154  1
  Ti  Ti5  1  0.133948  0.250000  0.439608  1
  Ti  Ti6  1  0.868906  0.750001  0.559199  1
  Ti  Ti7  1  0.364886  0.750001  0.940878  1
  As  As8  1  0.758701  0.250000  0.360309  1
  As  As9  1  0.242635  0.750001  0.640550  1
  As  As10  1  0.739306  0.750001  0.857866  1
  Se  Se11  1  0.260074  0.250000  0.141795  1
