# generated using pymatgen
data_Rb3LiTi7O16
_symmetry_space_group_name_H-M   'P 1'
_cell_length_a   7.11290674
_cell_length_b   7.14151891
_cell_length_c   8.51293573
_cell_angle_alpha   97.41115716
_cell_angle_beta   96.55128189
_cell_angle_gamma   114.72529574
_symmetry_Int_Tables_number   1
_chemical_formula_structural   Rb3LiTi7O16
_chemical_formula_sum   'Rb3 Li1 Ti7 O16'
_cell_volume   382.66758637
_cell_formula_units_Z   1
loop_
 _symmetry_equiv_pos_site_id
 _symmetry_equiv_pos_as_xyz
  1  'x, y, z'
loop_
 _atom_site_type_symbol
 _atom_site_label
 _atom_site_symmetry_multiplicity
 _atom_site_fract_x
 _atom_site_fract_y
 _atom_site_fract_z
 _atom_site_occupancy
  Rb  Rb0  1  0.759376  0.242012  0.015915  1
  Rb  Rb1  1  0.439398  0.562857  0.009699  1
  Rb  Rb2  1  0.117309  0.891276  0.006068  1
  Li  Li3  1  0.529988  0.152945  0.369678  1
  Ti  Ti4  1  0.771833  0.912022  0.368977  1
  Ti  Ti5  1  0.716351  0.589309  0.622367  1
  Ti  Ti6  1  0.961928  0.341157  0.622447  1
  Ti  Ti7  1  0.469936  0.847635  0.623009  1
  Ti  Ti8  1  0.034997  0.659274  0.385660  1
  Ti  Ti9  1  0.288929  0.396094  0.368911  1
  Ti  Ti10  1  0.223952  0.095858  0.622381  1
  O  O11  1  0.872725  0.739027  0.245977  1
  O  O12  1  0.958486  0.829961  0.577119  1
  O  O13  1  0.624439  0.966412  0.221801  1
  O  O14  1  0.808324  0.431520  0.449239  1
  O  O15  1  0.547960  0.671983  0.439636  1
  O  O16  1  0.292270  0.918407  0.449443  1
  O  O17  1  0.866313  0.493800  0.764610  1
  O  O18  1  0.631502  0.758800  0.760427  1
  O  O19  1  0.445405  0.339129  0.568366  1
  O  O20  1  0.129607  0.507199  0.246737  1
  O  O21  1  0.711303  0.071599  0.566074  1
  O  O22  1  0.363897  0.265070  0.221922  1
  O  O23  1  0.206210  0.583830  0.578420  1
  O  O24  1  0.388280  0.016384  0.764393  1
  O  O25  1  0.046624  0.171176  0.435095  1
  O  O26  1  0.120932  0.248539  0.758722  1
