# generated using pymatgen
data_Sr2CaLaAs7Ir8
_symmetry_space_group_name_H-M   'P 1'
_cell_length_a   4.14293700
_cell_length_b   13.26261717
_cell_length_c   13.80562639
_cell_angle_alpha   81.68039399
_cell_angle_beta   90.00000000
_cell_angle_gamma   90.00000000
_symmetry_Int_Tables_number   1
_chemical_formula_structural   Sr2CaLaAs7Ir8
_chemical_formula_sum   'Sr4 Ca2 La2 As14 Ir16'
_cell_volume   750.58363384
_cell_formula_units_Z   2
loop_
 _symmetry_equiv_pos_site_id
 _symmetry_equiv_pos_as_xyz
  1  'x, y, z'
loop_
 _atom_site_type_symbol
 _atom_site_label
 _atom_site_symmetry_multiplicity
 _atom_site_fract_x
 _atom_site_fract_y
 _atom_site_fract_z
 _atom_site_occupancy
  Sr  Sr0  1  0.250000  0.102486  0.793069  1
  Sr  Sr1  1  0.750000  0.897514  0.206931  1
  Sr  Sr2  1  0.250000  0.285196  0.104438  1
  Sr  Sr3  1  0.750000  0.714804  0.895562  1
  Ca  Ca4  1  0.250000  0.212487  0.435417  1
  Ca  Ca5  1  0.750000  0.787513  0.564583  1
  La  La6  1  0.250000  0.514204  0.291256  1
  La  La7  1  0.750000  0.485796  0.708744  1
  As  As8  1  0.250000  0.057847  0.100813  1
  As  As9  1  0.750000  0.942153  0.899187  1
  As  As10  1  0.250000  0.311496  0.686315  1
  As  As11  1  0.750000  0.688504  0.313685  1
  As  As12  1  0.250000  0.610067  0.562954  1
  As  As13  1  0.750000  0.389933  0.437046  1
  As  As14  1  0.250000  0.846102  0.719321  1
  As  As15  1  0.750000  0.153898  0.280679  1
  As  As16  1  0.750000  0.255906  0.916158  1
  As  As17  1  0.250000  0.744094  0.083842  1
  As  As18  1  0.750000  0.094540  0.584906  1
  As  As19  1  0.250000  0.905460  0.415094  1
  As  As20  1  0.750000  0.469688  0.126306  1
  As  As21  1  0.250000  0.530312  0.873694  1
  Ir  Ir22  1  0.250000  0.983061  0.571954  1
  Ir  Ir23  1  0.750000  0.016939  0.428046  1
  Ir  Ir24  1  0.250000  0.662263  0.727730  1
  Ir  Ir25  1  0.750000  0.337737  0.272270  1
  Ir  Ir26  1  0.250000  0.552969  0.049604  1
  Ir  Ir27  1  0.750000  0.447031  0.950396  1
  Ir  Ir28  1  0.250000  0.058009  0.282327  1
  Ir  Ir29  1  0.750000  0.941991  0.717673  1
  Ir  Ir30  1  0.250000  0.425369  0.526893  1
  Ir  Ir31  1  0.750000  0.574631  0.473107  1
  Ir  Ir32  1  0.250000  0.920336  0.998739  1
  Ir  Ir33  1  0.750000  0.079664  0.001261  1
  Ir  Ir34  1  0.250000  0.722395  0.401596  1
  Ir  Ir35  1  0.750000  0.277605  0.598404  1
  Ir  Ir36  1  0.250000  0.345200  0.858404  1
  Ir  Ir37  1  0.750000  0.654800  0.141596  1
