# generated using pymatgen
data_SmPu(GaPd2)2
_symmetry_space_group_name_H-M   'P 1'
_cell_length_a   5.69752000
_cell_length_b   7.09699800
_cell_length_c   7.54076600
_cell_angle_alpha   90.00000000
_cell_angle_beta   90.00000000
_cell_angle_gamma   90.00000000
_symmetry_Int_Tables_number   1
_chemical_formula_structural   SmPu(GaPd2)2
_chemical_formula_sum   'Sm2 Pu2 Ga4 Pd8'
_cell_volume   304.91304529
_cell_formula_units_Z   2
loop_
 _symmetry_equiv_pos_site_id
 _symmetry_equiv_pos_as_xyz
  1  'x, y, z'
loop_
 _atom_site_type_symbol
 _atom_site_label
 _atom_site_symmetry_multiplicity
 _atom_site_fract_x
 _atom_site_fract_y
 _atom_site_fract_z
 _atom_site_occupancy
  Sm  Sm0  1  0.646771  0.250000  0.965049  1
  Sm  Sm1  1  0.853229  0.250000  0.465049  1
  Pu  Pu2  1  0.352027  0.750000  0.034613  1
  Pu  Pu3  1  0.147973  0.750000  0.534613  1
  Ga  Ga4  1  0.652342  0.750000  0.385849  1
  Ga  Ga5  1  0.847658  0.750000  0.885849  1
  Ga  Ga6  1  0.351478  0.250000  0.614773  1
  Ga  Ga7  1  0.148522  0.250000  0.114773  1
  Pd  Pd8  1  0.912791  0.552114  0.180387  1
  Pd  Pd9  1  0.587209  0.947886  0.680387  1
  Pd  Pd10  1  0.089968  0.050821  0.819471  1
  Pd  Pd11  1  0.410032  0.449179  0.319471  1
  Pd  Pd12  1  0.089968  0.449179  0.819471  1
  Pd  Pd13  1  0.410032  0.050821  0.319471  1
  Pd  Pd14  1  0.912791  0.947886  0.180387  1
  Pd  Pd15  1  0.587209  0.552114  0.680387  1
