# generated using pymatgen
data_DyTmPa(InPt)3
_symmetry_space_group_name_H-M   'P 1'
_cell_length_a   7.64093743
_cell_length_b   7.61519890
_cell_length_c   3.92675200
_cell_angle_alpha   90.00000000
_cell_angle_beta   90.00000000
_cell_angle_gamma   120.02049605
_symmetry_Int_Tables_number   1
_chemical_formula_structural   DyTmPa(InPt)3
_chemical_formula_sum   'Dy1 Tm1 Pa1 In3 Pt3'
_cell_volume   197.83460820
_cell_formula_units_Z   1
loop_
 _symmetry_equiv_pos_site_id
 _symmetry_equiv_pos_as_xyz
  1  'x, y, z'
loop_
 _atom_site_type_symbol
 _atom_site_label
 _atom_site_symmetry_multiplicity
 _atom_site_fract_x
 _atom_site_fract_y
 _atom_site_fract_z
 _atom_site_occupancy
  Dy  Dy0  1  0.002488  0.595921  0.500000  1
  Tm  Tm1  1  0.406255  0.403751  0.500000  1
  Pa  Pa2  1  0.590126  0.000017  0.500000  1
  In  In3  1  0.741731  0.729398  0.000000  1
  In  In4  1  0.012930  0.270250  0.000000  1
  In  In5  1  0.246943  0.000682  0.000000  1
  Pt  Pt6  1  0.350797  0.685676  0.000000  1
  Pt  Pt7  1  0.662930  0.313612  0.000000  1
  Pt  Pt8  1  0.985800  0.000692  0.500000  1
