# generated using pymatgen
data_Tm4Mg2B4(IrRh)5
_symmetry_space_group_name_H-M   'P 1'
_cell_length_a   9.63710499
_cell_length_b   9.62613496
_cell_length_c   3.14449600
_cell_angle_alpha   90.00000000
_cell_angle_beta   90.00000000
_cell_angle_gamma   89.78485860
_symmetry_Int_Tables_number   1
_chemical_formula_structural   Tm4Mg2B4(IrRh)5
_chemical_formula_sum   'Tm4 Mg2 B4 Ir5 Rh5'
_cell_volume   291.70677882
_cell_formula_units_Z   1
loop_
 _symmetry_equiv_pos_site_id
 _symmetry_equiv_pos_as_xyz
  1  'x, y, z'
loop_
 _atom_site_type_symbol
 _atom_site_label
 _atom_site_symmetry_multiplicity
 _atom_site_fract_x
 _atom_site_fract_y
 _atom_site_fract_z
 _atom_site_occupancy
  Tm  Tm0  1  0.677767  0.176796  0.000000  1
  Tm  Tm1  1  0.322715  0.822897  0.000000  1
  Tm  Tm2  1  0.175811  0.324463  0.000000  1
  Tm  Tm3  1  0.824172  0.675349  0.000000  1
  Mg  Mg4  1  0.999535  0.001185  0.000000  1
  Mg  Mg5  1  0.499009  0.500292  0.000000  1
  B  B6  1  0.121856  0.625525  0.000000  1
  B  B7  1  0.875013  0.377977  0.000000  1
  B  B8  1  0.624899  0.877647  0.000000  1
  B  B9  1  0.375762  0.121597  0.000000  1
  Ir  Ir10  1  0.500610  0.999548  0.500000  1
  Ir  Ir11  1  0.223384  0.070804  0.500000  1
  Ir  Ir12  1  0.777161  0.928688  0.500000  1
  Ir  Ir13  1  0.068805  0.776358  0.500000  1
  Ir  Ir14  1  0.724293  0.429635  0.500000  1
  Rh  Rh15  1  0.001005  0.499057  0.500000  1
  Rh  Rh16  1  0.932096  0.223443  0.500000  1
  Rh  Rh17  1  0.275881  0.569367  0.500000  1
  Rh  Rh18  1  0.570174  0.722346  0.500000  1
  Rh  Rh19  1  0.430052  0.277025  0.500000  1
