# generated using pymatgen
data_Li3Sc8Ru4Rh
_symmetry_space_group_name_H-M   'P 1'
_cell_length_a   6.46509801
_cell_length_b   4.63125700
_cell_length_c   9.24517902
_cell_angle_alpha   90.00000000
_cell_angle_beta   89.99313161
_cell_angle_gamma   90.00000000
_symmetry_Int_Tables_number   1
_chemical_formula_structural   Li3Sc8Ru4Rh
_chemical_formula_sum   'Li3 Sc8 Ru4 Rh1'
_cell_volume   276.81480679
_cell_formula_units_Z   1
loop_
 _symmetry_equiv_pos_site_id
 _symmetry_equiv_pos_as_xyz
  1  'x, y, z'
loop_
 _atom_site_type_symbol
 _atom_site_label
 _atom_site_symmetry_multiplicity
 _atom_site_fract_x
 _atom_site_fract_y
 _atom_site_fract_z
 _atom_site_occupancy
  Li  Li0  1  0.250224  0.250000  0.124920  1
  Li  Li1  1  0.750216  0.750001  0.374942  1
  Li  Li2  1  0.249775  0.250000  0.625205  1
  Sc  Sc3  1  0.504875  0.750001  0.121869  1
  Sc  Sc4  1  0.995696  0.750001  0.121882  1
  Sc  Sc5  1  0.502545  0.250000  0.375022  1
  Sc  Sc6  1  0.997996  0.250000  0.375004  1
  Sc  Sc7  1  0.995119  0.750001  0.628133  1
  Sc  Sc8  1  0.504310  0.750001  0.628103  1
  Sc  Sc9  1  0.992512  0.250000  0.875020  1
  Sc  Sc10  1  0.506965  0.250000  0.874992  1
  Ru  Ru11  1  0.750182  0.250000  0.126500  1
  Ru  Ru12  1  0.250157  0.750001  0.375001  1
  Ru  Ru13  1  0.749797  0.250000  0.623405  1
  Ru  Ru14  1  0.249829  0.750001  0.875009  1
  Rh  Rh15  1  0.749799  0.750001  0.874991  1
