# generated using pymatgen
data_Hf8Ta12Si15As
_symmetry_space_group_name_H-M   'P 1'
_cell_length_a   6.67771665
_cell_length_b   6.83404947
_cell_length_c   13.06061103
_cell_angle_alpha   89.98436477
_cell_angle_beta   90.24523422
_cell_angle_gamma   90.07335825
_symmetry_Int_Tables_number   1
_chemical_formula_structural   Hf8Ta12Si15As
_chemical_formula_sum   'Hf8 Ta12 Si15 As1'
_cell_volume   596.02606340
_cell_formula_units_Z   1
loop_
 _symmetry_equiv_pos_site_id
 _symmetry_equiv_pos_as_xyz
  1  'x, y, z'
loop_
 _atom_site_type_symbol
 _atom_site_label
 _atom_site_symmetry_multiplicity
 _atom_site_fract_x
 _atom_site_fract_y
 _atom_site_fract_z
 _atom_site_occupancy
  Hf  Hf0  1  0.491386  0.670836  0.593953  1
  Hf  Hf1  1  0.994583  0.828740  0.907104  1
  Hf  Hf2  1  0.505249  0.327893  0.092652  1
  Hf  Hf3  1  0.011284  0.176037  0.405165  1
  Hf  Hf4  1  0.505521  0.330105  0.406893  1
  Hf  Hf5  1  0.005535  0.171939  0.092852  1
  Hf  Hf6  1  0.494825  0.672328  0.906852  1
  Hf  Hf7  1  0.995475  0.823897  0.595948  1
  Ta  Ta8  1  0.659526  0.170121  0.624272  1
  Ta  Ta9  1  0.162759  0.329334  0.876406  1
  Ta  Ta10  1  0.336175  0.829953  0.123357  1
  Ta  Ta11  1  0.839994  0.664516  0.375054  1
  Ta  Ta12  1  0.336505  0.831431  0.377215  1
  Ta  Ta13  1  0.836357  0.669920  0.123280  1
  Ta  Ta14  1  0.663367  0.170108  0.876462  1
  Ta  Ta15  1  0.162165  0.332130  0.624073  1
  Ta  Ta16  1  0.835802  0.497019  0.749835  1
  Ta  Ta17  1  0.336257  0.002543  0.749884  1
  Ta  Ta18  1  0.163822  0.502608  0.250107  1
  Ta  Ta19  1  0.664368  0.997261  0.248465  1
  Si  Si20  1  0.172004  0.536113  0.038977  1
  Si  Si21  1  0.328534  0.036090  0.960613  1
  Si  Si22  1  0.826192  0.463070  0.539430  1
  Si  Si23  1  0.316575  0.037861  0.540504  1
  Si  Si24  1  0.827821  0.463958  0.960748  1
  Si  Si25  1  0.672217  0.963851  0.039037  1
  Si  Si26  1  0.173912  0.537162  0.461204  1
  Si  Si27  1  0.460957  0.387979  0.750412  1
  Si  Si28  1  0.960651  0.112105  0.749717  1
  Si  Si29  1  0.538384  0.612865  0.250134  1
  Si  Si30  1  0.039155  0.887474  0.249790  1
  Si  Si31  1  0.701361  0.860126  0.750619  1
  Si  Si32  1  0.201832  0.639651  0.751428  1
  Si  Si33  1  0.299690  0.140299  0.249155  1
  Si  Si34  1  0.798033  0.359307  0.248786  1
  As  As35  1  0.681727  0.963370  0.459617  1
