# generated using pymatgen
data_SrPd(SeO3)2
_symmetry_space_group_name_H-M   'P 1'
_cell_length_a   4.92813178
_cell_length_b   4.92813203
_cell_length_c   15.21771830
_cell_angle_alpha   88.46692740
_cell_angle_beta   88.46692705
_cell_angle_gamma   64.82735197
_symmetry_Int_Tables_number   1
_chemical_formula_structural   SrPd(SeO3)2
_chemical_formula_sum   'Sr2 Pd2 Se4 O12'
_cell_volume   334.31746177
_cell_formula_units_Z   2
loop_
 _symmetry_equiv_pos_site_id
 _symmetry_equiv_pos_as_xyz
  1  'x, y, z'
loop_
 _atom_site_type_symbol
 _atom_site_label
 _atom_site_symmetry_multiplicity
 _atom_site_fract_x
 _atom_site_fract_y
 _atom_site_fract_z
 _atom_site_occupancy
  Sr  Sr0  1  0.064689  0.935311  0.750000  1
  Sr  Sr1  1  0.935311  0.064689  0.250000  1
  Pd  Pd2  1  0.000000  0.000000  0.000000  1
  Pd  Pd3  1  0.000000  0.000000  0.500000  1
  Se  Se4  1  0.639254  0.643872  0.905248  1
  Se  Se5  1  0.643872  0.639254  0.405248  1
  Se  Se6  1  0.356128  0.360746  0.594752  1
  Se  Se7  1  0.360746  0.356128  0.094752  1
  O  O8  1  0.835600  0.254465  0.889351  1
  O  O9  1  0.745535  0.164400  0.610649  1
  O  O10  1  0.164400  0.745535  0.110649  1
  O  O11  1  0.254465  0.835600  0.389351  1
  O  O12  1  0.266696  0.671852  0.915065  1
  O  O13  1  0.328148  0.733304  0.584935  1
  O  O14  1  0.733304  0.328148  0.084935  1
  O  O15  1  0.671852  0.266696  0.415065  1
  O  O16  1  0.766314  0.633537  0.299980  1
  O  O17  1  0.366463  0.233686  0.200020  1
  O  O18  1  0.233686  0.366463  0.700020  1
  O  O19  1  0.633537  0.766314  0.799980  1
