# generated using pymatgen
data_ZnCoSb4(Cl2O3)2
_symmetry_space_group_name_H-M   'P 1'
_cell_length_a   8.26910006
_cell_length_b   9.25010787
_cell_length_c   10.12034436
_cell_angle_alpha   65.63642147
_cell_angle_beta   82.84151176
_cell_angle_gamma   90.35357883
_symmetry_Int_Tables_number   1
_chemical_formula_structural   ZnCoSb4(Cl2O3)2
_chemical_formula_sum   'Zn2 Co2 Sb8 Cl8 O12'
_cell_volume   698.25094336
_cell_formula_units_Z   2
loop_
 _symmetry_equiv_pos_site_id
 _symmetry_equiv_pos_as_xyz
  1  'x, y, z'
loop_
 _atom_site_type_symbol
 _atom_site_label
 _atom_site_symmetry_multiplicity
 _atom_site_fract_x
 _atom_site_fract_y
 _atom_site_fract_z
 _atom_site_occupancy
  Zn  Zn0  1  0.495750  0.619882  0.100296  1
  Zn  Zn1  1  0.504253  0.880118  0.399703  1
  Co  Co2  1  0.507832  0.120229  0.597535  1
  Co  Co3  1  0.492169  0.379771  0.902466  1
  Sb  Sb4  1  0.692858  0.022379  0.934420  1
  Sb  Sb5  1  0.689007  0.522373  0.434122  1
  Sb  Sb6  1  0.310992  0.977625  0.065878  1
  Sb  Sb7  1  0.307142  0.477623  0.565579  1
  Sb  Sb8  1  0.700475  0.785850  0.731050  1
  Sb  Sb9  1  0.698985  0.291412  0.226276  1
  Sb  Sb10  1  0.301018  0.208587  0.273724  1
  Sb  Sb11  1  0.299521  0.714149  0.768950  1
  Cl  Cl12  1  0.772445  0.931052  0.288621  1
  Cl  Cl13  1  0.765257  0.430836  0.791234  1
  Cl  Cl14  1  0.234743  0.069166  0.708762  1
  Cl  Cl15  1  0.227554  0.568950  0.211376  1
  Cl  Cl16  1  0.846303  0.237276  0.461401  1
  Cl  Cl17  1  0.858160  0.741204  0.955525  1
  Cl  Cl18  1  0.141837  0.758794  0.544475  1
  Cl  Cl19  1  0.153699  0.262725  0.038599  1
  O  O20  1  0.482014  0.649041  0.430632  1
  O  O21  1  0.485520  0.149678  0.932427  1
  O  O22  1  0.514478  0.350323  0.567573  1
  O  O23  1  0.517986  0.850960  0.069367  1
  O  O24  1  0.361850  0.006385  0.246564  1
  O  O25  1  0.361587  0.511840  0.741570  1
  O  O26  1  0.638411  0.988159  0.758430  1
  O  O27  1  0.638149  0.493614  0.253438  1
  O  O28  1  0.514058  0.156869  0.384513  1
  O  O29  1  0.513379  0.650790  0.886732  1
  O  O30  1  0.486618  0.849208  0.613268  1
  O  O31  1  0.485945  0.343132  0.115487  1
