# generated using pymatgen
data_NdErB6Os
_symmetry_space_group_name_H-M   'P 1'
_cell_length_a   3.69464600
_cell_length_b   9.21136500
_cell_length_c   11.64448300
_cell_angle_alpha   90.00000000
_cell_angle_beta   90.00000000
_cell_angle_gamma   90.00000000
_symmetry_Int_Tables_number   1
_chemical_formula_structural   NdErB6Os
_chemical_formula_sum   'Nd4 Er4 B24 Os4'
_cell_volume   396.29357914
_cell_formula_units_Z   4
loop_
 _symmetry_equiv_pos_site_id
 _symmetry_equiv_pos_as_xyz
  1  'x, y, z'
loop_
 _atom_site_type_symbol
 _atom_site_label
 _atom_site_symmetry_multiplicity
 _atom_site_fract_x
 _atom_site_fract_y
 _atom_site_fract_z
 _atom_site_occupancy
  Nd  Nd0  1  0.000000  0.322166  0.414234  1
  Nd  Nd1  1  0.000000  0.677834  0.585766  1
  Nd  Nd2  1  0.000000  0.822166  0.085766  1
  Nd  Nd3  1  0.000000  0.177834  0.914234  1
  Er  Er4  1  0.000000  0.944305  0.372366  1
  Er  Er5  1  0.000000  0.055695  0.627634  1
  Er  Er6  1  0.000000  0.444305  0.127634  1
  Er  Er7  1  0.000000  0.555695  0.872366  1
  B  B8  1  0.500000  0.556229  0.430478  1
  B  B9  1  0.500000  0.443771  0.569522  1
  B  B10  1  0.500000  0.056229  0.069522  1
  B  B11  1  0.500000  0.943771  0.930478  1
  B  B12  1  0.500000  0.749887  0.417301  1
  B  B13  1  0.500000  0.250113  0.582699  1
  B  B14  1  0.500000  0.249887  0.082699  1
  B  B15  1  0.500000  0.750113  0.917301  1
  B  B16  1  0.500000  0.790714  0.266843  1
  B  B17  1  0.500000  0.209286  0.733156  1
  B  B18  1  0.500000  0.290714  0.233157  1
  B  B19  1  0.500000  0.709286  0.766844  1
  B  B20  1  0.500000  0.630474  0.185367  1
  B  B21  1  0.500000  0.369526  0.814633  1
  B  B22  1  0.500000  0.130474  0.314633  1
  B  B23  1  0.500000  0.869526  0.685367  1
  B  B24  1  0.500000  0.985354  0.214193  1
  B  B25  1  0.500000  0.014646  0.785807  1
  B  B26  1  0.500000  0.485354  0.285807  1
  B  B27  1  0.500000  0.514646  0.714193  1
  B  B28  1  0.500000  0.602094  0.027925  1
  B  B29  1  0.500000  0.397906  0.972075  1
  B  B30  1  0.500000  0.102094  0.472075  1
  B  B31  1  0.500000  0.897906  0.527925  1
  Os  Os32  1  0.000000  0.639136  0.319395  1
  Os  Os33  1  0.000000  0.360864  0.680605  1
  Os  Os34  1  0.000000  0.139136  0.180605  1
  Os  Os35  1  0.000000  0.860864  0.819395  1
