# generated using pymatgen
data_Er2Co9Si7Tc3
_symmetry_space_group_name_H-M   'P 1'
_cell_length_a   3.74661800
_cell_length_b   9.18291863
_cell_length_c   9.18292000
_cell_angle_alpha   119.99999772
_cell_angle_beta   90.00000000
_cell_angle_gamma   90.00000000
_symmetry_Int_Tables_number   1
_chemical_formula_structural   Er2Co9Si7Tc3
_chemical_formula_sum   'Er2 Co9 Si7 Tc3'
_cell_volume   273.60976557
_cell_formula_units_Z   1
loop_
 _symmetry_equiv_pos_site_id
 _symmetry_equiv_pos_as_xyz
  1  'x, y, z'
loop_
 _atom_site_type_symbol
 _atom_site_label
 _atom_site_symmetry_multiplicity
 _atom_site_fract_x
 _atom_site_fract_y
 _atom_site_fract_z
 _atom_site_occupancy
  Er  Er0  1  0.000000  0.666667  0.333333  1
  Er  Er1  1  0.500000  0.333333  0.666667  1
  Co  Co2  1  0.000000  0.569372  0.945637  1
  Co  Co3  1  0.000000  0.376265  0.430628  1
  Co  Co4  1  0.000000  0.054363  0.623735  1
  Co  Co5  1  0.000000  0.874578  0.155933  1
  Co  Co6  1  0.000000  0.281354  0.125422  1
  Co  Co7  1  0.000000  0.844067  0.718646  1
  Co  Co8  1  0.500000  0.949038  0.384635  1
  Co  Co9  1  0.500000  0.435597  0.050962  1
  Co  Co10  1  0.500000  0.615365  0.564403  1
  Si  Si11  1  0.000000  0.000000  0.000000  1
  Si  Si12  1  0.500000  0.709846  0.113084  1
  Si  Si13  1  0.500000  0.403239  0.290154  1
  Si  Si14  1  0.500000  0.886916  0.596761  1
  Si  Si15  1  0.000000  0.591335  0.703561  1
  Si  Si16  1  0.000000  0.112226  0.408665  1
  Si  Si17  1  0.000000  0.296439  0.887774  1
  Tc  Tc18  1  0.500000  0.783755  0.895973  1
  Tc  Tc19  1  0.500000  0.112219  0.216245  1
  Tc  Tc20  1  0.500000  0.104027  0.887781  1
