# generated using pymatgen
data_TbY3(PdPt)2
_symmetry_space_group_name_H-M   'P 1'
_cell_length_a   4.54170200
_cell_length_b   5.61870801
_cell_length_c   7.08695927
_cell_angle_alpha   90.04978649
_cell_angle_beta   90.00000000
_cell_angle_gamma   90.00000000
_symmetry_Int_Tables_number   1
_chemical_formula_structural   TbY3(PdPt)2
_chemical_formula_sum   'Tb1 Y3 Pd2 Pt2'
_cell_volume   180.84848354
_cell_formula_units_Z   1
loop_
 _symmetry_equiv_pos_site_id
 _symmetry_equiv_pos_as_xyz
  1  'x, y, z'
loop_
 _atom_site_type_symbol
 _atom_site_label
 _atom_site_symmetry_multiplicity
 _atom_site_fract_x
 _atom_site_fract_y
 _atom_site_fract_z
 _atom_site_occupancy
  Tb  Tb0  1  0.000000  0.895408  0.183417  1
  Y  Y1  1  0.000000  0.104611  0.683745  1
  Y  Y2  1  0.500000  0.387422  0.318215  1
  Y  Y3  1  0.500000  0.612311  0.817145  1
  Pd  Pd4  1  0.000000  0.594166  0.540997  1
  Pd  Pd5  1  0.000000  0.406373  0.042714  1
  Pt  Pt6  1  0.500000  0.897882  0.456557  1
  Pt  Pt7  1  0.500000  0.101828  0.957210  1
