# generated using pymatgen
data_Ho4Ga6CuPd
_symmetry_space_group_name_H-M   'P 1'
_cell_length_a   6.99676900
_cell_length_b   8.76102457
_cell_length_c   8.76102500
_cell_angle_alpha   119.99999787
_cell_angle_beta   90.00000000
_cell_angle_gamma   90.00000000
_symmetry_Int_Tables_number   1
_chemical_formula_structural   Ho4Ga6CuPd
_chemical_formula_sum   'Ho8 Ga12 Cu2 Pd2'
_cell_volume   465.09106318
_cell_formula_units_Z   2
loop_
 _symmetry_equiv_pos_site_id
 _symmetry_equiv_pos_as_xyz
  1  'x, y, z'
loop_
 _atom_site_type_symbol
 _atom_site_label
 _atom_site_symmetry_multiplicity
 _atom_site_fract_x
 _atom_site_fract_y
 _atom_site_fract_z
 _atom_site_occupancy
  Ho  Ho0  1  0.750912  0.000000  0.000000  1
  Ho  Ho1  1  0.249088  0.000000  0.000000  1
  Ho  Ho2  1  0.747953  0.483764  0.516236  1
  Ho  Ho3  1  0.252047  0.516236  0.483764  1
  Ho  Ho4  1  0.747953  0.032473  0.516236  1
  Ho  Ho5  1  0.252047  0.967527  0.483764  1
  Ho  Ho6  1  0.747953  0.483764  0.967527  1
  Ho  Ho7  1  0.252047  0.516236  0.032473  1
  Ga  Ga8  1  0.960301  0.830515  0.169485  1
  Ga  Ga9  1  0.039699  0.169485  0.830515  1
  Ga  Ga10  1  0.960301  0.338971  0.169485  1
  Ga  Ga11  1  0.460443  0.167003  0.832997  1
  Ga  Ga12  1  0.039699  0.661029  0.830515  1
  Ga  Ga13  1  0.539557  0.832997  0.167003  1
  Ga  Ga14  1  0.960301  0.830515  0.661029  1
  Ga  Ga15  1  0.460443  0.665994  0.832997  1
  Ga  Ga16  1  0.039699  0.169485  0.338971  1
  Ga  Ga17  1  0.539557  0.334006  0.167003  1
  Ga  Ga18  1  0.460443  0.167003  0.334006  1
  Ga  Ga19  1  0.539557  0.832997  0.665994  1
  Cu  Cu20  1  0.953741  0.666667  0.333333  1
  Cu  Cu21  1  0.046259  0.333333  0.666667  1
  Pd  Pd22  1  0.469890  0.333333  0.666667  1
  Pd  Pd23  1  0.530110  0.666667  0.333333  1
