# generated using pymatgen
data_Nd3Sm(Ga5Pt3)2
_symmetry_space_group_name_H-M   'P 1'
_cell_length_a   8.63135598
_cell_length_b   8.62955523
_cell_length_c   8.62955654
_cell_angle_alpha   138.92774833
_cell_angle_beta   106.53114105
_cell_angle_gamma   87.79532528
_symmetry_Int_Tables_number   1
_chemical_formula_structural   Nd3Sm(Ga5Pt3)2
_chemical_formula_sum   'Nd3 Sm1 Ga10 Pt6'
_cell_volume   388.71696537
_cell_formula_units_Z   1
loop_
 _symmetry_equiv_pos_site_id
 _symmetry_equiv_pos_as_xyz
  1  'x, y, z'
loop_
 _atom_site_type_symbol
 _atom_site_label
 _atom_site_symmetry_multiplicity
 _atom_site_fract_x
 _atom_site_fract_y
 _atom_site_fract_z
 _atom_site_occupancy
  Nd  Nd0  1  0.636887  0.366972  0.269915  1
  Nd  Nd1  1  0.363093  0.633064  0.730029  1
  Nd  Nd2  1  0.096968  0.866841  0.230127  1
  Sm  Sm3  1  0.903181  0.133151  0.770030  1
  Ga  Ga4  1  0.279047  0.529112  0.249836  1
  Ga  Ga5  1  0.720730  0.470424  0.749953  1
  Ga  Ga6  1  0.720730  0.970777  0.250305  1
  Ga  Ga7  1  0.279047  0.029211  0.749935  1
  Ga  Ga8  1  0.446428  0.102235  0.344193  1
  Ga  Ga9  1  0.553876  0.898028  0.655848  1
  Ga  Ga10  1  0.758192  0.602240  0.155953  1
  Ga  Ga11  1  0.241972  0.397700  0.844272  1
  Ga  Ga12  1  0.999996  0.250030  0.249694  1
  Ga  Ga13  1  0.999996  0.750302  0.749967  1
  Pt  Pt14  1  0.249800  0.140727  0.109075  1
  Pt  Pt15  1  0.750188  0.859342  0.890845  1
  Pt  Pt16  1  0.031205  0.640722  0.390483  1
  Pt  Pt17  1  0.968306  0.358971  0.609334  1
  Pt  Pt18  1  0.500179  0.249991  0.750019  1
  Pt  Pt19  1  0.500179  0.750160  0.250188  1
