# generated using pymatgen
data_Y4Sb5Rh7Au
_symmetry_space_group_name_H-M   'P 1'
_cell_length_a   7.60164470
_cell_length_b   7.60164677
_cell_length_c   7.60164422
_cell_angle_alpha   107.93669926
_cell_angle_beta   110.24388281
_cell_angle_gamma   110.24388837
_symmetry_Int_Tables_number   1
_chemical_formula_structural   Y4Sb5Rh7Au
_chemical_formula_sum   'Y4 Sb5 Rh7 Au1'
_cell_volume   337.96208829
_cell_formula_units_Z   1
loop_
 _symmetry_equiv_pos_site_id
 _symmetry_equiv_pos_as_xyz
  1  'x, y, z'
loop_
 _atom_site_type_symbol
 _atom_site_label
 _atom_site_symmetry_multiplicity
 _atom_site_fract_x
 _atom_site_fract_y
 _atom_site_fract_z
 _atom_site_occupancy
  Y  Y0  1  0.517809  0.016848  0.016848  1
  Y  Y1  1  0.000000  0.499038  0.016848  1
  Y  Y2  1  0.000000  0.016848  0.499038  1
  Y  Y3  1  0.482191  0.499038  0.499038  1
  Sb  Sb4  1  0.685391  0.001816  0.687208  1
  Sb  Sb5  1  0.685391  0.687208  0.001816  1
  Sb  Sb6  1  0.000000  0.671533  0.671533  1
  Sb  Sb7  1  0.314609  0.001816  0.316425  1
  Sb  Sb8  1  0.314609  0.316425  0.001816  1
  Rh  Rh9  1  0.000000  0.970918  0.970918  1
  Rh  Rh10  1  0.500000  0.752697  0.252697  1
  Rh  Rh11  1  0.748819  0.504175  0.252994  1
  Rh  Rh12  1  0.251181  0.755358  0.504175  1
  Rh  Rh13  1  0.251181  0.504175  0.755358  1
  Rh  Rh14  1  0.500000  0.252697  0.752697  1
  Rh  Rh15  1  0.748819  0.252994  0.504175  1
  Au  Au16  1  0.000000  0.296414  0.296414  1
