# generated using pymatgen
data_LiTbGaPt3
_symmetry_space_group_name_H-M   'P 1'
_cell_length_a   5.13284928
_cell_length_b   5.13284917
_cell_length_c   5.13285000
_cell_angle_alpha   64.86303506
_cell_angle_beta   64.86302329
_cell_angle_gamma   64.86303366
_symmetry_Int_Tables_number   1
_chemical_formula_structural   LiTbGaPt3
_chemical_formula_sum   'Li1 Tb1 Ga1 Pt3'
_cell_volume   105.78933404
_cell_formula_units_Z   1
loop_
 _symmetry_equiv_pos_site_id
 _symmetry_equiv_pos_as_xyz
  1  'x, y, z'
loop_
 _atom_site_type_symbol
 _atom_site_label
 _atom_site_symmetry_multiplicity
 _atom_site_fract_x
 _atom_site_fract_y
 _atom_site_fract_z
 _atom_site_occupancy
  Li  Li0  1  0.258313  0.258313  0.258313  1
  Tb  Tb1  1  0.005760  0.005760  0.005760  1
  Ga  Ga2  1  0.621028  0.621028  0.621028  1
  Pt  Pt3  1  0.620626  0.620626  0.123648  1
  Pt  Pt4  1  0.620626  0.123648  0.620626  1
  Pt  Pt5  1  0.123648  0.620626  0.620626  1
