# generated using pymatgen
data_Tb(As2Ru3)2
_symmetry_space_group_name_H-M   'P 1'
_cell_length_a   7.18146600
_cell_length_b   7.18146737
_cell_length_c   3.87408700
_cell_angle_alpha   90.00000000
_cell_angle_beta   90.00000000
_cell_angle_gamma   120.00000289
_symmetry_Int_Tables_number   1
_chemical_formula_structural   Tb(As2Ru3)2
_chemical_formula_sum   'Tb1 As4 Ru6'
_cell_volume   173.03194470
_cell_formula_units_Z   1
loop_
 _symmetry_equiv_pos_site_id
 _symmetry_equiv_pos_as_xyz
  1  'x, y, z'
loop_
 _atom_site_type_symbol
 _atom_site_label
 _atom_site_symmetry_multiplicity
 _atom_site_fract_x
 _atom_site_fract_y
 _atom_site_fract_z
 _atom_site_occupancy
  Tb  Tb0  1  0.000000  0.000000  0.000000  1
  As  As1  1  0.333333  0.666667  0.000000  1
  As  As2  1  0.380556  0.190277  0.500001  1
  As  As3  1  0.809723  0.190277  0.500001  1
  As  As4  1  0.809723  0.619444  0.500001  1
  Ru  Ru5  1  0.535523  0.071045  0.000000  1
  Ru  Ru6  1  0.928955  0.464476  0.000000  1
  Ru  Ru7  1  0.535523  0.464476  0.000000  1
  Ru  Ru8  1  0.200683  0.401366  0.500001  1
  Ru  Ru9  1  0.200683  0.799317  0.500001  1
  Ru  Ru10  1  0.598633  0.799317  0.500001  1
