# generated using pymatgen
data_Ho3Lu7(Bi3C)2
_symmetry_space_group_name_H-M   'P 1'
_cell_length_a   9.07134800
_cell_length_b   9.07134816
_cell_length_c   6.38657500
_cell_angle_alpha   90.00000000
_cell_angle_beta   90.00000000
_cell_angle_gamma   119.99999941
_symmetry_Int_Tables_number   1
_chemical_formula_structural   Ho3Lu7(Bi3C)2
_chemical_formula_sum   'Ho3 Lu7 Bi6 C2'
_cell_volume   455.13718007
_cell_formula_units_Z   1
loop_
 _symmetry_equiv_pos_site_id
 _symmetry_equiv_pos_as_xyz
  1  'x, y, z'
loop_
 _atom_site_type_symbol
 _atom_site_label
 _atom_site_symmetry_multiplicity
 _atom_site_fract_x
 _atom_site_fract_y
 _atom_site_fract_z
 _atom_site_occupancy
  Ho  Ho0  1  0.666667  0.333333  0.500000  1
  Ho  Ho1  1  0.333333  0.666667  0.500000  1
  Ho  Ho2  1  0.333333  0.666667  0.000000  1
  Lu  Lu3  1  0.666667  0.333333  0.000000  1
  Lu  Lu4  1  0.796530  0.796712  0.249890  1
  Lu  Lu5  1  0.203288  0.999818  0.249890  1
  Lu  Lu6  1  0.000182  0.203470  0.249890  1
  Lu  Lu7  1  0.203288  0.203470  0.750110  1
  Lu  Lu8  1  0.796530  0.999818  0.750110  1
  Lu  Lu9  1  0.000182  0.796712  0.750110  1
  Bi  Bi10  1  0.399141  0.397588  0.248444  1
  Bi  Bi11  1  0.602412  0.001553  0.248444  1
  Bi  Bi12  1  0.998447  0.600859  0.248444  1
  Bi  Bi13  1  0.602412  0.600859  0.751556  1
  Bi  Bi14  1  0.399141  0.001553  0.751556  1
  Bi  Bi15  1  0.998447  0.397588  0.751556  1
  C  C16  1  0.000000  0.000000  0.500000  1
  C  C17  1  0.000000  0.000000  0.000000  1
