# generated using pymatgen
data_La16Al4CoOs3
_symmetry_space_group_name_H-M   'P 1'
_cell_length_a   9.90611483
_cell_length_b   9.90611423
_cell_length_c   9.90611483
_cell_angle_alpha   60.64847866
_cell_angle_beta   60.64848287
_cell_angle_gamma   60.64847882
_symmetry_Int_Tables_number   1
_chemical_formula_structural   La16Al4CoOs3
_chemical_formula_sum   'La16 Al4 Co1 Os3'
_cell_volume   697.44117729
_cell_formula_units_Z   1
loop_
 _symmetry_equiv_pos_site_id
 _symmetry_equiv_pos_as_xyz
  1  'x, y, z'
loop_
 _atom_site_type_symbol
 _atom_site_label
 _atom_site_symmetry_multiplicity
 _atom_site_fract_x
 _atom_site_fract_y
 _atom_site_fract_z
 _atom_site_occupancy
  La  La0  1  0.941953  0.941953  0.555382  1
  La  La1  1  0.560179  0.934210  0.560179  1
  La  La2  1  0.555382  0.941953  0.941953  1
  La  La3  1  0.692966  0.692966  0.304022  1
  La  La4  1  0.154068  0.154068  0.546233  1
  La  La5  1  0.304022  0.692966  0.692966  1
  La  La6  1  0.152926  0.152926  0.152926  1
  La  La7  1  0.546233  0.154068  0.154068  1
  La  La8  1  0.305027  0.690539  0.305027  1
  La  La9  1  0.305027  0.305027  0.690539  1
  La  La10  1  0.692966  0.304022  0.692966  1
  La  La11  1  0.934210  0.560179  0.560179  1
  La  La12  1  0.560179  0.560179  0.934210  1
  La  La13  1  0.154068  0.546233  0.154068  1
  La  La14  1  0.690539  0.305027  0.305027  1
  La  La15  1  0.941953  0.555382  0.941953  1
  Al  Al16  1  0.221585  0.926448  0.926448  1
  Al  Al17  1  0.927028  0.927028  0.927028  1
  Al  Al18  1  0.926448  0.926448  0.221585  1
  Al  Al19  1  0.926448  0.221585  0.926448  1
  Co  Co20  1  0.363832  0.363832  0.363832  1
  Os  Os21  1  0.916397  0.363280  0.363280  1
  Os  Os22  1  0.363280  0.363280  0.916397  1
  Os  Os23  1  0.363280  0.916397  0.363280  1
