# generated using pymatgen
data_YbGa5Cu6
_symmetry_space_group_name_H-M   'P 1'
_cell_length_a   10.36522416
_cell_length_b   8.25528763
_cell_length_c   7.80127996
_cell_angle_alpha   80.35872100
_cell_angle_beta   51.73840648
_cell_angle_gamma   47.90285686
_symmetry_Int_Tables_number   1
_chemical_formula_structural   YbGa5Cu6
_chemical_formula_sum   'Yb2 Ga10 Cu12'
_cell_volume   352.03385877
_cell_formula_units_Z   2
loop_
 _symmetry_equiv_pos_site_id
 _symmetry_equiv_pos_as_xyz
  1  'x, y, z'
loop_
 _atom_site_type_symbol
 _atom_site_label
 _atom_site_symmetry_multiplicity
 _atom_site_fract_x
 _atom_site_fract_y
 _atom_site_fract_z
 _atom_site_occupancy
  Yb  Yb0  1  0.000000  0.000000  0.000000  1
  Yb  Yb1  1  0.250000  0.250000  0.250000  1
  Ga  Ga2  1  0.500000  0.500000  0.500000  1
  Ga  Ga3  1  0.750000  0.750000  0.750000  1
  Ga  Ga4  1  0.752939  0.074050  0.839777  1
  Ga  Ga5  1  0.839777  0.333234  0.752939  1
  Ga  Ga6  1  0.074050  0.752939  0.333234  1
  Ga  Ga7  1  0.333234  0.839777  0.074050  1
  Ga  Ga8  1  0.497061  0.175950  0.410223  1
  Ga  Ga9  1  0.410223  0.916766  0.497061  1
  Ga  Ga10  1  0.175950  0.497061  0.916766  1
  Ga  Ga11  1  0.916766  0.410223  0.175950  1
  Cu  Cu12  1  0.625000  0.125000  0.625000  1
  Cu  Cu13  1  0.625000  0.625000  0.625000  1
  Cu  Cu14  1  0.125000  0.625000  0.625000  1
  Cu  Cu15  1  0.625000  0.625000  0.125000  1
  Cu  Cu16  1  0.491289  0.435653  0.186262  1
  Cu  Cu17  1  0.186262  0.886795  0.491289  1
  Cu  Cu18  1  0.435653  0.491289  0.886795  1
  Cu  Cu19  1  0.886795  0.186262  0.435653  1
  Cu  Cu20  1  0.758711  0.814347  0.063738  1
  Cu  Cu21  1  0.063738  0.363205  0.758711  1
  Cu  Cu22  1  0.814347  0.758711  0.363205  1
  Cu  Cu23  1  0.363205  0.063738  0.814347  1
