# generated using pymatgen
data_Er16In4IrPd2Rh
_symmetry_space_group_name_H-M   'P 1'
_cell_length_a   9.63350720
_cell_length_b   9.61798495
_cell_length_c   9.61771139
_cell_angle_alpha   59.87111408
_cell_angle_beta   59.92623374
_cell_angle_gamma   59.92932037
_symmetry_Int_Tables_number   1
_chemical_formula_structural   Er16In4IrPd2Rh
_chemical_formula_sum   'Er16 In4 Ir1 Pd2 Rh1'
_cell_volume   628.82009444
_cell_formula_units_Z   1
loop_
 _symmetry_equiv_pos_site_id
 _symmetry_equiv_pos_as_xyz
  1  'x, y, z'
loop_
 _atom_site_type_symbol
 _atom_site_label
 _atom_site_symmetry_multiplicity
 _atom_site_fract_x
 _atom_site_fract_y
 _atom_site_fract_z
 _atom_site_occupancy
  Er  Er0  1  0.193777  0.185154  0.810300  1
  Er  Er1  1  0.437785  0.061346  0.061346  1
  Er  Er2  1  0.435381  0.063901  0.439607  1
  Er  Er3  1  0.061927  0.438924  0.063169  1
  Er  Er4  1  0.646475  0.052146  0.652696  1
  Er  Er5  1  0.189510  0.811229  0.811235  1
  Er  Er6  1  0.061912  0.063150  0.438961  1
  Er  Er7  1  0.809829  0.190010  0.189986  1
  Er  Er8  1  0.810811  0.810747  0.185144  1
  Er  Er9  1  0.646494  0.652709  0.052118  1
  Er  Er10  1  0.644340  0.651006  0.651049  1
  Er  Er11  1  0.064048  0.436631  0.436655  1
  Er  Er12  1  0.056160  0.649591  0.649588  1
  Er  Er13  1  0.810818  0.185157  0.810736  1
  Er  Er14  1  0.435384  0.439608  0.063901  1
  Er  Er15  1  0.193761  0.810292  0.185184  1
  In  In16  1  0.416611  0.750082  0.416518  1
  In  In17  1  0.416620  0.416499  0.750095  1
  In  In18  1  0.750003  0.416628  0.416600  1
  In  In19  1  0.416175  0.416005  0.416003  1
  Ir  Ir20  1  0.428836  0.856937  0.856957  1
  Pd  Pd21  1  0.857824  0.429598  0.856057  1
  Pd  Pd22  1  0.857834  0.856039  0.429645  1
  Rh  Rh23  1  0.857685  0.856611  0.856450  1
