# generated using pymatgen
data_Ti20Ga7AsS4
_symmetry_space_group_name_H-M   'P 1'
_cell_length_a   6.60004292
_cell_length_b   7.75000725
_cell_length_c   9.86388214
_cell_angle_alpha   89.94027540
_cell_angle_beta   89.95216056
_cell_angle_gamma   90.04360365
_symmetry_Int_Tables_number   1
_chemical_formula_structural   Ti20Ga7AsS4
_chemical_formula_sum   'Ti20 Ga7 As1 S4'
_cell_volume   504.54072738
_cell_formula_units_Z   1
loop_
 _symmetry_equiv_pos_site_id
 _symmetry_equiv_pos_as_xyz
  1  'x, y, z'
loop_
 _atom_site_type_symbol
 _atom_site_label
 _atom_site_symmetry_multiplicity
 _atom_site_fract_x
 _atom_site_fract_y
 _atom_site_fract_z
 _atom_site_occupancy
  Ti  Ti0  1  0.819060  0.553201  0.057432  1
  Ti  Ti1  1  0.679468  0.944994  0.560465  1
  Ti  Ti2  1  0.181040  0.054214  0.939816  1
  Ti  Ti3  1  0.319442  0.445866  0.440814  1
  Ti  Ti4  1  0.180973  0.447857  0.938872  1
  Ti  Ti5  1  0.319488  0.053781  0.440614  1
  Ti  Ti6  1  0.819584  0.946833  0.059665  1
  Ti  Ti7  1  0.677828  0.552395  0.562086  1
  Ti  Ti8  1  0.166269  0.750514  0.217516  1
  Ti  Ti9  1  0.336687  0.747072  0.715015  1
  Ti  Ti10  1  0.834263  0.253191  0.785004  1
  Ti  Ti11  1  0.666518  0.249906  0.282288  1
  Ti  Ti12  1  0.478022  0.748412  0.002874  1
  Ti  Ti13  1  0.019564  0.750303  0.502416  1
  Ti  Ti14  1  0.522317  0.251588  0.998053  1
  Ti  Ti15  1  0.977726  0.249195  0.497668  1
  Ti  Ti16  1  0.654352  0.749109  0.290909  1
  Ti  Ti17  1  0.848367  0.749583  0.792475  1
  Ti  Ti18  1  0.346124  0.252238  0.707808  1
  Ti  Ti19  1  0.154535  0.249064  0.208376  1
  Ga  Ga20  1  0.936530  0.506442  0.323975  1
  Ga  Ga21  1  0.563248  0.993143  0.824650  1
  Ga  Ga22  1  0.064087  0.007166  0.676315  1
  Ga  Ga23  1  0.435425  0.492706  0.177203  1
  Ga  Ga24  1  0.063449  0.493205  0.673849  1
  Ga  Ga25  1  0.437073  0.006801  0.174981  1
  Ga  Ga26  1  0.936218  0.993015  0.324254  1
  As  As27  1  0.564099  0.509136  0.825529  1
  S  S28  1  0.400255  0.749728  0.472102  1
  S  S29  1  0.096832  0.751063  0.975822  1
  S  S30  1  0.597276  0.248368  0.524199  1
  S  S31  1  0.903880  0.249914  0.026957  1
