# generated using pymatgen
data_Ac4PtAu3
_symmetry_space_group_name_H-M   'P 1'
_cell_length_a   4.88766400
_cell_length_b   6.22777336
_cell_length_c   7.91368521
_cell_angle_alpha   90.60992328
_cell_angle_beta   90.00000000
_cell_angle_gamma   90.00000000
_symmetry_Int_Tables_number   1
_chemical_formula_structural   Ac4PtAu3
_chemical_formula_sum   'Ac4 Pt1 Au3'
_cell_volume   240.87310200
_cell_formula_units_Z   1
loop_
 _symmetry_equiv_pos_site_id
 _symmetry_equiv_pos_as_xyz
  1  'x, y, z'
loop_
 _atom_site_type_symbol
 _atom_site_label
 _atom_site_symmetry_multiplicity
 _atom_site_fract_x
 _atom_site_fract_y
 _atom_site_fract_z
 _atom_site_occupancy
  Ac  Ac0  1  0.250000  0.354671  0.695129  1
  Ac  Ac1  1  0.250000  0.153783  0.175861  1
  Ac  Ac2  1  0.750000  0.640377  0.311636  1
  Ac  Ac3  1  0.750000  0.859046  0.820377  1
  Pt  Pt4  1  0.750000  0.339245  0.955562  1
  Au  Au5  1  0.250000  0.847902  0.540556  1
  Au  Au6  1  0.250000  0.656493  0.042375  1
  Au  Au7  1  0.750000  0.148482  0.458505  1
