# generated using pymatgen
data_La8Zn7HgPt8
_symmetry_space_group_name_H-M   'P 1'
_cell_length_a   4.14261400
_cell_length_b   7.56341003
_cell_length_c   16.86803600
_cell_angle_alpha   89.56996381
_cell_angle_beta   90.00000000
_cell_angle_gamma   90.00000000
_symmetry_Int_Tables_number   1
_chemical_formula_structural   La8Zn7HgPt8
_chemical_formula_sum   'La8 Zn7 Hg1 Pt8'
_cell_volume   528.49928058
_cell_formula_units_Z   1
loop_
 _symmetry_equiv_pos_site_id
 _symmetry_equiv_pos_as_xyz
  1  'x, y, z'
loop_
 _atom_site_type_symbol
 _atom_site_label
 _atom_site_symmetry_multiplicity
 _atom_site_fract_x
 _atom_site_fract_y
 _atom_site_fract_z
 _atom_site_occupancy
  La  La0  1  0.750000  0.331047  0.441961  1
  La  La1  1  0.250000  0.049072  0.716339  1
  La  La2  1  0.250000  0.549338  0.782855  1
  La  La3  1  0.250000  0.669547  0.559413  1
  La  La4  1  0.750000  0.826143  0.057351  1
  La  La5  1  0.250000  0.170103  0.939945  1
  La  La6  1  0.750000  0.451668  0.216776  1
  La  La7  1  0.750000  0.946083  0.287049  1
  Zn  Zn8  1  0.250000  0.999923  0.440742  1
  Zn  Zn9  1  0.750000  0.874971  0.849293  1
  Zn  Zn10  1  0.750000  0.000019  0.560514  1
  Zn  Zn11  1  0.250000  0.503491  0.059227  1
  Zn  Zn12  1  0.750000  0.375198  0.649935  1
  Zn  Zn13  1  0.750000  0.503820  0.936356  1
  Zn  Zn14  1  0.250000  0.622689  0.350788  1
  Hg  Hg15  1  0.250000  0.119326  0.152523  1
  Pt  Pt16  1  0.750000  0.252175  0.814273  1
  Pt  Pt17  1  0.250000  0.251127  0.320700  1
  Pt  Pt18  1  0.250000  0.740175  0.932839  1
  Pt  Pt19  1  0.250000  0.239090  0.566238  1
  Pt  Pt20  1  0.250000  0.733987  0.186299  1
  Pt  Pt21  1  0.750000  0.760127  0.435917  1
  Pt  Pt22  1  0.750000  0.277826  0.057757  1
  Pt  Pt23  1  0.750000  0.753055  0.684909  1
