# generated using pymatgen
data_Tb3Y5(OsI4)2
_symmetry_space_group_name_H-M   'P 1'
_cell_length_a   11.43357897
_cell_length_b   11.42504611
_cell_length_c   6.20538505
_cell_angle_alpha   90.02733116
_cell_angle_beta   90.02740634
_cell_angle_gamma   88.32884507
_symmetry_Int_Tables_number   1
_chemical_formula_structural   Tb3Y5(OsI4)2
_chemical_formula_sum   'Tb3 Y5 Os2 I8'
_cell_volume   810.25932409
_cell_formula_units_Z   1
loop_
 _symmetry_equiv_pos_site_id
 _symmetry_equiv_pos_as_xyz
  1  'x, y, z'
loop_
 _atom_site_type_symbol
 _atom_site_label
 _atom_site_symmetry_multiplicity
 _atom_site_fract_x
 _atom_site_fract_y
 _atom_site_fract_z
 _atom_site_occupancy
  Tb  Tb0  1  0.802144  0.084000  0.999166  1
  Tb  Tb1  1  0.084072  0.802140  0.499162  1
  Tb  Tb2  1  0.078664  0.195284  0.000350  1
  Y  Y3  1  0.195346  0.078787  0.500414  1
  Y  Y4  1  0.921494  0.804537  0.999609  1
  Y  Y5  1  0.915880  0.197988  0.500901  1
  Y  Y6  1  0.197879  0.915776  0.000895  1
  Y  Y7  1  0.804536  0.921500  0.499600  1
  Os  Os8  1  0.999850  0.000176  0.249851  1
  Os  Os9  1  0.000096  0.999923  0.750186  1
  I  I10  1  0.645016  0.152301  0.510248  1
  I  I11  1  0.858199  0.648582  0.505643  1
  I  I12  1  0.351565  0.141434  0.994350  1
  I  I13  1  0.141585  0.351366  0.494409  1
  I  I14  1  0.648585  0.858171  0.005644  1
  I  I15  1  0.355168  0.847822  0.489660  1
  I  I16  1  0.152309  0.645016  0.010255  1
  I  I17  1  0.847614  0.355197  0.989658  1
