# generated using pymatgen
data_TbDy3Al15(SiIr2)3
_symmetry_space_group_name_H-M   'P 1'
_cell_length_a   7.53533354
_cell_length_b   7.51859341
_cell_length_c   9.32084200
_cell_angle_alpha   89.99960573
_cell_angle_beta   89.91380065
_cell_angle_gamma   119.74174684
_symmetry_Int_Tables_number   1
_chemical_formula_structural   TbDy3Al15(SiIr2)3
_chemical_formula_sum   'Tb1 Dy3 Al15 Si3 Ir6'
_cell_volume   458.50967993
_cell_formula_units_Z   1
loop_
 _symmetry_equiv_pos_site_id
 _symmetry_equiv_pos_as_xyz
  1  'x, y, z'
loop_
 _atom_site_type_symbol
 _atom_site_label
 _atom_site_symmetry_multiplicity
 _atom_site_fract_x
 _atom_site_fract_y
 _atom_site_fract_z
 _atom_site_occupancy
  Tb  Tb0  1  0.993797  0.669068  0.748420  1
  Dy  Dy1  1  0.005066  0.325612  0.253040  1
  Dy  Dy2  1  0.678709  0.999803  0.748085  1
  Dy  Dy3  1  0.325892  0.005608  0.249631  1
  Al  Al4  1  0.998251  0.668387  0.422148  1
  Al  Al5  1  0.999097  0.664131  0.075228  1
  Al  Al6  1  0.336057  0.000246  0.924637  1
  Al  Al7  1  0.001547  0.336211  0.928483  1
  Al  Al8  1  0.663402  0.998981  0.075234  1
  Al  Al9  1  0.659324  0.994095  0.422532  1
  Al  Al10  1  0.335823  0.000357  0.575959  1
  Al  Al11  1  0.335758  0.335362  0.057730  1
  Al  Al12  1  0.664909  0.665480  0.942385  1
  Al  Al13  1  0.664422  0.665071  0.558803  1
  Al  Al14  1  0.338716  0.335441  0.442072  1
  Al  Al15  1  0.334673  0.546418  0.750377  1
  Al  Al16  1  0.665386  0.451414  0.250195  1
  Al  Al17  1  0.546153  0.335643  0.750313  1
  Al  Al18  1  0.450651  0.663386  0.249413  1
  Si  Si19  1  0.131713  0.127562  0.750829  1
  Si  Si20  1  0.871381  0.872709  0.249718  1
  Si  Si21  1  0.001023  0.337864  0.572940  1
  Ir  Ir22  1  0.679148  0.328596  0.501628  1
  Ir  Ir23  1  0.320260  0.663857  0.500262  1
  Ir  Ir24  1  0.327967  0.671144  0.999415  1
  Ir  Ir25  1  0.671953  0.328571  0.999237  1
  Ir  Ir26  1  0.999288  0.008334  0.501838  1
  Ir  Ir27  1  0.999635  0.000651  0.999446  1
