# generated using pymatgen
data_Ta3ZnPdPt8Rh3
_symmetry_space_group_name_H-M   'P 1'
_cell_length_a   5.60511845
_cell_length_b   5.60123219
_cell_length_c   9.09563800
_cell_angle_alpha   90.00000000
_cell_angle_beta   90.00000000
_cell_angle_gamma   119.97704880
_symmetry_Int_Tables_number   1
_chemical_formula_structural   Ta3ZnPdPt8Rh3
_chemical_formula_sum   'Ta3 Zn1 Pd1 Pt8 Rh3'
_cell_volume   247.36176052
_cell_formula_units_Z   1
loop_
 _symmetry_equiv_pos_site_id
 _symmetry_equiv_pos_as_xyz
  1  'x, y, z'
loop_
 _atom_site_type_symbol
 _atom_site_label
 _atom_site_symmetry_multiplicity
 _atom_site_fract_x
 _atom_site_fract_y
 _atom_site_fract_z
 _atom_site_occupancy
  Ta  Ta0  1  0.666138  0.333068  0.500000  1
  Ta  Ta1  1  0.998190  0.999095  0.741640  1
  Ta  Ta2  1  0.998190  0.999095  0.258360  1
  Zn  Zn3  1  0.335146  0.667574  0.000000  1
  Pd  Pd4  1  0.332414  0.166207  0.000000  1
  Pt  Pt5  1  0.832215  0.167984  0.000000  1
  Pt  Pt6  1  0.832215  0.664229  0.000000  1
  Pt  Pt7  1  0.998322  0.499162  0.747006  1
  Pt  Pt8  1  0.500495  0.498624  0.746730  1
  Pt  Pt9  1  0.500495  0.001873  0.746730  1
  Pt  Pt10  1  0.998322  0.499162  0.252994  1
  Pt  Pt11  1  0.500495  0.498624  0.253270  1
  Pt  Pt12  1  0.500495  0.001873  0.253270  1
  Rh  Rh13  1  0.169656  0.831765  0.500000  1
  Rh  Rh14  1  0.169656  0.337892  0.500000  1
  Rh  Rh15  1  0.667552  0.833777  0.500000  1
