# generated using pymatgen
data_Tb2Pr7NdB2Br15
_symmetry_space_group_name_H-M   'P 1'
_cell_length_a   9.40570477
_cell_length_b   10.19795561
_cell_length_c   11.07011597
_cell_angle_alpha   91.36927047
_cell_angle_beta   114.44915043
_cell_angle_gamma   110.73576741
_symmetry_Int_Tables_number   1
_chemical_formula_structural   Tb2Pr7NdB2Br15
_chemical_formula_sum   'Tb2 Pr7 Nd1 B2 Br15'
_cell_volume   885.70372014
_cell_formula_units_Z   1
loop_
 _symmetry_equiv_pos_site_id
 _symmetry_equiv_pos_as_xyz
  1  'x, y, z'
loop_
 _atom_site_type_symbol
 _atom_site_label
 _atom_site_symmetry_multiplicity
 _atom_site_fract_x
 _atom_site_fract_y
 _atom_site_fract_z
 _atom_site_occupancy
  Tb  Tb0  1  0.717452  0.072839  0.046792  1
  Tb  Tb1  1  0.282548  0.927055  0.953095  1
  Pr  Pr2  1  0.802130  0.410114  0.276146  1
  Pr  Pr3  1  0.197954  0.590288  0.723707  1
  Pr  Pr4  1  0.675211  0.746844  0.820972  1
  Pr  Pr5  1  0.324743  0.253045  0.179390  1
  Pr  Pr6  1  0.526459  0.703839  0.097391  1
  Pr  Pr7  1  0.473426  0.296474  0.902255  1
  Pr  Pr8  1  0.587291  0.036525  0.326028  1
  Nd  Nd9  1  0.413144  0.962522  0.675563  1
  B  B10  1  0.467521  0.825068  0.878549  1
  B  B11  1  0.532308  0.175803  0.120585  1
  Br  Br12  1  0.000013  0.000032  0.999912  1
  Br  Br13  1  0.635039  0.882703  0.583155  1
  Br  Br14  1  0.363366  0.117385  0.418401  1
  Br  Br15  1  0.884104  0.298918  0.529562  1
  Br  Br16  1  0.118222  0.703360  0.471756  1
  Br  Br17  1  0.280821  0.765416  0.169813  1
  Br  Br18  1  0.716672  0.232475  0.828308  1
  Br  Br19  1  0.044025  0.331548  0.218129  1
  Br  Br20  1  0.160061  0.048959  0.709633  1
  Br  Br21  1  0.841801  0.950223  0.289426  1
  Br  Br22  1  0.227571  0.409056  0.943386  1
  Br  Br23  1  0.772348  0.590832  0.056463  1
  Br  Br24  1  0.407678  0.461990  0.656962  1
  Br  Br25  1  0.592309  0.538197  0.342934  1
  Br  Br26  1  0.955784  0.668490  0.781687  1
