# generated using pymatgen
data_Ti3Fe4Sn
_symmetry_space_group_name_H-M   'P 1'
_cell_length_a   7.34603352
_cell_length_b   7.34603359
_cell_length_c   7.34603327
_cell_angle_alpha   33.38308491
_cell_angle_beta   33.38308597
_cell_angle_gamma   33.38309457
_symmetry_Int_Tables_number   1
_chemical_formula_structural   Ti3Fe4Sn
_chemical_formula_sum   'Ti3 Fe4 Sn1'
_cell_volume   106.87418767
_cell_formula_units_Z   1
loop_
 _symmetry_equiv_pos_site_id
 _symmetry_equiv_pos_as_xyz
  1  'x, y, z'
loop_
 _atom_site_type_symbol
 _atom_site_label
 _atom_site_symmetry_multiplicity
 _atom_site_fract_x
 _atom_site_fract_y
 _atom_site_fract_z
 _atom_site_occupancy
  Ti  Ti0  1  0.249898  0.249898  0.249898  1
  Ti  Ti1  1  0.750102  0.750102  0.750102  1
  Ti  Ti2  1  0.500000  0.500000  0.500000  1
  Fe  Fe3  1  0.619774  0.619774  0.619774  1
  Fe  Fe4  1  0.128592  0.128592  0.128592  1
  Fe  Fe5  1  0.871408  0.871408  0.871408  1
  Fe  Fe6  1  0.380226  0.380226  0.380226  1
  Sn  Sn7  1  0.000000  0.000000  0.000000  1
