# generated using pymatgen
data_Li4LuIn3O8
_symmetry_space_group_name_H-M   'P 1'
_cell_length_a   3.26460200
_cell_length_b   5.24262589
_cell_length_c   10.82478623
_cell_angle_alpha   90.30819062
_cell_angle_beta   90.00000000
_cell_angle_gamma   90.00000000
_symmetry_Int_Tables_number   1
_chemical_formula_structural   Li4LuIn3O8
_chemical_formula_sum   'Li4 Lu1 In3 O8'
_cell_volume   185.26447759
_cell_formula_units_Z   1
loop_
 _symmetry_equiv_pos_site_id
 _symmetry_equiv_pos_as_xyz
  1  'x, y, z'
loop_
 _atom_site_type_symbol
 _atom_site_label
 _atom_site_symmetry_multiplicity
 _atom_site_fract_x
 _atom_site_fract_y
 _atom_site_fract_z
 _atom_site_occupancy
  Li  Li0  1  0.250000  0.099079  0.073817  1
  Li  Li1  1  0.250000  0.403475  0.569671  1
  Li  Li2  1  0.750000  0.597573  0.424030  1
  Li  Li3  1  0.750000  0.895161  0.931709  1
  Lu  Lu4  1  0.750000  0.949026  0.639898  1
  In  In5  1  0.250000  0.051425  0.360555  1
  In  In6  1  0.250000  0.447470  0.860843  1
  In  In7  1  0.750000  0.549425  0.139190  1
  O  O8  1  0.250000  0.180375  0.710332  1
  O  O9  1  0.750000  0.241388  0.474358  1
  O  O10  1  0.750000  0.256084  0.974532  1
  O  O11  1  0.250000  0.325143  0.212918  1
  O  O12  1  0.750000  0.678946  0.789147  1
  O  O13  1  0.250000  0.739506  0.026567  1
  O  O14  1  0.250000  0.759690  0.526012  1
  O  O15  1  0.750000  0.826233  0.286423  1
