# generated using pymatgen
data_LuCo2O5
_symmetry_space_group_name_H-M   'P 1'
_cell_length_a   5.66857100
_cell_length_b   7.08052700
_cell_length_c   8.26994700
_cell_angle_alpha   90.00000000
_cell_angle_beta   90.00000000
_cell_angle_gamma   90.00000000
_symmetry_Int_Tables_number   1
_chemical_formula_structural   LuCo2O5
_chemical_formula_sum   'Lu4 Co8 O20'
_cell_volume   331.92647981
_cell_formula_units_Z   4
loop_
 _symmetry_equiv_pos_site_id
 _symmetry_equiv_pos_as_xyz
  1  'x, y, z'
loop_
 _atom_site_type_symbol
 _atom_site_label
 _atom_site_symmetry_multiplicity
 _atom_site_fract_x
 _atom_site_fract_y
 _atom_site_fract_z
 _atom_site_occupancy
  Lu  Lu0  1  0.000000  0.136176  0.170942  1
  Lu  Lu1  1  0.000000  0.863824  0.829058  1
  Lu  Lu2  1  0.000000  0.636176  0.329058  1
  Lu  Lu3  1  0.000000  0.363824  0.670942  1
  Co  Co4  1  0.253395  0.000000  0.500000  1
  Co  Co5  1  0.746605  0.500000  0.000000  1
  Co  Co6  1  0.746605  0.000000  0.500000  1
  Co  Co7  1  0.253395  0.500000  0.000000  1
  Co  Co8  1  0.500000  0.409017  0.348187  1
  Co  Co9  1  0.500000  0.590983  0.651813  1
  Co  Co10  1  0.500000  0.909017  0.151813  1
  Co  Co11  1  0.500000  0.090983  0.848187  1
  O  O12  1  0.270398  0.000000  0.000000  1
  O  O13  1  0.729602  0.500000  0.500000  1
  O  O14  1  0.729602  0.000000  0.000000  1
  O  O15  1  0.270398  0.500000  0.500000  1
  O  O16  1  0.000000  0.165612  0.442620  1
  O  O17  1  0.000000  0.834388  0.557380  1
  O  O18  1  0.000000  0.665612  0.057380  1
  O  O19  1  0.000000  0.334388  0.942620  1
  O  O20  1  0.500000  0.151274  0.428309  1
  O  O21  1  0.500000  0.848726  0.571691  1
  O  O22  1  0.500000  0.651274  0.071691  1
  O  O23  1  0.500000  0.348726  0.928309  1
  O  O24  1  0.239982  0.391844  0.206997  1
  O  O25  1  0.239982  0.608156  0.793003  1
  O  O26  1  0.760018  0.891844  0.293003  1
  O  O27  1  0.760018  0.108156  0.706997  1
  O  O28  1  0.760018  0.608156  0.793003  1
  O  O29  1  0.760018  0.391844  0.206997  1
  O  O30  1  0.239982  0.108156  0.706997  1
  O  O31  1  0.239982  0.891844  0.293003  1
