# generated using pymatgen
data_Cs3Bi(AsSe2)6
_symmetry_space_group_name_H-M   'P 1'
_cell_length_a   10.11093500
_cell_length_b   10.11093489
_cell_length_c   8.78432900
_cell_angle_alpha   90.00000000
_cell_angle_beta   90.00000000
_cell_angle_gamma   119.99999971
_symmetry_Int_Tables_number   1
_chemical_formula_structural   Cs3Bi(AsSe2)6
_chemical_formula_sum   'Cs3 Bi1 As6 Se12'
_cell_volume   777.71747664
_cell_formula_units_Z   1
loop_
 _symmetry_equiv_pos_site_id
 _symmetry_equiv_pos_as_xyz
  1  'x, y, z'
loop_
 _atom_site_type_symbol
 _atom_site_label
 _atom_site_symmetry_multiplicity
 _atom_site_fract_x
 _atom_site_fract_y
 _atom_site_fract_z
 _atom_site_occupancy
  Cs  Cs0  1  0.000000  0.000000  0.000000  1
  Cs  Cs1  1  0.333333  0.666667  0.852343  1
  Cs  Cs2  1  0.666667  0.333333  0.147657  1
  Bi  Bi3  1  0.000000  0.000000  0.500000  1
  As  As4  1  0.289849  0.836562  0.389475  1
  As  As5  1  0.163438  0.453288  0.389475  1
  As  As6  1  0.546712  0.710151  0.389475  1
  As  As7  1  0.710151  0.163438  0.610525  1
  As  As8  1  0.836562  0.546712  0.610525  1
  As  As9  1  0.453288  0.289849  0.610525  1
  Se  Se10  1  0.263635  0.045848  0.305168  1
  Se  Se11  1  0.954152  0.217787  0.305168  1
  Se  Se12  1  0.782213  0.736365  0.305168  1
  Se  Se13  1  0.736365  0.954152  0.694832  1
  Se  Se14  1  0.045848  0.782213  0.694832  1
  Se  Se15  1  0.217787  0.263635  0.694832  1
  Se  Se16  1  0.523952  0.904040  0.239252  1
  Se  Se17  1  0.095960  0.619911  0.239252  1
  Se  Se18  1  0.380089  0.476048  0.239252  1
  Se  Se19  1  0.476048  0.095960  0.760748  1
  Se  Se20  1  0.904040  0.380089  0.760748  1
  Se  Se21  1  0.619911  0.523952  0.760748  1
