# generated using pymatgen
data_Dy11Y9Cd6IrRu
_symmetry_space_group_name_H-M   'P 1'
_cell_length_a   9.63992200
_cell_length_b   9.63992170
_cell_length_c   9.86044600
_cell_angle_alpha   90.00000000
_cell_angle_beta   90.00000000
_cell_angle_gamma   120.00000102
_symmetry_Int_Tables_number   1
_chemical_formula_structural   Dy11Y9Cd6IrRu
_chemical_formula_sum   'Dy11 Y9 Cd6 Ir1 Ru1'
_cell_volume   793.54984784
_cell_formula_units_Z   1
loop_
 _symmetry_equiv_pos_site_id
 _symmetry_equiv_pos_as_xyz
  1  'x, y, z'
loop_
 _atom_site_type_symbol
 _atom_site_label
 _atom_site_symmetry_multiplicity
 _atom_site_fract_x
 _atom_site_fract_y
 _atom_site_fract_z
 _atom_site_occupancy
  Dy  Dy0  1  0.000000  0.000000  0.499793  1
  Dy  Dy1  1  0.000000  0.000000  0.000198  1
  Dy  Dy2  1  0.209613  0.790387  0.440306  1
  Dy  Dy3  1  0.209613  0.419226  0.440306  1
  Dy  Dy4  1  0.580774  0.790387  0.440306  1
  Dy  Dy5  1  0.790225  0.209775  0.560300  1
  Dy  Dy6  1  0.790225  0.580447  0.560300  1
  Dy  Dy7  1  0.419553  0.209775  0.560300  1
  Dy  Dy8  1  0.790188  0.209812  0.939692  1
  Dy  Dy9  1  0.790188  0.580375  0.939692  1
  Dy  Dy10  1  0.419625  0.209812  0.939692  1
  Y  Y11  1  0.209281  0.790719  0.059390  1
  Y  Y12  1  0.209281  0.418563  0.059390  1
  Y  Y13  1  0.581437  0.790719  0.059390  1
  Y  Y14  1  0.541379  0.458621  0.250137  1
  Y  Y15  1  0.541379  0.082759  0.250137  1
  Y  Y16  1  0.917241  0.458621  0.250137  1
  Y  Y17  1  0.458767  0.541233  0.749847  1
  Y  Y18  1  0.458767  0.917533  0.749847  1
  Y  Y19  1  0.082467  0.541233  0.749847  1
  Cd  Cd20  1  0.885377  0.114623  0.249963  1
  Cd  Cd21  1  0.885377  0.770754  0.249963  1
  Cd  Cd22  1  0.229246  0.114623  0.249963  1
  Cd  Cd23  1  0.114630  0.885370  0.750068  1
  Cd  Cd24  1  0.114630  0.229259  0.750068  1
  Cd  Cd25  1  0.770741  0.885370  0.750068  1
  Ir  Ir26  1  0.333333  0.666667  0.251052  1
  Ru  Ru27  1  0.666667  0.333333  0.749850  1
