# generated using pymatgen
data_DyLu15(In3Fe)2
_symmetry_space_group_name_H-M   'P 1'
_cell_length_a   10.14574200
_cell_length_b   10.14574310
_cell_length_c   6.90558700
_cell_angle_alpha   90.00000000
_cell_angle_beta   90.00000000
_cell_angle_gamma   120.00000295
_symmetry_Int_Tables_number   1
_chemical_formula_structural   DyLu15(In3Fe)2
_chemical_formula_sum   'Dy1 Lu15 In6 Fe2'
_cell_volume   615.60040282
_cell_formula_units_Z   1
loop_
 _symmetry_equiv_pos_site_id
 _symmetry_equiv_pos_as_xyz
  1  'x, y, z'
loop_
 _atom_site_type_symbol
 _atom_site_label
 _atom_site_symmetry_multiplicity
 _atom_site_fract_x
 _atom_site_fract_y
 _atom_site_fract_z
 _atom_site_occupancy
  Dy  Dy0  1  0.000000  0.000000  0.000469  1
  Lu  Lu1  1  0.534384  0.068767  0.513056  1
  Lu  Lu2  1  0.931233  0.465616  0.513056  1
  Lu  Lu3  1  0.534384  0.465616  0.513056  1
  Lu  Lu4  1  0.465621  0.931243  0.013180  1
  Lu  Lu5  1  0.068757  0.534379  0.013180  1
  Lu  Lu6  1  0.465621  0.534379  0.013180  1
  Lu  Lu7  1  0.179578  0.359156  0.718353  1
  Lu  Lu8  1  0.640844  0.820422  0.718353  1
  Lu  Lu9  1  0.179578  0.820422  0.718353  1
  Lu  Lu10  1  0.820260  0.640521  0.219657  1
  Lu  Lu11  1  0.359479  0.179740  0.219657  1
  Lu  Lu12  1  0.820260  0.179740  0.219657  1
  Lu  Lu13  1  0.666667  0.333333  0.903432  1
  Lu  Lu14  1  0.333333  0.666667  0.404725  1
  Lu  Lu15  1  0.000000  0.000000  0.499988  1
  In  In16  1  0.836390  0.672780  0.758883  1
  In  In17  1  0.327220  0.163610  0.758883  1
  In  In18  1  0.836390  0.163610  0.758883  1
  In  In19  1  0.163620  0.327241  0.261967  1
  In  In20  1  0.672759  0.836380  0.261967  1
  In  In21  1  0.163620  0.836380  0.261967  1
  Fe  Fe22  1  0.666667  0.333333  0.289601  1
  Fe  Fe23  1  0.333333  0.666667  0.790693  1
