# generated using pymatgen
data_K6InAg10Pb
_symmetry_space_group_name_H-M   'P 1'
_cell_length_a   11.33748551
_cell_length_b   11.33748551
_cell_length_c   11.33748544
_cell_angle_alpha   150.50273687
_cell_angle_beta   133.90458205
_cell_angle_gamma   55.67831228
_symmetry_Int_Tables_number   1
_chemical_formula_structural   K6InAg10Pb
_chemical_formula_sum   'K6 In1 Ag10 Pb1'
_cell_volume   513.73895255
_cell_formula_units_Z   1
loop_
 _symmetry_equiv_pos_site_id
 _symmetry_equiv_pos_as_xyz
  1  'x, y, z'
loop_
 _atom_site_type_symbol
 _atom_site_label
 _atom_site_symmetry_multiplicity
 _atom_site_fract_x
 _atom_site_fract_y
 _atom_site_fract_z
 _atom_site_occupancy
  K  K0  1  0.289120  0.911386  0.377734  1
  K  K1  1  0.033836  0.411365  0.622474  1
  K  K2  1  0.637786  0.250000  0.387786  1
  K  K3  1  0.361898  0.750000  0.611898  1
  K  K4  1  0.966350  0.588614  0.377734  1
  K  K5  1  0.711109  0.088635  0.622474  1
  In  In6  1  0.084193  0.250000  0.834193  1
  Ag  Ag7  1  0.000507  0.999945  0.000562  1
  Ag  Ag8  1  0.500617  0.500055  0.000562  1
  Ag  Ag9  1  0.684395  0.684475  0.499510  1
  Ag  Ag10  1  0.684395  0.184885  0.999921  1
  Ag  Ag11  1  0.816373  0.856982  0.959390  1
  Ag  Ag12  1  0.394685  0.356142  0.038543  1
  Ag  Ag13  1  0.602408  0.643018  0.959390  1
  Ag  Ag14  1  0.182400  0.143858  0.038543  1
  Ag  Ag15  1  0.315035  0.815525  0.999921  1
  Ag  Ag16  1  0.315035  0.315115  0.499510  1
  Pb  Pb17  1  0.919859  0.750000  0.169859  1
