# generated using pymatgen
data_NaInSiO4
_symmetry_space_group_name_H-M   'P 1'
_cell_length_a   5.12878900
_cell_length_b   6.33873900
_cell_length_c   10.82046000
_cell_angle_alpha   90.00000000
_cell_angle_beta   90.00000000
_cell_angle_gamma   90.00000000
_symmetry_Int_Tables_number   1
_chemical_formula_structural   NaInSiO4
_chemical_formula_sum   'Na4 In4 Si4 O16'
_cell_volume   351.77374818
_cell_formula_units_Z   4
loop_
 _symmetry_equiv_pos_site_id
 _symmetry_equiv_pos_as_xyz
  1  'x, y, z'
loop_
 _atom_site_type_symbol
 _atom_site_label
 _atom_site_symmetry_multiplicity
 _atom_site_fract_x
 _atom_site_fract_y
 _atom_site_fract_z
 _atom_site_occupancy
  Na  Na0  1  0.500000  0.500000  0.000000  1
  Na  Na1  1  0.500000  0.000000  0.000000  1
  Na  Na2  1  0.000000  0.000000  0.500000  1
  Na  Na3  1  0.000000  0.500000  0.500000  1
  In  In4  1  0.506902  0.250000  0.279464  1
  In  In5  1  0.493098  0.750000  0.720536  1
  In  In6  1  0.993098  0.250000  0.779464  1
  In  In7  1  0.006902  0.750000  0.220536  1
  Si  Si8  1  0.555974  0.750000  0.398358  1
  Si  Si9  1  0.944026  0.750000  0.898358  1
  Si  Si10  1  0.444026  0.250000  0.601642  1
  Si  Si11  1  0.055974  0.250000  0.101642  1
  O  O12  1  0.739617  0.250000  0.112642  1
  O  O13  1  0.260383  0.750000  0.887358  1
  O  O14  1  0.760383  0.250000  0.612642  1
  O  O15  1  0.239617  0.750000  0.387358  1
  O  O16  1  0.838396  0.750000  0.041824  1
  O  O17  1  0.161604  0.250000  0.958176  1
  O  O18  1  0.661604  0.750000  0.541824  1
  O  O19  1  0.338396  0.250000  0.458176  1
  O  O20  1  0.704524  0.549468  0.325559  1
  O  O21  1  0.295476  0.049468  0.674441  1
  O  O22  1  0.795476  0.549468  0.825559  1
  O  O23  1  0.204524  0.049468  0.174441  1
  O  O24  1  0.204524  0.450532  0.174441  1
  O  O25  1  0.795476  0.950532  0.825559  1
  O  O26  1  0.295476  0.450532  0.674441  1
  O  O27  1  0.704524  0.950532  0.325559  1
