# generated using pymatgen
data_LiEu4Pd
_symmetry_space_group_name_H-M   'P 1'
_cell_length_a   10.47926551
_cell_length_b   10.47926707
_cell_length_c   10.47926500
_cell_angle_alpha   60.00000337
_cell_angle_beta   59.99999844
_cell_angle_gamma   60.00000025
_symmetry_Int_Tables_number   1
_chemical_formula_structural   LiEu4Pd
_chemical_formula_sum   'Li4 Eu16 Pd4'
_cell_volume   813.72486053
_cell_formula_units_Z   4
loop_
 _symmetry_equiv_pos_site_id
 _symmetry_equiv_pos_as_xyz
  1  'x, y, z'
loop_
 _atom_site_type_symbol
 _atom_site_label
 _atom_site_symmetry_multiplicity
 _atom_site_fract_x
 _atom_site_fract_y
 _atom_site_fract_z
 _atom_site_occupancy
  Li  Li0  1  0.575032  0.575032  0.575032  1
  Li  Li1  1  0.575032  0.575032  0.274903  1
  Li  Li2  1  0.575032  0.274903  0.575032  1
  Li  Li3  1  0.274903  0.575032  0.575032  1
  Eu  Eu4  1  0.345074  0.345074  0.345074  1
  Eu  Eu5  1  0.345074  0.345074  0.964779  1
  Eu  Eu6  1  0.345074  0.964779  0.345074  1
  Eu  Eu7  1  0.964779  0.345074  0.345074  1
  Eu  Eu8  1  0.812346  0.187654  0.187654  1
  Eu  Eu9  1  0.187654  0.812346  0.812346  1
  Eu  Eu10  1  0.187654  0.812346  0.187654  1
  Eu  Eu11  1  0.812346  0.187654  0.812346  1
  Eu  Eu12  1  0.187654  0.187654  0.812346  1
  Eu  Eu13  1  0.812346  0.812346  0.187654  1
  Eu  Eu14  1  0.940927  0.559073  0.559073  1
  Eu  Eu15  1  0.559073  0.940927  0.940927  1
  Eu  Eu16  1  0.559073  0.940927  0.559073  1
  Eu  Eu17  1  0.940927  0.559073  0.940927  1
  Eu  Eu18  1  0.559073  0.559073  0.940927  1
  Eu  Eu19  1  0.940927  0.940927  0.559073  1
  Pd  Pd20  1  0.141310  0.141310  0.141310  1
  Pd  Pd21  1  0.141310  0.141310  0.576069  1
  Pd  Pd22  1  0.141310  0.576069  0.141310  1
  Pd  Pd23  1  0.576069  0.141310  0.141310  1
