# generated using pymatgen
data_Ho20Ir7PtAu4
_symmetry_space_group_name_H-M   'P 1'
_cell_length_a   11.10935852
_cell_length_b   11.09361484
_cell_length_c   6.28752993
_cell_angle_alpha   89.87535675
_cell_angle_beta   90.01514147
_cell_angle_gamma   89.60086976
_symmetry_Int_Tables_number   1
_chemical_formula_structural   Ho20Ir7PtAu4
_chemical_formula_sum   'Ho20 Ir7 Pt1 Au4'
_cell_volume   774.87303702
_cell_formula_units_Z   1
loop_
 _symmetry_equiv_pos_site_id
 _symmetry_equiv_pos_as_xyz
  1  'x, y, z'
loop_
 _atom_site_type_symbol
 _atom_site_label
 _atom_site_symmetry_multiplicity
 _atom_site_fract_x
 _atom_site_fract_y
 _atom_site_fract_z
 _atom_site_occupancy
  Ho  Ho0  1  0.298962  0.090580  0.363029  1
  Ho  Ho1  1  0.301288  0.907024  0.862744  1
  Ho  Ho2  1  0.699989  0.077178  0.856341  1
  Ho  Ho3  1  0.700484  0.903873  0.366486  1
  Ho  Ho4  1  0.584273  0.785779  0.874675  1
  Ho  Ho5  1  0.576380  0.205907  0.360131  1
  Ho  Ho6  1  0.417833  0.788742  0.374382  1
  Ho  Ho7  1  0.411365  0.207512  0.874428  1
  Ho  Ho8  1  0.215389  0.420001  0.624528  1
  Ho  Ho9  1  0.211362  0.583126  0.125505  1
  Ho  Ho10  1  0.793803  0.424693  0.140085  1
  Ho  Ho11  1  0.793475  0.593312  0.626309  1
  Ho  Ho12  1  0.907568  0.703193  0.131524  1
  Ho  Ho13  1  0.919063  0.302402  0.642168  1
  Ho  Ho14  1  0.089972  0.700700  0.639139  1
  Ho  Ho15  1  0.094330  0.301710  0.139438  1
  Ho  Ho16  1  0.995052  0.997634  0.500903  1
  Ho  Ho17  1  0.995761  0.998553  0.999172  1
  Ho  Ho18  1  0.496409  0.501883  0.000967  1
  Ho  Ho19  1  0.498787  0.503367  0.499286  1
  Ir  Ir20  1  0.653511  0.651074  0.250997  1
  Ir  Ir21  1  0.348899  0.346317  0.248841  1
  Ir  Ir22  1  0.345109  0.654645  0.749715  1
  Ir  Ir23  1  0.499319  0.999108  0.110690  1
  Ir  Ir24  1  0.498516  0.000060  0.610780  1
  Ir  Ir25  1  0.000146  0.500879  0.889033  1
  Ir  Ir26  1  0.001095  0.500981  0.389232  1
  Pt  Pt27  1  0.844938  0.847865  0.750717  1
  Au  Au28  1  0.840916  0.158613  0.249603  1
  Au  Au29  1  0.153589  0.156029  0.749065  1
  Au  Au30  1  0.155575  0.844422  0.249928  1
  Au  Au31  1  0.656842  0.342836  0.750161  1
