# generated using pymatgen
data_Hf6Zr10Ni3Ir5N4
_symmetry_space_group_name_H-M   'P 1'
_cell_length_a   8.70788089
_cell_length_b   8.77039066
_cell_length_c   8.76424500
_cell_angle_alpha   60.02316590
_cell_angle_beta   59.78563907
_cell_angle_gamma   59.71735770
_symmetry_Int_Tables_number   1
_chemical_formula_structural   Hf6Zr10Ni3Ir5N4
_chemical_formula_sum   'Hf6 Zr10 Ni3 Ir5 N4'
_cell_volume   471.58992136
_cell_formula_units_Z   1
loop_
 _symmetry_equiv_pos_site_id
 _symmetry_equiv_pos_as_xyz
  1  'x, y, z'
loop_
 _atom_site_type_symbol
 _atom_site_label
 _atom_site_symmetry_multiplicity
 _atom_site_fract_x
 _atom_site_fract_y
 _atom_site_fract_z
 _atom_site_occupancy
  Hf  Hf0  1  0.086490  0.637602  0.637954  1
  Hf  Hf1  1  0.637398  0.104655  0.628974  1
  Hf  Hf2  1  0.637105  0.629296  0.104229  1
  Hf  Hf3  1  0.637105  0.629296  0.629371  1
  Hf  Hf4  1  0.815084  0.814054  0.185431  1
  Hf  Hf5  1  0.187796  0.187196  0.812504  1
  Zr  Zr6  1  0.815361  0.185069  0.814798  1
  Zr  Zr7  1  0.186296  0.812968  0.187749  1
  Zr  Zr8  1  0.186296  0.812968  0.812987  1
  Zr  Zr9  1  0.815361  0.185069  0.184772  1
  Zr  Zr10  1  0.434801  0.433325  0.065937  1
  Zr  Zr11  1  0.069346  0.066250  0.432202  1
  Zr  Zr12  1  0.436157  0.064606  0.434452  1
  Zr  Zr13  1  0.068354  0.433328  0.064834  1
  Zr  Zr14  1  0.068354  0.433328  0.433483  1
  Zr  Zr15  1  0.436157  0.064606  0.064783  1
  Ni  Ni16  1  0.843377  0.454937  0.850843  1
  Ni  Ni17  1  0.840097  0.850935  0.455243  1
  Ni  Ni18  1  0.840097  0.850935  0.853726  1
  Ir  Ir19  1  0.755688  0.415643  0.414334  1
  Ir  Ir20  1  0.412139  0.751719  0.418070  1
  Ir  Ir21  1  0.411159  0.418358  0.751495  1
  Ir  Ir22  1  0.411159  0.418358  0.418987  1
  Ir  Ir23  1  0.468607  0.845358  0.843018  1
  N  N24  1  0.625998  0.121735  0.126134  1
  N  N25  1  0.121646  0.627488  0.125433  1
  N  N26  1  0.126284  0.125460  0.627359  1
  N  N27  1  0.126284  0.125460  0.120897  1
