# generated using pymatgen
data_Nb8VSnSe16
_symmetry_space_group_name_H-M   'P 1'
_cell_length_a   7.01799400
_cell_length_b   7.01799442
_cell_length_c   13.95707200
_cell_angle_alpha   90.00000000
_cell_angle_beta   90.00000000
_cell_angle_gamma   120.00000743
_symmetry_Int_Tables_number   1
_chemical_formula_structural   Nb8VSnSe16
_chemical_formula_sum   'Nb8 V1 Sn1 Se16'
_cell_volume   595.32062563
_cell_formula_units_Z   1
loop_
 _symmetry_equiv_pos_site_id
 _symmetry_equiv_pos_as_xyz
  1  'x, y, z'
loop_
 _atom_site_type_symbol
 _atom_site_label
 _atom_site_symmetry_multiplicity
 _atom_site_fract_x
 _atom_site_fract_y
 _atom_site_fract_z
 _atom_site_occupancy
  Nb  Nb0  1  0.000000  0.000000  0.268747  1
  Nb  Nb1  1  0.000000  0.000000  0.731253  1
  Nb  Nb2  1  0.506477  0.012954  0.268988  1
  Nb  Nb3  1  0.493523  0.987046  0.731012  1
  Nb  Nb4  1  0.987046  0.493523  0.268988  1
  Nb  Nb5  1  0.012954  0.506477  0.731012  1
  Nb  Nb6  1  0.506477  0.493523  0.268988  1
  Nb  Nb7  1  0.493523  0.506477  0.731012  1
  V  V8  1  0.000000  0.000000  0.500000  1
  Sn  Sn9  1  0.000000  0.000000  0.000000  1
  Se  Se10  1  0.333333  0.666667  0.609095  1
  Se  Se11  1  0.666667  0.333333  0.390905  1
  Se  Se12  1  0.666667  0.333333  0.145361  1
  Se  Se13  1  0.333333  0.666667  0.854639  1
  Se  Se14  1  0.169020  0.338040  0.150079  1
  Se  Se15  1  0.830980  0.661960  0.849921  1
  Se  Se16  1  0.661960  0.830980  0.150079  1
  Se  Se17  1  0.833235  0.666470  0.612619  1
  Se  Se18  1  0.338040  0.169020  0.849921  1
  Se  Se19  1  0.166765  0.333530  0.387381  1
  Se  Se20  1  0.169020  0.830980  0.150079  1
  Se  Se21  1  0.333530  0.166765  0.612619  1
  Se  Se22  1  0.830980  0.169020  0.849921  1
  Se  Se23  1  0.666470  0.833235  0.387381  1
  Se  Se24  1  0.833235  0.166765  0.612619  1
  Se  Se25  1  0.166765  0.833235  0.387381  1
