# generated using pymatgen
data_Eu8Cd(Si4Pt)3
_symmetry_space_group_name_H-M   'P 1'
_cell_length_a   8.36719000
_cell_length_b   8.36719128
_cell_length_c   8.72495700
_cell_angle_alpha   90.00000000
_cell_angle_beta   90.00000000
_cell_angle_gamma   120.00000284
_symmetry_Int_Tables_number   1
_chemical_formula_structural   Eu8Cd(Si4Pt)3
_chemical_formula_sum   'Eu8 Cd1 Si12 Pt3'
_cell_volume   528.99704115
_cell_formula_units_Z   1
loop_
 _symmetry_equiv_pos_site_id
 _symmetry_equiv_pos_as_xyz
  1  'x, y, z'
loop_
 _atom_site_type_symbol
 _atom_site_label
 _atom_site_symmetry_multiplicity
 _atom_site_fract_x
 _atom_site_fract_y
 _atom_site_fract_z
 _atom_site_occupancy
  Eu  Eu0  1  0.496403  0.503597  0.742122  1
  Eu  Eu1  1  0.496552  0.503448  0.256899  1
  Eu  Eu2  1  0.007193  0.503597  0.742122  1
  Eu  Eu3  1  0.006895  0.503448  0.256899  1
  Eu  Eu4  1  0.496403  0.992807  0.742122  1
  Eu  Eu5  1  0.496552  0.993105  0.256899  1
  Eu  Eu6  1  0.000000  0.000000  0.748973  1
  Eu  Eu7  1  0.000000  0.000000  0.253127  1
  Cd  Cd8  1  0.666667  0.333333  0.996619  1
  Si  Si9  1  0.843171  0.156829  0.002874  1
  Si  Si10  1  0.167864  0.832136  0.998257  1
  Si  Si11  1  0.313658  0.156829  0.002874  1
  Si  Si12  1  0.164459  0.835541  0.500401  1
  Si  Si13  1  0.664271  0.832136  0.998257  1
  Si  Si14  1  0.833976  0.166024  0.499890  1
  Si  Si15  1  0.843171  0.686342  0.002874  1
  Si  Si16  1  0.671081  0.835541  0.500401  1
  Si  Si17  1  0.167864  0.335729  0.998257  1
  Si  Si18  1  0.332048  0.166024  0.499890  1
  Si  Si19  1  0.164459  0.328919  0.500401  1
  Si  Si20  1  0.833976  0.667952  0.499890  1
  Pt  Pt21  1  0.333333  0.666667  0.000008  1
  Pt  Pt22  1  0.333333  0.666667  0.499151  1
  Pt  Pt23  1  0.666667  0.333333  0.500801  1
