# generated using pymatgen
data_CrCd3P6N13
_symmetry_space_group_name_H-M   'P 1'
_cell_length_a   7.16055606
_cell_length_b   7.20847711
_cell_length_c   7.20847790
_cell_angle_alpha   109.60550044
_cell_angle_beta   109.33660645
_cell_angle_gamma   109.33661411
_symmetry_Int_Tables_number   1
_chemical_formula_structural   CrCd3P6N13
_chemical_formula_sum   'Cr1 Cd3 P6 N13'
_cell_volume   286.90010657
_cell_formula_units_Z   1
loop_
 _symmetry_equiv_pos_site_id
 _symmetry_equiv_pos_as_xyz
  1  'x, y, z'
loop_
 _atom_site_type_symbol
 _atom_site_label
 _atom_site_symmetry_multiplicity
 _atom_site_fract_x
 _atom_site_fract_y
 _atom_site_fract_z
 _atom_site_occupancy
  Cr  Cr0  1  0.677464  0.000000  0.000000  1
  Cd  Cd1  1  0.000562  0.000000  0.717837  1
  Cd  Cd2  1  0.000562  0.717837  0.000000  1
  Cd  Cd3  1  0.282726  0.282163  0.282163  1
  P  P4  1  0.255855  0.749250  0.502152  1
  P  P5  1  0.753703  0.247098  0.497848  1
  P  P6  1  0.753703  0.497848  0.247098  1
  P  P7  1  0.255855  0.502152  0.749250  1
  P  P8  1  0.506605  0.752902  0.250750  1
  P  P9  1  0.506605  0.250750  0.752902  1
  N  N10  1  0.940013  0.000000  0.000000  1
  N  N11  1  0.712992  0.264236  0.264236  1
  N  N12  1  0.283070  0.724320  0.279933  1
  N  N13  1  0.297677  0.563549  0.563549  1
  N  N14  1  0.558750  0.555613  0.275680  1
  N  N15  1  0.448756  0.735764  0.000000  1
  N  N16  1  0.003136  0.720067  0.444387  1
  N  N17  1  0.558750  0.275680  0.555613  1
  N  N18  1  0.734128  0.000000  0.436451  1
  N  N19  1  0.448756  0.000000  0.735764  1
  N  N20  1  0.734128  0.436451  0.000000  1
  N  N21  1  0.283070  0.279933  0.724320  1
  N  N22  1  0.003136  0.444387  0.720067  1
