# generated using pymatgen
data_Tb3Er13In4Ru3Rh
_symmetry_space_group_name_H-M   'P 1'
_cell_length_a   9.59504133
_cell_length_b   9.58606079
_cell_length_c   9.59562990
_cell_angle_alpha   59.82861771
_cell_angle_beta   59.88287762
_cell_angle_gamma   59.93583548
_symmetry_Int_Tables_number   1
_chemical_formula_structural   Tb3Er13In4Ru3Rh
_chemical_formula_sum   'Tb3 Er13 In4 Ru3 Rh1'
_cell_volume   622.42185211
_cell_formula_units_Z   1
loop_
 _symmetry_equiv_pos_site_id
 _symmetry_equiv_pos_as_xyz
  1  'x, y, z'
loop_
 _atom_site_type_symbol
 _atom_site_label
 _atom_site_symmetry_multiplicity
 _atom_site_fract_x
 _atom_site_fract_y
 _atom_site_fract_z
 _atom_site_occupancy
  Tb  Tb0  1  0.191145  0.191603  0.811243  1
  Tb  Tb1  1  0.439317  0.060222  0.059876  1
  Tb  Tb2  1  0.440851  0.059771  0.440203  1
  Er  Er3  1  0.059267  0.439930  0.060666  1
  Er  Er4  1  0.651942  0.044969  0.650407  1
  Er  Er5  1  0.192842  0.808095  0.809453  1
  Er  Er6  1  0.058756  0.060435  0.439473  1
  Er  Er7  1  0.810560  0.191817  0.192145  1
  Er  Er8  1  0.809941  0.808735  0.192998  1
  Er  Er9  1  0.651055  0.650261  0.045366  1
  Er  Er10  1  0.651501  0.650528  0.650808  1
  Er  Er11  1  0.058588  0.441735  0.440355  1
  Er  Er12  1  0.044735  0.651087  0.650474  1
  Er  Er13  1  0.808661  0.193546  0.808828  1
  Er  Er14  1  0.441127  0.441983  0.058592  1
  Er  Er15  1  0.191365  0.809889  0.192300  1
  In  In16  1  0.417278  0.746687  0.417993  1
  In  In17  1  0.417314  0.418046  0.747479  1
  In  In18  1  0.748701  0.417111  0.416993  1
  In  In19  1  0.417447  0.418070  0.417289  1
  Ru  Ru20  1  0.857426  0.421304  0.858421  1
  Ru  Ru21  1  0.858840  0.858190  0.420934  1
  Ru  Ru22  1  0.421186  0.856966  0.858822  1
  Rh  Rh23  1  0.860155  0.859021  0.858881  1
