# generated using pymatgen
data_DyHfCrB6
_symmetry_space_group_name_H-M   'P 1'
_cell_length_a   3.45870000
_cell_length_b   9.00472500
_cell_length_c   11.38303300
_cell_angle_alpha   90.00000000
_cell_angle_beta   90.00000000
_cell_angle_gamma   90.00000000
_symmetry_Int_Tables_number   1
_chemical_formula_structural   DyHfCrB6
_chemical_formula_sum   'Dy4 Hf4 Cr4 B24'
_cell_volume   354.52049173
_cell_formula_units_Z   4
loop_
 _symmetry_equiv_pos_site_id
 _symmetry_equiv_pos_as_xyz
  1  'x, y, z'
loop_
 _atom_site_type_symbol
 _atom_site_label
 _atom_site_symmetry_multiplicity
 _atom_site_fract_x
 _atom_site_fract_y
 _atom_site_fract_z
 _atom_site_occupancy
  Dy  Dy0  1  0.000000  0.822154  0.085331  1
  Dy  Dy1  1  0.000000  0.177846  0.914669  1
  Dy  Dy2  1  0.000000  0.322154  0.414669  1
  Dy  Dy3  1  0.000000  0.677846  0.585331  1
  Hf  Hf4  1  0.000000  0.444080  0.129339  1
  Hf  Hf5  1  0.000000  0.555920  0.870661  1
  Hf  Hf6  1  0.000000  0.944080  0.370661  1
  Hf  Hf7  1  0.000000  0.055920  0.629339  1
  Cr  Cr8  1  0.000000  0.142096  0.182618  1
  Cr  Cr9  1  0.000000  0.857904  0.817382  1
  Cr  Cr10  1  0.000000  0.642096  0.317382  1
  Cr  Cr11  1  0.000000  0.357904  0.682618  1
  B  B12  1  0.500000  0.054606  0.067591  1
  B  B13  1  0.500000  0.945394  0.932409  1
  B  B14  1  0.500000  0.554606  0.432409  1
  B  B15  1  0.500000  0.445394  0.567591  1
  B  B16  1  0.500000  0.252382  0.082531  1
  B  B17  1  0.500000  0.747618  0.917469  1
  B  B18  1  0.500000  0.752382  0.417469  1
  B  B19  1  0.500000  0.247618  0.582531  1
  B  B20  1  0.500000  0.294761  0.235800  1
  B  B21  1  0.500000  0.705239  0.764200  1
  B  B22  1  0.500000  0.794761  0.264200  1
  B  B23  1  0.500000  0.205239  0.735800  1
  B  B24  1  0.500000  0.129932  0.316468  1
  B  B25  1  0.500000  0.870068  0.683532  1
  B  B26  1  0.500000  0.629932  0.183532  1
  B  B27  1  0.500000  0.370068  0.816468  1
  B  B28  1  0.500000  0.482413  0.287108  1
  B  B29  1  0.500000  0.517587  0.712892  1
  B  B30  1  0.500000  0.982413  0.212892  1
  B  B31  1  0.500000  0.017587  0.787108  1
  B  B32  1  0.500000  0.098608  0.473531  1
  B  B33  1  0.500000  0.901392  0.526469  1
  B  B34  1  0.500000  0.598608  0.026469  1
  B  B35  1  0.500000  0.401392  0.973531  1
