# generated using pymatgen
data_Y3In3GaAg2
_symmetry_space_group_name_H-M   'P 1'
_cell_length_a   7.47808400
_cell_length_b   7.47808238
_cell_length_c   4.36634300
_cell_angle_alpha   90.00000000
_cell_angle_beta   90.00000000
_cell_angle_gamma   119.99998947
_symmetry_Int_Tables_number   1
_chemical_formula_structural   Y3In3GaAg2
_chemical_formula_sum   'Y3 In3 Ga1 Ag2'
_cell_volume   211.46043001
_cell_formula_units_Z   1
loop_
 _symmetry_equiv_pos_site_id
 _symmetry_equiv_pos_as_xyz
  1  'x, y, z'
loop_
 _atom_site_type_symbol
 _atom_site_label
 _atom_site_symmetry_multiplicity
 _atom_site_fract_x
 _atom_site_fract_y
 _atom_site_fract_z
 _atom_site_occupancy
  Y  Y0  1  0.412767  0.993936  0.500000  1
  Y  Y1  1  0.006064  0.418832  0.500000  1
  Y  Y2  1  0.581168  0.587233  0.500000  1
  In  In3  1  0.749650  0.004754  0.000000  1
  In  In4  1  0.995246  0.744896  0.000000  1
  In  In5  1  0.255104  0.250350  0.000000  1
  Ga  Ga6  1  0.333333  0.666667  0.000000  1
  Ag  Ag7  1  0.666667  0.333333  0.000000  1
  Ag  Ag8  1  0.000000  0.000000  0.500000  1
