# generated using pymatgen
data_Sm4Y(SiHg)2
_symmetry_space_group_name_H-M   'P 1'
_cell_length_a   8.99584366
_cell_length_b   8.99584541
_cell_length_c   7.67705300
_cell_angle_alpha   90.00000000
_cell_angle_beta   90.00000000
_cell_angle_gamma   129.64196969
_symmetry_Int_Tables_number   1
_chemical_formula_structural   Sm4Y(SiHg)2
_chemical_formula_sum   'Sm8 Y2 Si4 Hg4'
_cell_volume   478.40439063
_cell_formula_units_Z   2
loop_
 _symmetry_equiv_pos_site_id
 _symmetry_equiv_pos_as_xyz
  1  'x, y, z'
loop_
 _atom_site_type_symbol
 _atom_site_label
 _atom_site_symmetry_multiplicity
 _atom_site_fract_x
 _atom_site_fract_y
 _atom_site_fract_z
 _atom_site_occupancy
  Sm  Sm0  1  0.055599  0.310846  0.323814  1
  Sm  Sm1  1  0.944401  0.689154  0.676186  1
  Sm  Sm2  1  0.444401  0.189154  0.823814  1
  Sm  Sm3  1  0.810846  0.555599  0.176186  1
  Sm  Sm4  1  0.555599  0.810846  0.176186  1
  Sm  Sm5  1  0.189154  0.444401  0.823814  1
  Sm  Sm6  1  0.689154  0.944401  0.676186  1
  Sm  Sm7  1  0.310846  0.055599  0.323814  1
  Y  Y8  1  0.000000  0.000000  0.000000  1
  Y  Y9  1  0.500000  0.500000  0.500000  1
  Si  Si10  1  0.382401  0.382401  0.120681  1
  Si  Si11  1  0.617599  0.617599  0.879319  1
  Si  Si12  1  0.117599  0.117599  0.620681  1
  Si  Si13  1  0.882401  0.882401  0.379319  1
  Hg  Hg14  1  0.781880  0.218120  0.000000  1
  Hg  Hg15  1  0.218120  0.781880  0.000000  1
  Hg  Hg16  1  0.718120  0.281880  0.500000  1
  Hg  Hg17  1  0.281880  0.718120  0.500000  1
