# generated using pymatgen
data_Pr20Ga4Si7P
_symmetry_space_group_name_H-M   'P 1'
_cell_length_a   7.87301550
_cell_length_b   7.87301636
_cell_length_c   14.44937100
_cell_angle_alpha   89.96468235
_cell_angle_beta   90.03531765
_cell_angle_gamma   89.71434286
_symmetry_Int_Tables_number   1
_chemical_formula_structural   Pr20Ga4Si7P
_chemical_formula_sum   'Pr20 Ga4 Si7 P1'
_cell_volume   895.62382658
_cell_formula_units_Z   1
loop_
 _symmetry_equiv_pos_site_id
 _symmetry_equiv_pos_as_xyz
  1  'x, y, z'
loop_
 _atom_site_type_symbol
 _atom_site_label
 _atom_site_symmetry_multiplicity
 _atom_site_fract_x
 _atom_site_fract_y
 _atom_site_fract_z
 _atom_site_occupancy
  Pr  Pr0  1  0.813904  0.831264  0.607185  1
  Pr  Pr1  1  0.181209  0.832585  0.110801  1
  Pr  Pr2  1  0.169806  0.818977  0.389641  1
  Pr  Pr3  1  0.999027  0.500299  0.728973  1
  Pr  Pr4  1  0.832585  0.181209  0.389199  1
  Pr  Pr5  1  0.684811  0.668867  0.392936  1
  Pr  Pr6  1  0.671066  0.315457  0.607073  1
  Pr  Pr7  1  0.328804  0.685669  0.607416  1
  Pr  Pr8  1  0.000966  0.500846  0.230884  1
  Pr  Pr9  1  0.668867  0.684811  0.107064  1
  Pr  Pr10  1  0.685669  0.328804  0.892584  1
  Pr  Pr11  1  0.831264  0.813904  0.892815  1
  Pr  Pr12  1  0.312799  0.327763  0.390792  1
  Pr  Pr13  1  0.185757  0.170199  0.607503  1
  Pr  Pr14  1  0.818977  0.169806  0.110359  1
  Pr  Pr15  1  0.315457  0.671066  0.892927  1
  Pr  Pr16  1  0.327763  0.312799  0.109208  1
  Pr  Pr17  1  0.500846  0.000966  0.269116  1
  Pr  Pr18  1  0.170199  0.185757  0.892497  1
  Pr  Pr19  1  0.500299  0.999027  0.771027  1
  Ga  Ga20  1  0.001642  0.500058  0.503644  1
  Ga  Ga21  1  0.500251  0.001119  0.493495  1
  Ga  Ga22  1  0.500058  0.001642  0.996356  1
  Ga  Ga23  1  0.001119  0.500251  0.006505  1
  Si  Si24  1  0.613150  0.386223  0.249805  1
  Si  Si25  1  0.113047  0.886702  0.750002  1
  Si  Si26  1  0.386835  0.386835  0.750000  1
  Si  Si27  1  0.386223  0.613150  0.250195  1
  Si  Si28  1  0.878498  0.878498  0.250000  1
  Si  Si29  1  0.613174  0.613174  0.750000  1
  Si  Si30  1  0.886702  0.113047  0.749998  1
  P  P31  1  0.119221  0.119221  0.250000  1
