# generated using pymatgen
data_Ti12Zn5Ga3O4
_symmetry_space_group_name_H-M   'P 1'
_cell_length_a   6.85647387
_cell_length_b   6.85647396
_cell_length_c   6.85647378
_cell_angle_alpha   89.94309664
_cell_angle_beta   89.94308610
_cell_angle_gamma   89.94309295
_symmetry_Int_Tables_number   1
_chemical_formula_structural   Ti12Zn5Ga3O4
_chemical_formula_sum   'Ti12 Zn5 Ga3 O4'
_cell_volume   322.33081980
_cell_formula_units_Z   1
loop_
 _symmetry_equiv_pos_site_id
 _symmetry_equiv_pos_as_xyz
  1  'x, y, z'
loop_
 _atom_site_type_symbol
 _atom_site_label
 _atom_site_symmetry_multiplicity
 _atom_site_fract_x
 _atom_site_fract_y
 _atom_site_fract_z
 _atom_site_occupancy
  Ti  Ti0  1  0.790849  0.960834  0.374368  1
  Ti  Ti1  1  0.709819  0.040013  0.875989  1
  Ti  Ti2  1  0.209291  0.460452  0.124937  1
  Ti  Ti3  1  0.289859  0.539073  0.624758  1
  Ti  Ti4  1  0.960834  0.374368  0.790849  1
  Ti  Ti5  1  0.040013  0.875989  0.709819  1
  Ti  Ti6  1  0.460452  0.124937  0.209291  1
  Ti  Ti7  1  0.539073  0.624758  0.289859  1
  Ti  Ti8  1  0.374368  0.790849  0.960834  1
  Ti  Ti9  1  0.875989  0.709819  0.040013  1
  Ti  Ti10  1  0.124937  0.209291  0.460452  1
  Ti  Ti11  1  0.624758  0.289859  0.539073  1
  Zn  Zn12  1  0.678355  0.678355  0.678355  1
  Zn  Zn13  1  0.571587  0.432131  0.926221  1
  Zn  Zn14  1  0.432131  0.926221  0.571587  1
  Zn  Zn15  1  0.926221  0.571587  0.432131  1
  Zn  Zn16  1  0.070566  0.070566  0.070566  1
  Ga  Ga17  1  0.177579  0.822004  0.323219  1
  Ga  Ga18  1  0.323219  0.177579  0.822004  1
  Ga  Ga19  1  0.822004  0.323219  0.177579  1
  O  O20  1  0.873275  0.124783  0.625599  1
  O  O21  1  0.625599  0.873275  0.124783  1
  O  O22  1  0.124783  0.625599  0.873275  1
  O  O23  1  0.374441  0.374441  0.374441  1
