# generated using pymatgen
data_Ho5In4AgPd
_symmetry_space_group_name_H-M   'P 1'
_cell_length_a   3.67194700
_cell_length_b   8.14436761
_cell_length_c   18.28439200
_cell_angle_alpha   89.97773416
_cell_angle_beta   90.00000000
_cell_angle_gamma   90.00000000
_symmetry_Int_Tables_number   1
_chemical_formula_structural   Ho5In4AgPd
_chemical_formula_sum   'Ho10 In8 Ag2 Pd2'
_cell_volume   546.80724878
_cell_formula_units_Z   2
loop_
 _symmetry_equiv_pos_site_id
 _symmetry_equiv_pos_as_xyz
  1  'x, y, z'
loop_
 _atom_site_type_symbol
 _atom_site_label
 _atom_site_symmetry_multiplicity
 _atom_site_fract_x
 _atom_site_fract_y
 _atom_site_fract_z
 _atom_site_occupancy
  Ho  Ho0  1  0.000000  0.121591  0.420868  1
  Ho  Ho1  1  0.000000  0.878409  0.579132  1
  Ho  Ho2  1  0.000000  0.382772  0.916748  1
  Ho  Ho3  1  0.000000  0.617228  0.083252  1
  Ho  Ho4  1  0.000000  0.254995  0.215679  1
  Ho  Ho5  1  0.000000  0.745005  0.784321  1
  Ho  Ho6  1  0.000000  0.272809  0.720171  1
  Ho  Ho7  1  0.000000  0.727191  0.279829  1
  Ho  Ho8  1  0.000000  0.000000  0.000000  1
  Ho  Ho9  1  0.000000  0.500000  0.500000  1
  In  In10  1  0.500000  0.419575  0.352086  1
  In  In11  1  0.500000  0.580425  0.647914  1
  In  In12  1  0.500000  0.077507  0.851860  1
  In  In13  1  0.500000  0.922493  0.148140  1
  In  In14  1  0.500000  0.292675  0.065525  1
  In  In15  1  0.500000  0.707325  0.934475  1
  In  In16  1  0.500000  0.208626  0.568469  1
  In  In17  1  0.500000  0.791374  0.431531  1
  Ag  Ag18  1  0.500000  0.026629  0.301563  1
  Ag  Ag19  1  0.500000  0.973371  0.698437  1
  Pd  Pd20  1  0.500000  0.472970  0.804176  1
  Pd  Pd21  1  0.500000  0.527030  0.195824  1
