# generated using pymatgen
data_K6TaNb3(Cu3Te8)2
_symmetry_space_group_name_H-M   'P 1'
_cell_length_a   6.03980115
_cell_length_b   13.46889979
_cell_length_c   14.88773023
_cell_angle_alpha   70.08075450
_cell_angle_beta   78.33133603
_cell_angle_gamma   77.09053263
_symmetry_Int_Tables_number   1
_chemical_formula_structural   K6TaNb3(Cu3Te8)2
_chemical_formula_sum   'K6 Ta1 Nb3 Cu6 Te16'
_cell_volume   1099.30895325
_cell_formula_units_Z   1
loop_
 _symmetry_equiv_pos_site_id
 _symmetry_equiv_pos_as_xyz
  1  'x, y, z'
loop_
 _atom_site_type_symbol
 _atom_site_label
 _atom_site_symmetry_multiplicity
 _atom_site_fract_x
 _atom_site_fract_y
 _atom_site_fract_z
 _atom_site_occupancy
  K  K0  1  0.733694  0.707092  0.905136  1
  K  K1  1  0.344653  0.792350  0.595079  1
  K  K2  1  0.264643  0.293285  0.094712  1
  K  K3  1  0.655174  0.207717  0.405440  1
  K  K4  1  0.000049  0.499962  0.499986  1
  K  K5  1  0.999768  0.999981  0.999834  1
  Ta  Ta6  1  0.600113  0.967739  0.276271  1
  Nb  Nb7  1  0.155798  0.468510  0.776201  1
  Nb  Nb8  1  0.399966  0.031618  0.723786  1
  Nb  Nb9  1  0.844835  0.531503  0.223569  1
  Cu  Cu10  1  0.271072  0.250298  0.749818  1
  Cu  Cu11  1  0.729323  0.749997  0.249891  1
  Cu  Cu12  1  0.899050  0.032981  0.724703  1
  Cu  Cu13  1  0.657280  0.466817  0.775222  1
  Cu  Cu14  1  0.100942  0.966721  0.275911  1
  Cu  Cu15  1  0.343031  0.533209  0.224585  1
  Te  Te16  1  0.934978  0.306651  0.875272  1
  Te  Te17  1  0.116521  0.193569  0.624713  1
  Te  Te18  1  0.065362  0.693449  0.124590  1
  Te  Te19  1  0.882254  0.806281  0.375889  1
  Te  Te20  1  0.495341  0.408545  0.651668  1
  Te  Te21  1  0.555313  0.092438  0.847764  1
  Te  Te22  1  0.505392  0.591467  0.348058  1
  Te  Te23  1  0.444750  0.908249  0.151725  1
  Te  Te24  1  0.868627  0.632416  0.681620  1
  Te  Te25  1  0.182038  0.867758  0.818496  1
  Te  Te26  1  0.132034  0.367652  0.318284  1
  Te  Te27  1  0.815685  0.131765  0.181873  1
  Te  Te28  1  0.742629  0.968250  0.605588  1
  Te  Te29  1  0.318234  0.531626  0.894467  1
  Te  Te30  1  0.259249  0.031557  0.394624  1
  Te  Te31  1  0.682204  0.468548  0.105228  1
