# generated using pymatgen
data_CaNd16(ErGa4)3
_symmetry_space_group_name_H-M   'P 1'
_cell_length_a   7.81901300
_cell_length_b   7.81901300
_cell_length_c   14.67814000
_cell_angle_alpha   90.00000000
_cell_angle_beta   90.00000000
_cell_angle_gamma   90.00000000
_symmetry_Int_Tables_number   1
_chemical_formula_structural   CaNd16(ErGa4)3
_chemical_formula_sum   'Ca1 Nd16 Er3 Ga12'
_cell_volume   897.37692108
_cell_formula_units_Z   1
loop_
 _symmetry_equiv_pos_site_id
 _symmetry_equiv_pos_as_xyz
  1  'x, y, z'
loop_
 _atom_site_type_symbol
 _atom_site_label
 _atom_site_symmetry_multiplicity
 _atom_site_fract_x
 _atom_site_fract_y
 _atom_site_fract_z
 _atom_site_occupancy
  Ca  Ca0  1  0.000000  0.500000  0.768019  1
  Nd  Nd1  1  0.681373  0.660987  0.602220  1
  Nd  Nd2  1  0.683630  0.339747  0.104183  1
  Nd  Nd3  1  0.817148  0.839805  0.396276  1
  Nd  Nd4  1  0.183578  0.838340  0.897436  1
  Nd  Nd5  1  0.318627  0.339013  0.602220  1
  Nd  Nd6  1  0.316370  0.660253  0.104183  1
  Nd  Nd7  1  0.182852  0.160195  0.396276  1
  Nd  Nd8  1  0.816422  0.161660  0.897436  1
  Nd  Nd9  1  0.660195  0.317148  0.396276  1
  Nd  Nd10  1  0.338340  0.316422  0.897436  1
  Nd  Nd11  1  0.160987  0.818627  0.602220  1
  Nd  Nd12  1  0.839747  0.816370  0.104183  1
  Nd  Nd13  1  0.339805  0.682852  0.396276  1
  Nd  Nd14  1  0.661660  0.683578  0.897436  1
  Nd  Nd15  1  0.839013  0.181373  0.602220  1
  Nd  Nd16  1  0.160253  0.183630  0.104183  1
  Er  Er17  1  0.000000  0.500000  0.275185  1
  Er  Er18  1  0.500000  0.000000  0.223591  1
  Er  Er19  1  0.500000  0.000000  0.724694  1
  Ga  Ga20  1  0.000000  0.500000  0.488539  1
  Ga  Ga21  1  0.000000  0.500000  0.993010  1
  Ga  Ga22  1  0.500000  0.000000  0.511028  1
  Ga  Ga23  1  0.500000  0.000000  0.012261  1
  Ga  Ga24  1  0.876044  0.884135  0.750489  1
  Ga  Ga25  1  0.878829  0.122093  0.250314  1
  Ga  Ga26  1  0.622093  0.621171  0.250314  1
  Ga  Ga27  1  0.384135  0.623956  0.750489  1
  Ga  Ga28  1  0.123956  0.115865  0.750489  1
  Ga  Ga29  1  0.121171  0.877907  0.250314  1
  Ga  Ga30  1  0.377907  0.378829  0.250314  1
  Ga  Ga31  1  0.615865  0.376044  0.750489  1
