# generated using pymatgen
data_Tb8Y3In9Au4
_symmetry_space_group_name_H-M   'P 1'
_cell_length_a   13.25175000
_cell_length_b   13.26479201
_cell_length_c   3.74076100
_cell_angle_alpha   90.00000000
_cell_angle_beta   90.00000000
_cell_angle_gamma   110.43387233
_symmetry_Int_Tables_number   1
_chemical_formula_structural   Tb8Y3In9Au4
_chemical_formula_sum   'Tb8 Y3 In9 Au4'
_cell_volume   616.18105644
_cell_formula_units_Z   1
loop_
 _symmetry_equiv_pos_site_id
 _symmetry_equiv_pos_as_xyz
  1  'x, y, z'
loop_
 _atom_site_type_symbol
 _atom_site_label
 _atom_site_symmetry_multiplicity
 _atom_site_fract_x
 _atom_site_fract_y
 _atom_site_fract_z
 _atom_site_occupancy
  Tb  Tb0  1  0.931936  0.584549  0.000000  1
  Tb  Tb1  1  0.160074  0.839750  0.000000  1
  Tb  Tb2  1  0.839924  0.159949  0.000000  1
  Tb  Tb3  1  0.367342  0.632768  0.000000  1
  Tb  Tb4  1  0.632582  0.366904  0.000000  1
  Tb  Tb5  1  0.301898  0.301947  0.000000  1
  Tb  Tb6  1  0.697822  0.698317  0.000000  1
  Tb  Tb7  1  0.000001  0.999973  0.000000  1
  Y  Y8  1  0.415760  0.068177  0.000000  1
  Y  Y9  1  0.584654  0.932014  0.000000  1
  Y  Y10  1  0.067992  0.415503  0.000000  1
  In  In11  1  0.367197  0.846338  0.500000  1
  In  In12  1  0.633064  0.153797  0.500000  1
  In  In13  1  0.846222  0.366912  0.500000  1
  In  In14  1  0.154328  0.632981  0.500000  1
  In  In15  1  0.214111  0.067237  0.500000  1
  In  In16  1  0.786165  0.932882  0.500000  1
  In  In17  1  0.067235  0.213825  0.500000  1
  In  In18  1  0.932359  0.786326  0.500000  1
  In  In19  1  0.499987  0.500114  0.500000  1
  Au  Au20  1  0.451675  0.249919  0.500000  1
  Au  Au21  1  0.548103  0.750012  0.500000  1
  Au  Au22  1  0.250373  0.451847  0.500000  1
  Au  Au23  1  0.749196  0.547960  0.500000  1
