# generated using pymatgen
data_Ce8Ho6Er5ScSi16
_symmetry_space_group_name_H-M   'P 1'
_cell_length_a   7.40707118
_cell_length_b   7.74241762
_cell_length_c   14.67830098
_cell_angle_alpha   90.01441432
_cell_angle_beta   89.96075228
_cell_angle_gamma   89.95258176
_symmetry_Int_Tables_number   1
_chemical_formula_structural   Ce8Ho6Er5ScSi16
_chemical_formula_sum   'Ce8 Ho6 Er5 Sc1 Si16'
_cell_volume   841.78006242
_cell_formula_units_Z   1
loop_
 _symmetry_equiv_pos_site_id
 _symmetry_equiv_pos_as_xyz
  1  'x, y, z'
loop_
 _atom_site_type_symbol
 _atom_site_label
 _atom_site_symmetry_multiplicity
 _atom_site_fract_x
 _atom_site_fract_y
 _atom_site_fract_z
 _atom_site_occupancy
  Ce  Ce0  1  0.981571  0.177158  0.096615  1
  Ce  Ce1  1  0.481502  0.323264  0.403548  1
  Ce  Ce2  1  0.517205  0.677810  0.901609  1
  Ce  Ce3  1  0.018959  0.823957  0.598605  1
  Ce  Ce4  1  0.018905  0.824103  0.901390  1
  Ce  Ce5  1  0.517231  0.678002  0.598567  1
  Ce  Ce6  1  0.481416  0.323422  0.096454  1
  Ce  Ce7  1  0.981382  0.176826  0.403280  1
  Ho  Ho8  1  0.658106  0.015612  0.249913  1
  Ho  Ho9  1  0.158127  0.484357  0.249728  1
  Ho  Ho10  1  0.824635  0.679615  0.122029  1
  Ho  Ho11  1  0.324790  0.820108  0.378218  1
  Ho  Ho12  1  0.674533  0.178349  0.875886  1
  Ho  Ho13  1  0.176835  0.319712  0.623908  1
  Er  Er14  1  0.842444  0.515737  0.749923  1
  Er  Er15  1  0.176984  0.319841  0.875933  1
  Er  Er16  1  0.674727  0.178033  0.624536  1
  Er  Er17  1  0.324677  0.820207  0.121911  1
  Er  Er18  1  0.824605  0.679578  0.377784  1
  Sc  Sc19  1  0.341743  0.983733  0.750080  1
  Si  Si20  1  0.775963  0.379177  0.250089  1
  Si  Si21  1  0.276182  0.120442  0.249710  1
  Si  Si22  1  0.716037  0.876908  0.749889  1
  Si  Si23  1  0.223438  0.628814  0.750158  1
  Si  Si24  1  0.032713  0.890791  0.249896  1
  Si  Si25  1  0.532301  0.608771  0.250020  1
  Si  Si26  1  0.469477  0.393824  0.750071  1
  Si  Si27  1  0.973772  0.104258  0.749984  1
  Si  Si28  1  0.849927  0.469946  0.960481  1
  Si  Si29  1  0.350525  0.029027  0.540770  1
  Si  Si30  1  0.649791  0.970226  0.037727  1
  Si  Si31  1  0.149462  0.529763  0.462307  1
  Si  Si32  1  0.151310  0.529665  0.037291  1
  Si  Si33  1  0.651430  0.969897  0.462821  1
  Si  Si34  1  0.348898  0.029294  0.959787  1
  Si  Si35  1  0.848404  0.469775  0.539081  1
