# generated using pymatgen
data_Ho5Lu11TlIn5Co2
_symmetry_space_group_name_H-M   'P 1'
_cell_length_a   10.16886019
_cell_length_b   10.17506989
_cell_length_c   6.93962803
_cell_angle_alpha   89.99168743
_cell_angle_beta   90.00480652
_cell_angle_gamma   119.95740373
_symmetry_Int_Tables_number   1
_chemical_formula_structural   Ho5Lu11TlIn5Co2
_chemical_formula_sum   'Ho5 Lu11 Tl1 In5 Co2'
_cell_volume   622.10364813
_cell_formula_units_Z   1
loop_
 _symmetry_equiv_pos_site_id
 _symmetry_equiv_pos_as_xyz
  1  'x, y, z'
loop_
 _atom_site_type_symbol
 _atom_site_label
 _atom_site_symmetry_multiplicity
 _atom_site_fract_x
 _atom_site_fract_y
 _atom_site_fract_z
 _atom_site_occupancy
  Ho  Ho0  1  0.534066  0.068117  0.520964  1
  Ho  Ho1  1  0.931657  0.465894  0.520637  1
  Ho  Ho2  1  0.533928  0.466130  0.521089  1
  Ho  Ho3  1  0.465813  0.931424  0.021030  1
  Ho  Ho4  1  0.069401  0.533898  0.021973  1
  Lu  Lu5  1  0.464062  0.534512  0.022744  1
  Lu  Lu6  1  0.179303  0.357558  0.728626  1
  Lu  Lu7  1  0.642629  0.820573  0.728550  1
  Lu  Lu8  1  0.178329  0.821275  0.727652  1
  Lu  Lu9  1  0.820458  0.642353  0.225435  1
  Lu  Lu10  1  0.357522  0.179269  0.226992  1
  Lu  Lu11  1  0.821382  0.178299  0.227592  1
  Lu  Lu12  1  0.666173  0.333471  0.914358  1
  Lu  Lu13  1  0.333729  0.666395  0.414131  1
  Lu  Lu14  1  0.000614  0.000973  0.507846  1
  Lu  Lu15  1  0.000499  0.001036  0.009337  1
  Tl  Tl16  1  0.837244  0.674398  0.771428  1
  In  In17  1  0.325252  0.162466  0.771073  1
  In  In18  1  0.837285  0.162629  0.770762  1
  In  In19  1  0.163221  0.325779  0.271038  1
  In  In20  1  0.674106  0.836715  0.270968  1
  In  In21  1  0.162528  0.837379  0.271319  1
  Co  Co22  1  0.666837  0.333591  0.294740  1
  Co  Co23  1  0.333961  0.665868  0.795394  1
