# generated using pymatgen
data_Sr8Yb11ErPt16
_symmetry_space_group_name_H-M   'P 1'
_cell_length_a   7.66192786
_cell_length_b   7.81641767
_cell_length_c   14.84072859
_cell_angle_alpha   90.01138580
_cell_angle_beta   90.06649564
_cell_angle_gamma   89.92620212
_symmetry_Int_Tables_number   1
_chemical_formula_structural   Sr8Yb11ErPt16
_chemical_formula_sum   'Sr8 Yb11 Er1 Pt16'
_cell_volume   888.79249326
_cell_formula_units_Z   1
loop_
 _symmetry_equiv_pos_site_id
 _symmetry_equiv_pos_as_xyz
  1  'x, y, z'
loop_
 _atom_site_type_symbol
 _atom_site_label
 _atom_site_symmetry_multiplicity
 _atom_site_fract_x
 _atom_site_fract_y
 _atom_site_fract_z
 _atom_site_occupancy
  Sr  Sr0  1  0.501651  0.325123  0.903565  1
  Sr  Sr1  1  0.001001  0.176951  0.595552  1
  Sr  Sr2  1  0.498731  0.675949  0.403435  1
  Sr  Sr3  1  0.998555  0.823638  0.096963  1
  Sr  Sr4  1  0.498847  0.675310  0.097796  1
  Sr  Sr5  1  0.998605  0.823672  0.403264  1
  Sr  Sr6  1  0.502100  0.323329  0.595841  1
  Sr  Sr7  1  0.000786  0.177586  0.903496  1
  Yb  Yb8  1  0.838979  0.666128  0.622669  1
  Yb  Yb9  1  0.660965  0.166739  0.376844  1
  Yb  Yb10  1  0.160519  0.333399  0.123169  1
  Yb  Yb11  1  0.660843  0.166947  0.123053  1
  Yb  Yb12  1  0.160724  0.333364  0.377077  1
  Yb  Yb13  1  0.339080  0.832789  0.622952  1
  Yb  Yb14  1  0.839364  0.666724  0.877363  1
  Yb  Yb15  1  0.176332  0.497037  0.748979  1
  Yb  Yb16  1  0.679287  0.002720  0.749085  1
  Yb  Yb17  1  0.822734  0.501339  0.250483  1
  Yb  Yb18  1  0.322408  0.998074  0.250679  1
  Er  Er19  1  0.339326  0.832928  0.876028  1
  Pt  Pt20  1  0.331387  0.036634  0.039284  1
  Pt  Pt21  1  0.834844  0.460553  0.457399  1
  Pt  Pt22  1  0.665156  0.960563  0.542824  1
  Pt  Pt23  1  0.168715  0.548097  0.956026  1
  Pt  Pt24  1  0.659397  0.958496  0.955198  1
  Pt  Pt25  1  0.164933  0.538228  0.543113  1
  Pt  Pt26  1  0.335658  0.038903  0.457243  1
  Pt  Pt27  1  0.837875  0.460644  0.042348  1
  Pt  Pt28  1  0.541792  0.631880  0.754224  1
  Pt  Pt29  1  0.048289  0.868682  0.752327  1
  Pt  Pt30  1  0.454634  0.370260  0.249853  1
  Pt  Pt31  1  0.954949  0.129054  0.249920  1
  Pt  Pt32  1  0.305861  0.121073  0.752622  1
  Pt  Pt33  1  0.800376  0.376956  0.749366  1
  Pt  Pt34  1  0.697476  0.875630  0.250020  1
  Pt  Pt35  1  0.197822  0.624602  0.249941  1
