# generated using pymatgen
data_Ca4SnN4
_symmetry_space_group_name_H-M   'P 1'
_cell_length_a   6.14365736
_cell_length_b   6.12502289
_cell_length_c   9.24502758
_cell_angle_alpha   85.18439121
_cell_angle_beta   108.64190499
_cell_angle_gamma   111.34669527
_symmetry_Int_Tables_number   1
_chemical_formula_structural   Ca4SnN4
_chemical_formula_sum   'Ca8 Sn2 N8'
_cell_volume   306.81667034
_cell_formula_units_Z   2
loop_
 _symmetry_equiv_pos_site_id
 _symmetry_equiv_pos_as_xyz
  1  'x, y, z'
loop_
 _atom_site_type_symbol
 _atom_site_label
 _atom_site_symmetry_multiplicity
 _atom_site_fract_x
 _atom_site_fract_y
 _atom_site_fract_z
 _atom_site_occupancy
  Ca  Ca0  1  0.815209  0.270492  0.195337  1
  Ca  Ca1  1  0.184791  0.729508  0.804663  1
  Ca  Ca2  1  0.241215  0.247480  0.994694  1
  Ca  Ca3  1  0.758785  0.752520  0.005306  1
  Ca  Ca4  1  0.054151  0.261763  0.574935  1
  Ca  Ca5  1  0.945849  0.738237  0.425065  1
  Ca  Ca6  1  0.535900  0.750430  0.592498  1
  Ca  Ca7  1  0.464100  0.249570  0.407502  1
  Sn  Sn8  1  0.605225  0.280371  0.763326  1
  Sn  Sn9  1  0.394775  0.719629  0.236674  1
  N  N10  1  0.304790  0.008063  0.611785  1
  N  N11  1  0.695210  0.991937  0.388215  1
  N  N12  1  0.811123  0.151578  0.949683  1
  N  N13  1  0.188877  0.848422  0.050317  1
  N  N14  1  0.414484  0.492457  0.801856  1
  N  N15  1  0.585516  0.507543  0.198144  1
  N  N16  1  0.197699  0.502901  0.382247  1
  N  N17  1  0.802301  0.497099  0.617753  1
