# generated using pymatgen
data_Tb3CeCdIr
_symmetry_space_group_name_H-M   'P 1'
_cell_length_a   9.69402706
_cell_length_b   9.69402696
_cell_length_c   9.69402800
_cell_angle_alpha   60.00000328
_cell_angle_beta   60.00000360
_cell_angle_gamma   60.00000011
_symmetry_Int_Tables_number   1
_chemical_formula_structural   Tb3CeCdIr
_chemical_formula_sum   'Tb12 Ce4 Cd4 Ir4'
_cell_volume   644.16592175
_cell_formula_units_Z   4
loop_
 _symmetry_equiv_pos_site_id
 _symmetry_equiv_pos_as_xyz
  1  'x, y, z'
loop_
 _atom_site_type_symbol
 _atom_site_label
 _atom_site_symmetry_multiplicity
 _atom_site_fract_x
 _atom_site_fract_y
 _atom_site_fract_z
 _atom_site_occupancy
  Tb  Tb0  1  0.562605  0.562605  0.937395  1
  Tb  Tb1  1  0.937395  0.562605  0.937395  1
  Tb  Tb2  1  0.562605  0.937395  0.937395  1
  Tb  Tb3  1  0.937395  0.937395  0.562605  1
  Tb  Tb4  1  0.562605  0.937395  0.562605  1
  Tb  Tb5  1  0.937395  0.562605  0.562605  1
  Tb  Tb6  1  0.189060  0.189060  0.810940  1
  Tb  Tb7  1  0.810940  0.189060  0.810940  1
  Tb  Tb8  1  0.189059  0.810941  0.810940  1
  Tb  Tb9  1  0.810940  0.810941  0.189060  1
  Tb  Tb10  1  0.189059  0.810940  0.189059  1
  Tb  Tb11  1  0.810940  0.189060  0.189060  1
  Ce  Ce12  1  0.348824  0.348824  0.953530  1
  Ce  Ce13  1  0.348824  0.953530  0.348824  1
  Ce  Ce14  1  0.953530  0.348824  0.348824  1
  Ce  Ce15  1  0.348824  0.348824  0.348824  1
  Cd  Cd16  1  0.581227  0.581227  0.256320  1
  Cd  Cd17  1  0.581227  0.256320  0.581227  1
  Cd  Cd18  1  0.256320  0.581227  0.581227  1
  Cd  Cd19  1  0.581227  0.581227  0.581227  1
  Ir  Ir20  1  0.143392  0.143392  0.569823  1
  Ir  Ir21  1  0.143392  0.569823  0.143392  1
  Ir  Ir22  1  0.569823  0.143392  0.143392  1
  Ir  Ir23  1  0.143392  0.143392  0.143392  1
