# generated using pymatgen
data_Br7N2Cl
_symmetry_space_group_name_H-M   'P 1'
_cell_length_a   6.61280012
_cell_length_b   7.23164060
_cell_length_c   10.35134484
_cell_angle_alpha   90.76631695
_cell_angle_beta   100.93946474
_cell_angle_gamma   79.24902666
_symmetry_Int_Tables_number   1
_chemical_formula_structural   Br7N2Cl
_chemical_formula_sum   'Br7 N2 Cl1'
_cell_volume   477.36492335
_cell_formula_units_Z   1
loop_
 _symmetry_equiv_pos_site_id
 _symmetry_equiv_pos_as_xyz
  1  'x, y, z'
loop_
 _atom_site_type_symbol
 _atom_site_label
 _atom_site_symmetry_multiplicity
 _atom_site_fract_x
 _atom_site_fract_y
 _atom_site_fract_z
 _atom_site_occupancy
  Br  Br0  1  0.235872  0.551120  0.197247  1
  Br  Br1  1  0.374635  0.988114  0.056195  1
  Br  Br2  1  0.235930  0.451604  0.414974  1
  Br  Br3  1  0.331654  0.991076  0.635791  1
  Br  Br4  1  0.900585  0.981909  0.284676  1
  Br  Br5  1  0.187590  0.758167  0.945483  1
  Br  Br6  1  0.613974  0.225646  0.207672  1
  N  N7  1  0.934809  0.292474  0.828612  1
  N  N8  1  0.837321  0.367449  0.896768  1
  Cl  Cl9  1  0.576374  0.936813  0.520561  1
