# generated using pymatgen
data_VGaHgO5
_symmetry_space_group_name_H-M   'P 1'
_cell_length_a   6.09610000
_cell_length_b   8.43461900
_cell_length_c   8.64485100
_cell_angle_alpha   90.00000000
_cell_angle_beta   90.00000000
_cell_angle_gamma   90.00000000
_symmetry_Int_Tables_number   1
_chemical_formula_structural   VGaHgO5
_chemical_formula_sum   'V4 Ga4 Hg4 O20'
_cell_volume   444.50337693
_cell_formula_units_Z   4
loop_
 _symmetry_equiv_pos_site_id
 _symmetry_equiv_pos_as_xyz
  1  'x, y, z'
loop_
 _atom_site_type_symbol
 _atom_site_label
 _atom_site_symmetry_multiplicity
 _atom_site_fract_x
 _atom_site_fract_y
 _atom_site_fract_z
 _atom_site_occupancy
  V  V0  1  0.750000  0.312046  0.710879  1
  V  V1  1  0.750000  0.812046  0.789121  1
  V  V2  1  0.250000  0.687954  0.289121  1
  V  V3  1  0.250000  0.187954  0.210879  1
  Ga  Ga4  1  0.000000  0.000000  0.500000  1
  Ga  Ga5  1  0.500000  0.500000  0.000000  1
  Ga  Ga6  1  0.500000  0.000000  0.500000  1
  Ga  Ga7  1  0.000000  0.500000  0.000000  1
  Hg  Hg8  1  0.250000  0.570431  0.660708  1
  Hg  Hg9  1  0.250000  0.070431  0.839292  1
  Hg  Hg10  1  0.750000  0.429569  0.339292  1
  Hg  Hg11  1  0.750000  0.929569  0.160708  1
  O  O12  1  0.522265  0.335259  0.827632  1
  O  O13  1  0.977735  0.835259  0.672368  1
  O  O14  1  0.022265  0.664741  0.172368  1
  O  O15  1  0.477735  0.164741  0.327632  1
  O  O16  1  0.477735  0.664741  0.172368  1
  O  O17  1  0.022265  0.164741  0.327632  1
  O  O18  1  0.977735  0.335259  0.827632  1
  O  O19  1  0.522265  0.835259  0.672368  1
  O  O20  1  0.750000  0.126876  0.610496  1
  O  O21  1  0.750000  0.626876  0.889504  1
  O  O22  1  0.250000  0.873124  0.389504  1
  O  O23  1  0.250000  0.373124  0.110496  1
  O  O24  1  0.250000  0.096939  0.602456  1
  O  O25  1  0.250000  0.596939  0.897544  1
  O  O26  1  0.750000  0.903061  0.397544  1
  O  O27  1  0.750000  0.403061  0.102456  1
  O  O28  1  0.750000  0.467053  0.573638  1
  O  O29  1  0.750000  0.967053  0.926362  1
  O  O30  1  0.250000  0.532947  0.426362  1
  O  O31  1  0.250000  0.032947  0.073638  1
