# generated using pymatgen
data_Tb2Y2Al18Co5Au
_symmetry_space_group_name_H-M   'P 1'
_cell_length_a   7.43879505
_cell_length_b   7.43891650
_cell_length_c   9.36093600
_cell_angle_alpha   89.78790592
_cell_angle_beta   89.78817429
_cell_angle_gamma   119.15886716
_symmetry_Int_Tables_number   1
_chemical_formula_structural   Tb2Y2Al18Co5Au
_chemical_formula_sum   'Tb2 Y2 Al18 Co5 Au1'
_cell_volume   452.34473660
_cell_formula_units_Z   1
loop_
 _symmetry_equiv_pos_site_id
 _symmetry_equiv_pos_as_xyz
  1  'x, y, z'
loop_
 _atom_site_type_symbol
 _atom_site_label
 _atom_site_symmetry_multiplicity
 _atom_site_fract_x
 _atom_site_fract_y
 _atom_site_fract_z
 _atom_site_occupancy
  Tb  Tb0  1  0.995536  0.677569  0.251312  1
  Tb  Tb1  1  0.004464  0.322431  0.748688  1
  Y  Y2  1  0.677565  0.995533  0.251316  1
  Y  Y3  1  0.322435  0.004467  0.748684  1
  Al  Al4  1  0.137480  0.137480  0.263307  1
  Al  Al5  1  0.862520  0.862520  0.736693  1
  Al  Al6  1  0.332302  0.332291  0.542398  1
  Al  Al7  1  0.655009  0.655016  0.051867  1
  Al  Al8  1  0.344991  0.344984  0.948133  1
  Al  Al9  1  0.667698  0.667709  0.457602  1
  Al  Al10  1  0.340032  0.557843  0.252378  1
  Al  Al11  1  0.659968  0.442157  0.747622  1
  Al  Al12  1  0.557831  0.340018  0.252378  1
  Al  Al13  1  0.442169  0.659982  0.747622  1
  Al  Al14  1  0.001353  0.349700  0.076428  1
  Al  Al15  1  0.003336  0.663127  0.569683  1
  Al  Al16  1  0.336899  0.996674  0.430330  1
  Al  Al17  1  0.650280  0.998640  0.923575  1
  Al  Al18  1  0.998647  0.650300  0.923572  1
  Al  Al19  1  0.996664  0.336873  0.430317  1
  Al  Al20  1  0.663101  0.003326  0.569670  1
  Al  Al21  1  0.349720  0.001360  0.076425  1
  Co  Co22  1  0.000000  0.000000  0.500000  1
  Co  Co23  1  0.671016  0.328973  0.999999  1
  Co  Co24  1  0.329025  0.670971  0.500000  1
  Co  Co25  1  0.328984  0.671027  0.000001  1
  Co  Co26  1  0.670975  0.329029  0.500000  1
  Au  Au27  1  0.000000  0.000000  0.000000  1
