# generated using pymatgen
data_Ba9SrSi10F
_symmetry_space_group_name_H-M   'P 1'
_cell_length_a   11.80395593
_cell_length_b   11.80395496
_cell_length_c   11.80395400
_cell_angle_alpha   155.15366568
_cell_angle_beta   111.21142050
_cell_angle_gamma   74.38045664
_symmetry_Int_Tables_number   1
_chemical_formula_structural   Ba9SrSi10F
_chemical_formula_sum   'Ba9 Sr1 Si10 F1'
_cell_volume   636.88674747
_cell_formula_units_Z   1
loop_
 _symmetry_equiv_pos_site_id
 _symmetry_equiv_pos_as_xyz
  1  'x, y, z'
loop_
 _atom_site_type_symbol
 _atom_site_label
 _atom_site_symmetry_multiplicity
 _atom_site_fract_x
 _atom_site_fract_y
 _atom_site_fract_z
 _atom_site_occupancy
  Ba  Ba0  1  0.833269  0.833269  0.000000  1
  Ba  Ba1  1  0.207843  0.999998  0.207842  1
  Ba  Ba2  1  0.471165  0.809593  0.661572  1
  Ba  Ba3  1  0.851979  0.190408  0.661572  1
  Ba  Ba4  1  0.792157  0.000002  0.792158  1
  Ba  Ba5  1  0.166731  0.166731  0.000000  1
  Ba  Ba6  1  0.528835  0.190407  0.338428  1
  Ba  Ba7  1  0.500000  0.000000  0.500000  1
  Ba  Ba8  1  0.148021  0.809592  0.338428  1
  Sr  Sr9  1  0.000000  0.500000  0.500000  1
  Si  Si10  1  0.410583  0.565470  0.845112  1
  Si  Si11  1  0.279642  0.434528  0.845112  1
  Si  Si12  1  0.589417  0.434530  0.154888  1
  Si  Si13  1  0.720358  0.565472  0.154888  1
  Si  Si14  1  0.688875  0.374422  0.314454  1
  Si  Si15  1  0.635882  0.635882  0.000000  1
  Si  Si16  1  0.311125  0.625578  0.685546  1
  Si  Si17  1  0.364118  0.364118  0.000000  1
  Si  Si18  1  0.059968  0.374422  0.685546  1
  Si  Si19  1  0.940032  0.625578  0.314454  1
  F  F20  1  0.000000  0.000000  0.000000  1
