# generated using pymatgen
data_Dy6Al(Ga3Co8)2
_symmetry_space_group_name_H-M   'P 1'
_cell_length_a   8.49072101
_cell_length_b   8.49600981
_cell_length_c   8.50141100
_cell_angle_alpha   120.02104148
_cell_angle_beta   90.00000000
_cell_angle_gamma   119.97920463
_symmetry_Int_Tables_number   1
_chemical_formula_structural   Dy6Al(Ga3Co8)2
_chemical_formula_sum   'Dy6 Al1 Ga6 Co16'
_cell_volume   433.64457491
_cell_formula_units_Z   1
loop_
 _symmetry_equiv_pos_site_id
 _symmetry_equiv_pos_as_xyz
  1  'x, y, z'
loop_
 _atom_site_type_symbol
 _atom_site_label
 _atom_site_symmetry_multiplicity
 _atom_site_fract_x
 _atom_site_fract_y
 _atom_site_fract_z
 _atom_site_occupancy
  Dy  Dy0  1  0.280123  0.000003  0.280035  1
  Dy  Dy1  1  0.280082  0.560155  0.280077  1
  Dy  Dy2  1  0.719877  0.999996  0.280030  1
  Dy  Dy3  1  0.719877  0.999997  0.719966  1
  Dy  Dy4  1  0.280124  0.000004  0.719970  1
  Dy  Dy5  1  0.719918  0.439846  0.719924  1
  Al  Al6  1  0.999999  0.000000  0.000000  1
  Ga  Ga7  1  0.500000  0.000000  0.000000  1
  Ga  Ga8  1  0.000000  0.500000  0.000000  1
  Ga  Ga9  1  0.499999  0.500000  0.999999  1
  Ga  Ga10  1  0.000001  0.000001  0.500000  1
  Ga  Ga11  1  0.999999  0.500000  0.500000  1
  Ga  Ga12  1  0.500000  0.500000  0.500001  1
  Co  Co13  1  0.679027  0.358010  0.037104  1
  Co  Co14  1  0.378930  0.252593  0.126298  1
  Co  Co15  1  0.873659  0.252639  0.126319  1
  Co  Co16  1  0.873671  0.747320  0.126305  1
  Co  Co17  1  0.679026  0.358010  0.320907  1
  Co  Co18  1  0.679069  0.641730  0.320866  1
  Co  Co19  1  0.962892  0.641855  0.320928  1
  Co  Co20  1  0.126329  0.252679  0.378984  1
  Co  Co21  1  0.873671  0.747320  0.621014  1
  Co  Co22  1  0.037110  0.358144  0.679072  1
  Co  Co23  1  0.320932  0.358268  0.679134  1
  Co  Co24  1  0.320974  0.641989  0.679093  1
  Co  Co25  1  0.126329  0.252679  0.873695  1
  Co  Co26  1  0.126340  0.747360  0.873681  1
  Co  Co27  1  0.621070  0.747407  0.873703  1
  Co  Co28  1  0.320973  0.641988  0.962896  1
