# generated using pymatgen
data_Ho2ThSn3Pt2Rh
_symmetry_space_group_name_H-M   'P 1'
_cell_length_a   7.52250023
_cell_length_b   7.50698154
_cell_length_c   4.09524200
_cell_angle_alpha   90.00000000
_cell_angle_beta   90.00000000
_cell_angle_gamma   119.93179398
_symmetry_Int_Tables_number   1
_chemical_formula_structural   Ho2ThSn3Pt2Rh
_chemical_formula_sum   'Ho2 Th1 Sn3 Pt2 Rh1'
_cell_volume   200.41759010
_cell_formula_units_Z   1
loop_
 _symmetry_equiv_pos_site_id
 _symmetry_equiv_pos_as_xyz
  1  'x, y, z'
loop_
 _atom_site_type_symbol
 _atom_site_label
 _atom_site_symmetry_multiplicity
 _atom_site_fract_x
 _atom_site_fract_y
 _atom_site_fract_z
 _atom_site_occupancy
  Ho  Ho0  1  0.592825  0.592931  0.000000  1
  Ho  Ho1  1  0.407175  0.000106  0.000000  1
  Th  Th2  1  0.000000  0.410754  0.000000  1
  Sn  Sn3  1  0.261300  0.251179  0.500000  1
  Sn  Sn4  1  0.000000  0.756087  0.500000  1
  Sn  Sn5  1  0.738700  0.989880  0.500000  1
  Pt  Pt6  1  0.671482  0.332424  0.500000  1
  Pt  Pt7  1  0.328518  0.660943  0.500000  1
  Rh  Rh8  1  0.000000  0.005698  0.000000  1
