# generated using pymatgen
data_Tb5DyP13Rh20
_symmetry_space_group_name_H-M   'P 1'
_cell_length_a   13.35940400
_cell_length_b   13.35942827
_cell_length_c   3.92966546
_cell_angle_alpha   90.00739853
_cell_angle_beta   90.00788119
_cell_angle_gamma   119.99709203
_symmetry_Int_Tables_number   1
_chemical_formula_structural   Tb5DyP13Rh20
_chemical_formula_sum   'Tb5 Dy1 P13 Rh20'
_cell_volume   607.39872627
_cell_formula_units_Z   1
loop_
 _symmetry_equiv_pos_site_id
 _symmetry_equiv_pos_as_xyz
  1  'x, y, z'
loop_
 _atom_site_type_symbol
 _atom_site_label
 _atom_site_symmetry_multiplicity
 _atom_site_fract_x
 _atom_site_fract_y
 _atom_site_fract_z
 _atom_site_occupancy
  Tb  Tb0  1  0.282807  0.812633  0.247869  1
  Tb  Tb1  1  0.187175  0.470199  0.247747  1
  Tb  Tb2  1  0.470081  0.282932  0.752321  1
  Tb  Tb3  1  0.717058  0.186973  0.752219  1
  Tb  Tb4  1  0.812681  0.529885  0.752306  1
  Dy  Dy5  1  0.529984  0.717256  0.247791  1
  P  P6  1  0.525611  0.138929  0.250699  1
  P  P7  1  0.860774  0.386427  0.250681  1
  P  P8  1  0.613364  0.474405  0.250674  1
  P  P9  1  0.945949  0.715399  0.254903  1
  P  P10  1  0.284657  0.230722  0.254976  1
  P  P11  1  0.769525  0.053969  0.254906  1
  P  P12  1  0.386876  0.526059  0.749411  1
  P  P13  1  0.474376  0.860767  0.749461  1
  P  P14  1  0.139058  0.613350  0.749451  1
  P  P15  1  0.715231  0.769292  0.745169  1
  P  P16  1  0.230575  0.945940  0.745205  1
  P  P17  1  0.053995  0.284548  0.745128  1
  P  P18  1  0.000139  0.000063  0.999246  1
  Rh  Rh19  1  0.333595  0.666676  0.751869  1
  Rh  Rh20  1  0.920899  0.249508  0.254466  1
  Rh  Rh21  1  0.750184  0.671438  0.254546  1
  Rh  Rh22  1  0.328622  0.078905  0.254602  1
  Rh  Rh23  1  0.439229  0.023613  0.751660  1
  Rh  Rh24  1  0.976040  0.415327  0.751611  1
  Rh  Rh25  1  0.584360  0.561043  0.751631  1
  Rh  Rh26  1  0.666516  0.333361  0.248288  1
  Rh  Rh27  1  0.093821  0.187094  0.246401  1
  Rh  Rh28  1  0.813320  0.906979  0.246326  1
  Rh  Rh29  1  0.093307  0.906276  0.246566  1
  Rh  Rh30  1  0.023592  0.584392  0.248527  1
  Rh  Rh31  1  0.415635  0.439686  0.248473  1
  Rh  Rh32  1  0.560870  0.976002  0.248343  1
  Rh  Rh33  1  0.671219  0.920499  0.745270  1
  Rh  Rh34  1  0.078936  0.750291  0.745456  1
  Rh  Rh35  1  0.249730  0.328952  0.745464  1
  Rh  Rh36  1  0.906220  0.812952  0.753377  1
  Rh  Rh37  1  0.187197  0.093371  0.753645  1
  Rh  Rh38  1  0.906795  0.093887  0.753315  1
