# generated using pymatgen
data_La4TbGe5P7Ir19
_symmetry_space_group_name_H-M   'P 1'
_cell_length_a   13.02033911
_cell_length_b   12.91439954
_cell_length_c   4.05436000
_cell_angle_alpha   90.00000000
_cell_angle_beta   90.00000000
_cell_angle_gamma   119.40622099
_symmetry_Int_Tables_number   1
_chemical_formula_structural   La4TbGe5P7Ir19
_chemical_formula_sum   'La4 Tb1 Ge5 P7 Ir19'
_cell_volume   593.90502571
_cell_formula_units_Z   1
loop_
 _symmetry_equiv_pos_site_id
 _symmetry_equiv_pos_as_xyz
  1  'x, y, z'
loop_
 _atom_site_type_symbol
 _atom_site_label
 _atom_site_symmetry_multiplicity
 _atom_site_fract_x
 _atom_site_fract_y
 _atom_site_fract_z
 _atom_site_occupancy
  La  La0  1  0.182071  0.186470  0.500000  1
  La  La1  1  0.818580  0.003553  0.500000  1
  La  La2  1  0.339886  0.670802  0.000000  1
  La  La3  1  0.661023  0.329338  0.000000  1
  Tb  Tb4  1  0.000163  0.811872  0.500000  1
  Ge  Ge5  1  0.524879  0.678787  0.500000  1
  Ge  Ge6  1  0.318434  0.840086  0.500000  1
  Ge  Ge7  1  0.167907  0.487539  0.500000  1
  Ge  Ge8  1  0.475902  0.155472  0.500000  1
  Ge  Ge9  1  0.682373  0.518168  0.500000  1
  P  P10  1  0.000129  0.186286  0.000000  1
  P  P11  1  0.826475  0.819895  0.000000  1
  P  P12  1  0.174640  0.998836  0.000000  1
  P  P13  1  0.824421  0.307745  0.500000  1
  P  P14  1  0.003828  0.640550  0.000000  1
  P  P15  1  0.363929  0.362799  0.000000  1
  P  P16  1  0.635219  0.996871  0.000000  1
  Ir  Ir17  1  0.994966  0.286457  0.500000  1
  Ir  Ir18  1  0.736465  0.730129  0.500000  1
  Ir  Ir19  1  0.264428  0.998319  0.500000  1
  Ir  Ir20  1  0.636320  0.810675  0.000000  1
  Ir  Ir21  1  0.185913  0.821707  0.000000  1
  Ir  Ir22  1  0.178188  0.371007  0.000000  1
  Ir  Ir23  1  0.364780  0.176693  0.000000  1
  Ir  Ir24  1  0.818966  0.630812  0.000000  1
  Ir  Ir25  1  0.823803  0.205997  0.000000  1
  Ir  Ir26  1  0.521257  0.873715  0.500000  1
  Ir  Ir27  1  0.117637  0.645725  0.500000  1
  Ir  Ir28  1  0.355442  0.476341  0.500000  1
  Ir  Ir29  1  0.479252  0.352915  0.500000  1
  Ir  Ir30  1  0.871229  0.503531  0.500000  1
  Ir  Ir31  1  0.647820  0.122316  0.500000  1
  Ir  Ir32  1  0.998586  0.002321  0.000000  1
  Ir  Ir33  1  0.004370  0.460650  0.000000  1
  Ir  Ir34  1  0.541955  0.538521  0.000000  1
  Ir  Ir35  1  0.458761  0.997102  0.000000  1
