# generated using pymatgen
data_K2LiSbS4
_symmetry_space_group_name_H-M   'P 1'
_cell_length_a   8.13515800
_cell_length_b   10.21371400
_cell_length_c   10.46417600
_cell_angle_alpha   90.00000000
_cell_angle_beta   90.00000000
_cell_angle_gamma   90.00000000
_symmetry_Int_Tables_number   1
_chemical_formula_structural   K2LiSbS4
_chemical_formula_sum   'K8 Li4 Sb4 S16'
_cell_volume   869.47023764
_cell_formula_units_Z   4
loop_
 _symmetry_equiv_pos_site_id
 _symmetry_equiv_pos_as_xyz
  1  'x, y, z'
loop_
 _atom_site_type_symbol
 _atom_site_label
 _atom_site_symmetry_multiplicity
 _atom_site_fract_x
 _atom_site_fract_y
 _atom_site_fract_z
 _atom_site_occupancy
  K  K0  1  0.450455  0.754159  0.264283  1
  K  K1  1  0.950455  0.745841  0.764283  1
  K  K2  1  0.759151  0.000000  0.500000  1
  K  K3  1  0.259151  0.500000  0.000000  1
  K  K4  1  0.950455  0.254159  0.235717  1
  K  K5  1  0.948204  0.500000  0.500000  1
  K  K6  1  0.448204  0.000000  0.000000  1
  K  K7  1  0.450455  0.245841  0.735717  1
  Li  Li8  1  0.453124  0.500000  0.500000  1
  Li  Li9  1  0.712115  0.500000  0.000000  1
  Li  Li10  1  0.212115  0.000000  0.500000  1
  Li  Li11  1  0.953124  0.000000  0.000000  1
  Sb  Sb12  1  0.449564  0.720314  0.718965  1
  Sb  Sb13  1  0.949564  0.220314  0.781035  1
  Sb  Sb14  1  0.949564  0.779686  0.218965  1
  Sb  Sb15  1  0.449564  0.279686  0.281035  1
  S  S16  1  0.803252  0.420096  0.788168  1
  S  S17  1  0.303252  0.920096  0.711832  1
  S  S18  1  0.584759  0.706639  0.919515  1
  S  S19  1  0.303252  0.079904  0.288168  1
  S  S20  1  0.803252  0.579904  0.211832  1
  S  S21  1  0.772916  0.962658  0.194259  1
  S  S22  1  0.130958  0.201795  0.957227  1
  S  S23  1  0.630958  0.701795  0.542773  1
  S  S24  1  0.272916  0.537342  0.694259  1
  S  S25  1  0.084759  0.206639  0.580485  1
  S  S26  1  0.772916  0.037342  0.805741  1
  S  S27  1  0.630958  0.298205  0.457227  1
  S  S28  1  0.130958  0.798205  0.042773  1
  S  S29  1  0.084759  0.793361  0.419515  1
  S  S30  1  0.584759  0.293361  0.080485  1
  S  S31  1  0.272916  0.462658  0.305741  1
