# generated using pymatgen
data_Hf2MgCo7(NiB3)2
_symmetry_space_group_name_H-M   'P 1'
_cell_length_a   5.68877450
_cell_length_b   5.68877418
_cell_length_c   5.69193127
_cell_angle_alpha   95.11449704
_cell_angle_beta   95.11450633
_cell_angle_gamma   95.38265815
_symmetry_Int_Tables_number   1
_chemical_formula_structural   Hf2MgCo7(NiB3)2
_chemical_formula_sum   'Hf2 Mg1 Co7 Ni2 B6'
_cell_volume   181.77548641
_cell_formula_units_Z   1
loop_
 _symmetry_equiv_pos_site_id
 _symmetry_equiv_pos_as_xyz
  1  'x, y, z'
loop_
 _atom_site_type_symbol
 _atom_site_label
 _atom_site_symmetry_multiplicity
 _atom_site_fract_x
 _atom_site_fract_y
 _atom_site_fract_z
 _atom_site_occupancy
  Hf  Hf0  1  0.675543  0.675543  0.670756  1
  Hf  Hf1  1  0.324457  0.324457  0.329244  1
  Mg  Mg2  1  0.000000  0.000000  0.000000  1
  Co  Co3  1  0.000000  0.000000  0.500000  1
  Co  Co4  1  0.699271  0.203687  0.700519  1
  Co  Co5  1  0.701019  0.701019  0.201109  1
  Co  Co6  1  0.203687  0.699271  0.700519  1
  Co  Co7  1  0.300729  0.796313  0.299481  1
  Co  Co8  1  0.298981  0.298981  0.798891  1
  Co  Co9  1  0.796313  0.300729  0.299481  1
  Ni  Ni10  1  0.500000  0.000000  0.000000  1
  Ni  Ni11  1  0.000000  0.500000  0.000000  1
  B  B12  1  0.380842  0.000667  0.614167  1
  B  B13  1  0.613509  0.386491  0.000000  1
  B  B14  1  0.999333  0.619158  0.385833  1
  B  B15  1  0.619158  0.999333  0.385833  1
  B  B16  1  0.386491  0.613509  0.000000  1
  B  B17  1  0.000667  0.380842  0.614167  1
