# generated using pymatgen
data_Pr8Y11Si16Hg
_symmetry_space_group_name_H-M   'P 1'
_cell_length_a   7.47864480
_cell_length_b   7.82502827
_cell_length_c   14.91713400
_cell_angle_alpha   90.00000000
_cell_angle_beta   90.00000000
_cell_angle_gamma   90.05757900
_symmetry_Int_Tables_number   1
_chemical_formula_structural   Pr8Y11Si16Hg
_chemical_formula_sum   'Pr8 Y11 Si16 Hg1'
_cell_volume   872.95929487
_cell_formula_units_Z   1
loop_
 _symmetry_equiv_pos_site_id
 _symmetry_equiv_pos_as_xyz
  1  'x, y, z'
loop_
 _atom_site_type_symbol
 _atom_site_label
 _atom_site_symmetry_multiplicity
 _atom_site_fract_x
 _atom_site_fract_y
 _atom_site_fract_z
 _atom_site_occupancy
  Pr  Pr0  1  0.018646  0.177349  0.402860  1
  Pr  Pr1  1  0.517378  0.323919  0.402462  1
  Pr  Pr2  1  0.483827  0.688891  0.898450  1
  Pr  Pr3  1  0.483827  0.688891  0.601550  1
  Pr  Pr4  1  0.971388  0.824980  0.601966  1
  Pr  Pr5  1  0.971388  0.824980  0.898034  1
  Pr  Pr6  1  0.517378  0.323919  0.097538  1
  Pr  Pr7  1  0.018646  0.177349  0.097140  1
  Y  Y8  1  0.337495  0.174956  0.625345  1
  Y  Y9  1  0.675330  0.816160  0.375591  1
  Y  Y10  1  0.176813  0.677633  0.378381  1
  Y  Y11  1  0.819709  0.311176  0.874667  1
  Y  Y12  1  0.819709  0.311176  0.625333  1
  Y  Y13  1  0.844043  0.487994  0.250000  1
  Y  Y14  1  0.341612  0.010706  0.250000  1
  Y  Y15  1  0.337495  0.174956  0.874655  1
  Y  Y16  1  0.176813  0.677633  0.121619  1
  Y  Y17  1  0.675330  0.816160  0.124409  1
  Y  Y18  1  0.153169  0.506879  0.750000  1
  Si  Si19  1  0.260115  0.876471  0.750000  1
  Si  Si20  1  0.468243  0.609742  0.250000  1
  Si  Si21  1  0.044653  0.113803  0.750000  1
  Si  Si22  1  0.526106  0.412306  0.750000  1
  Si  Si23  1  0.148420  0.470839  0.541952  1
  Si  Si24  1  0.968539  0.883810  0.250000  1
  Si  Si25  1  0.724057  0.120370  0.250000  1
  Si  Si26  1  0.852816  0.529738  0.035594  1
  Si  Si27  1  0.352691  0.969300  0.039227  1
  Si  Si28  1  0.148420  0.470839  0.958048  1
  Si  Si29  1  0.652219  0.037890  0.527736  1
  Si  Si30  1  0.352691  0.969300  0.460773  1
  Si  Si31  1  0.852816  0.529738  0.464406  1
  Si  Si32  1  0.779035  0.607340  0.750000  1
  Si  Si33  1  0.224179  0.378757  0.250000  1
  Si  Si34  1  0.652219  0.037890  0.972264  1
  Hg  Hg35  1  0.652786  0.986158  0.750000  1
