# generated using pymatgen
data_Tm4Si8Tc5Mo
_symmetry_space_group_name_H-M   'P 1'
_cell_length_a   6.79605421
_cell_length_b   6.66111363
_cell_length_c   6.79668524
_cell_angle_alpha   70.46374873
_cell_angle_beta   90.00103834
_cell_angle_gamma   89.93508939
_symmetry_Int_Tables_number   1
_chemical_formula_structural   Tm4Si8Tc5Mo
_chemical_formula_sum   'Tm4 Si8 Tc5 Mo1'
_cell_volume   289.96772858
_cell_formula_units_Z   1
loop_
 _symmetry_equiv_pos_site_id
 _symmetry_equiv_pos_as_xyz
  1  'x, y, z'
loop_
 _atom_site_type_symbol
 _atom_site_label
 _atom_site_symmetry_multiplicity
 _atom_site_fract_x
 _atom_site_fract_y
 _atom_site_fract_z
 _atom_site_occupancy
  Tm  Tm0  1  0.330933  0.559664  0.807032  1
  Tm  Tm1  1  0.831745  0.941585  0.190724  1
  Tm  Tm2  1  0.667838  0.439627  0.192376  1
  Tm  Tm3  1  0.169533  0.060312  0.805816  1
  Si  Si4  1  0.546273  0.873640  0.902725  1
  Si  Si5  1  0.048168  0.622215  0.102489  1
  Si  Si6  1  0.450876  0.122890  0.101542  1
  Si  Si7  1  0.955862  0.376493  0.902686  1
  Si  Si8  1  0.140583  0.867838  0.488014  1
  Si  Si9  1  0.638074  0.635639  0.508749  1
  Si  Si10  1  0.862235  0.129826  0.508297  1
  Si  Si11  1  0.359442  0.370755  0.487683  1
  Tc  Tc12  1  0.498985  0.000584  0.501067  1
  Tc  Tc13  1  0.000004  0.502584  0.499535  1
  Tc  Tc14  1  0.843167  0.754207  0.767097  1
  Tc  Tc15  1  0.345693  0.743498  0.233976  1
  Tc  Tc16  1  0.152220  0.242594  0.238484  1
  Mo  Mo17  1  0.658369  0.256047  0.761707  1
