# generated using pymatgen
data_CeThMn12P7
_symmetry_space_group_name_H-M   'P 1'
_cell_length_a   9.28382300
_cell_length_b   9.28382400
_cell_length_c   3.68915000
_cell_angle_alpha   90.00000000
_cell_angle_beta   90.00000000
_cell_angle_gamma   119.99999289
_symmetry_Int_Tables_number   1
_chemical_formula_structural   CeThMn12P7
_chemical_formula_sum   'Ce1 Th1 Mn12 P7'
_cell_volume   275.36626057
_cell_formula_units_Z   1
loop_
 _symmetry_equiv_pos_site_id
 _symmetry_equiv_pos_as_xyz
  1  'x, y, z'
loop_
 _atom_site_type_symbol
 _atom_site_label
 _atom_site_symmetry_multiplicity
 _atom_site_fract_x
 _atom_site_fract_y
 _atom_site_fract_z
 _atom_site_occupancy
  Ce  Ce0  1  0.333333  0.666667  0.000000  1
  Th  Th1  1  0.000000  0.000000  0.500000  1
  Mn  Mn2  1  0.042373  0.283386  0.000000  1
  Mn  Mn3  1  0.716614  0.758987  0.000000  1
  Mn  Mn4  1  0.241013  0.957627  0.000000  1
  Mn  Mn5  1  0.544182  0.057975  0.000000  1
  Mn  Mn6  1  0.942025  0.486206  0.000000  1
  Mn  Mn7  1  0.513794  0.455818  0.000000  1
  Mn  Mn8  1  0.619106  0.895418  0.500000  1
  Mn  Mn9  1  0.104582  0.723687  0.500000  1
  Mn  Mn10  1  0.276313  0.380894  0.500000  1
  Mn  Mn11  1  0.784316  0.227910  0.500000  1
  Mn  Mn12  1  0.772090  0.556407  0.500000  1
  Mn  Mn13  1  0.443593  0.215684  0.500000  1
  P  P14  1  0.778234  0.041316  0.000000  1
  P  P15  1  0.958684  0.736918  0.000000  1
  P  P16  1  0.263082  0.221766  0.000000  1
  P  P17  1  0.383905  0.930191  0.500000  1
  P  P18  1  0.069809  0.453714  0.500000  1
  P  P19  1  0.546286  0.616095  0.500000  1
  P  P20  1  0.666667  0.333333  0.000000  1
