# generated using pymatgen
data_LiNd8AgIr2
_symmetry_space_group_name_H-M   'P 1'
_cell_length_a   9.94561599
_cell_length_b   9.94561581
_cell_length_c   9.93076900
_cell_angle_alpha   60.04936582
_cell_angle_beta   60.04936641
_cell_angle_gamma   60.23158913
_symmetry_Int_Tables_number   1
_chemical_formula_structural   LiNd8AgIr2
_chemical_formula_sum   'Li2 Nd16 Ag2 Ir4'
_cell_volume   696.32244701
_cell_formula_units_Z   2
loop_
 _symmetry_equiv_pos_site_id
 _symmetry_equiv_pos_as_xyz
  1  'x, y, z'
loop_
 _atom_site_type_symbol
 _atom_site_label
 _atom_site_symmetry_multiplicity
 _atom_site_fract_x
 _atom_site_fract_y
 _atom_site_fract_z
 _atom_site_occupancy
  Li  Li0  1  0.568267  0.568267  0.577235  1
  Li  Li1  1  0.568267  0.568267  0.286232  1
  Nd  Nd2  1  0.349395  0.349395  0.349751  1
  Nd  Nd3  1  0.349395  0.349395  0.951460  1
  Nd  Nd4  1  0.348298  0.957849  0.346926  1
  Nd  Nd5  1  0.957849  0.348298  0.346926  1
  Nd  Nd6  1  0.812706  0.187913  0.188443  1
  Nd  Nd7  1  0.187913  0.812706  0.810938  1
  Nd  Nd8  1  0.187913  0.812706  0.188443  1
  Nd  Nd9  1  0.812706  0.187913  0.810938  1
  Nd  Nd10  1  0.191922  0.191922  0.808078  1
  Nd  Nd11  1  0.815187  0.815187  0.184813  1
  Nd  Nd12  1  0.940714  0.562580  0.560748  1
  Nd  Nd13  1  0.562580  0.940714  0.935957  1
  Nd  Nd14  1  0.562580  0.940714  0.560748  1
  Nd  Nd15  1  0.940714  0.562580  0.935957  1
  Nd  Nd16  1  0.562118  0.562118  0.937882  1
  Nd  Nd17  1  0.939234  0.939234  0.560766  1
  Ag  Ag18  1  0.584586  0.249266  0.583074  1
  Ag  Ag19  1  0.249266  0.584586  0.583074  1
  Ir  Ir20  1  0.143967  0.143967  0.138812  1
  Ir  Ir21  1  0.143967  0.143967  0.573253  1
  Ir  Ir22  1  0.145450  0.575005  0.139772  1
  Ir  Ir23  1  0.575005  0.145450  0.139772  1
