# generated using pymatgen
data_Tm2SnRh4Au
_symmetry_space_group_name_H-M   'P 1'
_cell_length_a   6.18519105
_cell_length_b   6.18235788
_cell_length_c   7.42962100
_cell_angle_alpha   90.01053729
_cell_angle_beta   90.00705870
_cell_angle_gamma   90.04345460
_symmetry_Int_Tables_number   1
_chemical_formula_structural   Tm2SnRh4Au
_chemical_formula_sum   'Tm4 Sn2 Rh8 Au2'
_cell_volume   284.10166889
_cell_formula_units_Z   2
loop_
 _symmetry_equiv_pos_site_id
 _symmetry_equiv_pos_as_xyz
  1  'x, y, z'
loop_
 _atom_site_type_symbol
 _atom_site_label
 _atom_site_symmetry_multiplicity
 _atom_site_fract_x
 _atom_site_fract_y
 _atom_site_fract_z
 _atom_site_occupancy
  Tm  Tm0  1  0.749920  0.249878  0.000033  1
  Tm  Tm1  1  0.250080  0.750121  0.000030  1
  Tm  Tm2  1  0.749815  0.249898  0.499957  1
  Tm  Tm3  1  0.250182  0.750106  0.499966  1
  Sn  Sn4  1  0.750058  0.750039  0.499991  1
  Sn  Sn5  1  0.249945  0.249960  0.500008  1
  Rh  Rh6  1  0.500009  0.000007  0.259974  1
  Rh  Rh7  1  0.499988  0.500006  0.259900  1
  Rh  Rh8  1  0.000002  0.999990  0.260050  1
  Rh  Rh9  1  0.000031  0.500000  0.260092  1
  Rh  Rh10  1  0.000001  0.000004  0.740011  1
  Rh  Rh11  1  0.999975  0.500008  0.739946  1
  Rh  Rh12  1  0.499993  0.999983  0.740040  1
  Rh  Rh13  1  0.500008  0.499999  0.740068  1
  Au  Au14  1  0.249987  0.250030  0.999963  1
  Au  Au15  1  0.750007  0.749966  0.999971  1
