# generated using pymatgen
data_Ti4ReTc2Pd
_symmetry_space_group_name_H-M   'P 1'
_cell_length_a   6.22974600
_cell_length_b   4.44667600
_cell_length_c   8.81040600
_cell_angle_alpha   90.00000000
_cell_angle_beta   90.00375564
_cell_angle_gamma   90.00000000
_symmetry_Int_Tables_number   1
_chemical_formula_structural   Ti4ReTc2Pd
_chemical_formula_sum   'Ti8 Re2 Tc4 Pd2'
_cell_volume   244.06288905
_cell_formula_units_Z   2
loop_
 _symmetry_equiv_pos_site_id
 _symmetry_equiv_pos_as_xyz
  1  'x, y, z'
loop_
 _atom_site_type_symbol
 _atom_site_label
 _atom_site_symmetry_multiplicity
 _atom_site_fract_x
 _atom_site_fract_y
 _atom_site_fract_z
 _atom_site_occupancy
  Ti  Ti0  1  0.494866  0.750001  0.129707  1
  Ti  Ti1  1  0.005110  0.750001  0.129720  1
  Ti  Ti2  1  0.505131  0.250000  0.370284  1
  Ti  Ti3  1  0.994880  0.250000  0.370282  1
  Ti  Ti4  1  0.995220  0.750001  0.619262  1
  Ti  Ti5  1  0.504749  0.750001  0.619247  1
  Ti  Ti6  1  0.004789  0.250000  0.880739  1
  Ti  Ti7  1  0.495261  0.250000  0.880740  1
  Re  Re8  1  0.249992  0.250000  0.124060  1
  Re  Re9  1  0.750002  0.750001  0.375953  1
  Tc  Tc10  1  0.750000  0.250000  0.122748  1
  Tc  Tc11  1  0.250000  0.750001  0.377263  1
  Tc  Tc12  1  0.750001  0.250000  0.628523  1
  Tc  Tc13  1  0.249997  0.750001  0.871473  1
  Pd  Pd14  1  0.250009  0.250000  0.624639  1
  Pd  Pd15  1  0.749993  0.750001  0.875359  1
