# generated using pymatgen
data_HoLu4Cr3(P3Ir4)4
_symmetry_space_group_name_H-M   'P 1'
_cell_length_a   12.59908300
_cell_length_b   12.59908367
_cell_length_c   3.93627900
_cell_angle_alpha   90.00000000
_cell_angle_beta   90.00000000
_cell_angle_gamma   119.99999563
_symmetry_Int_Tables_number   1
_chemical_formula_structural   HoLu4Cr3(P3Ir4)4
_chemical_formula_sum   'Ho1 Lu4 Cr3 P12 Ir16'
_cell_volume   541.12104051
_cell_formula_units_Z   1
loop_
 _symmetry_equiv_pos_site_id
 _symmetry_equiv_pos_as_xyz
  1  'x, y, z'
loop_
 _atom_site_type_symbol
 _atom_site_label
 _atom_site_symmetry_multiplicity
 _atom_site_fract_x
 _atom_site_fract_y
 _atom_site_fract_z
 _atom_site_occupancy
  Ho  Ho0  1  0.333333  0.666667  0.500000  1
  Lu  Lu1  1  0.666667  0.333333  0.500000  1
  Lu  Lu2  1  0.000316  0.811353  0.000000  1
  Lu  Lu3  1  0.188647  0.188963  0.000000  1
  Lu  Lu4  1  0.811037  0.999684  0.000000  1
  Cr  Cr5  1  0.999413  0.453129  0.500000  1
  Cr  Cr6  1  0.546871  0.546284  0.500000  1
  Cr  Cr7  1  0.453716  0.000587  0.500000  1
  P  P8  1  0.000445  0.633669  0.500000  1
  P  P9  1  0.366331  0.366777  0.500000  1
  P  P10  1  0.633223  0.999555  0.500000  1
  P  P11  1  0.516318  0.683236  0.000000  1
  P  P12  1  0.316764  0.833082  0.000000  1
  P  P13  1  0.166918  0.483682  0.000000  1
  P  P14  1  0.484322  0.168529  0.000000  1
  P  P15  1  0.684207  0.515678  0.000000  1
  P  P16  1  0.831471  0.315793  0.000000  1
  P  P17  1  0.999617  0.176571  0.500000  1
  P  P18  1  0.823429  0.823047  0.500000  1
  P  P19  1  0.176953  0.000383  0.500000  1
  Ir  Ir20  1  0.510203  0.868461  0.000000  1
  Ir  Ir21  1  0.131539  0.641742  0.000000  1
  Ir  Ir22  1  0.358258  0.489797  0.000000  1
  Ir  Ir23  1  0.491887  0.358760  0.000000  1
  Ir  Ir24  1  0.866874  0.508113  0.000000  1
  Ir  Ir25  1  0.641240  0.133126  0.000000  1
  Ir  Ir26  1  0.999132  0.286427  0.000000  1
  Ir  Ir27  1  0.713573  0.712705  0.000000  1
  Ir  Ir28  1  0.287295  0.000868  0.000000  1
  Ir  Ir29  1  0.626058  0.804873  0.500000  1
  Ir  Ir30  1  0.195127  0.821185  0.500000  1
  Ir  Ir31  1  0.178815  0.373942  0.500000  1
  Ir  Ir32  1  0.374050  0.179656  0.500000  1
  Ir  Ir33  1  0.805607  0.625950  0.500000  1
  Ir  Ir34  1  0.820344  0.194393  0.500000  1
  Ir  Ir35  1  0.000000  0.000000  0.500000  1
