# generated using pymatgen
data_U2Ge2Te5I7
_symmetry_space_group_name_H-M   'P 1'
_cell_length_a   7.40425398
_cell_length_b   7.26695693
_cell_length_c   13.50703641
_cell_angle_alpha   89.90485932
_cell_angle_beta   90.28634559
_cell_angle_gamma   118.85490977
_symmetry_Int_Tables_number   1
_chemical_formula_structural   U2Ge2Te5I7
_chemical_formula_sum   'U2 Ge2 Te5 I7'
_cell_volume   636.52494852
_cell_formula_units_Z   1
loop_
 _symmetry_equiv_pos_site_id
 _symmetry_equiv_pos_as_xyz
  1  'x, y, z'
loop_
 _atom_site_type_symbol
 _atom_site_label
 _atom_site_symmetry_multiplicity
 _atom_site_fract_x
 _atom_site_fract_y
 _atom_site_fract_z
 _atom_site_occupancy
  U  U0  1  0.999259  0.004015  0.500491  1
  U  U1  1  0.997442  0.989979  0.995341  1
  Ge  Ge2  1  0.691984  0.358188  0.731207  1
  Ge  Ge3  1  0.301181  0.661605  0.283933  1
  Te  Te4  1  0.684334  0.004322  0.622736  1
  Te  Te5  1  0.328418  0.996603  0.388106  1
  Te  Te6  1  0.997756  0.679586  0.623659  1
  Te  Te7  1  0.696756  0.692062  0.867763  1
  Te  Te8  1  0.988620  0.329063  0.381670  1
  I  I9  1  0.321668  0.306191  0.118245  1
  I  I10  1  0.327697  0.340531  0.623794  1
  I  I11  1  0.008936  0.330300  0.872227  1
  I  I12  1  0.671365  0.667031  0.376007  1
  I  I13  1  0.987325  0.658659  0.123471  1
  I  I14  1  0.313603  0.978962  0.872281  1
  I  I15  1  0.683656  0.002903  0.119068  1
