# generated using pymatgen
data_Tb4InPdPt10
_symmetry_space_group_name_H-M   'P 1'
_cell_length_a   4.20659200
_cell_length_b   5.87992954
_cell_length_c   11.70699067
_cell_angle_alpha   88.01831744
_cell_angle_beta   90.00000000
_cell_angle_gamma   90.00000000
_symmetry_Int_Tables_number   1
_chemical_formula_structural   Tb4InPdPt10
_chemical_formula_sum   'Tb4 In1 Pd1 Pt10'
_cell_volume   289.39296617
_cell_formula_units_Z   1
loop_
 _symmetry_equiv_pos_site_id
 _symmetry_equiv_pos_as_xyz
  1  'x, y, z'
loop_
 _atom_site_type_symbol
 _atom_site_label
 _atom_site_symmetry_multiplicity
 _atom_site_fract_x
 _atom_site_fract_y
 _atom_site_fract_z
 _atom_site_occupancy
  Tb  Tb0  1  0.500000  0.755056  0.376072  1
  Tb  Tb1  1  0.500000  0.719013  0.862113  1
  Tb  Tb2  1  0.500000  0.280987  0.137887  1
  Tb  Tb3  1  0.500000  0.244944  0.623928  1
  In  In4  1  0.000000  0.000000  0.000000  1
  Pd  Pd5  1  0.000000  0.000000  0.500000  1
  Pt  Pt6  1  0.000000  0.014354  0.249746  1
  Pt  Pt7  1  0.000000  0.985646  0.750254  1
  Pt  Pt8  1  0.000000  0.500000  0.000000  1
  Pt  Pt9  1  0.000000  0.500000  0.500000  1
  Pt  Pt10  1  0.000000  0.517536  0.250108  1
  Pt  Pt11  1  0.000000  0.482464  0.749892  1
  Pt  Pt12  1  0.500000  0.254714  0.377542  1
  Pt  Pt13  1  0.500000  0.228444  0.881013  1
  Pt  Pt14  1  0.500000  0.771556  0.118987  1
  Pt  Pt15  1  0.500000  0.745286  0.622458  1
