# generated using pymatgen
data_Hf4Ge2PtRh9
_symmetry_space_group_name_H-M   'P 1'
_cell_length_a   4.07232300
_cell_length_b   5.58233520
_cell_length_c   10.94852814
_cell_angle_alpha   89.61081238
_cell_angle_beta   90.00000000
_cell_angle_gamma   90.00000000
_symmetry_Int_Tables_number   1
_chemical_formula_structural   Hf4Ge2PtRh9
_chemical_formula_sum   'Hf4 Ge2 Pt1 Rh9'
_cell_volume   248.88793684
_cell_formula_units_Z   1
loop_
 _symmetry_equiv_pos_site_id
 _symmetry_equiv_pos_as_xyz
  1  'x, y, z'
loop_
 _atom_site_type_symbol
 _atom_site_label
 _atom_site_symmetry_multiplicity
 _atom_site_fract_x
 _atom_site_fract_y
 _atom_site_fract_z
 _atom_site_occupancy
  Hf  Hf0  1  0.500000  0.170225  0.638116  1
  Hf  Hf1  1  0.500000  0.821312  0.357958  1
  Hf  Hf2  1  0.500000  0.685909  0.862670  1
  Hf  Hf3  1  0.500000  0.322260  0.141771  1
  Ge  Ge4  1  0.000000  0.499746  0.496090  1
  Ge  Ge5  1  0.000000  0.001392  0.001585  1
  Pt  Pt6  1  0.000000  0.432699  0.745720  1
  Rh  Rh7  1  0.500000  0.191165  0.892585  1
  Rh  Rh8  1  0.500000  0.812095  0.107192  1
  Rh  Rh9  1  0.500000  0.684058  0.607436  1
  Rh  Rh10  1  0.500000  0.309930  0.393505  1
  Rh  Rh11  1  0.000000  0.569280  0.256149  1
  Rh  Rh12  1  0.000000  0.996412  0.499136  1
  Rh  Rh13  1  0.000000  0.501959  0.000876  1
  Rh  Rh14  1  0.000000  0.069278  0.243130  1
  Rh  Rh15  1  0.000000  0.932282  0.756079  1
