# generated using pymatgen
data_LaPr5Ir7Rh11
_symmetry_space_group_name_H-M   'P 1'
_cell_length_a   5.38309800
_cell_length_b   5.37515136
_cell_length_c   17.74524003
_cell_angle_alpha   90.07531264
_cell_angle_beta   90.00000000
_cell_angle_gamma   120.04890493
_symmetry_Int_Tables_number   1
_chemical_formula_structural   LaPr5Ir7Rh11
_chemical_formula_sum   'La1 Pr5 Ir7 Rh11'
_cell_volume   444.44780206
_cell_formula_units_Z   1
loop_
 _symmetry_equiv_pos_site_id
 _symmetry_equiv_pos_as_xyz
  1  'x, y, z'
loop_
 _atom_site_type_symbol
 _atom_site_label
 _atom_site_symmetry_multiplicity
 _atom_site_fract_x
 _atom_site_fract_y
 _atom_site_fract_z
 _atom_site_occupancy
  La  La0  1  0.666404  0.332807  0.249024  1
  Pr  Pr1  1  0.333490  0.666981  0.541372  1
  Pr  Pr2  1  0.665725  0.331451  0.041385  1
  Pr  Pr3  1  0.666988  0.333976  0.457153  1
  Pr  Pr4  1  0.332517  0.665034  0.957832  1
  Pr  Pr5  1  0.333642  0.667286  0.749004  1
  Ir  Ir6  1  0.166190  0.332378  0.128027  1
  Ir  Ir7  1  0.832658  0.665317  0.626980  1
  Ir  Ir8  1  0.665757  0.831907  0.127922  1
  Ir  Ir9  1  0.166149  0.831907  0.127922  1
  Ir  Ir10  1  0.833395  0.166902  0.628738  1
  Ir  Ir11  1  0.333507  0.166902  0.628738  1
  Ir  Ir12  1  0.835174  0.670347  0.872267  1
  Rh  Rh13  1  0.834664  0.169991  0.872244  1
  Rh  Rh14  1  0.335327  0.169991  0.872244  1
  Rh  Rh15  1  0.666945  0.833343  0.372949  1
  Rh  Rh16  1  0.166399  0.833343  0.372949  1
  Rh  Rh17  1  0.166670  0.333340  0.372990  1
  Rh  Rh18  1  0.999932  0.999865  0.250032  1
  Rh  Rh19  1  0.996878  0.993757  0.749847  1
  Rh  Rh20  1  0.333210  0.666419  0.250219  1
  Rh  Rh21  1  0.669812  0.339624  0.750166  1
  Rh  Rh22  1  0.997440  0.994882  0.999796  1
  Rh  Rh23  1  0.001126  0.002252  0.500199  1
