# generated using pymatgen
data_La2ZnAg3
_symmetry_space_group_name_H-M   'P 1'
_cell_length_a   6.06474554
_cell_length_b   5.97904504
_cell_length_c   5.97904458
_cell_angle_alpha   132.31856919
_cell_angle_beta   104.42498052
_cell_angle_gamma   94.18737249
_symmetry_Int_Tables_number   1
_chemical_formula_structural   La2ZnAg3
_chemical_formula_sum   'La2 Zn1 Ag3'
_cell_volume   146.22123877
_cell_formula_units_Z   1
loop_
 _symmetry_equiv_pos_site_id
 _symmetry_equiv_pos_as_xyz
  1  'x, y, z'
loop_
 _atom_site_type_symbol
 _atom_site_label
 _atom_site_symmetry_multiplicity
 _atom_site_fract_x
 _atom_site_fract_y
 _atom_site_fract_z
 _atom_site_occupancy
  La  La0  1  0.211713  0.463831  0.747882  1
  La  La1  1  0.788055  0.537443  0.250612  1
  Zn  Zn2  1  0.378166  0.832112  0.546055  1
  Ag  Ag3  1  0.615575  0.155241  0.460333  1
  Ag  Ag4  1  0.216454  0.174417  0.042037  1
  Ag  Ag5  1  0.790036  0.836955  0.953081  1
