# generated using pymatgen
data_Lu7In(CoSi3)4
_symmetry_space_group_name_H-M   'P 1'
_cell_length_a   9.97399600
_cell_length_b   9.97399600
_cell_length_c   4.02283300
_cell_angle_alpha   90.00000000
_cell_angle_beta   90.00000000
_cell_angle_gamma   90.00000000
_symmetry_Int_Tables_number   1
_chemical_formula_structural   Lu7In(CoSi3)4
_chemical_formula_sum   'Lu7 In1 Co4 Si12'
_cell_volume   400.19382529
_cell_formula_units_Z   1
loop_
 _symmetry_equiv_pos_site_id
 _symmetry_equiv_pos_as_xyz
  1  'x, y, z'
loop_
 _atom_site_type_symbol
 _atom_site_label
 _atom_site_symmetry_multiplicity
 _atom_site_fract_x
 _atom_site_fract_y
 _atom_site_fract_z
 _atom_site_occupancy
  Lu  Lu0  1  0.000000  0.000000  0.000000  1
  Lu  Lu1  1  0.500000  0.000000  0.500001  1
  Lu  Lu2  1  0.322184  0.320214  0.500001  1
  Lu  Lu3  1  0.679786  0.322184  0.500001  1
  Lu  Lu4  1  0.000000  0.500000  0.500001  1
  Lu  Lu5  1  0.320214  0.677816  0.500001  1
  Lu  Lu6  1  0.677816  0.679786  0.500001  1
  In  In7  1  0.500000  0.500000  0.000000  1
  Co  Co8  1  0.722099  0.119372  0.000000  1
  Co  Co9  1  0.119372  0.277901  0.000000  1
  Co  Co10  1  0.880628  0.722099  0.000000  1
  Co  Co11  1  0.277901  0.880628  0.000000  1
  Si  Si12  1  0.284624  0.110465  0.000000  1
  Si  Si13  1  0.509665  0.208792  0.000000  1
  Si  Si14  1  0.889536  0.284624  0.000000  1
  Si  Si15  1  0.208792  0.490336  0.000000  1
  Si  Si16  1  0.791207  0.509665  0.000000  1
  Si  Si17  1  0.110465  0.715376  0.000000  1
  Si  Si18  1  0.490336  0.791207  0.000000  1
  Si  Si19  1  0.715376  0.889536  0.000000  1
  Si  Si20  1  0.800958  0.054933  0.500001  1
  Si  Si21  1  0.054933  0.199042  0.500001  1
  Si  Si22  1  0.945066  0.800958  0.500001  1
  Si  Si23  1  0.199042  0.945066  0.500001  1
