# generated using pymatgen
data_Er3Lu(CI)2
_symmetry_space_group_name_H-M   'P 1'
_cell_length_a   3.71349400
_cell_length_b   3.71349561
_cell_length_c   14.56063900
_cell_angle_alpha   90.00000000
_cell_angle_beta   90.00000000
_cell_angle_gamma   119.99998566
_symmetry_Int_Tables_number   1
_chemical_formula_structural   Er3Lu(CI)2
_chemical_formula_sum   'Er3 Lu1 C2 I2'
_cell_volume   173.89086605
_cell_formula_units_Z   1
loop_
 _symmetry_equiv_pos_site_id
 _symmetry_equiv_pos_as_xyz
  1  'x, y, z'
loop_
 _atom_site_type_symbol
 _atom_site_label
 _atom_site_symmetry_multiplicity
 _atom_site_fract_x
 _atom_site_fract_y
 _atom_site_fract_z
 _atom_site_occupancy
  Er  Er0  1  0.333333  0.666667  0.584831  1
  Er  Er1  1  0.666667  0.333333  0.414298  1
  Er  Er2  1  0.666667  0.333333  0.084868  1
  Lu  Lu3  1  0.333333  0.666667  0.916731  1
  C  C4  1  0.000000  0.000000  0.997876  1
  C  C5  1  0.000000  0.000000  0.499591  1
  I  I6  1  0.333333  0.666667  0.249779  1
  I  I7  1  0.666667  0.333333  0.752026  1
