# generated using pymatgen
data_AsAu(SeF)6
_symmetry_space_group_name_H-M   'P 1'
_cell_length_a   7.21100300
_cell_length_b   8.99249317
_cell_length_c   11.44244616
_cell_angle_alpha   62.86303899
_cell_angle_beta   90.00000000
_cell_angle_gamma   90.00000000
_symmetry_Int_Tables_number   1
_chemical_formula_structural   AsAu(SeF)6
_chemical_formula_sum   'As2 Au2 Se12 F12'
_cell_volume   660.30567283
_cell_formula_units_Z   2
loop_
 _symmetry_equiv_pos_site_id
 _symmetry_equiv_pos_as_xyz
  1  'x, y, z'
loop_
 _atom_site_type_symbol
 _atom_site_label
 _atom_site_symmetry_multiplicity
 _atom_site_fract_x
 _atom_site_fract_y
 _atom_site_fract_z
 _atom_site_occupancy
  As  As0  1  0.000000  0.000000  0.000000  1
  As  As1  1  0.000000  0.000000  0.500000  1
  Au  Au2  1  0.717080  0.500000  0.750000  1
  Au  Au3  1  0.282920  0.500000  0.250000  1
  Se  Se4  1  0.256486  0.659346  0.375386  1
  Se  Se5  1  0.760877  0.550020  0.396688  1
  Se  Se6  1  0.239123  0.550020  0.896688  1
  Se  Se7  1  0.239123  0.449980  0.603312  1
  Se  Se8  1  0.743514  0.659346  0.875386  1
  Se  Se9  1  0.743514  0.340654  0.624614  1
  Se  Se10  1  0.256486  0.340654  0.124614  1
  Se  Se11  1  0.566275  0.764284  0.378874  1
  Se  Se12  1  0.433725  0.764284  0.878874  1
  Se  Se13  1  0.433725  0.235716  0.621126  1
  Se  Se14  1  0.566275  0.235716  0.121126  1
  Se  Se15  1  0.760877  0.449980  0.103312  1
  F  F16  1  0.905554  0.924958  0.393879  1
  F  F17  1  0.905554  0.075042  0.106121  1
  F  F18  1  0.094446  0.075042  0.606121  1
  F  F19  1  0.094446  0.924958  0.893879  1
  F  F20  1  0.082815  0.795267  0.606064  1
  F  F21  1  0.082815  0.204733  0.893936  1
  F  F22  1  0.917185  0.204733  0.393936  1
  F  F23  1  0.917185  0.795267  0.106064  1
  F  F24  1  0.212701  0.045753  0.411120  1
  F  F25  1  0.212701  0.954247  0.088880  1
  F  F26  1  0.787299  0.954247  0.588880  1
  F  F27  1  0.787299  0.045753  0.911120  1
