# generated using pymatgen
data_CePr4Ho3(Si3Rh)4
_symmetry_space_group_name_H-M   'P 1'
_cell_length_a   8.23608300
_cell_length_b   8.23608316
_cell_length_c   8.19899000
_cell_angle_alpha   90.00000000
_cell_angle_beta   90.00000000
_cell_angle_gamma   120.00000338
_symmetry_Int_Tables_number   1
_chemical_formula_structural   CePr4Ho3(Si3Rh)4
_chemical_formula_sum   'Ce1 Pr4 Ho3 Si12 Rh4'
_cell_volume   481.65093891
_cell_formula_units_Z   1
loop_
 _symmetry_equiv_pos_site_id
 _symmetry_equiv_pos_as_xyz
  1  'x, y, z'
loop_
 _atom_site_type_symbol
 _atom_site_label
 _atom_site_symmetry_multiplicity
 _atom_site_fract_x
 _atom_site_fract_y
 _atom_site_fract_z
 _atom_site_occupancy
  Ce  Ce0  1  0.000000  0.000000  0.750000  1
  Pr  Pr1  1  0.000000  0.000000  0.250000  1
  Pr  Pr2  1  0.504366  0.495634  0.250000  1
  Pr  Pr3  1  0.504366  0.008733  0.250000  1
  Pr  Pr4  1  0.991267  0.495634  0.250000  1
  Ho  Ho5  1  0.492755  0.507245  0.750000  1
  Ho  Ho6  1  0.492755  0.985511  0.750000  1
  Ho  Ho7  1  0.014489  0.507245  0.750000  1
  Si  Si8  1  0.166304  0.833696  0.510483  1
  Si  Si9  1  0.166304  0.332608  0.510483  1
  Si  Si10  1  0.667392  0.833696  0.510483  1
  Si  Si11  1  0.832135  0.167865  0.507466  1
  Si  Si12  1  0.832135  0.664271  0.507466  1
  Si  Si13  1  0.335729  0.167865  0.507466  1
  Si  Si14  1  0.832135  0.167865  0.992534  1
  Si  Si15  1  0.832135  0.664271  0.992534  1
  Si  Si16  1  0.335729  0.167865  0.992534  1
  Si  Si17  1  0.166304  0.833696  0.989517  1
  Si  Si18  1  0.166304  0.332608  0.989517  1
  Si  Si19  1  0.667392  0.833696  0.989517  1
  Rh  Rh20  1  0.333333  0.666667  0.493676  1
  Rh  Rh21  1  0.666667  0.333333  0.545981  1
  Rh  Rh22  1  0.666667  0.333333  0.954019  1
  Rh  Rh23  1  0.333333  0.666667  0.006324  1
