# generated using pymatgen
data_Yb4Al4SiNi9
_symmetry_space_group_name_H-M   'P 1'
_cell_length_a   5.18812383
_cell_length_b   5.18812467
_cell_length_c   11.83413922
_cell_angle_alpha   77.33787012
_cell_angle_beta   77.33786817
_cell_angle_gamma   59.99999722
_symmetry_Int_Tables_number   1
_chemical_formula_structural   Yb4Al4SiNi9
_chemical_formula_sum   'Yb4 Al4 Si1 Ni9'
_cell_volume   266.87673865
_cell_formula_units_Z   1
loop_
 _symmetry_equiv_pos_site_id
 _symmetry_equiv_pos_as_xyz
  1  'x, y, z'
loop_
 _atom_site_type_symbol
 _atom_site_label
 _atom_site_symmetry_multiplicity
 _atom_site_fract_x
 _atom_site_fract_y
 _atom_site_fract_z
 _atom_site_occupancy
  Yb  Yb0  1  0.952840  0.952840  0.141483  1
  Yb  Yb1  1  0.047160  0.047160  0.858517  1
  Yb  Yb2  1  0.855722  0.855722  0.432833  1
  Yb  Yb3  1  0.144278  0.144278  0.567167  1
  Al  Al4  1  0.723646  0.723646  0.829060  1
  Al  Al5  1  0.276354  0.276354  0.170940  1
  Al  Al6  1  0.609925  0.609925  0.170225  1
  Al  Al7  1  0.390075  0.390075  0.829775  1
  Si  Si8  1  0.500000  0.500000  0.500000  1
  Ni  Ni9  1  0.000000  0.500000  0.000000  1
  Ni  Ni10  1  0.500000  0.000000  0.000000  1
  Ni  Ni11  1  0.500000  0.500000  0.000000  1
  Ni  Ni12  1  0.386303  0.386303  0.338928  1
  Ni  Ni13  1  0.888466  0.386303  0.338928  1
  Ni  Ni14  1  0.386303  0.888466  0.338928  1
  Ni  Ni15  1  0.613697  0.613697  0.661072  1
  Ni  Ni16  1  0.111534  0.613697  0.661072  1
  Ni  Ni17  1  0.613697  0.111534  0.661072  1
