# generated using pymatgen
data_Tm4Ru3PtF28
_symmetry_space_group_name_H-M   'P 1'
_cell_length_a   5.46856909
_cell_length_b   8.81925795
_cell_length_c   11.86937878
_cell_angle_alpha   63.04620546
_cell_angle_beta   90.07114256
_cell_angle_gamma   90.09558582
_symmetry_Int_Tables_number   1
_chemical_formula_structural   Tm4Ru3PtF28
_chemical_formula_sum   'Tm4 Ru3 Pt1 F28'
_cell_volume   510.26082558
_cell_formula_units_Z   1
loop_
 _symmetry_equiv_pos_site_id
 _symmetry_equiv_pos_as_xyz
  1  'x, y, z'
loop_
 _atom_site_type_symbol
 _atom_site_label
 _atom_site_symmetry_multiplicity
 _atom_site_fract_x
 _atom_site_fract_y
 _atom_site_fract_z
 _atom_site_occupancy
  Tm  Tm0  1  0.259779  0.814312  0.264748  1
  Tm  Tm1  1  0.741598  0.190158  0.731639  1
  Tm  Tm2  1  0.759481  0.184553  0.235180  1
  Tm  Tm3  1  0.239964  0.815957  0.766823  1
  Ru  Ru4  1  0.757225  0.726946  0.043413  1
  Ru  Ru5  1  0.242480  0.273554  0.956414  1
  Ru  Ru6  1  0.257798  0.273498  0.455757  1
  Pt  Pt7  1  0.741181  0.727725  0.543164  1
  F  F8  1  0.939552  0.703270  0.414315  1
  F  F9  1  0.058179  0.292731  0.585789  1
  F  F10  1  0.443891  0.292030  0.086708  1
  F  F11  1  0.555006  0.708089  0.913255  1
  F  F12  1  0.464518  0.730191  0.139373  1
  F  F13  1  0.535188  0.268746  0.861927  1
  F  F14  1  0.965752  0.271896  0.359578  1
  F  F15  1  0.037314  0.727952  0.637896  1
  F  F16  1  0.957333  0.747080  0.175073  1
  F  F17  1  0.043912  0.252139  0.825386  1
  F  F18  1  0.455734  0.254133  0.324094  1
  F  F19  1  0.545379  0.745409  0.676202  1
  F  F20  1  0.770365  0.484750  0.138726  1
  F  F21  1  0.228668  0.515778  0.860675  1
  F  F22  1  0.270032  0.516804  0.360957  1
  F  F23  1  0.727712  0.478724  0.642248  1
  F  F24  1  0.941945  0.277516  0.048105  1
  F  F25  1  0.058266  0.722182  0.952031  1
  F  F26  1  0.437922  0.720300  0.455124  1
  F  F27  1  0.558912  0.277038  0.546332  1
  F  F28  1  0.742239  0.976630  0.449416  1
  F  F29  1  0.259063  0.031639  0.549387  1
  F  F30  1  0.242068  0.031786  0.049731  1
  F  F31  1  0.758408  0.967910  0.950475  1
  F  F32  1  0.583031  0.969742  0.231914  1
  F  F33  1  0.418637  0.029136  0.768439  1
  F  F34  1  0.083043  0.027093  0.268358  1
  F  F35  1  0.918424  0.972604  0.731348  1
