# generated using pymatgen
data_Tb2Nd3(In2Pd)2
_symmetry_space_group_name_H-M   'P 1'
_cell_length_a   8.26749500
_cell_length_b   18.54984000
_cell_length_c   3.74879600
_cell_angle_alpha   90.00000000
_cell_angle_beta   90.00000000
_cell_angle_gamma   90.00000000
_symmetry_Int_Tables_number   1
_chemical_formula_structural   Tb2Nd3(In2Pd)2
_chemical_formula_sum   'Tb4 Nd6 In8 Pd4'
_cell_volume   574.91801415
_cell_formula_units_Z   2
loop_
 _symmetry_equiv_pos_site_id
 _symmetry_equiv_pos_as_xyz
  1  'x, y, z'
loop_
 _atom_site_type_symbol
 _atom_site_label
 _atom_site_symmetry_multiplicity
 _atom_site_fract_x
 _atom_site_fract_y
 _atom_site_fract_z
 _atom_site_occupancy
  Tb  Tb0  1  0.620450  0.083901  0.000000  1
  Tb  Tb1  1  0.379550  0.916099  0.000000  1
  Tb  Tb2  1  0.879550  0.583901  0.000000  1
  Tb  Tb3  1  0.120450  0.416099  0.000000  1
  Nd  Nd4  1  0.500000  0.500000  0.000000  1
  Nd  Nd5  1  0.000000  0.000000  0.000000  1
  Nd  Nd6  1  0.740493  0.283266  0.000000  1
  Nd  Nd7  1  0.259507  0.716734  0.000000  1
  Nd  Nd8  1  0.759507  0.783266  0.000000  1
  Nd  Nd9  1  0.240493  0.216734  0.000000  1
  In  In10  1  0.699331  0.934589  0.500000  1
  In  In11  1  0.300669  0.065411  0.500000  1
  In  In12  1  0.800669  0.434589  0.500000  1
  In  In13  1  0.199331  0.565411  0.500000  1
  In  In14  1  0.582728  0.651144  0.500000  1
  In  In15  1  0.417272  0.348856  0.500000  1
  In  In16  1  0.917272  0.151144  0.500000  1
  In  In17  1  0.082728  0.848856  0.500000  1
  Pd  Pd18  1  0.526961  0.193473  0.500000  1
  Pd  Pd19  1  0.473039  0.806527  0.500000  1
  Pd  Pd20  1  0.973039  0.693473  0.500000  1
  Pd  Pd21  1  0.026961  0.306527  0.500000  1
