# generated using pymatgen
data_Ta11(GeSe4)2
_symmetry_space_group_name_H-M   'P 1'
_cell_length_a   3.49357000
_cell_length_b   11.98273400
_cell_length_c   19.53390000
_cell_angle_alpha   90.00000000
_cell_angle_beta   90.00000000
_cell_angle_gamma   90.00000000
_symmetry_Int_Tables_number   1
_chemical_formula_structural   Ta11(GeSe4)2
_chemical_formula_sum   'Ta22 Ge4 Se16'
_cell_volume   817.73827983
_cell_formula_units_Z   2
loop_
 _symmetry_equiv_pos_site_id
 _symmetry_equiv_pos_as_xyz
  1  'x, y, z'
loop_
 _atom_site_type_symbol
 _atom_site_label
 _atom_site_symmetry_multiplicity
 _atom_site_fract_x
 _atom_site_fract_y
 _atom_site_fract_z
 _atom_site_occupancy
  Ta  Ta0  1  0.000000  0.566475  0.112772  1
  Ta  Ta1  1  0.000000  0.433525  0.887228  1
  Ta  Ta2  1  0.500000  0.933525  0.612772  1
  Ta  Ta3  1  0.500000  0.066475  0.387228  1
  Ta  Ta4  1  0.000000  0.318766  0.045280  1
  Ta  Ta5  1  0.000000  0.681234  0.954720  1
  Ta  Ta6  1  0.500000  0.181234  0.545280  1
  Ta  Ta7  1  0.500000  0.818766  0.454720  1
  Ta  Ta8  1  0.000000  0.049368  0.256336  1
  Ta  Ta9  1  0.000000  0.950632  0.743664  1
  Ta  Ta10  1  0.500000  0.450632  0.756336  1
  Ta  Ta11  1  0.500000  0.549368  0.243664  1
  Ta  Ta12  1  0.000000  0.000000  0.500000  1
  Ta  Ta13  1  0.500000  0.500000  0.000000  1
  Ta  Ta14  1  0.000000  0.334836  0.215416  1
  Ta  Ta15  1  0.000000  0.665164  0.784584  1
  Ta  Ta16  1  0.500000  0.165164  0.715416  1
  Ta  Ta17  1  0.500000  0.834836  0.284584  1
  Ta  Ta18  1  0.000000  0.325380  0.644519  1
  Ta  Ta19  1  0.000000  0.674620  0.355481  1
  Ta  Ta20  1  0.500000  0.174620  0.144519  1
  Ta  Ta21  1  0.500000  0.825380  0.855481  1
  Ge  Ge22  1  0.000000  0.093564  0.628334  1
  Ge  Ge23  1  0.000000  0.906436  0.371666  1
  Ge  Ge24  1  0.500000  0.406436  0.128334  1
  Ge  Ge25  1  0.500000  0.593564  0.871666  1
  Se  Se26  1  0.000000  0.714162  0.212736  1
  Se  Se27  1  0.000000  0.285838  0.787264  1
  Se  Se28  1  0.500000  0.785838  0.712736  1
  Se  Se29  1  0.500000  0.214162  0.287264  1
  Se  Se30  1  0.000000  0.106472  0.053291  1
  Se  Se31  1  0.000000  0.893528  0.946709  1
  Se  Se32  1  0.500000  0.393528  0.553291  1
  Se  Se33  1  0.500000  0.606472  0.446709  1
  Se  Se34  1  0.000000  0.214685  0.441602  1
  Se  Se35  1  0.000000  0.785315  0.558398  1
  Se  Se36  1  0.500000  0.285315  0.941602  1
  Se  Se37  1  0.500000  0.714685  0.058398  1
  Se  Se38  1  0.000000  0.457601  0.327623  1
  Se  Se39  1  0.000000  0.542399  0.672377  1
  Se  Se40  1  0.500000  0.042399  0.827623  1
  Se  Se41  1  0.500000  0.957601  0.172377  1
