# generated using pymatgen
data_KZr2CuS5
_symmetry_space_group_name_H-M   'P 1'
_cell_length_a   7.42908530
_cell_length_b   7.42908610
_cell_length_c   15.55685300
_cell_angle_alpha   90.00000000
_cell_angle_beta   90.00000000
_cell_angle_gamma   151.24411447
_symmetry_Int_Tables_number   1
_chemical_formula_structural   KZr2CuS5
_chemical_formula_sum   'K2 Zr4 Cu2 S10'
_cell_volume   413.05580164
_cell_formula_units_Z   2
loop_
 _symmetry_equiv_pos_site_id
 _symmetry_equiv_pos_as_xyz
  1  'x, y, z'
loop_
 _atom_site_type_symbol
 _atom_site_label
 _atom_site_symmetry_multiplicity
 _atom_site_fract_x
 _atom_site_fract_y
 _atom_site_fract_z
 _atom_site_occupancy
  K  K0  1  0.038843  0.961157  0.250000  1
  K  K1  1  0.961157  0.038843  0.750000  1
  Zr  Zr2  1  0.210439  0.789561  0.902704  1
  Zr  Zr3  1  0.789561  0.210439  0.402704  1
  Zr  Zr4  1  0.210439  0.789561  0.597296  1
  Zr  Zr5  1  0.789561  0.210439  0.097296  1
  Cu  Cu6  1  0.319729  0.680271  0.250000  1
  Cu  Cu7  1  0.680271  0.319729  0.750000  1
  S  S8  1  0.167457  0.832543  0.438008  1
  S  S9  1  0.832543  0.167457  0.938008  1
  S  S10  1  0.280943  0.719057  0.750000  1
  S  S11  1  0.408909  0.591091  0.371987  1
  S  S12  1  0.167457  0.832543  0.061992  1
  S  S13  1  0.591091  0.408909  0.871987  1
  S  S14  1  0.591091  0.408909  0.628013  1
  S  S15  1  0.408909  0.591091  0.128013  1
  S  S16  1  0.832543  0.167457  0.561992  1
  S  S17  1  0.719057  0.280943  0.250000  1
