# generated using pymatgen
data_Li4Pr8Sc8Si15P
_symmetry_space_group_name_H-M   'P 1'
_cell_length_a   7.06902585
_cell_length_b   7.61068157
_cell_length_c   14.30100900
_cell_angle_alpha   90.00000000
_cell_angle_beta   90.00000000
_cell_angle_gamma   89.78759737
_symmetry_Int_Tables_number   1
_chemical_formula_structural   Li4Pr8Sc8Si15P
_chemical_formula_sum   'Li4 Pr8 Sc8 Si15 P1'
_cell_volume   769.39049531
_cell_formula_units_Z   1
loop_
 _symmetry_equiv_pos_site_id
 _symmetry_equiv_pos_as_xyz
  1  'x, y, z'
loop_
 _atom_site_type_symbol
 _atom_site_label
 _atom_site_symmetry_multiplicity
 _atom_site_fract_x
 _atom_site_fract_y
 _atom_site_fract_z
 _atom_site_occupancy
  Li  Li0  1  0.655643  0.008279  0.750000  1
  Li  Li1  1  0.844054  0.509023  0.250000  1
  Li  Li2  1  0.344347  0.991455  0.250000  1
  Li  Li3  1  0.152842  0.479800  0.750000  1
  Pr  Pr4  1  0.015541  0.180681  0.397515  1
  Pr  Pr5  1  0.515310  0.321036  0.398205  1
  Pr  Pr6  1  0.483056  0.681648  0.894674  1
  Pr  Pr7  1  0.483056  0.681648  0.605326  1
  Pr  Pr8  1  0.986420  0.820512  0.605021  1
  Pr  Pr9  1  0.986420  0.820512  0.894979  1
  Pr  Pr10  1  0.515310  0.321036  0.101795  1
  Pr  Pr11  1  0.015541  0.180681  0.102485  1
  Sc  Sc12  1  0.332453  0.180221  0.625585  1
  Sc  Sc13  1  0.668416  0.816925  0.375776  1
  Sc  Sc14  1  0.167206  0.681915  0.376098  1
  Sc  Sc15  1  0.831576  0.317751  0.876251  1
  Sc  Sc16  1  0.831576  0.317751  0.623749  1
  Sc  Sc17  1  0.332453  0.180221  0.874415  1
  Sc  Sc18  1  0.167206  0.681915  0.123902  1
  Sc  Sc19  1  0.668416  0.816925  0.124224  1
  Si  Si20  1  0.462161  0.618139  0.250000  1
  Si  Si21  1  0.035909  0.118776  0.750000  1
  Si  Si22  1  0.537371  0.382023  0.750000  1
  Si  Si23  1  0.155834  0.462284  0.535256  1
  Si  Si24  1  0.963132  0.883541  0.250000  1
  Si  Si25  1  0.712546  0.096351  0.250000  1
  Si  Si26  1  0.845178  0.538940  0.033022  1
  Si  Si27  1  0.346205  0.961956  0.034093  1
  Si  Si28  1  0.155834  0.462284  0.964744  1
  Si  Si29  1  0.654338  0.036675  0.535025  1
  Si  Si30  1  0.346205  0.961956  0.465907  1
  Si  Si31  1  0.845178  0.538940  0.466978  1
  Si  Si32  1  0.787737  0.595319  0.750000  1
  Si  Si33  1  0.213527  0.403884  0.250000  1
  Si  Si34  1  0.654338  0.036675  0.964975  1
  P  P35  1  0.287670  0.912325  0.750000  1
