# generated using pymatgen
data_SrHoSi4N7
_symmetry_space_group_name_H-M   'P 1'
_cell_length_a   6.04506300
_cell_length_b   6.04506351
_cell_length_c   9.86519500
_cell_angle_alpha   90.00000000
_cell_angle_beta   90.00000000
_cell_angle_gamma   119.99999175
_symmetry_Int_Tables_number   1
_chemical_formula_structural   SrHoSi4N7
_chemical_formula_sum   'Sr2 Ho2 Si8 N14'
_cell_volume   312.20369665
_cell_formula_units_Z   2
loop_
 _symmetry_equiv_pos_site_id
 _symmetry_equiv_pos_as_xyz
  1  'x, y, z'
loop_
 _atom_site_type_symbol
 _atom_site_label
 _atom_site_symmetry_multiplicity
 _atom_site_fract_x
 _atom_site_fract_y
 _atom_site_fract_z
 _atom_site_occupancy
  Sr  Sr0  1  0.666667  0.333333  0.581195  1
  Sr  Sr1  1  0.333333  0.666667  0.081195  1
  Ho  Ho2  1  0.666667  0.333333  0.950722  1
  Ho  Ho3  1  0.333333  0.666667  0.450722  1
  Si  Si4  1  0.174019  0.348037  0.759878  1
  Si  Si5  1  0.825981  0.174019  0.259878  1
  Si  Si6  1  0.348037  0.174019  0.259878  1
  Si  Si7  1  0.651963  0.825981  0.759878  1
  Si  Si8  1  0.174019  0.825981  0.759878  1
  Si  Si9  1  0.825981  0.651963  0.259878  1
  Si  Si10  1  0.000000  0.000000  0.027236  1
  Si  Si11  1  0.000000  0.000000  0.527236  1
  N  N12  1  0.000000  0.000000  0.836171  1
  N  N13  1  0.000000  0.000000  0.336171  1
  N  N14  1  0.846543  0.693087  0.086831  1
  N  N15  1  0.153457  0.846543  0.586831  1
  N  N16  1  0.693087  0.846543  0.586831  1
  N  N17  1  0.306913  0.153457  0.086831  1
  N  N18  1  0.846543  0.153457  0.086831  1
  N  N19  1  0.153457  0.306913  0.586831  1
  N  N20  1  0.489004  0.510996  0.812457  1
  N  N21  1  0.978009  0.489004  0.312457  1
  N  N22  1  0.510996  0.021991  0.312457  1
  N  N23  1  0.489004  0.978009  0.812457  1
  N  N24  1  0.510996  0.489004  0.312457  1
  N  N25  1  0.021991  0.510996  0.812457  1
