# generated using pymatgen
data_AlCr2AgO8
_symmetry_space_group_name_H-M   'P 1'
_cell_length_a   5.07895392
_cell_length_b   5.07895415
_cell_length_c   7.08051914
_cell_angle_alpha   92.34701651
_cell_angle_beta   92.34701419
_cell_angle_gamma   65.21163857
_symmetry_Int_Tables_number   1
_chemical_formula_structural   AlCr2AgO8
_chemical_formula_sum   'Al1 Cr2 Ag1 O8'
_cell_volume   165.62276942
_cell_formula_units_Z   1
loop_
 _symmetry_equiv_pos_site_id
 _symmetry_equiv_pos_as_xyz
  1  'x, y, z'
loop_
 _atom_site_type_symbol
 _atom_site_label
 _atom_site_symmetry_multiplicity
 _atom_site_fract_x
 _atom_site_fract_y
 _atom_site_fract_z
 _atom_site_occupancy
  Al  Al0  1  0.000000  0.000000  0.000000  1
  Cr  Cr1  1  0.348635  0.348635  0.783370  1
  Cr  Cr2  1  0.651365  0.651365  0.216630  1
  Ag  Ag3  1  0.000000  0.000000  0.500000  1
  O  O4  1  0.260801  0.260801  0.574068  1
  O  O5  1  0.739199  0.739199  0.425932  1
  O  O6  1  0.716816  0.203233  0.808106  1
  O  O7  1  0.283184  0.796767  0.191894  1
  O  O8  1  0.796767  0.283184  0.191894  1
  O  O9  1  0.203233  0.716816  0.808106  1
  O  O10  1  0.214845  0.214845  0.944986  1
  O  O11  1  0.785155  0.785155  0.055014  1
