# generated using pymatgen
data_Er3TmTh6(Ge3C)2
_symmetry_space_group_name_H-M   'P 1'
_cell_length_a   8.79705200
_cell_length_b   8.79705019
_cell_length_c   6.38041300
_cell_angle_alpha   90.00000000
_cell_angle_beta   90.00000000
_cell_angle_gamma   119.99999928
_symmetry_Int_Tables_number   1
_chemical_formula_structural   Er3TmTh6(Ge3C)2
_chemical_formula_sum   'Er3 Tm1 Th6 Ge6 C2'
_cell_volume   427.61571283
_cell_formula_units_Z   1
loop_
 _symmetry_equiv_pos_site_id
 _symmetry_equiv_pos_as_xyz
  1  'x, y, z'
loop_
 _atom_site_type_symbol
 _atom_site_label
 _atom_site_symmetry_multiplicity
 _atom_site_fract_x
 _atom_site_fract_y
 _atom_site_fract_z
 _atom_site_occupancy
  Er  Er0  1  0.666667  0.333333  0.000000  1
  Er  Er1  1  0.333333  0.666667  0.000000  1
  Er  Er2  1  0.333333  0.666667  0.500000  1
  Tm  Tm3  1  0.666667  0.333333  0.500000  1
  Th  Th4  1  0.768306  0.768238  0.749909  1
  Th  Th5  1  0.231762  0.000068  0.749909  1
  Th  Th6  1  0.999932  0.231694  0.749909  1
  Th  Th7  1  0.231762  0.231694  0.250091  1
  Th  Th8  1  0.768306  0.000068  0.250091  1
  Th  Th9  1  0.999932  0.768238  0.250091  1
  Ge  Ge10  1  0.403583  0.403377  0.749857  1
  Ge  Ge11  1  0.596623  0.000206  0.749857  1
  Ge  Ge12  1  0.999794  0.596417  0.749857  1
  Ge  Ge13  1  0.596623  0.596417  0.250143  1
  Ge  Ge14  1  0.403583  0.000206  0.250143  1
  Ge  Ge15  1  0.999794  0.403377  0.250143  1
  C  C16  1  0.000000  0.000000  0.000000  1
  C  C17  1  0.000000  0.000000  0.500000  1
