# generated using pymatgen
data_Dy20Ru5Au7
_symmetry_space_group_name_H-M   'P 1'
_cell_length_a   11.20859031
_cell_length_b   11.20859092
_cell_length_c   6.39202752
_cell_angle_alpha   90.26038069
_cell_angle_beta   90.26037651
_cell_angle_gamma   90.61391417
_symmetry_Int_Tables_number   1
_chemical_formula_structural   Dy20Ru5Au7
_chemical_formula_sum   'Dy20 Ru5 Au7'
_cell_volume   802.98355999
_cell_formula_units_Z   1
loop_
 _symmetry_equiv_pos_site_id
 _symmetry_equiv_pos_as_xyz
  1  'x, y, z'
loop_
 _atom_site_type_symbol
 _atom_site_label
 _atom_site_symmetry_multiplicity
 _atom_site_fract_x
 _atom_site_fract_y
 _atom_site_fract_z
 _atom_site_occupancy
  Dy  Dy0  1  0.304937  0.084582  0.360204  1
  Dy  Dy1  1  0.298650  0.917089  0.859427  1
  Dy  Dy2  1  0.708187  0.089083  0.867601  1
  Dy  Dy3  1  0.707702  0.925580  0.354280  1
  Dy  Dy4  1  0.584274  0.802746  0.854094  1
  Dy  Dy5  1  0.594349  0.200781  0.359371  1
  Dy  Dy6  1  0.418381  0.803057  0.355134  1
  Dy  Dy7  1  0.421032  0.198052  0.857225  1
  Dy  Dy8  1  0.197254  0.415726  0.645906  1
  Dy  Dy9  1  0.196943  0.581619  0.144866  1
  Dy  Dy10  1  0.799219  0.405651  0.140629  1
  Dy  Dy11  1  0.801948  0.578968  0.642775  1
  Dy  Dy12  1  0.915418  0.695063  0.139796  1
  Dy  Dy13  1  0.910917  0.291813  0.632399  1
  Dy  Dy14  1  0.082911  0.701350  0.640573  1
  Dy  Dy15  1  0.074420  0.292298  0.145720  1
  Dy  Dy16  1  0.998373  0.008456  0.498536  1
  Dy  Dy17  1  0.991544  0.001627  0.001464  1
  Dy  Dy18  1  0.498467  0.502591  0.000374  1
  Dy  Dy19  1  0.497409  0.501533  0.499626  1
  Ru  Ru20  1  0.849206  0.150794  0.250000  1
  Ru  Ru21  1  0.501537  0.001316  0.108571  1
  Ru  Ru22  1  0.501649  0.000892  0.610996  1
  Ru  Ru23  1  0.999108  0.498351  0.889004  1
  Ru  Ru24  1  0.998684  0.498463  0.391429  1
  Au  Au25  1  0.843355  0.842332  0.744033  1
  Au  Au26  1  0.157668  0.156645  0.755967  1
  Au  Au27  1  0.152856  0.847144  0.250000  1
  Au  Au28  1  0.653192  0.346808  0.750000  1
  Au  Au29  1  0.655140  0.657989  0.252686  1
  Au  Au30  1  0.342011  0.344860  0.247314  1
  Au  Au31  1  0.343256  0.656744  0.750000  1
