# generated using pymatgen
data_Er3Zr4NpF28
_symmetry_space_group_name_H-M   'P 1'
_cell_length_a   5.77136921
_cell_length_b   9.14275317
_cell_length_c   12.28485559
_cell_angle_alpha   62.34785224
_cell_angle_beta   89.95319030
_cell_angle_gamma   89.99474354
_symmetry_Int_Tables_number   1
_chemical_formula_structural   Er3Zr4NpF28
_chemical_formula_sum   'Er3 Zr4 Np1 F28'
_cell_volume   574.18569384
_cell_formula_units_Z   1
loop_
 _symmetry_equiv_pos_site_id
 _symmetry_equiv_pos_as_xyz
  1  'x, y, z'
loop_
 _atom_site_type_symbol
 _atom_site_label
 _atom_site_symmetry_multiplicity
 _atom_site_fract_x
 _atom_site_fract_y
 _atom_site_fract_z
 _atom_site_occupancy
  Er  Er0  1  0.744076  0.818306  0.266193  1
  Er  Er1  1  0.243729  0.183756  0.234051  1
  Er  Er2  1  0.256828  0.191112  0.733228  1
  Zr  Zr3  1  0.743549  0.278837  0.451877  1
  Zr  Zr4  1  0.245177  0.725111  0.050765  1
  Zr  Zr5  1  0.255019  0.725387  0.539954  1
  Zr  Zr6  1  0.755380  0.269722  0.957281  1
  Np  Np7  1  0.757865  0.818176  0.767069  1
  F  F8  1  0.459155  0.708152  0.925687  1
  F  F9  1  0.967097  0.288237  0.577402  1
  F  F10  1  0.530684  0.286252  0.079171  1
  F  F11  1  0.029643  0.711078  0.417767  1
  F  F12  1  0.455075  0.280429  0.550338  1
  F  F13  1  0.955187  0.714936  0.958583  1
  F  F14  1  0.548094  0.720159  0.446534  1
  F  F15  1  0.044892  0.277392  0.052773  1
  F  F16  1  0.769681  0.518379  0.860370  1
  F  F17  1  0.267550  0.473323  0.639941  1
  F  F18  1  0.235099  0.472974  0.144191  1
  F  F19  1  0.732873  0.528403  0.356290  1
  F  F20  1  0.759065  0.019567  0.060442  1
  F  F21  1  0.258753  0.976458  0.439196  1
  F  F22  1  0.240608  0.974936  0.941998  1
  F  F23  1  0.738851  0.028018  0.553033  1
  F  F24  1  0.985060  0.731579  0.643725  1
  F  F25  1  0.485343  0.265120  0.850580  1
  F  F26  1  0.011418  0.264813  0.347865  1
  F  F27  1  0.515026  0.735789  0.154033  1
  F  F28  1  0.030181  0.747787  0.175655  1
  F  F29  1  0.528954  0.253929  0.327074  1
  F  F30  1  0.968841  0.250267  0.828903  1
  F  F31  1  0.459130  0.742067  0.669404  1
  F  F32  1  0.434438  0.976610  0.236027  1
  F  F33  1  0.935107  0.024647  0.263973  1
  F  F34  1  0.566364  0.037980  0.765419  1
  F  F35  1  0.086210  0.980313  0.733207  1
