# generated using pymatgen
data_Ho5Co7(PRu)12
_symmetry_space_group_name_H-M   'P 1'
_cell_length_a   12.36467200
_cell_length_b   12.36467095
_cell_length_c   3.80352100
_cell_angle_alpha   90.00000000
_cell_angle_beta   90.00000000
_cell_angle_gamma   119.99999212
_symmetry_Int_Tables_number   1
_chemical_formula_structural   Ho5Co7(PRu)12
_chemical_formula_sum   'Ho5 Co7 P12 Ru12'
_cell_volume   503.59527666
_cell_formula_units_Z   1
loop_
 _symmetry_equiv_pos_site_id
 _symmetry_equiv_pos_as_xyz
  1  'x, y, z'
loop_
 _atom_site_type_symbol
 _atom_site_label
 _atom_site_symmetry_multiplicity
 _atom_site_fract_x
 _atom_site_fract_y
 _atom_site_fract_z
 _atom_site_occupancy
  Ho  Ho0  1  0.666667  0.333333  0.000000  1
  Ho  Ho1  1  0.333333  0.666667  0.000000  1
  Ho  Ho2  1  0.181816  0.181566  0.500000  1
  Ho  Ho3  1  0.818434  0.000249  0.500000  1
  Ho  Ho4  1  0.999751  0.818184  0.500000  1
  Co  Co5  1  0.194039  0.823934  0.000000  1
  Co  Co6  1  0.629895  0.805961  0.000000  1
  Co  Co7  1  0.176066  0.370105  0.000000  1
  Co  Co8  1  0.716129  0.722846  0.500000  1
  Co  Co9  1  0.277154  0.993284  0.500000  1
  Co  Co10  1  0.006716  0.283871  0.500000  1
  Co  Co11  1  0.000000  0.000000  0.000000  1
  P  P12  1  0.363627  0.366953  0.000000  1
  P  P13  1  0.633047  0.996674  0.000000  1
  P  P14  1  0.003326  0.636373  0.000000  1
  P  P15  1  0.837251  0.312808  0.500000  1
  P  P16  1  0.687192  0.524444  0.500000  1
  P  P17  1  0.475556  0.162749  0.500000  1
  P  P18  1  0.316678  0.839111  0.500000  1
  P  P19  1  0.522433  0.683322  0.500000  1
  P  P20  1  0.160889  0.477567  0.500000  1
  P  P21  1  0.818808  0.824973  0.000000  1
  P  P22  1  0.175027  0.993834  0.000000  1
  P  P23  1  0.006166  0.181192  0.000000  1
  Ru  Ru24  1  0.549956  0.561763  0.000000  1
  Ru  Ru25  1  0.438237  0.988193  0.000000  1
  Ru  Ru26  1  0.011807  0.450044  0.000000  1
  Ru  Ru27  1  0.826656  0.197415  0.000000  1
  Ru  Ru28  1  0.802585  0.629241  0.000000  1
  Ru  Ru29  1  0.370759  0.173344  0.000000  1
  Ru  Ru30  1  0.638535  0.123773  0.500000  1
  Ru  Ru31  1  0.876227  0.514763  0.500000  1
  Ru  Ru32  1  0.485237  0.361465  0.500000  1
  Ru  Ru33  1  0.131386  0.649126  0.500000  1
  Ru  Ru34  1  0.517741  0.868614  0.500000  1
  Ru  Ru35  1  0.350874  0.482259  0.500000  1
