# generated using pymatgen
data_Ir(SeF6)2
_symmetry_space_group_name_H-M   'P 1'
_cell_length_a   6.25520300
_cell_length_b   7.83332100
_cell_length_c   9.97459000
_cell_angle_alpha   90.00000000
_cell_angle_beta   90.00000000
_cell_angle_gamma   90.00000000
_symmetry_Int_Tables_number   1
_chemical_formula_structural   Ir(SeF6)2
_chemical_formula_sum   'Ir2 Se4 F24'
_cell_volume   488.74506527
_cell_formula_units_Z   2
loop_
 _symmetry_equiv_pos_site_id
 _symmetry_equiv_pos_as_xyz
  1  'x, y, z'
loop_
 _atom_site_type_symbol
 _atom_site_label
 _atom_site_symmetry_multiplicity
 _atom_site_fract_x
 _atom_site_fract_y
 _atom_site_fract_z
 _atom_site_occupancy
  Ir  Ir0  1  0.000000  0.500000  0.000000  1
  Ir  Ir1  1  0.500000  0.000000  0.500000  1
  Se  Se2  1  0.500000  0.586110  0.244894  1
  Se  Se3  1  0.500000  0.413890  0.755106  1
  Se  Se4  1  0.000000  0.086110  0.255106  1
  Se  Se5  1  0.000000  0.913890  0.744894  1
  F  F6  1  0.220839  0.363312  0.913132  1
  F  F7  1  0.220839  0.636688  0.086868  1
  F  F8  1  0.279161  0.863312  0.586868  1
  F  F9  1  0.279161  0.136688  0.413132  1
  F  F10  1  0.779161  0.636688  0.086868  1
  F  F11  1  0.779161  0.363312  0.913132  1
  F  F12  1  0.798593  0.969085  0.856757  1
  F  F13  1  0.798593  0.030915  0.143243  1
  F  F14  1  0.701407  0.469085  0.643243  1
  F  F15  1  0.701407  0.530915  0.356757  1
  F  F16  1  0.201407  0.030915  0.143243  1
  F  F17  1  0.201407  0.969085  0.856757  1
  F  F18  1  0.298593  0.530915  0.356757  1
  F  F19  1  0.298593  0.469085  0.643243  1
  F  F20  1  0.000000  0.657572  0.840670  1
  F  F21  1  0.000000  0.342428  0.159330  1
  F  F22  1  0.500000  0.157572  0.659330  1
  F  F23  1  0.500000  0.842428  0.340670  1
  F  F24  1  0.500000  0.618363  0.825833  1
  F  F25  1  0.500000  0.381637  0.174167  1
  F  F26  1  0.000000  0.118363  0.674167  1
  F  F27  1  0.000000  0.881637  0.325833  1
  F  F28  1  0.720839  0.863312  0.586868  1
  F  F29  1  0.720839  0.136688  0.413132  1
