# generated using pymatgen
data_DyHo7Zn3Si12Rh
_symmetry_space_group_name_H-M   'P 1'
_cell_length_a   8.09874726
_cell_length_b   8.09558985
_cell_length_c   8.05332208
_cell_angle_alpha   89.99999802
_cell_angle_beta   89.98637752
_cell_angle_gamma   119.98709514
_symmetry_Int_Tables_number   1
_chemical_formula_structural   DyHo7Zn3Si12Rh
_chemical_formula_sum   'Dy1 Ho7 Zn3 Si12 Rh1'
_cell_volume   457.32873170
_cell_formula_units_Z   1
loop_
 _symmetry_equiv_pos_site_id
 _symmetry_equiv_pos_as_xyz
  1  'x, y, z'
loop_
 _atom_site_type_symbol
 _atom_site_label
 _atom_site_symmetry_multiplicity
 _atom_site_fract_x
 _atom_site_fract_y
 _atom_site_fract_z
 _atom_site_occupancy
  Dy  Dy0  1  0.994731  0.497366  0.749973  1
  Ho  Ho1  1  0.999996  0.999998  0.248581  1
  Ho  Ho2  1  0.999979  0.999989  0.751056  1
  Ho  Ho3  1  0.999897  0.499949  0.250199  1
  Ho  Ho4  1  0.500050  0.499959  0.250204  1
  Ho  Ho5  1  0.502756  0.005540  0.749824  1
  Ho  Ho6  1  0.500050  0.000092  0.250204  1
  Ho  Ho7  1  0.502756  0.497216  0.749824  1
  Zn  Zn8  1  0.333564  0.666782  0.993273  1
  Zn  Zn9  1  0.333544  0.666772  0.503538  1
  Zn  Zn10  1  0.666479  0.333239  0.008269  1
  Si  Si11  1  0.166677  0.333084  0.001006  1
  Si  Si12  1  0.666830  0.833415  0.000929  1
  Si  Si13  1  0.163268  0.326312  0.500921  1
  Si  Si14  1  0.333664  0.166832  0.998777  1
  Si  Si15  1  0.166677  0.833593  0.001006  1
  Si  Si16  1  0.673627  0.836813  0.500976  1
  Si  Si17  1  0.833062  0.666412  0.998874  1
  Si  Si18  1  0.340024  0.170012  0.498597  1
  Si  Si19  1  0.163268  0.836955  0.500921  1
  Si  Si20  1  0.829867  0.660053  0.498480  1
  Si  Si21  1  0.833062  0.166651  0.998874  1
  Si  Si22  1  0.829867  0.169814  0.498480  1
  Rh  Rh23  1  0.666305  0.333152  0.497214  1
