# generated using pymatgen
data_Tb3LuTh6(Ge3C)2
_symmetry_space_group_name_H-M   'P 1'
_cell_length_a   8.81489000
_cell_length_b   8.81446345
_cell_length_c   6.40919401
_cell_angle_alpha   90.00047084
_cell_angle_beta   89.99994438
_cell_angle_gamma   120.00002293
_symmetry_Int_Tables_number   1
_chemical_formula_structural   Tb3LuTh6(Ge3C)2
_chemical_formula_sum   'Tb3 Lu1 Th6 Ge6 C2'
_cell_volume   431.26749676
_cell_formula_units_Z   1
loop_
 _symmetry_equiv_pos_site_id
 _symmetry_equiv_pos_as_xyz
  1  'x, y, z'
loop_
 _atom_site_type_symbol
 _atom_site_label
 _atom_site_symmetry_multiplicity
 _atom_site_fract_x
 _atom_site_fract_y
 _atom_site_fract_z
 _atom_site_occupancy
  Tb  Tb0  1  0.666666  0.333332  0.500001  1
  Tb  Tb1  1  0.333336  0.666667  0.500003  1
  Tb  Tb2  1  0.333326  0.666662  0.000000  1
  Lu  Lu3  1  0.666668  0.333321  0.999983  1
  Th  Th4  1  0.769094  0.768795  0.249620  1
  Th  Th5  1  0.231183  0.000282  0.249625  1
  Th  Th6  1  0.999722  0.230910  0.249624  1
  Th  Th7  1  0.231191  0.230928  0.750375  1
  Th  Th8  1  0.769096  0.000294  0.750386  1
  Th  Th9  1  0.999713  0.768816  0.750379  1
  Ge  Ge10  1  0.403830  0.402333  0.248744  1
  Ge  Ge11  1  0.597665  0.001490  0.248745  1
  Ge  Ge12  1  0.998512  0.596165  0.248751  1
  Ge  Ge13  1  0.597662  0.596170  0.751259  1
  Ge  Ge14  1  0.403832  0.001491  0.751255  1
  Ge  Ge15  1  0.998504  0.402343  0.751248  1
  C  C16  1  0.999999  0.000001  0.499998  1
  C  C17  1  0.999999  0.000000  0.000003  1
