# generated using pymatgen
data_Pr3InHg2Pt3
_symmetry_space_group_name_H-M   'P 1'
_cell_length_a   7.93482623
_cell_length_b   7.93482498
_cell_length_c   3.95556300
_cell_angle_alpha   90.00000000
_cell_angle_beta   90.00000000
_cell_angle_gamma   120.77235575
_symmetry_Int_Tables_number   1
_chemical_formula_structural   Pr3InHg2Pt3
_chemical_formula_sum   'Pr3 In1 Hg2 Pt3'
_cell_volume   213.98375701
_cell_formula_units_Z   1
loop_
 _symmetry_equiv_pos_site_id
 _symmetry_equiv_pos_as_xyz
  1  'x, y, z'
loop_
 _atom_site_type_symbol
 _atom_site_label
 _atom_site_symmetry_multiplicity
 _atom_site_fract_x
 _atom_site_fract_y
 _atom_site_fract_z
 _atom_site_occupancy
  Pr  Pr0  1  0.595706  0.004648  0.000000  1
  Pr  Pr1  1  0.004648  0.595706  0.000000  1
  Pr  Pr2  1  0.396426  0.396426  0.000000  1
  In  In3  1  0.744417  0.744417  0.500000  1
  Hg  Hg4  1  0.259681  0.997797  0.500000  1
  Hg  Hg5  1  0.997797  0.259681  0.500000  1
  Pt  Pt6  1  0.345939  0.668672  0.500000  1
  Pt  Pt7  1  0.668672  0.345939  0.500000  1
  Pt  Pt8  1  0.986714  0.986714  0.000000  1
