# generated using pymatgen
data_Ca11TlSb9
_symmetry_space_group_name_H-M   'P 1'
_cell_length_a   12.10785993
_cell_length_b   12.10786007
_cell_length_c   12.10786000
_cell_angle_alpha   120.90366404
_cell_angle_beta   117.14998455
_cell_angle_gamma   91.72386436
_symmetry_Int_Tables_number   1
_chemical_formula_structural   Ca11TlSb9
_chemical_formula_sum   'Ca22 Tl2 Sb18'
_cell_volume   1271.31802486
_cell_formula_units_Z   2
loop_
 _symmetry_equiv_pos_site_id
 _symmetry_equiv_pos_as_xyz
  1  'x, y, z'
loop_
 _atom_site_type_symbol
 _atom_site_label
 _atom_site_symmetry_multiplicity
 _atom_site_fract_x
 _atom_site_fract_y
 _atom_site_fract_z
 _atom_site_occupancy
  Ca  Ca0  1  0.432740  0.225420  0.351038  1
  Ca  Ca1  1  0.874382  0.081702  0.648962  1
  Ca  Ca2  1  0.932740  0.581702  0.207320  1
  Ca  Ca3  1  0.374382  0.725420  0.792680  1
  Ca  Ca4  1  0.571762  0.943472  0.264450  1
  Ca  Ca5  1  0.679021  0.307311  0.735550  1
  Ca  Ca6  1  0.071762  0.807311  0.628290  1
  Ca  Ca7  1  0.179021  0.443472  0.371710  1
  Ca  Ca8  1  0.109262  0.920460  0.354852  1
  Ca  Ca9  1  0.565609  0.754411  0.645148  1
  Ca  Ca10  1  0.609262  0.254411  0.188802  1
  Ca  Ca11  1  0.065609  0.420460  0.811198  1
  Ca  Ca12  1  0.310855  0.683841  0.258343  1
  Ca  Ca13  1  0.425498  0.052512  0.741657  1
  Ca  Ca14  1  0.810855  0.552512  0.627014  1
  Ca  Ca15  1  0.925498  0.183841  0.372986  1
  Ca  Ca16  1  0.819522  0.158374  0.988136  1
  Ca  Ca17  1  0.170237  0.831386  0.011864  1
  Ca  Ca18  1  0.319522  0.331386  0.661148  1
  Ca  Ca19  1  0.670237  0.658374  0.338852  1
  Ca  Ca20  1  0.668609  0.668609  0.000000  1
  Ca  Ca21  1  0.168609  0.168609  0.000000  1
  Tl  Tl22  1  0.380383  0.380383  0.000000  1
  Tl  Tl23  1  0.880383  0.880383  0.000000  1
  Sb  Sb24  1  0.383221  0.638305  0.015363  1
  Sb  Sb25  1  0.622942  0.367858  0.984637  1
  Sb  Sb26  1  0.883221  0.867858  0.744917  1
  Sb  Sb27  1  0.122942  0.138305  0.255083  1
  Sb  Sb28  1  0.748212  0.248212  0.500000  1
  Sb  Sb29  1  0.248212  0.748212  0.500000  1
  Sb  Sb30  1  0.502810  0.503626  0.647202  1
  Sb  Sb31  1  0.856424  0.855608  0.352798  1
  Sb  Sb32  1  0.002810  0.355608  0.999185  1
  Sb  Sb33  1  0.356424  0.003626  0.000815  1
  Sb  Sb34  1  0.384009  0.029296  0.427159  1
  Sb  Sb35  1  0.602137  0.956849  0.572841  1
  Sb  Sb36  1  0.884009  0.456849  0.354712  1
  Sb  Sb37  1  0.102137  0.529296  0.645288  1
  Sb  Sb38  1  0.151183  0.142628  0.689526  1
  Sb  Sb39  1  0.453102  0.461657  0.310474  1
  Sb  Sb40  1  0.651183  0.961657  0.008555  1
  Sb  Sb41  1  0.953102  0.642628  0.991445  1
