# generated using pymatgen
data_DyHo2Th(AlRh)4
_symmetry_space_group_name_H-M   'P 1'
_cell_length_a   4.22198300
_cell_length_b   6.93388365
_cell_length_c   8.03686902
_cell_angle_alpha   90.06278842
_cell_angle_beta   90.00000000
_cell_angle_gamma   90.00000000
_symmetry_Int_Tables_number   1
_chemical_formula_structural   DyHo2Th(AlRh)4
_chemical_formula_sum   'Dy1 Ho2 Th1 Al4 Rh4'
_cell_volume   235.27710072
_cell_formula_units_Z   1
loop_
 _symmetry_equiv_pos_site_id
 _symmetry_equiv_pos_as_xyz
  1  'x, y, z'
loop_
 _atom_site_type_symbol
 _atom_site_label
 _atom_site_symmetry_multiplicity
 _atom_site_fract_x
 _atom_site_fract_y
 _atom_site_fract_z
 _atom_site_occupancy
  Dy  Dy0  1  0.250000  0.040358  0.322849  1
  Ho  Ho1  1  0.750000  0.457839  0.813886  1
  Ho  Ho2  1  0.750000  0.958571  0.680148  1
  Th  Th3  1  0.250000  0.539235  0.176220  1
  Al  Al4  1  0.250000  0.633105  0.565077  1
  Al  Al5  1  0.750000  0.360618  0.444442  1
  Al  Al6  1  0.750000  0.876958  0.057804  1
  Al  Al7  1  0.250000  0.131788  0.936641  1
  Rh  Rh8  1  0.250000  0.760354  0.882038  1
  Rh  Rh9  1  0.750000  0.245292  0.122761  1
  Rh  Rh10  1  0.750000  0.735793  0.376417  1
  Rh  Rh11  1  0.250000  0.260089  0.621714  1
