# generated using pymatgen
data_Tm3Nb2Sn3O
_symmetry_space_group_name_H-M   'P 1'
_cell_length_a   8.52346800
_cell_length_b   8.52346679
_cell_length_c   5.79571600
_cell_angle_alpha   90.00000000
_cell_angle_beta   90.00000000
_cell_angle_gamma   119.99999692
_symmetry_Int_Tables_number   1
_chemical_formula_structural   Tm3Nb2Sn3O
_chemical_formula_sum   'Tm6 Nb4 Sn6 O2'
_cell_volume   364.64507297
_cell_formula_units_Z   2
loop_
 _symmetry_equiv_pos_site_id
 _symmetry_equiv_pos_as_xyz
  1  'x, y, z'
loop_
 _atom_site_type_symbol
 _atom_site_label
 _atom_site_symmetry_multiplicity
 _atom_site_fract_x
 _atom_site_fract_y
 _atom_site_fract_z
 _atom_site_occupancy
  Tm  Tm0  1  0.000000  0.769173  0.750000  1
  Tm  Tm1  1  0.000000  0.230827  0.250000  1
  Tm  Tm2  1  0.230827  0.230827  0.750000  1
  Tm  Tm3  1  0.230827  0.000000  0.250000  1
  Tm  Tm4  1  0.769173  0.769173  0.250000  1
  Tm  Tm5  1  0.769173  0.000000  0.750000  1
  Nb  Nb6  1  0.333333  0.666667  0.000000  1
  Nb  Nb7  1  0.333333  0.666667  0.500000  1
  Nb  Nb8  1  0.666667  0.333333  0.000000  1
  Nb  Nb9  1  0.666667  0.333333  0.500000  1
  Sn  Sn10  1  0.000000  0.591793  0.250000  1
  Sn  Sn11  1  0.000000  0.408207  0.750000  1
  Sn  Sn12  1  0.408207  0.408207  0.250000  1
  Sn  Sn13  1  0.591793  0.591793  0.750000  1
  Sn  Sn14  1  0.408207  0.000000  0.750000  1
  Sn  Sn15  1  0.591793  0.000000  0.250000  1
  O  O16  1  0.000000  0.000000  0.000000  1
  O  O17  1  0.000000  0.000000  0.500000  1
