# generated using pymatgen
data_MgCdHg8(PBr2)4
_symmetry_space_group_name_H-M   'P 1'
_cell_length_a   12.69336361
_cell_length_b   7.85388203
_cell_length_c   7.90918831
_cell_angle_alpha   62.19094996
_cell_angle_beta   90.12616176
_cell_angle_gamma   90.19156262
_symmetry_Int_Tables_number   1
_chemical_formula_structural   MgCdHg8(PBr2)4
_chemical_formula_sum   'Mg1 Cd1 Hg8 P4 Br8'
_cell_volume   697.41597103
_cell_formula_units_Z   1
loop_
 _symmetry_equiv_pos_site_id
 _symmetry_equiv_pos_as_xyz
  1  'x, y, z'
loop_
 _atom_site_type_symbol
 _atom_site_label
 _atom_site_symmetry_multiplicity
 _atom_site_fract_x
 _atom_site_fract_y
 _atom_site_fract_z
 _atom_site_occupancy
  Mg  Mg0  1  0.835591  0.997169  0.004267  1
  Cd  Cd1  1  0.333140  0.000367  0.998233  1
  Hg  Hg2  1  0.792445  0.672327  0.667798  1
  Hg  Hg3  1  0.551079  0.026373  0.571446  1
  Hg  Hg4  1  0.048993  0.975030  0.428187  1
  Hg  Hg5  1  0.555829  0.517175  0.053675  1
  Hg  Hg6  1  0.292355  0.328097  0.331934  1
  Hg  Hg7  1  0.023541  0.474281  0.448036  1
  Hg  Hg8  1  0.524663  0.525060  0.552241  1
  Hg  Hg9  1  0.054478  0.481706  0.946213  1
  P  P10  1  0.481735  0.349542  0.374906  1
  P  P11  1  0.604196  0.689646  0.716874  1
  P  P12  1  0.981016  0.650342  0.624365  1
  P  P13  1  0.103471  0.311438  0.282827  1
  Br  Br14  1  0.241937  0.320539  0.750238  1
  Br  Br15  1  0.312889  0.716230  0.913900  1
  Br  Br16  1  0.029227  0.897796  0.064118  1
  Br  Br17  1  0.743672  0.691724  0.238350  1
  Br  Br18  1  0.535733  0.110663  0.932325  1
  Br  Br19  1  0.815682  0.270531  0.083451  1
  Br  Br20  1  0.808740  0.107713  0.652843  1
  Br  Br21  1  0.307049  0.886250  0.363776  1
