# generated using pymatgen
data_Al8TcIr4Rh3
_symmetry_space_group_name_H-M   'P 1'
_cell_length_a   6.03185400
_cell_length_b   4.25713600
_cell_length_c   8.54724000
_cell_angle_alpha   89.99996638
_cell_angle_beta   90.00102351
_cell_angle_gamma   89.99971025
_symmetry_Int_Tables_number   1
_chemical_formula_structural   Al8TcIr4Rh3
_chemical_formula_sum   'Al8 Tc1 Ir4 Rh3'
_cell_volume   219.47964256
_cell_formula_units_Z   1
loop_
 _symmetry_equiv_pos_site_id
 _symmetry_equiv_pos_as_xyz
  1  'x, y, z'
loop_
 _atom_site_type_symbol
 _atom_site_label
 _atom_site_symmetry_multiplicity
 _atom_site_fract_x
 _atom_site_fract_y
 _atom_site_fract_z
 _atom_site_occupancy
  Al  Al0  1  0.496097  0.750001  0.125000  1
  Al  Al1  1  0.003902  0.750001  0.125001  1
  Al  Al2  1  0.497327  0.249998  0.371878  1
  Al  Al3  1  0.002673  0.249996  0.371880  1
  Al  Al4  1  0.001138  0.750004  0.625000  1
  Al  Al5  1  0.498860  0.750003  0.625002  1
  Al  Al6  1  0.002671  0.249999  0.878114  1
  Al  Al7  1  0.497328  0.250000  0.878116  1
  Tc  Tc8  1  0.250013  0.249994  0.125009  1
  Ir  Ir9  1  0.749996  0.249996  0.124996  1
  Ir  Ir10  1  0.250002  0.749997  0.379514  1
  Ir  Ir11  1  0.749998  0.250003  0.625001  1
  Ir  Ir12  1  0.249997  0.750004  0.870485  1
  Rh  Rh13  1  0.749999  0.749992  0.377911  1
  Rh  Rh14  1  0.249991  0.250002  0.625010  1
  Rh  Rh15  1  0.750005  0.750002  0.872081  1
