# generated using pymatgen
data_Sm7ErSc11Si16Hg
_symmetry_space_group_name_H-M   'P 1'
_cell_length_a   7.13083232
_cell_length_b   7.46499360
_cell_length_c   14.15005903
_cell_angle_alpha   89.92012543
_cell_angle_beta   89.96643341
_cell_angle_gamma   89.82084291
_symmetry_Int_Tables_number   1
_chemical_formula_structural   Sm7ErSc11Si16Hg
_chemical_formula_sum   'Sm7 Er1 Sc11 Si16 Hg1'
_cell_volume   753.22599017
_cell_formula_units_Z   1
loop_
 _symmetry_equiv_pos_site_id
 _symmetry_equiv_pos_as_xyz
  1  'x, y, z'
loop_
 _atom_site_type_symbol
 _atom_site_label
 _atom_site_symmetry_multiplicity
 _atom_site_fract_x
 _atom_site_fract_y
 _atom_site_fract_z
 _atom_site_occupancy
  Sm  Sm0  1  0.991120  0.818841  0.901235  1
  Sm  Sm1  1  0.481828  0.671947  0.900821  1
  Sm  Sm2  1  0.991022  0.818844  0.599373  1
  Sm  Sm3  1  0.511999  0.324922  0.097847  1
  Sm  Sm4  1  0.010363  0.171524  0.402826  1
  Sm  Sm5  1  0.511854  0.325458  0.401729  1
  Sm  Sm6  1  0.482436  0.672207  0.599651  1
  Er  Er7  1  0.011556  0.173259  0.098617  1
  Sc  Sc8  1  0.839030  0.498791  0.249381  1
  Sc  Sc9  1  0.339118  0.001887  0.249562  1
  Sc  Sc10  1  0.658287  0.000514  0.750025  1
  Sc  Sc11  1  0.326255  0.183658  0.625041  1
  Sc  Sc12  1  0.671694  0.823834  0.375170  1
  Sc  Sc13  1  0.170190  0.679900  0.373134  1
  Sc  Sc14  1  0.671769  0.824494  0.124270  1
  Sc  Sc15  1  0.837439  0.325313  0.625139  1
  Sc  Sc16  1  0.325720  0.183625  0.875226  1
  Sc  Sc17  1  0.837856  0.324269  0.875131  1
  Sc  Sc18  1  0.169899  0.680398  0.126342  1
  Si  Si19  1  0.029753  0.103353  0.750269  1
  Si  Si20  1  0.967017  0.883416  0.249102  1
  Si  Si21  1  0.466648  0.622232  0.249777  1
  Si  Si22  1  0.547094  0.374902  0.750148  1
  Si  Si23  1  0.292311  0.897526  0.750083  1
  Si  Si24  1  0.714295  0.123074  0.248489  1
  Si  Si25  1  0.210410  0.375805  0.248857  1
  Si  Si26  1  0.770998  0.625126  0.750168  1
  Si  Si27  1  0.157738  0.459044  0.528654  1
  Si  Si28  1  0.845092  0.536597  0.461326  1
  Si  Si29  1  0.347000  0.964810  0.461726  1
  Si  Si30  1  0.845898  0.534179  0.039531  1
  Si  Si31  1  0.655287  0.033657  0.540833  1
  Si  Si32  1  0.157026  0.456109  0.972375  1
  Si  Si33  1  0.655766  0.033973  0.959223  1
  Si  Si34  1  0.343377  0.966684  0.038982  1
  Hg  Hg35  1  0.154860  0.505827  0.749936  1
