# generated using pymatgen
data_Tb15ErInAg3(PdRh)2
_symmetry_space_group_name_H-M   'P 1'
_cell_length_a   9.58868855
_cell_length_b   9.63084621
_cell_length_c   9.59022700
_cell_angle_alpha   60.13942324
_cell_angle_beta   59.99469585
_cell_angle_gamma   59.88814080
_symmetry_Int_Tables_number   1
_chemical_formula_structural   Tb15ErInAg3(PdRh)2
_chemical_formula_sum   'Tb15 Er1 In1 Ag3 Pd2 Rh2'
_cell_volume   626.33458220
_cell_formula_units_Z   1
loop_
 _symmetry_equiv_pos_site_id
 _symmetry_equiv_pos_as_xyz
  1  'x, y, z'
loop_
 _atom_site_type_symbol
 _atom_site_label
 _atom_site_symmetry_multiplicity
 _atom_site_fract_x
 _atom_site_fract_y
 _atom_site_fract_z
 _atom_site_occupancy
  Tb  Tb0  1  0.808875  0.191533  0.807591  1
  Tb  Tb1  1  0.191793  0.186311  0.810921  1
  Tb  Tb2  1  0.646629  0.056012  0.646487  1
  Tb  Tb3  1  0.068851  0.062773  0.433224  1
  Tb  Tb4  1  0.436161  0.435528  0.063943  1
  Tb  Tb5  1  0.646439  0.651464  0.646044  1
  Tb  Tb6  1  0.810104  0.186595  0.194442  1
  Tb  Tb7  1  0.191564  0.811915  0.810989  1
  Tb  Tb8  1  0.063050  0.646964  0.642517  1
  Tb  Tb9  1  0.436732  0.063158  0.064552  1
  Tb  Tb10  1  0.438476  0.062795  0.434443  1
  Tb  Tb11  1  0.069477  0.434697  0.062452  1
  Tb  Tb12  1  0.642674  0.648363  0.060784  1
  Tb  Tb13  1  0.186878  0.813025  0.187967  1
  Tb  Tb14  1  0.068991  0.436080  0.432610  1
  Er  Er15  1  0.811214  0.807596  0.194153  1
  In  In16  1  0.737282  0.420962  0.420904  1
  Ag  Ag17  1  0.415695  0.417006  0.417959  1
  Ag  Ag18  1  0.415786  0.417212  0.748803  1
  Ag  Ag19  1  0.415080  0.750025  0.417539  1
  Pd  Pd20  1  0.855834  0.431911  0.856750  1
  Pd  Pd21  1  0.855987  0.854834  0.859023  1
  Rh  Rh22  1  0.856217  0.855974  0.428988  1
  Rh  Rh23  1  0.430212  0.857264  0.856908  1
