# generated using pymatgen
data_NdDyP7Ru12
_symmetry_space_group_name_H-M   'P 1'
_cell_length_a   9.43655800
_cell_length_b   9.43655668
_cell_length_c   3.97241600
_cell_angle_alpha   90.00000000
_cell_angle_beta   90.00000000
_cell_angle_gamma   119.99999763
_symmetry_Int_Tables_number   1
_chemical_formula_structural   NdDyP7Ru12
_chemical_formula_sum   'Nd1 Dy1 P7 Ru12'
_cell_volume   306.34622333
_cell_formula_units_Z   1
loop_
 _symmetry_equiv_pos_site_id
 _symmetry_equiv_pos_as_xyz
  1  'x, y, z'
loop_
 _atom_site_type_symbol
 _atom_site_label
 _atom_site_symmetry_multiplicity
 _atom_site_fract_x
 _atom_site_fract_y
 _atom_site_fract_z
 _atom_site_occupancy
  Nd  Nd0  1  0.333333  0.666667  0.000000  1
  Dy  Dy1  1  0.666667  0.333333  0.500000  1
  P  P2  1  0.604154  0.718376  0.500000  1
  P  P3  1  0.000000  0.000000  0.000000  1
  P  P4  1  0.281624  0.885778  0.500000  1
  P  P5  1  0.114222  0.395846  0.500000  1
  P  P6  1  0.886442  0.572660  0.000000  1
  P  P7  1  0.427340  0.313782  0.000000  1
  P  P8  1  0.686218  0.113558  0.000000  1
  Ru  Ru9  1  0.559260  0.953846  0.500000  1
  Ru  Ru10  1  0.394588  0.440740  0.500000  1
  Ru  Ru11  1  0.914607  0.120043  0.500000  1
  Ru  Ru12  1  0.205436  0.085393  0.500000  1
  Ru  Ru13  1  0.879957  0.794564  0.500000  1
  Ru  Ru14  1  0.728968  0.892792  0.000000  1
  Ru  Ru15  1  0.107208  0.836175  0.000000  1
  Ru  Ru16  1  0.163825  0.271032  0.000000  1
  Ru  Ru17  1  0.422327  0.068022  0.000000  1
  Ru  Ru18  1  0.931978  0.354306  0.000000  1
  Ru  Ru19  1  0.645694  0.577673  0.000000  1
  Ru  Ru20  1  0.046154  0.605412  0.500000  1
