# generated using pymatgen
data_Nd3ThSe6
_symmetry_space_group_name_H-M   'P 1'
_cell_length_a   11.50413100
_cell_length_b   4.14380700
_cell_length_c   11.26800100
_cell_angle_alpha   90.00000000
_cell_angle_beta   90.00000000
_cell_angle_gamma   90.00000000
_symmetry_Int_Tables_number   1
_chemical_formula_structural   Nd3ThSe6
_chemical_formula_sum   'Nd6 Th2 Se12'
_cell_volume   537.15573272
_cell_formula_units_Z   2
loop_
 _symmetry_equiv_pos_site_id
 _symmetry_equiv_pos_as_xyz
  1  'x, y, z'
loop_
 _atom_site_type_symbol
 _atom_site_label
 _atom_site_symmetry_multiplicity
 _atom_site_fract_x
 _atom_site_fract_y
 _atom_site_fract_z
 _atom_site_occupancy
  Nd  Nd0  1  0.484712  0.250000  0.186748  1
  Nd  Nd1  1  0.984712  0.250000  0.313252  1
  Nd  Nd2  1  0.513935  0.750000  0.813570  1
  Nd  Nd3  1  0.013935  0.750000  0.686430  1
  Nd  Nd4  1  0.693968  0.750000  0.492917  1
  Nd  Nd5  1  0.193968  0.750000  0.007083  1
  Th  Th6  1  0.308306  0.250000  0.499381  1
  Th  Th7  1  0.808306  0.250000  0.000619  1
  Se  Se8  1  0.545261  0.250000  0.624217  1
  Se  Se9  1  0.045261  0.250000  0.875783  1
  Se  Se10  1  0.450921  0.750000  0.374598  1
  Se  Se11  1  0.950921  0.750000  0.125402  1
  Se  Se12  1  0.622566  0.750000  0.053911  1
  Se  Se13  1  0.122566  0.750000  0.446089  1
  Se  Se14  1  0.378039  0.250000  0.945877  1
  Se  Se15  1  0.878039  0.250000  0.554123  1
  Se  Se16  1  0.725756  0.250000  0.294692  1
  Se  Se17  1  0.225756  0.250000  0.205308  1
  Se  Se18  1  0.276536  0.750000  0.695626  1
  Se  Se19  1  0.776536  0.750000  0.804374  1
