# generated using pymatgen
data_Na2CoNi11P7
_symmetry_space_group_name_H-M   'P 1'
_cell_length_a   3.57975600
_cell_length_b   9.06212713
_cell_length_c   9.05801613
_cell_angle_alpha   119.91684222
_cell_angle_beta   90.00000000
_cell_angle_gamma   90.00000000
_symmetry_Int_Tables_number   1
_chemical_formula_structural   Na2CoNi11P7
_chemical_formula_sum   'Na2 Co1 Ni11 P7'
_cell_volume   254.68924504
_cell_formula_units_Z   1
loop_
 _symmetry_equiv_pos_site_id
 _symmetry_equiv_pos_as_xyz
  1  'x, y, z'
loop_
 _atom_site_type_symbol
 _atom_site_label
 _atom_site_symmetry_multiplicity
 _atom_site_fract_x
 _atom_site_fract_y
 _atom_site_fract_z
 _atom_site_occupancy
  Na  Na0  1  0.000000  0.666486  0.333472  1
  Na  Na1  1  0.500000  0.334667  0.667994  1
  Co  Co2  1  0.000000  0.844885  0.120376  1
  Ni  Ni3  1  0.000000  0.377831  0.941880  1
  Ni  Ni4  1  0.000000  0.060672  0.435913  1
  Ni  Ni5  1  0.000000  0.565853  0.624728  1
  Ni  Ni6  1  0.000000  0.880214  0.724412  1
  Ni  Ni7  1  0.000000  0.274159  0.154383  1
  Ni  Ni8  1  0.500000  0.950334  0.567437  1
  Ni  Ni9  1  0.500000  0.430700  0.381324  1
  Ni  Ni10  1  0.500000  0.618948  0.050979  1
  Ni  Ni11  1  0.500000  0.119787  0.908161  1
  Ni  Ni12  1  0.500000  0.093108  0.215024  1
  Ni  Ni13  1  0.500000  0.781613  0.875349  1
  P  P14  1  0.000000  0.118842  0.707887  1
  P  P15  1  0.000000  0.293118  0.411147  1
  P  P16  1  0.000000  0.593037  0.884424  1
  P  P17  1  0.500000  0.705349  0.592874  1
  P  P18  1  0.500000  0.404706  0.110561  1
  P  P19  1  0.500000  0.888701  0.290633  1
  P  P20  1  0.000000  0.996989  0.001036  1
