# generated using pymatgen
data_Ta12Mn5Cr(Si3C2)2
_symmetry_space_group_name_H-M   'P 1'
_cell_length_a   8.08755373
_cell_length_b   8.07679109
_cell_length_c   8.07684931
_cell_angle_alpha   119.72864378
_cell_angle_beta   120.27739342
_cell_angle_gamma   89.95709194
_symmetry_Int_Tables_number   1
_chemical_formula_structural   Ta12Mn5Cr(Si3C2)2
_chemical_formula_sum   'Ta12 Mn5 Cr1 Si6 C4'
_cell_volume   373.16059997
_cell_formula_units_Z   1
loop_
 _symmetry_equiv_pos_site_id
 _symmetry_equiv_pos_as_xyz
  1  'x, y, z'
loop_
 _atom_site_type_symbol
 _atom_site_label
 _atom_site_symmetry_multiplicity
 _atom_site_fract_x
 _atom_site_fract_y
 _atom_site_fract_z
 _atom_site_occupancy
  Ta  Ta0  1  0.068694  0.068790  0.999932  1
  Ta  Ta1  1  0.678693  0.677746  0.000954  1
  Ta  Ta2  1  0.677799  0.071620  0.001656  1
  Ta  Ta3  1  0.068083  0.678313  0.998564  1
  Ta  Ta4  1  0.068074  0.069524  0.389751  1
  Ta  Ta5  1  0.677780  0.676147  0.606178  1
  Ta  Ta6  1  0.427213  0.927607  0.499598  1
  Ta  Ta7  1  0.820205  0.319247  0.500971  1
  Ta  Ta8  1  0.821936  0.930996  0.501902  1
  Ta  Ta9  1  0.428139  0.320845  0.497844  1
  Ta  Ta10  1  0.428146  0.930305  0.107315  1
  Ta  Ta11  1  0.821955  0.320051  0.890962  1
  Mn  Mn12  1  0.247767  0.499544  0.748221  1
  Mn  Mn13  1  0.755815  0.502361  0.253466  1
  Mn  Mn14  1  0.246362  0.502467  0.251932  1
  Mn  Mn15  1  0.246352  0.994455  0.743910  1
  Mn  Mn16  1  0.449571  0.299187  0.150435  1
  Cr  Cr17  1  0.154940  0.299794  0.854900  1
  Si  Si18  1  0.458183  0.292114  0.836748  1
  Si  Si19  1  0.458157  0.621423  0.166064  1
  Si  Si20  1  0.040311  0.709034  0.331270  1
  Si  Si21  1  0.377603  0.708780  0.668823  1
  Si  Si22  1  0.040220  0.707262  0.666467  1
  Si  Si23  1  0.040226  0.373763  0.332959  1
  C  C24  1  0.747916  0.999363  0.748563  1
  C  C25  1  0.252283  0.000691  0.251598  1
  C  C26  1  0.748788  0.000087  0.250310  1
  C  C27  1  0.748791  0.498483  0.748708  1
