# generated using pymatgen
data_Tb4Dy4Hf11Si16Tc
_symmetry_space_group_name_H-M   'P 1'
_cell_length_a   7.25304358
_cell_length_b   7.25247734
_cell_length_c   13.28729609
_cell_angle_alpha   89.94130115
_cell_angle_beta   90.04779007
_cell_angle_gamma   90.04672380
_symmetry_Int_Tables_number   1
_chemical_formula_structural   Tb4Dy4Hf11Si16Tc
_chemical_formula_sum   'Tb4 Dy4 Hf11 Si16 Tc1'
_cell_volume   698.94460493
_cell_formula_units_Z   1
loop_
 _symmetry_equiv_pos_site_id
 _symmetry_equiv_pos_as_xyz
  1  'x, y, z'
loop_
 _atom_site_type_symbol
 _atom_site_label
 _atom_site_symmetry_multiplicity
 _atom_site_fract_x
 _atom_site_fract_y
 _atom_site_fract_z
 _atom_site_occupancy
  Tb  Tb0  1  0.845621  0.501254  0.966373  1
  Tb  Tb1  1  0.495204  0.156569  0.534516  1
  Tb  Tb2  1  0.342636  0.998855  0.787846  1
  Tb  Tb3  1  0.656086  0.004445  0.282970  1
  Dy  Dy4  1  0.999113  0.342770  0.212161  1
  Dy  Dy5  1  0.004350  0.655926  0.716917  1
  Dy  Dy6  1  0.156376  0.495433  0.465391  1
  Dy  Dy7  1  0.501055  0.845704  0.033701  1
  Hf  Hf8  1  0.825346  0.825124  0.500035  1
  Hf  Hf9  1  0.324221  0.674560  0.248588  1
  Hf  Hf10  1  0.674708  0.324394  0.751381  1
  Hf  Hf11  1  0.148442  0.997194  0.373103  1
  Hf  Hf12  1  0.853241  0.004816  0.877604  1
  Hf  Hf13  1  0.503465  0.648053  0.625075  1
  Hf  Hf14  1  0.349921  0.494129  0.877176  1
  Hf  Hf15  1  0.493983  0.350044  0.122800  1
  Hf  Hf16  1  0.648079  0.503525  0.374933  1
  Hf  Hf17  1  0.997245  0.148424  0.626869  1
  Hf  Hf18  1  0.004867  0.853300  0.122406  1
  Si  Si19  1  0.361698  0.295224  0.316071  1
  Si  Si20  1  0.637262  0.705138  0.818075  1
  Si  Si21  1  0.205111  0.862096  0.567376  1
  Si  Si22  1  0.136863  0.795366  0.932484  1
  Si  Si23  1  0.795435  0.136729  0.067643  1
  Si  Si24  1  0.862591  0.205451  0.432651  1
  Si  Si25  1  0.294825  0.362207  0.683958  1
  Si  Si26  1  0.705101  0.637083  0.181784  1
  Si  Si27  1  0.293686  0.052506  0.181807  1
  Si  Si28  1  0.704305  0.951412  0.685884  1
  Si  Si29  1  0.450078  0.795847  0.435010  1
  Si  Si30  1  0.205186  0.547962  0.064528  1
  Si  Si31  1  0.547986  0.204989  0.935610  1
  Si  Si32  1  0.796301  0.450366  0.565011  1
  Si  Si33  1  0.052518  0.293904  0.818021  1
  Si  Si34  1  0.951708  0.703878  0.314154  1
  Tc  Tc35  1  0.175388  0.175327  0.000088  1
