# generated using pymatgen
data_TbYb3ErSi4
_symmetry_space_group_name_H-M   'P 1'
_cell_length_a   7.40609400
_cell_length_b   7.80133100
_cell_length_c   15.11528300
_cell_angle_alpha   90.00000000
_cell_angle_beta   90.00000000
_cell_angle_gamma   90.00000000
_symmetry_Int_Tables_number   1
_chemical_formula_structural   TbYb3ErSi4
_chemical_formula_sum   'Tb4 Yb12 Er4 Si16'
_cell_volume   873.32161160
_cell_formula_units_Z   4
loop_
 _symmetry_equiv_pos_site_id
 _symmetry_equiv_pos_as_xyz
  1  'x, y, z'
loop_
 _atom_site_type_symbol
 _atom_site_label
 _atom_site_symmetry_multiplicity
 _atom_site_fract_x
 _atom_site_fract_y
 _atom_site_fract_z
 _atom_site_occupancy
  Tb  Tb0  1  0.314398  0.177220  0.121036  1
  Tb  Tb1  1  0.814398  0.322780  0.378964  1
  Tb  Tb2  1  0.185602  0.677220  0.878964  1
  Tb  Tb3  1  0.685602  0.822780  0.621036  1
  Yb  Yb4  1  0.973082  0.815841  0.403837  1
  Yb  Yb5  1  0.473082  0.684159  0.096163  1
  Yb  Yb6  1  0.526918  0.315841  0.596163  1
  Yb  Yb7  1  0.026918  0.184159  0.903837  1
  Yb  Yb8  1  0.028001  0.184234  0.596389  1
  Yb  Yb9  1  0.528001  0.315766  0.903611  1
  Yb  Yb10  1  0.471999  0.684234  0.403611  1
  Yb  Yb11  1  0.971999  0.815766  0.096389  1
  Yb  Yb12  1  0.353140  0.020149  0.749779  1
  Yb  Yb13  1  0.853140  0.479851  0.750221  1
  Yb  Yb14  1  0.146860  0.520149  0.250221  1
  Yb  Yb15  1  0.646860  0.979851  0.249779  1
  Er  Er16  1  0.313799  0.176125  0.378747  1
  Er  Er17  1  0.813799  0.323875  0.121253  1
  Er  Er18  1  0.186201  0.676125  0.621253  1
  Er  Er19  1  0.686201  0.823875  0.878747  1
  Si  Si20  1  0.860600  0.533298  0.538752  1
  Si  Si21  1  0.360600  0.966702  0.961248  1
  Si  Si22  1  0.639400  0.033298  0.461248  1
  Si  Si23  1  0.139400  0.466702  0.038752  1
  Si  Si24  1  0.144677  0.466567  0.462014  1
  Si  Si25  1  0.644677  0.033433  0.037986  1
  Si  Si26  1  0.355323  0.966567  0.537986  1
  Si  Si27  1  0.855323  0.533433  0.962014  1
  Si  Si28  1  0.977949  0.883289  0.750414  1
  Si  Si29  1  0.477949  0.616711  0.749586  1
  Si  Si30  1  0.522051  0.383289  0.249586  1
  Si  Si31  1  0.022051  0.116711  0.250414  1
  Si  Si32  1  0.249481  0.394702  0.749469  1
  Si  Si33  1  0.749481  0.105298  0.750531  1
  Si  Si34  1  0.250519  0.894702  0.250531  1
  Si  Si35  1  0.750519  0.605298  0.249469  1
