# generated using pymatgen
data_Li8Ac7NdPb8
_symmetry_space_group_name_H-M   'P 1'
_cell_length_a   9.95244500
_cell_length_b   9.95244594
_cell_length_c   8.25261700
_cell_angle_alpha   90.00000000
_cell_angle_beta   90.00000000
_cell_angle_gamma   120.00000019
_symmetry_Int_Tables_number   1
_chemical_formula_structural   Li8Ac7NdPb8
_chemical_formula_sum   'Li8 Ac7 Nd1 Pb8'
_cell_volume   707.91633658
_cell_formula_units_Z   1
loop_
 _symmetry_equiv_pos_site_id
 _symmetry_equiv_pos_as_xyz
  1  'x, y, z'
loop_
 _atom_site_type_symbol
 _atom_site_label
 _atom_site_symmetry_multiplicity
 _atom_site_fract_x
 _atom_site_fract_y
 _atom_site_fract_z
 _atom_site_occupancy
  Li  Li0  1  0.166048  0.332097  0.283694  1
  Li  Li1  1  0.166048  0.833952  0.283694  1
  Li  Li2  1  0.667903  0.833952  0.283694  1
  Li  Li3  1  0.835167  0.670333  0.794075  1
  Li  Li4  1  0.835167  0.164833  0.794075  1
  Li  Li5  1  0.329667  0.164833  0.794075  1
  Li  Li6  1  0.333333  0.666667  0.669473  1
  Li  Li7  1  0.666667  0.333333  0.165221  1
  Ac  Ac8  1  0.513494  0.026990  0.495426  1
  Ac  Ac9  1  0.513494  0.486506  0.495426  1
  Ac  Ac10  1  0.973010  0.486506  0.495426  1
  Ac  Ac11  1  0.486277  0.972553  0.995426  1
  Ac  Ac12  1  0.486277  0.513723  0.995426  1
  Ac  Ac13  1  0.027447  0.513723  0.995426  1
  Ac  Ac14  1  0.000000  0.000000  0.501320  1
  Nd  Nd15  1  0.000000  0.000000  0.003833  1
  Pb  Pb16  1  0.165404  0.330810  0.728456  1
  Pb  Pb17  1  0.165404  0.834596  0.728456  1
  Pb  Pb18  1  0.669190  0.834596  0.728456  1
  Pb  Pb19  1  0.836175  0.672349  0.217751  1
  Pb  Pb20  1  0.836175  0.163825  0.217751  1
  Pb  Pb21  1  0.327651  0.163825  0.217751  1
  Pb  Pb22  1  0.333333  0.666667  0.281222  1
  Pb  Pb23  1  0.666667  0.333333  0.776420  1
