# generated using pymatgen
data_Ho10In8AgRh3
_symmetry_space_group_name_H-M   'P 1'
_cell_length_a   8.11770497
_cell_length_b   18.33415902
_cell_length_c   3.60210300
_cell_angle_alpha   90.00000000
_cell_angle_beta   90.00000000
_cell_angle_gamma   90.07307659
_symmetry_Int_Tables_number   1
_chemical_formula_structural   Ho10In8AgRh3
_chemical_formula_sum   'Ho10 In8 Ag1 Rh3'
_cell_volume   536.10521403
_cell_formula_units_Z   1
loop_
 _symmetry_equiv_pos_site_id
 _symmetry_equiv_pos_as_xyz
  1  'x, y, z'
loop_
 _atom_site_type_symbol
 _atom_site_label
 _atom_site_symmetry_multiplicity
 _atom_site_fract_x
 _atom_site_fract_y
 _atom_site_fract_z
 _atom_site_occupancy
  Ho  Ho0  1  0.499086  0.502257  0.000000  1
  Ho  Ho1  1  0.001255  0.997639  0.000000  1
  Ho  Ho2  1  0.768370  0.285542  0.000000  1
  Ho  Ho3  1  0.249897  0.721185  0.000000  1
  Ho  Ho4  1  0.751223  0.777410  0.000000  1
  Ho  Ho5  1  0.225380  0.222348  0.000000  1
  Ho  Ho6  1  0.624897  0.076151  0.000000  1
  Ho  Ho7  1  0.381049  0.909687  0.000000  1
  Ho  Ho8  1  0.879347  0.589634  0.000000  1
  Ho  Ho9  1  0.121511  0.415902  0.000000  1
  In  In10  1  0.707056  0.927690  0.500000  1
  In  In11  1  0.295186  0.066323  0.500000  1
  In  In12  1  0.796620  0.436273  0.500000  1
  In  In13  1  0.203467  0.568933  0.500000  1
  In  In14  1  0.567086  0.650718  0.500000  1
  In  In15  1  0.427880  0.351775  0.500000  1
  In  In16  1  0.922549  0.149020  0.500000  1
  In  In17  1  0.069071  0.848678  0.500000  1
  Ag  Ag18  1  0.531129  0.197868  0.500000  1
  Rh  Rh19  1  0.473161  0.802832  0.500000  1
  Rh  Rh20  1  0.974179  0.695839  0.500000  1
  Rh  Rh21  1  0.030602  0.306297  0.500000  1
