# generated using pymatgen
data_LaNdCu2(Ni3Pt)2
_symmetry_space_group_name_H-M   'P 1'
_cell_length_a   4.05657400
_cell_length_b   5.19324204
_cell_length_c   8.69320894
_cell_angle_alpha   93.56913820
_cell_angle_beta   90.00000000
_cell_angle_gamma   90.00000000
_symmetry_Int_Tables_number   1
_chemical_formula_structural   LaNdCu2(Ni3Pt)2
_chemical_formula_sum   'La1 Nd1 Cu2 Ni6 Pt2'
_cell_volume   182.78262580
_cell_formula_units_Z   1
loop_
 _symmetry_equiv_pos_site_id
 _symmetry_equiv_pos_as_xyz
  1  'x, y, z'
loop_
 _atom_site_type_symbol
 _atom_site_label
 _atom_site_symmetry_multiplicity
 _atom_site_fract_x
 _atom_site_fract_y
 _atom_site_fract_z
 _atom_site_occupancy
  La  La0  1  0.000000  0.997827  0.000743  1
  Nd  Nd1  1  0.000000  0.498003  0.500233  1
  Cu  Cu2  1  0.000000  0.977961  0.342860  1
  Cu  Cu3  1  0.000000  0.476500  0.839451  1
  Ni  Ni4  1  0.000000  0.525446  0.159020  1
  Ni  Ni5  1  0.000000  0.022965  0.657674  1
  Ni  Ni6  1  0.500000  0.500021  0.000760  1
  Ni  Ni7  1  0.500000  0.000275  0.500800  1
  Ni  Ni8  1  0.500000  0.749647  0.251093  1
  Ni  Ni9  1  0.500000  0.248818  0.748359  1
  Pt  Pt10  1  0.500000  0.253503  0.251519  1
  Pt  Pt11  1  0.500000  0.749033  0.747487  1
