# generated using pymatgen
data_La5CoPb2
_symmetry_space_group_name_H-M   'P 1'
_cell_length_a   8.50406600
_cell_length_b   9.28455600
_cell_length_c   13.00214800
_cell_angle_alpha   90.00000000
_cell_angle_beta   90.00000000
_cell_angle_gamma   90.00000000
_symmetry_Int_Tables_number   1
_chemical_formula_structural   La5CoPb2
_chemical_formula_sum   'La20 Co4 Pb8'
_cell_volume   1026.60379957
_cell_formula_units_Z   4
loop_
 _symmetry_equiv_pos_site_id
 _symmetry_equiv_pos_as_xyz
  1  'x, y, z'
loop_
 _atom_site_type_symbol
 _atom_site_label
 _atom_site_symmetry_multiplicity
 _atom_site_fract_x
 _atom_site_fract_y
 _atom_site_fract_z
 _atom_site_occupancy
  La  La0  1  0.351941  0.750000  0.696594  1
  La  La1  1  0.648059  0.250000  0.303406  1
  La  La2  1  0.851941  0.250000  0.803406  1
  La  La3  1  0.148059  0.750000  0.196594  1
  La  La4  1  0.883368  0.750000  0.809785  1
  La  La5  1  0.116632  0.250000  0.190215  1
  La  La6  1  0.383368  0.250000  0.690215  1
  La  La7  1  0.616632  0.750000  0.309785  1
  La  La8  1  0.681086  0.533218  0.566175  1
  La  La9  1  0.318914  0.466782  0.433825  1
  La  La10  1  0.181086  0.466782  0.933825  1
  La  La11  1  0.318914  0.033218  0.433825  1
  La  La12  1  0.818914  0.533218  0.066175  1
  La  La13  1  0.681086  0.966782  0.566175  1
  La  La14  1  0.818914  0.966782  0.066175  1
  La  La15  1  0.181086  0.033218  0.933825  1
  La  La16  1  0.056721  0.750000  0.496314  1
  La  La17  1  0.943279  0.250000  0.503686  1
  La  La18  1  0.556721  0.250000  0.003686  1
  La  La19  1  0.443279  0.750000  0.996314  1
  Co  Co20  1  0.074898  0.750000  0.991955  1
  Co  Co21  1  0.925102  0.250000  0.008045  1
  Co  Co22  1  0.574898  0.250000  0.508045  1
  Co  Co23  1  0.425102  0.750000  0.491955  1
  Pb  Pb24  1  0.573231  0.506619  0.827095  1
  Pb  Pb25  1  0.426769  0.493381  0.172905  1
  Pb  Pb26  1  0.073231  0.493381  0.672905  1
  Pb  Pb27  1  0.426769  0.006619  0.172905  1
  Pb  Pb28  1  0.926769  0.506619  0.327095  1
  Pb  Pb29  1  0.573231  0.993381  0.827095  1
  Pb  Pb30  1  0.926769  0.993381  0.327095  1
  Pb  Pb31  1  0.073231  0.006619  0.672905  1
