# generated using pymatgen
data_Dy11Y5Cd4TcNi3
_symmetry_space_group_name_H-M   'P 1'
_cell_length_a   9.61428380
_cell_length_b   9.61417082
_cell_length_c   9.61416955
_cell_angle_alpha   59.46807334
_cell_angle_beta   59.46851166
_cell_angle_gamma   59.46850536
_symmetry_Int_Tables_number   1
_chemical_formula_structural   Dy11Y5Cd4TcNi3
_chemical_formula_sum   'Dy11 Y5 Cd4 Tc1 Ni3'
_cell_volume   620.78547037
_cell_formula_units_Z   1
loop_
 _symmetry_equiv_pos_site_id
 _symmetry_equiv_pos_as_xyz
  1  'x, y, z'
loop_
 _atom_site_type_symbol
 _atom_site_label
 _atom_site_symmetry_multiplicity
 _atom_site_fract_x
 _atom_site_fract_y
 _atom_site_fract_z
 _atom_site_occupancy
  Dy  Dy0  1  0.597266  0.597321  0.597321  1
  Dy  Dy1  1  0.601839  0.601839  0.203954  1
  Dy  Dy2  1  0.601839  0.203954  0.601839  1
  Dy  Dy3  1  0.203979  0.601844  0.601844  1
  Dy  Dy4  1  0.061496  0.437560  0.437560  1
  Dy  Dy5  1  0.437434  0.060669  0.060669  1
  Dy  Dy6  1  0.437536  0.061496  0.437576  1
  Dy  Dy7  1  0.060684  0.437453  0.060666  1
  Dy  Dy8  1  0.437536  0.437576  0.061496  1
  Dy  Dy9  1  0.060684  0.060666  0.437453  1
  Dy  Dy10  1  0.186291  0.815124  0.815124  1
  Y  Y11  1  0.805391  0.189383  0.189383  1
  Y  Y12  1  0.815172  0.186237  0.815147  1
  Y  Y13  1  0.189369  0.805400  0.189349  1
  Y  Y14  1  0.815172  0.815147  0.186237  1
  Y  Y15  1  0.189369  0.189349  0.805400  1
  Cd  Cd16  1  0.829626  0.829617  0.829617  1
  Cd  Cd17  1  0.829467  0.829475  0.506189  1
  Cd  Cd18  1  0.829467  0.506189  0.829475  1
  Cd  Cd19  1  0.506163  0.829476  0.829476  1
  Tc  Tc20  1  0.393916  0.393920  0.393920  1
  Ni  Ni21  1  0.392288  0.392287  0.825729  1
  Ni  Ni22  1  0.392288  0.825729  0.392287  1
  Ni  Ni23  1  0.825726  0.392286  0.392286  1
