# generated using pymatgen
data_Li4La3DySi8
_symmetry_space_group_name_H-M   'P 1'
_cell_length_a   3.89764300
_cell_length_b   7.77922986
_cell_length_c   10.60185570
_cell_angle_alpha   89.90504481
_cell_angle_beta   90.00000000
_cell_angle_gamma   90.00000000
_symmetry_Int_Tables_number   1
_chemical_formula_structural   Li4La3DySi8
_chemical_formula_sum   'Li4 La3 Dy1 Si8'
_cell_volume   321.45482916
_cell_formula_units_Z   1
loop_
 _symmetry_equiv_pos_site_id
 _symmetry_equiv_pos_as_xyz
  1  'x, y, z'
loop_
 _atom_site_type_symbol
 _atom_site_label
 _atom_site_symmetry_multiplicity
 _atom_site_fract_x
 _atom_site_fract_y
 _atom_site_fract_z
 _atom_site_occupancy
  Li  Li0  1  0.250000  0.994600  0.389605  1
  Li  Li1  1  0.750000  0.003785  0.611094  1
  Li  Li2  1  0.250000  0.495404  0.106923  1
  Li  Li3  1  0.750000  0.508918  0.890571  1
  La  La4  1  0.750000  0.863134  0.135504  1
  La  La5  1  0.250000  0.637531  0.637912  1
  La  La6  1  0.750000  0.359640  0.364627  1
  Dy  Dy7  1  0.250000  0.131954  0.864612  1
  Si  Si8  1  0.750000  0.271832  0.063129  1
  Si  Si9  1  0.250000  0.736710  0.929281  1
  Si  Si10  1  0.750000  0.772410  0.429130  1
  Si  Si11  1  0.250000  0.221161  0.577556  1
  Si  Si12  1  0.750000  0.841816  0.822110  1
  Si  Si13  1  0.250000  0.166492  0.170810  1
  Si  Si14  1  0.750000  0.329068  0.684064  1
  Si  Si15  1  0.250000  0.665546  0.323072  1
