# generated using pymatgen
data_La3Nb(Co4P3)2
_symmetry_space_group_name_H-M   'P 1'
_cell_length_a   3.80746000
_cell_length_b   10.84625200
_cell_length_c   12.61649700
_cell_angle_alpha   90.00000000
_cell_angle_beta   90.00000000
_cell_angle_gamma   90.00000000
_symmetry_Int_Tables_number   1
_chemical_formula_structural   La3Nb(Co4P3)2
_chemical_formula_sum   'La6 Nb2 Co16 P12'
_cell_volume   521.01932124
_cell_formula_units_Z   2
loop_
 _symmetry_equiv_pos_site_id
 _symmetry_equiv_pos_as_xyz
  1  'x, y, z'
loop_
 _atom_site_type_symbol
 _atom_site_label
 _atom_site_symmetry_multiplicity
 _atom_site_fract_x
 _atom_site_fract_y
 _atom_site_fract_z
 _atom_site_occupancy
  La  La0  1  0.000000  0.500000  0.527396  1
  La  La1  1  0.500000  0.000000  0.472604  1
  La  La2  1  0.500000  0.820377  0.206640  1
  La  La3  1  0.500000  0.179623  0.206640  1
  La  La4  1  0.000000  0.679623  0.793360  1
  La  La5  1  0.000000  0.320377  0.793360  1
  Nb  Nb6  1  0.500000  0.500000  0.152697  1
  Nb  Nb7  1  0.000000  0.000000  0.847303  1
  Co  Co8  1  0.500000  0.500000  0.703784  1
  Co  Co9  1  0.000000  0.000000  0.296216  1
  Co  Co10  1  0.000000  0.500000  0.987427  1
  Co  Co11  1  0.500000  0.000000  0.012573  1
  Co  Co12  1  0.500000  0.332410  0.993156  1
  Co  Co13  1  0.500000  0.667590  0.993156  1
  Co  Co14  1  0.000000  0.167590  0.006844  1
  Co  Co15  1  0.000000  0.832410  0.006844  1
  Co  Co16  1  0.500000  0.296297  0.432042  1
  Co  Co17  1  0.500000  0.703703  0.432042  1
  Co  Co18  1  0.000000  0.203703  0.567958  1
  Co  Co19  1  0.000000  0.796297  0.567958  1
  Co  Co20  1  0.500000  0.881245  0.705913  1
  Co  Co21  1  0.500000  0.118755  0.705913  1
  Co  Co22  1  0.000000  0.618755  0.294087  1
  Co  Co23  1  0.000000  0.381245  0.294087  1
  P  P24  1  0.500000  0.500000  0.889056  1
  P  P25  1  0.000000  0.000000  0.110944  1
  P  P26  1  0.500000  0.500000  0.348661  1
  P  P27  1  0.000000  0.000000  0.651339  1
  P  P28  1  0.500000  0.301575  0.612224  1
  P  P29  1  0.500000  0.698425  0.612224  1
  P  P30  1  0.000000  0.198425  0.387776  1
  P  P31  1  0.000000  0.801575  0.387776  1
  P  P32  1  0.500000  0.844101  0.897945  1
  P  P33  1  0.500000  0.155899  0.897945  1
  P  P34  1  0.000000  0.655899  0.102055  1
  P  P35  1  0.000000  0.344101  0.102055  1
