# generated using pymatgen
data_YbDyNiRh3
_symmetry_space_group_name_H-M   'P 1'
_cell_length_a   5.19694141
_cell_length_b   5.19694042
_cell_length_c   5.19694100
_cell_angle_alpha   62.30710256
_cell_angle_beta   62.30712079
_cell_angle_gamma   62.30709581
_symmetry_Int_Tables_number   1
_chemical_formula_structural   YbDyNiRh3
_chemical_formula_sum   'Yb1 Dy1 Ni1 Rh3'
_cell_volume   104.35970255
_cell_formula_units_Z   1
loop_
 _symmetry_equiv_pos_site_id
 _symmetry_equiv_pos_as_xyz
  1  'x, y, z'
loop_
 _atom_site_type_symbol
 _atom_site_label
 _atom_site_symmetry_multiplicity
 _atom_site_fract_x
 _atom_site_fract_y
 _atom_site_fract_z
 _atom_site_occupancy
  Yb  Yb0  1  0.126787  0.126787  0.126787  1
  Dy  Dy1  1  0.873540  0.873540  0.873540  1
  Ni  Ni2  1  0.500103  0.500103  0.500103  1
  Rh  Rh3  1  0.499651  0.000270  0.499651  1
  Rh  Rh4  1  0.000270  0.499651  0.499651  1
  Rh  Rh5  1  0.499651  0.499651  0.000270  1
