# generated using pymatgen
data_Y4CrSi8Tc5
_symmetry_space_group_name_H-M   'P 1'
_cell_length_a   6.80219756
_cell_length_b   6.75321947
_cell_length_c   6.79391692
_cell_angle_alpha   70.00512116
_cell_angle_beta   90.00609399
_cell_angle_gamma   89.83121235
_symmetry_Int_Tables_number   1
_chemical_formula_structural   Y4CrSi8Tc5
_chemical_formula_sum   'Y4 Cr1 Si8 Tc5'
_cell_volume   293.27705752
_cell_formula_units_Z   1
loop_
 _symmetry_equiv_pos_site_id
 _symmetry_equiv_pos_as_xyz
  1  'x, y, z'
loop_
 _atom_site_type_symbol
 _atom_site_label
 _atom_site_symmetry_multiplicity
 _atom_site_fract_x
 _atom_site_fract_y
 _atom_site_fract_z
 _atom_site_occupancy
  Y  Y0  1  0.167714  0.941504  0.191727  1
  Y  Y1  1  0.332261  0.441246  0.191753  1
  Y  Y2  1  0.831247  0.058620  0.808648  1
  Y  Y3  1  0.667196  0.557490  0.810973  1
  Cr  Cr4  1  0.652776  0.744167  0.243411  1
  Si  Si5  1  0.552631  0.116973  0.103451  1
  Si  Si6  1  0.362495  0.631011  0.510264  1
  Si  Si7  1  0.858462  0.868531  0.486581  1
  Si  Si8  1  0.051872  0.379890  0.897274  1
  Si  Si9  1  0.139764  0.131728  0.512003  1
  Si  Si10  1  0.642838  0.373812  0.483326  1
  Si  Si11  1  0.945547  0.623893  0.103346  1
  Si  Si12  1  0.450869  0.874882  0.902541  1
  Tc  Tc13  1  0.847409  0.243658  0.238307  1
  Tc  Tc14  1  0.347415  0.255246  0.759081  1
  Tc  Tc15  1  0.151961  0.757733  0.759876  1
  Tc  Tc16  1  0.499318  0.995686  0.498554  1
  Tc  Tc17  1  0.998224  0.503932  0.498883  1
