# generated using pymatgen
data_Yb2ZnGa3
_symmetry_space_group_name_H-M   'P 1'
_cell_length_a   5.69719189
_cell_length_b   5.72538283
_cell_length_c   5.72538286
_cell_angle_alpha   133.76175801
_cell_angle_beta   101.01508904
_cell_angle_gamma   96.82266541
_symmetry_Int_Tables_number   1
_chemical_formula_structural   Yb2ZnGa3
_chemical_formula_sum   'Yb2 Zn1 Ga3'
_cell_volume   123.82033512
_cell_formula_units_Z   1
loop_
 _symmetry_equiv_pos_site_id
 _symmetry_equiv_pos_as_xyz
  1  'x, y, z'
loop_
 _atom_site_type_symbol
 _atom_site_label
 _atom_site_symmetry_multiplicity
 _atom_site_fract_x
 _atom_site_fract_y
 _atom_site_fract_z
 _atom_site_occupancy
  Yb  Yb0  1  0.708578  0.457907  0.250671  1
  Yb  Yb1  1  0.292014  0.543164  0.748850  1
  Zn  Zn2  1  0.894859  0.834903  0.059956  1
  Ga  Ga3  1  0.723314  0.165227  0.558087  1
  Ga  Ga4  1  0.278899  0.839296  0.439603  1
  Ga  Ga5  1  0.102336  0.159502  0.942834  1
