# generated using pymatgen
data_Zr5UCo15Si7Ni
_symmetry_space_group_name_H-M   'P 1'
_cell_length_a   8.08765001
_cell_length_b   8.09936870
_cell_length_c   8.09025940
_cell_angle_alpha   59.93565928
_cell_angle_beta   60.01066905
_cell_angle_gamma   60.04784858
_symmetry_Int_Tables_number   1
_chemical_formula_structural   Zr5UCo15Si7Ni
_chemical_formula_sum   'Zr5 U1 Co15 Si7 Ni1'
_cell_volume   374.71492386
_cell_formula_units_Z   1
loop_
 _symmetry_equiv_pos_site_id
 _symmetry_equiv_pos_as_xyz
  1  'x, y, z'
loop_
 _atom_site_type_symbol
 _atom_site_label
 _atom_site_symmetry_multiplicity
 _atom_site_fract_x
 _atom_site_fract_y
 _atom_site_fract_z
 _atom_site_occupancy
  Zr  Zr0  1  0.290429  0.295810  0.709767  1
  Zr  Zr1  1  0.295621  0.705123  0.703634  1
  Zr  Zr2  1  0.704659  0.710778  0.294307  1
  Zr  Zr3  1  0.290256  0.710778  0.294307  1
  Zr  Zr4  1  0.703993  0.295810  0.709767  1
  U  U5  1  0.714018  0.287420  0.284544  1
  Co  Co6  1  0.670248  0.000066  0.659438  1
  Co  Co7  1  0.361118  0.880344  0.879731  1
  Co  Co8  1  0.998631  0.330166  0.329146  1
  Co  Co9  1  0.981118  0.670228  0.673103  1
  Co  Co10  1  0.331129  0.326650  0.011093  1
  Co  Co11  1  0.672005  0.660479  0.995511  1
  Co  Co12  1  0.640317  0.119854  0.121204  1
  Co  Co13  1  0.675550  0.670228  0.673103  1
  Co  Co14  1  0.879406  0.880429  0.360756  1
  Co  Co15  1  0.118627  0.119854  0.121204  1
  Co  Co16  1  0.879531  0.358362  0.882573  1
  Co  Co17  1  0.878806  0.880344  0.879731  1
  Co  Co18  1  0.342057  0.330166  0.329146  1
  Co  Co19  1  0.119656  0.638056  0.122634  1
  Co  Co20  1  0.330676  0.013505  0.325143  1
  Si  Si21  1  0.007485  0.508536  0.995152  1
  Si  Si22  1  0.006094  0.993258  0.507216  1
  Si  Si23  1  0.001124  0.995937  0.001815  1
  Si  Si24  1  0.488827  0.508536  0.995152  1
  Si  Si25  1  0.493432  0.993258  0.507216  1
  Si  Si26  1  0.503028  0.996970  0.996975  1
  Si  Si27  1  0.003930  0.498313  0.493827  1
  Ni  Ni28  1  0.118230  0.120741  0.642800  1
