# generated using pymatgen
data_Zr4B3(Ru5Au)2
_symmetry_space_group_name_H-M   'P 1'
_cell_length_a   4.14908500
_cell_length_b   4.14908500
_cell_length_c   16.36444800
_cell_angle_alpha   90.00000000
_cell_angle_beta   90.00000000
_cell_angle_gamma   90.00000000
_symmetry_Int_Tables_number   1
_chemical_formula_structural   Zr4B3(Ru5Au)2
_chemical_formula_sum   'Zr4 B3 Ru10 Au2'
_cell_volume   281.71243958
_cell_formula_units_Z   1
loop_
 _symmetry_equiv_pos_site_id
 _symmetry_equiv_pos_as_xyz
  1  'x, y, z'
loop_
 _atom_site_type_symbol
 _atom_site_label
 _atom_site_symmetry_multiplicity
 _atom_site_fract_x
 _atom_site_fract_y
 _atom_site_fract_z
 _atom_site_occupancy
  Zr  Zr0  1  0.000000  0.000000  0.866904  1
  Zr  Zr1  1  0.000000  0.000000  0.133096  1
  Zr  Zr2  1  0.000000  0.000000  0.376188  1
  Zr  Zr3  1  0.000000  0.000000  0.623812  1
  B  B4  1  0.500000  0.500000  0.244676  1
  B  B5  1  0.500000  0.500000  0.500000  1
  B  B6  1  0.500000  0.500000  0.755324  1
  Ru  Ru7  1  0.500000  0.500000  0.879521  1
  Ru  Ru8  1  0.500000  0.500000  0.120479  1
  Ru  Ru9  1  0.500000  0.500000  0.373488  1
  Ru  Ru10  1  0.500000  0.500000  0.626512  1
  Ru  Ru11  1  0.500000  0.000000  0.248955  1
  Ru  Ru12  1  0.500000  0.000000  0.500000  1
  Ru  Ru13  1  0.500000  0.000000  0.751045  1
  Ru  Ru14  1  0.000000  0.500000  0.248955  1
  Ru  Ru15  1  0.000000  0.500000  0.500000  1
  Ru  Ru16  1  0.000000  0.500000  0.751045  1
  Au  Au17  1  0.500000  0.000000  0.000000  1
  Au  Au18  1  0.000000  0.500000  0.000000  1
