# generated using pymatgen
data_LiLu6Co17P12
_symmetry_space_group_name_H-M   'P 1'
_cell_length_a   3.67182500
_cell_length_b   10.48584300
_cell_length_c   12.08769100
_cell_angle_alpha   90.00000000
_cell_angle_beta   90.00000000
_cell_angle_gamma   90.00000000
_symmetry_Int_Tables_number   1
_chemical_formula_structural   LiLu6Co17P12
_chemical_formula_sum   'Li1 Lu6 Co17 P12'
_cell_volume   465.40246039
_cell_formula_units_Z   1
loop_
 _symmetry_equiv_pos_site_id
 _symmetry_equiv_pos_as_xyz
  1  'x, y, z'
loop_
 _atom_site_type_symbol
 _atom_site_label
 _atom_site_symmetry_multiplicity
 _atom_site_fract_x
 _atom_site_fract_y
 _atom_site_fract_z
 _atom_site_occupancy
  Li  Li0  1  0.500000  0.500000  0.154222  1
  Lu  Lu1  1  0.000000  0.500000  0.523539  1
  Lu  Lu2  1  0.500000  0.000000  0.477172  1
  Lu  Lu3  1  0.500000  0.819525  0.206419  1
  Lu  Lu4  1  0.500000  0.180475  0.206419  1
  Lu  Lu5  1  0.000000  0.681562  0.794169  1
  Lu  Lu6  1  0.000000  0.318438  0.794169  1
  Co  Co7  1  0.000000  0.000000  0.839424  1
  Co  Co8  1  0.500000  0.500000  0.703158  1
  Co  Co9  1  0.000000  0.000000  0.297089  1
  Co  Co10  1  0.000000  0.500000  0.985768  1
  Co  Co11  1  0.500000  0.000000  0.012825  1
  Co  Co12  1  0.500000  0.331159  0.994511  1
  Co  Co13  1  0.500000  0.668841  0.994511  1
  Co  Co14  1  0.000000  0.165490  0.004157  1
  Co  Co15  1  0.000000  0.834510  0.004157  1
  Co  Co16  1  0.500000  0.296566  0.432320  1
  Co  Co17  1  0.500000  0.703434  0.432320  1
  Co  Co18  1  0.000000  0.202110  0.569638  1
  Co  Co19  1  0.000000  0.797890  0.569638  1
  Co  Co20  1  0.500000  0.878533  0.708379  1
  Co  Co21  1  0.500000  0.121467  0.708379  1
  Co  Co22  1  0.000000  0.623194  0.293250  1
  Co  Co23  1  0.000000  0.376806  0.293250  1
  P  P24  1  0.500000  0.500000  0.882911  1
  P  P25  1  0.000000  0.000000  0.118092  1
  P  P26  1  0.500000  0.500000  0.348005  1
  P  P27  1  0.000000  0.000000  0.653327  1
  P  P28  1  0.500000  0.311673  0.617616  1
  P  P29  1  0.500000  0.688327  0.617616  1
  P  P30  1  0.000000  0.187918  0.384093  1
  P  P31  1  0.000000  0.812082  0.384093  1
  P  P32  1  0.500000  0.846736  0.890531  1
  P  P33  1  0.500000  0.153264  0.890531  1
  P  P34  1  0.000000  0.657671  0.107151  1
  P  P35  1  0.000000  0.342329  0.107151  1
