# generated using pymatgen
data_Tb2Y6Cu3Si12Pd
_symmetry_space_group_name_H-M   'P 1'
_cell_length_a   8.04752900
_cell_length_b   8.04752791
_cell_length_c   8.15412800
_cell_angle_alpha   90.00000000
_cell_angle_beta   90.00000000
_cell_angle_gamma   120.00000861
_symmetry_Int_Tables_number   1
_chemical_formula_structural   Tb2Y6Cu3Si12Pd
_chemical_formula_sum   'Tb2 Y6 Cu3 Si12 Pd1'
_cell_volume   457.33365309
_cell_formula_units_Z   1
loop_
 _symmetry_equiv_pos_site_id
 _symmetry_equiv_pos_as_xyz
  1  'x, y, z'
loop_
 _atom_site_type_symbol
 _atom_site_label
 _atom_site_symmetry_multiplicity
 _atom_site_fract_x
 _atom_site_fract_y
 _atom_site_fract_z
 _atom_site_occupancy
  Tb  Tb0  1  0.000000  0.000000  0.249018  1
  Tb  Tb1  1  0.000000  0.000000  0.750656  1
  Y  Y2  1  0.500549  0.001097  0.249413  1
  Y  Y3  1  0.500922  0.001844  0.750745  1
  Y  Y4  1  0.998903  0.499451  0.249413  1
  Y  Y5  1  0.998156  0.499078  0.750745  1
  Y  Y6  1  0.500549  0.499451  0.249413  1
  Y  Y7  1  0.500922  0.499078  0.750745  1
  Cu  Cu8  1  0.333333  0.666667  0.000626  1
  Cu  Cu9  1  0.666667  0.333333  0.999904  1
  Cu  Cu10  1  0.666667  0.333333  0.498622  1
  Si  Si11  1  0.169433  0.338866  0.999098  1
  Si  Si12  1  0.831073  0.662144  0.000876  1
  Si  Si13  1  0.661134  0.830567  0.999098  1
  Si  Si14  1  0.831220  0.662438  0.500603  1
  Si  Si15  1  0.337856  0.168927  0.000876  1
  Si  Si16  1  0.166003  0.332006  0.499088  1
  Si  Si17  1  0.169433  0.830567  0.999098  1
  Si  Si18  1  0.337562  0.168780  0.500603  1
  Si  Si19  1  0.831073  0.168927  0.000876  1
  Si  Si20  1  0.667994  0.833997  0.499088  1
  Si  Si21  1  0.831220  0.168780  0.500603  1
  Si  Si22  1  0.166003  0.833997  0.499088  1
  Pd  Pd23  1  0.333333  0.666667  0.501701  1
