# generated using pymatgen
data_Th3Ga2GeRh3
_symmetry_space_group_name_H-M   'P 1'
_cell_length_a   7.28489260
_cell_length_b   7.29743294
_cell_length_c   4.05094700
_cell_angle_alpha   90.00000000
_cell_angle_beta   90.00000000
_cell_angle_gamma   120.05696325
_symmetry_Int_Tables_number   1
_chemical_formula_structural   Th3Ga2GeRh3
_chemical_formula_sum   'Th3 Ga2 Ge1 Rh3'
_cell_volume   186.39355339
_cell_formula_units_Z   1
loop_
 _symmetry_equiv_pos_site_id
 _symmetry_equiv_pos_as_xyz
  1  'x, y, z'
loop_
 _atom_site_type_symbol
 _atom_site_label
 _atom_site_symmetry_multiplicity
 _atom_site_fract_x
 _atom_site_fract_y
 _atom_site_fract_z
 _atom_site_occupancy
  Th  Th0  1  0.000000  0.411765  0.500000  1
  Th  Th1  1  0.588762  0.588367  0.500000  1
  Th  Th2  1  0.411238  0.999604  0.500000  1
  Ga  Ga3  1  0.242297  0.243563  0.000000  1
  Ga  Ga4  1  0.757703  0.001267  0.000000  1
  Ge  Ge5  1  0.000000  0.757116  0.000000  1
  Rh  Rh6  1  0.331347  0.666157  0.000000  1
  Rh  Rh7  1  0.668653  0.334809  0.000000  1
  Rh  Rh8  1  0.000000  0.997353  0.500000  1
