# generated using pymatgen
data_Y3InAg(HgAu)2
_symmetry_space_group_name_H-M   'P 1'
_cell_length_a   7.98387979
_cell_length_b   7.98387866
_cell_length_c   3.77964500
_cell_angle_alpha   90.00000000
_cell_angle_beta   90.00000000
_cell_angle_gamma   120.07772495
_symmetry_Int_Tables_number   1
_chemical_formula_structural   Y3InAg(HgAu)2
_chemical_formula_sum   'Y3 In1 Ag1 Hg2 Au2'
_cell_volume   208.48215344
_cell_formula_units_Z   1
loop_
 _symmetry_equiv_pos_site_id
 _symmetry_equiv_pos_as_xyz
  1  'x, y, z'
loop_
 _atom_site_type_symbol
 _atom_site_label
 _atom_site_symmetry_multiplicity
 _atom_site_fract_x
 _atom_site_fract_y
 _atom_site_fract_z
 _atom_site_occupancy
  Y  Y0  1  0.008576  0.595081  0.500000  1
  Y  Y1  1  0.595081  0.008576  0.500000  1
  Y  Y2  1  0.393478  0.393478  0.500000  1
  In  In3  1  0.733843  0.733843  0.000000  1
  Ag  Ag4  1  0.994106  0.994106  0.500000  1
  Hg  Hg5  1  0.996598  0.268333  0.000000  1
  Hg  Hg6  1  0.268333  0.996598  0.000000  1
  Au  Au7  1  0.667544  0.342440  0.000000  1
  Au  Au8  1  0.342440  0.667544  0.000000  1
