# generated using pymatgen
data_MgScGa3Os
_symmetry_space_group_name_H-M   'P 1'
_cell_length_a   5.23255500
_cell_length_b   5.23255513
_cell_length_c   8.56451800
_cell_angle_alpha   90.00000000
_cell_angle_beta   90.00000000
_cell_angle_gamma   119.99999283
_symmetry_Int_Tables_number   1
_chemical_formula_structural   MgScGa3Os
_chemical_formula_sum   'Mg2 Sc2 Ga6 Os2'
_cell_volume   203.07721766
_cell_formula_units_Z   2
loop_
 _symmetry_equiv_pos_site_id
 _symmetry_equiv_pos_as_xyz
  1  'x, y, z'
loop_
 _atom_site_type_symbol
 _atom_site_label
 _atom_site_symmetry_multiplicity
 _atom_site_fract_x
 _atom_site_fract_y
 _atom_site_fract_z
 _atom_site_occupancy
  Mg  Mg0  1  0.666666  0.333333  0.047093  1
  Mg  Mg1  1  0.666666  0.333333  0.452907  1
  Sc  Sc2  1  0.333333  0.666666  0.552715  1
  Sc  Sc3  1  0.333333  0.666666  0.947285  1
  Ga  Ga4  1  0.167040  0.334081  0.250000  1
  Ga  Ga5  1  0.167041  0.832960  0.250000  1
  Ga  Ga6  1  0.665918  0.832960  0.250000  1
  Ga  Ga7  1  0.333557  0.166777  0.750000  1
  Ga  Ga8  1  0.833220  0.166777  0.750000  1
  Ga  Ga9  1  0.833222  0.666444  0.750000  1
  Os  Os10  1  0.000000  0.000000  0.005303  1
  Os  Os11  1  0.000000  0.000000  0.494697  1
