# generated using pymatgen
data_Nd4ScPt3O14
_symmetry_space_group_name_H-M   'P 1'
_cell_length_a   7.41732982
_cell_length_b   7.50580280
_cell_length_c   7.41733000
_cell_angle_alpha   60.38915916
_cell_angle_beta   59.99999920
_cell_angle_gamma   60.38916449
_symmetry_Int_Tables_number   1
_chemical_formula_structural   Nd4ScPt3O14
_chemical_formula_sum   'Nd4 Sc1 Pt3 O14'
_cell_volume   293.70209917
_cell_formula_units_Z   1
loop_
 _symmetry_equiv_pos_site_id
 _symmetry_equiv_pos_as_xyz
  1  'x, y, z'
loop_
 _atom_site_type_symbol
 _atom_site_label
 _atom_site_symmetry_multiplicity
 _atom_site_fract_x
 _atom_site_fract_y
 _atom_site_fract_z
 _atom_site_occupancy
  Nd  Nd0  1  0.625000  0.625000  0.125000  1
  Nd  Nd1  1  0.625000  0.125000  0.625000  1
  Nd  Nd2  1  0.125000  0.625000  0.625000  1
  Nd  Nd3  1  0.625000  0.625000  0.625000  1
  Sc  Sc4  1  0.125000  0.625000  0.125000  1
  Pt  Pt5  1  0.125000  0.125000  0.625000  1
  Pt  Pt6  1  0.625000  0.125000  0.125000  1
  Pt  Pt7  1  0.125000  0.125000  0.125000  1
  O  O8  1  0.502453  0.492641  0.502453  1
  O  O9  1  0.747547  0.757359  0.747547  1
  O  O10  1  0.456571  0.048767  0.456571  1
  O  O11  1  0.212286  0.796095  0.212286  1
  O  O12  1  0.470668  0.453905  0.037714  1
  O  O13  1  0.037714  0.453905  0.470668  1
  O  O14  1  0.456571  0.048767  0.038092  1
  O  O15  1  0.038092  0.048767  0.456571  1
  O  O16  1  0.037714  0.453905  0.037714  1
  O  O17  1  0.793429  0.201233  0.211908  1
  O  O18  1  0.212286  0.796095  0.779332  1
  O  O19  1  0.793429  0.201233  0.793429  1
  O  O20  1  0.211908  0.201233  0.793429  1
  O  O21  1  0.779332  0.796095  0.212286  1
