# generated using pymatgen
data_Sm3Hf2Sn3O
_symmetry_space_group_name_H-M   'P 1'
_cell_length_a   8.85747600
_cell_length_b   8.85747717
_cell_length_c   6.08014200
_cell_angle_alpha   90.00000000
_cell_angle_beta   90.00000000
_cell_angle_gamma   120.00000311
_symmetry_Int_Tables_number   1
_chemical_formula_structural   Sm3Hf2Sn3O
_chemical_formula_sum   'Sm6 Hf4 Sn6 O2'
_cell_volume   413.10872359
_cell_formula_units_Z   2
loop_
 _symmetry_equiv_pos_site_id
 _symmetry_equiv_pos_as_xyz
  1  'x, y, z'
loop_
 _atom_site_type_symbol
 _atom_site_label
 _atom_site_symmetry_multiplicity
 _atom_site_fract_x
 _atom_site_fract_y
 _atom_site_fract_z
 _atom_site_occupancy
  Sm  Sm0  1  0.000000  0.771142  0.750000  1
  Sm  Sm1  1  0.000000  0.228858  0.250000  1
  Sm  Sm2  1  0.228858  0.228858  0.750000  1
  Sm  Sm3  1  0.228858  0.000000  0.250000  1
  Sm  Sm4  1  0.771142  0.771142  0.250000  1
  Sm  Sm5  1  0.771142  0.000000  0.750000  1
  Hf  Hf6  1  0.333333  0.666667  0.000000  1
  Hf  Hf7  1  0.333333  0.666667  0.500000  1
  Hf  Hf8  1  0.666667  0.333333  0.000000  1
  Hf  Hf9  1  0.666667  0.333333  0.500000  1
  Sn  Sn10  1  0.000000  0.591484  0.250000  1
  Sn  Sn11  1  0.000000  0.408516  0.750000  1
  Sn  Sn12  1  0.408516  0.408516  0.250000  1
  Sn  Sn13  1  0.591484  0.591484  0.750000  1
  Sn  Sn14  1  0.408516  0.000000  0.750000  1
  Sn  Sn15  1  0.591484  0.000000  0.250000  1
  O  O16  1  0.000000  0.000000  0.000000  1
  O  O17  1  0.000000  0.000000  0.500000  1
