# generated using pymatgen
data_Tb2Dy4GaCuTc
_symmetry_space_group_name_H-M   'P 1'
_cell_length_a   8.43570708
_cell_length_b   8.43570766
_cell_length_c   8.43570711
_cell_angle_alpha   104.45000487
_cell_angle_beta   110.84906143
_cell_angle_gamma   113.23838314
_symmetry_Int_Tables_number   1
_chemical_formula_structural   Tb2Dy4GaCuTc
_chemical_formula_sum   'Tb4 Dy8 Ga2 Cu2 Tc2'
_cell_volume   459.25649111
_cell_formula_units_Z   2
loop_
 _symmetry_equiv_pos_site_id
 _symmetry_equiv_pos_as_xyz
  1  'x, y, z'
loop_
 _atom_site_type_symbol
 _atom_site_label
 _atom_site_symmetry_multiplicity
 _atom_site_fract_x
 _atom_site_fract_y
 _atom_site_fract_z
 _atom_site_occupancy
  Tb  Tb0  1  0.593482  0.774810  0.818671  1
  Tb  Tb1  1  0.956138  0.774810  0.181329  1
  Tb  Tb2  1  0.043862  0.225190  0.818671  1
  Tb  Tb3  1  0.406518  0.225190  0.181329  1
  Dy  Dy4  1  0.690992  0.258754  0.949747  1
  Dy  Dy5  1  0.309008  0.741246  0.050253  1
  Dy  Dy6  1  0.690992  0.741246  0.432239  1
  Dy  Dy7  1  0.309008  0.258754  0.567761  1
  Dy  Dy8  1  0.810973  0.147686  0.336713  1
  Dy  Dy9  1  0.810973  0.474261  0.663287  1
  Dy  Dy10  1  0.189027  0.852314  0.663287  1
  Dy  Dy11  1  0.189027  0.525739  0.336713  1
  Ga  Ga12  1  0.500000  0.500000  0.000000  1
  Ga  Ga13  1  0.500000  0.000000  0.500000  1
  Cu  Cu14  1  0.000000  0.119717  0.119717  1
  Cu  Cu15  1  0.000000  0.880283  0.880283  1
  Tc  Tc16  1  0.824696  0.500000  0.324696  1
  Tc  Tc17  1  0.175304  0.500000  0.675304  1
