# generated using pymatgen
data_Er8Tm4Ni4SnRu
_symmetry_space_group_name_H-M   'P 1'
_cell_length_a   8.21905562
_cell_length_b   8.21970482
_cell_length_c   8.21970607
_cell_angle_alpha   111.52368860
_cell_angle_beta   110.04219037
_cell_angle_gamma   106.88503119
_symmetry_Int_Tables_number   1
_chemical_formula_structural   Er8Tm4Ni4SnRu
_chemical_formula_sum   'Er8 Tm4 Ni4 Sn1 Ru1'
_cell_volume   426.73582596
_cell_formula_units_Z   1
loop_
 _symmetry_equiv_pos_site_id
 _symmetry_equiv_pos_as_xyz
  1  'x, y, z'
loop_
 _atom_site_type_symbol
 _atom_site_label
 _atom_site_symmetry_multiplicity
 _atom_site_fract_x
 _atom_site_fract_y
 _atom_site_fract_z
 _atom_site_occupancy
  Er  Er0  1  0.971880  0.281933  0.689999  1
  Er  Er1  1  0.028120  0.718119  0.310052  1
  Er  Er2  1  0.320888  0.513725  0.193238  1
  Er  Er3  1  0.679112  0.872349  0.192838  1
  Er  Er4  1  0.181349  0.787087  0.968170  1
  Er  Er5  1  0.818651  0.786821  0.605739  1
  Er  Er6  1  0.181547  0.213222  0.394508  1
  Er  Er7  1  0.818453  0.212962  0.031675  1
  Tm  Tm8  1  0.321112  0.128047  0.807336  1
  Tm  Tm9  1  0.678888  0.486225  0.806933  1
  Tm  Tm10  1  0.408050  0.718027  0.690086  1
  Tm  Tm11  1  0.591950  0.282036  0.309976  1
  Ni  Ni12  1  0.877611  0.877560  0.999840  1
  Ni  Ni13  1  0.122389  0.122229  0.999949  1
  Ni  Ni14  1  0.641177  0.499659  0.141150  1
  Ni  Ni15  1  0.358823  0.499973  0.858482  1
  Sn  Sn16  1  0.500000  0.000139  0.500139  1
  Ru  Ru17  1  0.000000  0.499889  0.499889  1
