# generated using pymatgen
data_Tb2Dy2ErRu2
_symmetry_space_group_name_H-M   'P 1'
_cell_length_a   6.35659795
_cell_length_b   7.27359379
_cell_length_c   8.49352788
_cell_angle_alpha   96.65402954
_cell_angle_beta   111.97501728
_cell_angle_gamma   90.00000163
_symmetry_Int_Tables_number   1
_chemical_formula_structural   Tb2Dy2ErRu2
_chemical_formula_sum   'Tb4 Dy4 Er2 Ru4'
_cell_volume   361.31597228
_cell_formula_units_Z   2
loop_
 _symmetry_equiv_pos_site_id
 _symmetry_equiv_pos_as_xyz
  1  'x, y, z'
loop_
 _atom_site_type_symbol
 _atom_site_label
 _atom_site_symmetry_multiplicity
 _atom_site_fract_x
 _atom_site_fract_y
 _atom_site_fract_z
 _atom_site_occupancy
  Tb  Tb0  1  0.791911  0.584314  0.814142  1
  Tb  Tb1  1  0.977770  0.915686  0.185858  1
  Tb  Tb2  1  0.208089  0.415686  0.185858  1
  Tb  Tb3  1  0.022230  0.084314  0.814142  1
  Dy  Dy4  1  0.206764  0.684960  0.566863  1
  Dy  Dy5  1  0.639900  0.815040  0.433137  1
  Dy  Dy6  1  0.793236  0.315040  0.433137  1
  Dy  Dy7  1  0.360100  0.184960  0.566863  1
  Er  Er8  1  0.421313  0.750000  0.000000  1
  Er  Er9  1  0.578687  0.250000  0.000000  1
  Ru  Ru10  1  0.603143  0.924393  0.780672  1
  Ru  Ru11  1  0.822470  0.575607  0.219328  1
  Ru  Ru12  1  0.396857  0.075607  0.219328  1
  Ru  Ru13  1  0.177530  0.424393  0.780672  1
