# generated using pymatgen
data_Zr12Ti4CoIr7C3N
_symmetry_space_group_name_H-M   'P 1'
_cell_length_a   8.63499101
_cell_length_b   8.63499268
_cell_length_c   8.63499300
_cell_angle_alpha   59.92821633
_cell_angle_beta   59.92820992
_cell_angle_gamma   59.92821601
_symmetry_Int_Tables_number   1
_chemical_formula_structural   Zr12Ti4CoIr7C3N
_chemical_formula_sum   'Zr12 Ti4 Co1 Ir7 C3 N1'
_cell_volume   454.53059081
_cell_formula_units_Z   1
loop_
 _symmetry_equiv_pos_site_id
 _symmetry_equiv_pos_as_xyz
  1  'x, y, z'
loop_
 _atom_site_type_symbol
 _atom_site_label
 _atom_site_symmetry_multiplicity
 _atom_site_fract_x
 _atom_site_fract_y
 _atom_site_fract_z
 _atom_site_occupancy
  Zr  Zr0  1  0.810258  0.810258  0.188664  1
  Zr  Zr1  1  0.189411  0.189411  0.810750  1
  Zr  Zr2  1  0.810258  0.188664  0.810258  1
  Zr  Zr3  1  0.189411  0.810750  0.189411  1
  Zr  Zr4  1  0.188664  0.810258  0.810258  1
  Zr  Zr5  1  0.810750  0.189411  0.189411  1
  Zr  Zr6  1  0.440296  0.440296  0.060605  1
  Zr  Zr7  1  0.061833  0.061833  0.437948  1
  Zr  Zr8  1  0.440296  0.060605  0.440296  1
  Zr  Zr9  1  0.061833  0.437948  0.061833  1
  Zr  Zr10  1  0.060605  0.440296  0.440296  1
  Zr  Zr11  1  0.437948  0.061833  0.061833  1
  Ti  Ti12  1  0.119023  0.628910  0.628910  1
  Ti  Ti13  1  0.628910  0.119023  0.628910  1
  Ti  Ti14  1  0.628910  0.628910  0.119023  1
  Ti  Ti15  1  0.624217  0.624217  0.624217  1
  Co  Co16  1  0.830143  0.830143  0.830143  1
  Ir  Ir17  1  0.747660  0.416570  0.416570  1
  Ir  Ir18  1  0.416570  0.747660  0.416570  1
  Ir  Ir19  1  0.416570  0.416570  0.747660  1
  Ir  Ir20  1  0.418077  0.418077  0.418077  1
  Ir  Ir21  1  0.503823  0.832526  0.832526  1
  Ir  Ir22  1  0.832526  0.503823  0.832526  1
  Ir  Ir23  1  0.832526  0.832526  0.503823  1
  C  C24  1  0.625453  0.124628  0.124628  1
  C  C25  1  0.124628  0.625453  0.124628  1
  C  C26  1  0.124628  0.124628  0.625453  1
  N  N27  1  0.124773  0.124773  0.124773  1
