# generated using pymatgen
data_Tb6SmTh(ReB6)4
_symmetry_space_group_name_H-M   'P 1'
_cell_length_a   3.73153800
_cell_length_b   9.23738953
_cell_length_c   11.64597338
_cell_angle_alpha   90.01830388
_cell_angle_beta   90.00000000
_cell_angle_gamma   90.00000000
_symmetry_Int_Tables_number   1
_chemical_formula_structural   Tb6SmTh(ReB6)4
_chemical_formula_sum   'Tb6 Sm1 Th1 Re4 B24'
_cell_volume   401.43283973
_cell_formula_units_Z   1
loop_
 _symmetry_equiv_pos_site_id
 _symmetry_equiv_pos_as_xyz
  1  'x, y, z'
loop_
 _atom_site_type_symbol
 _atom_site_label
 _atom_site_symmetry_multiplicity
 _atom_site_fract_x
 _atom_site_fract_y
 _atom_site_fract_z
 _atom_site_occupancy
  Tb  Tb0  1  0.000000  0.823818  0.085109  1
  Tb  Tb1  1  0.000000  0.175594  0.914089  1
  Tb  Tb2  1  0.000000  0.941971  0.368922  1
  Tb  Tb3  1  0.000000  0.056506  0.631611  1
  Tb  Tb4  1  0.000000  0.443180  0.128483  1
  Tb  Tb5  1  0.000000  0.557478  0.870468  1
  Sm  Sm6  1  0.000000  0.677600  0.587123  1
  Th  Th7  1  0.000000  0.322722  0.413898  1
  Re  Re8  1  0.000000  0.638573  0.320046  1
  Re  Re9  1  0.000000  0.361214  0.680224  1
  Re  Re10  1  0.000000  0.138435  0.178544  1
  Re  Re11  1  0.000000  0.862064  0.821608  1
  B  B12  1  0.500000  0.555260  0.431154  1
  B  B13  1  0.500000  0.445816  0.569693  1
  B  B14  1  0.500000  0.053200  0.066762  1
  B  B15  1  0.500000  0.946729  0.932896  1
  B  B16  1  0.500000  0.749261  0.416650  1
  B  B17  1  0.500000  0.251428  0.584952  1
  B  B18  1  0.500000  0.247921  0.080761  1
  B  B19  1  0.500000  0.751777  0.918381  1
  B  B20  1  0.500000  0.791439  0.264930  1
  B  B21  1  0.500000  0.208632  0.735799  1
  B  B22  1  0.500000  0.289914  0.232137  1
  B  B23  1  0.500000  0.709287  0.766790  1
  B  B24  1  0.500000  0.631984  0.184809  1
  B  B25  1  0.500000  0.369038  0.814947  1
  B  B26  1  0.500000  0.129708  0.311913  1
  B  B27  1  0.500000  0.869519  0.687357  1
  B  B28  1  0.500000  0.983005  0.210778  1
  B  B29  1  0.500000  0.016573  0.788941  1
  B  B30  1  0.500000  0.485753  0.286345  1
  B  B31  1  0.500000  0.516200  0.713764  1
  B  B32  1  0.500000  0.601936  0.028026  1
  B  B33  1  0.500000  0.398572  0.971319  1
  B  B34  1  0.500000  0.097876  0.472591  1
  B  B35  1  0.500000  0.900015  0.528173  1
