# generated using pymatgen
data_DyHoSc2(SbO4)4
_symmetry_space_group_name_H-M   'P 1'
_cell_length_a   5.31419800
_cell_length_b   7.47231443
_cell_length_c   7.56652535
_cell_angle_alpha   80.89427183
_cell_angle_beta   86.91488845
_cell_angle_gamma   91.12546592
_symmetry_Int_Tables_number   1
_chemical_formula_structural   DyHoSc2(SbO4)4
_chemical_formula_sum   'Dy1 Ho1 Sc2 Sb4 O16'
_cell_volume   296.12462538
_cell_formula_units_Z   1
loop_
 _symmetry_equiv_pos_site_id
 _symmetry_equiv_pos_as_xyz
  1  'x, y, z'
loop_
 _atom_site_type_symbol
 _atom_site_label
 _atom_site_symmetry_multiplicity
 _atom_site_fract_x
 _atom_site_fract_y
 _atom_site_fract_z
 _atom_site_occupancy
  Dy  Dy0  1  0.749279  0.376916  0.372878  1
  Ho  Ho1  1  0.250787  0.623670  0.627125  1
  Sc  Sc2  1  0.719821  0.868145  0.334193  1
  Sc  Sc3  1  0.280087  0.131721  0.666056  1
  Sb  Sb4  1  0.774778  0.310122  0.839737  1
  Sb  Sb5  1  0.225109  0.690254  0.160088  1
  Sb  Sb6  1  0.247146  0.185893  0.171344  1
  Sb  Sb7  1  0.752852  0.813843  0.828303  1
  O  O8  1  0.901399  0.806133  0.069236  1
  O  O9  1  0.098486  0.193680  0.930927  1
  O  O10  1  0.385759  0.936622  0.177747  1
  O  O11  1  0.614381  0.063479  0.822021  1
  O  O12  1  0.098201  0.434367  0.175513  1
  O  O13  1  0.903080  0.565762  0.823790  1
  O  O14  1  0.580071  0.311787  0.071611  1
  O  O15  1  0.419904  0.688138  0.928236  1
  O  O16  1  0.997037  0.318687  0.612040  1
  O  O17  1  0.003696  0.681407  0.388679  1
  O  O18  1  0.413640  0.182218  0.402633  1
  O  O19  1  0.585141  0.817006  0.597535  1
  O  O20  1  0.490484  0.616558  0.330182  1
  O  O21  1  0.508638  0.384288  0.670367  1
  O  O22  1  0.926515  0.103957  0.303735  1
  O  O23  1  0.073711  0.895348  0.696024  1
