# generated using pymatgen
data_TbTm4Lu3Ga3Fe
_symmetry_space_group_name_H-M   'P 1'
_cell_length_a   9.83998200
_cell_length_b   9.83998253
_cell_length_c   6.89199500
_cell_angle_alpha   90.00000000
_cell_angle_beta   90.00000000
_cell_angle_gamma   119.99999821
_symmetry_Int_Tables_number   1
_chemical_formula_structural   TbTm4Lu3Ga3Fe
_chemical_formula_sum   'Tb2 Tm8 Lu6 Ga6 Fe2'
_cell_volume   577.91534311
_cell_formula_units_Z   2
loop_
 _symmetry_equiv_pos_site_id
 _symmetry_equiv_pos_as_xyz
  1  'x, y, z'
loop_
 _atom_site_type_symbol
 _atom_site_label
 _atom_site_symmetry_multiplicity
 _atom_site_fract_x
 _atom_site_fract_y
 _atom_site_fract_z
 _atom_site_occupancy
  Tb  Tb0  1  0.000000  0.000000  0.768545  1
  Tb  Tb1  1  0.000000  0.000000  0.268545  1
  Tm  Tm2  1  0.666667  0.333333  0.172199  1
  Tm  Tm3  1  0.333333  0.666667  0.672199  1
  Tm  Tm4  1  0.536679  0.073358  0.792543  1
  Tm  Tm5  1  0.926642  0.463321  0.792543  1
  Tm  Tm6  1  0.536679  0.463321  0.792543  1
  Tm  Tm7  1  0.463321  0.926642  0.292543  1
  Tm  Tm8  1  0.073358  0.536679  0.292543  1
  Tm  Tm9  1  0.463321  0.536679  0.292543  1
  Lu  Lu10  1  0.825403  0.650807  0.488299  1
  Lu  Lu11  1  0.349193  0.174597  0.488299  1
  Lu  Lu12  1  0.825403  0.174597  0.488299  1
  Lu  Lu13  1  0.174597  0.349193  0.988299  1
  Lu  Lu14  1  0.650807  0.825403  0.988299  1
  Lu  Lu15  1  0.174597  0.825403  0.988299  1
  Ga  Ga16  1  0.836132  0.672264  0.041488  1
  Ga  Ga17  1  0.327736  0.163868  0.041488  1
  Ga  Ga18  1  0.836132  0.163868  0.041488  1
  Ga  Ga19  1  0.163868  0.327736  0.541488  1
  Ga  Ga20  1  0.672264  0.836132  0.541488  1
  Ga  Ga21  1  0.163868  0.836132  0.541488  1
  Fe  Fe22  1  0.666667  0.333333  0.555301  1
  Fe  Fe23  1  0.333333  0.666667  0.055301  1
