# generated using pymatgen
data_Ho3TmAl17GeIr6
_symmetry_space_group_name_H-M   'P 1'
_cell_length_a   7.54726408
_cell_length_b   7.54765005
_cell_length_c   9.44695100
_cell_angle_alpha   90.00000000
_cell_angle_beta   90.00000000
_cell_angle_gamma   119.56991841
_symmetry_Int_Tables_number   1
_chemical_formula_structural   Ho3TmAl17GeIr6
_chemical_formula_sum   'Ho3 Tm1 Al17 Ge1 Ir6'
_cell_volume   468.04700397
_cell_formula_units_Z   1
loop_
 _symmetry_equiv_pos_site_id
 _symmetry_equiv_pos_as_xyz
  1  'x, y, z'
loop_
 _atom_site_type_symbol
 _atom_site_label
 _atom_site_symmetry_multiplicity
 _atom_site_fract_x
 _atom_site_fract_y
 _atom_site_fract_z
 _atom_site_occupancy
  Ho  Ho0  1  0.994720  0.676958  0.250000  1
  Ho  Ho1  1  0.003212  0.328395  0.750000  1
  Ho  Ho2  1  0.677182  0.994592  0.250000  1
  Tm  Tm3  1  0.328362  0.003132  0.750000  1
  Al  Al4  1  0.872098  0.871766  0.750000  1
  Al  Al5  1  0.000375  0.338138  0.074136  1
  Al  Al6  1  0.998489  0.664977  0.924459  1
  Al  Al7  1  0.998489  0.664977  0.575541  1
  Al  Al8  1  0.337993  0.000317  0.426373  1
  Al  Al9  1  0.000375  0.338138  0.425864  1
  Al  Al10  1  0.664195  0.998116  0.575682  1
  Al  Al11  1  0.664195  0.998116  0.924318  1
  Al  Al12  1  0.337993  0.000317  0.073627  1
  Al  Al13  1  0.332282  0.331922  0.559965  1
  Al  Al14  1  0.663597  0.663569  0.448520  1
  Al  Al15  1  0.663597  0.663569  0.051480  1
  Al  Al16  1  0.332282  0.331922  0.940035  1
  Al  Al17  1  0.337638  0.554372  0.250000  1
  Al  Al18  1  0.660677  0.450580  0.750000  1
  Al  Al19  1  0.554295  0.337577  0.250000  1
  Al  Al20  1  0.450876  0.661248  0.750000  1
  Ge  Ge21  1  0.136406  0.136418  0.250000  1
  Ir  Ir22  1  0.669540  0.326259  0.999986  1
  Ir  Ir23  1  0.326452  0.669849  0.999967  1
  Ir  Ir24  1  0.326452  0.669849  0.500033  1
  Ir  Ir25  1  0.669540  0.326259  0.500014  1
  Ir  Ir26  1  0.999342  0.999333  0.001100  1
  Ir  Ir27  1  0.999342  0.999333  0.498900  1
