# generated using pymatgen
data_Tm7Lu3(In3Hg)2
_symmetry_space_group_name_H-M   'P 1'
_cell_length_a   9.12986500
_cell_length_b   9.12986473
_cell_length_c   6.62154200
_cell_angle_alpha   90.00000000
_cell_angle_beta   90.00000000
_cell_angle_gamma   119.99999736
_symmetry_Int_Tables_number   1
_chemical_formula_structural   Tm7Lu3(In3Hg)2
_chemical_formula_sum   'Tm7 Lu3 In6 Hg2'
_cell_volume   477.98963605
_cell_formula_units_Z   1
loop_
 _symmetry_equiv_pos_site_id
 _symmetry_equiv_pos_as_xyz
  1  'x, y, z'
loop_
 _atom_site_type_symbol
 _atom_site_label
 _atom_site_symmetry_multiplicity
 _atom_site_fract_x
 _atom_site_fract_y
 _atom_site_fract_z
 _atom_site_occupancy
  Tm  Tm0  1  0.333333  0.666667  0.500000  1
  Tm  Tm1  1  0.288067  0.000060  0.750053  1
  Tm  Tm2  1  0.711993  0.000060  0.249947  1
  Tm  Tm3  1  0.999940  0.288007  0.750053  1
  Tm  Tm4  1  0.999940  0.711933  0.249947  1
  Tm  Tm5  1  0.711993  0.711933  0.750053  1
  Tm  Tm6  1  0.288067  0.288007  0.249947  1
  Lu  Lu7  1  0.666667  0.333333  0.500000  1
  Lu  Lu8  1  0.666667  0.333333  0.000000  1
  Lu  Lu9  1  0.333333  0.666667  0.000000  1
  In  In10  1  0.625601  0.000072  0.750020  1
  In  In11  1  0.374471  0.000072  0.249980  1
  In  In12  1  0.999928  0.625529  0.750020  1
  In  In13  1  0.999928  0.374399  0.249980  1
  In  In14  1  0.374471  0.374399  0.750020  1
  In  In15  1  0.625601  0.625529  0.249980  1
  Hg  Hg16  1  0.000000  0.000000  0.500000  1
  Hg  Hg17  1  0.000000  0.000000  0.000000  1
