# generated using pymatgen
data_Pr3NdRe16(Si3P)2
_symmetry_space_group_name_H-M   'P 1'
_cell_length_a   4.14508900
_cell_length_b   7.42848939
_cell_length_c   15.47036931
_cell_angle_alpha   89.99274842
_cell_angle_beta   90.00000000
_cell_angle_gamma   90.00000000
_symmetry_Int_Tables_number   1
_chemical_formula_structural   Pr3NdRe16(Si3P)2
_chemical_formula_sum   'Pr3 Nd1 Re16 Si6 P2'
_cell_volume   476.35973532
_cell_formula_units_Z   1
loop_
 _symmetry_equiv_pos_site_id
 _symmetry_equiv_pos_as_xyz
  1  'x, y, z'
loop_
 _atom_site_type_symbol
 _atom_site_label
 _atom_site_symmetry_multiplicity
 _atom_site_fract_x
 _atom_site_fract_y
 _atom_site_fract_z
 _atom_site_occupancy
  Pr  Pr0  1  0.000000  0.575908  0.114725  1
  Pr  Pr1  1  0.000000  0.424512  0.884847  1
  Pr  Pr2  1  0.500000  0.077255  0.381232  1
  Nd  Nd3  1  0.500000  0.922130  0.618956  1
  Re  Re4  1  0.000000  0.138352  0.051291  1
  Re  Re5  1  0.000000  0.862142  0.948498  1
  Re  Re6  1  0.500000  0.635201  0.448078  1
  Re  Re7  1  0.500000  0.362507  0.552842  1
  Re  Re8  1  0.000000  0.731273  0.321054  1
  Re  Re9  1  0.000000  0.267397  0.678748  1
  Re  Re10  1  0.500000  0.232811  0.177123  1
  Re  Re11  1  0.500000  0.767799  0.822696  1
  Re  Re12  1  0.000000  0.432454  0.417840  1
  Re  Re13  1  0.000000  0.567122  0.583225  1
  Re  Re14  1  0.500000  0.925151  0.081271  1
  Re  Re15  1  0.500000  0.075559  0.918424  1
  Re  Re16  1  0.000000  0.988452  0.206090  1
  Re  Re17  1  0.000000  0.012061  0.793690  1
  Re  Re18  1  0.500000  0.490008  0.292571  1
  Re  Re19  1  0.500000  0.511529  0.707212  1
  Si  Si20  1  0.000000  0.825811  0.476371  1
  Si  Si21  1  0.000000  0.172207  0.524183  1
  Si  Si22  1  0.000000  0.290960  0.272093  1
  Si  Si23  1  0.000000  0.710625  0.727881  1
  Si  Si24  1  0.500000  0.789927  0.226651  1
  Si  Si25  1  0.500000  0.210414  0.772674  1
  P  P26  1  0.500000  0.311862  0.026586  1
  P  P27  1  0.500000  0.688566  0.973151  1
