# generated using pymatgen
data_La2PrNd3OsBr10
_symmetry_space_group_name_H-M   'P 1'
_cell_length_a   7.75329954
_cell_length_b   9.45800531
_cell_length_c   9.82423613
_cell_angle_alpha   108.76872406
_cell_angle_beta   97.28216343
_cell_angle_gamma   104.95063128
_symmetry_Int_Tables_number   1
_chemical_formula_structural   La2PrNd3OsBr10
_chemical_formula_sum   'La2 Pr1 Nd3 Os1 Br10'
_cell_volume   641.45994279
_cell_formula_units_Z   1
loop_
 _symmetry_equiv_pos_site_id
 _symmetry_equiv_pos_as_xyz
  1  'x, y, z'
loop_
 _atom_site_type_symbol
 _atom_site_label
 _atom_site_symmetry_multiplicity
 _atom_site_fract_x
 _atom_site_fract_y
 _atom_site_fract_z
 _atom_site_occupancy
  La  La0  1  0.534297  0.214989  0.413124  1
  La  La1  1  0.465656  0.784884  0.586234  1
  Pr  Pr2  1  0.369963  0.449330  0.752302  1
  Nd  Nd3  1  0.130275  0.357539  0.312785  1
  Nd  Nd4  1  0.869720  0.642598  0.687171  1
  Nd  Nd5  1  0.629348  0.550336  0.249031  1
  Os  Os6  1  0.500146  0.500015  0.499605  1
  Br  Br7  1  0.148369  0.044960  0.227947  1
  Br  Br8  1  0.851448  0.955088  0.772049  1
  Br  Br9  1  0.252287  0.416575  0.050788  1
  Br  Br10  1  0.749501  0.583949  0.950929  1
  Br  Br11  1  0.708303  0.248257  0.153111  1
  Br  Br12  1  0.291330  0.753810  0.846841  1
  Br  Br13  1  0.043904  0.672255  0.418705  1
  Br  Br14  1  0.954817  0.327357  0.580490  1
  Br  Br15  1  0.412942  0.131542  0.673291  1
  Br  Br16  1  0.587695  0.866517  0.325599  1
