# generated using pymatgen
data_Rb3GaTe3
_symmetry_space_group_name_H-M   'P 1'
_cell_length_a   14.41833600
_cell_length_b   9.01542654
_cell_length_c   11.78378786
_cell_angle_alpha   52.54577544
_cell_angle_beta   90.00000000
_cell_angle_gamma   90.00000000
_symmetry_Int_Tables_number   1
_chemical_formula_structural   Rb3GaTe3
_chemical_formula_sum   'Rb12 Ga4 Te12'
_cell_volume   1215.95922457
_cell_formula_units_Z   4
loop_
 _symmetry_equiv_pos_site_id
 _symmetry_equiv_pos_as_xyz
  1  'x, y, z'
loop_
 _atom_site_type_symbol
 _atom_site_label
 _atom_site_symmetry_multiplicity
 _atom_site_fract_x
 _atom_site_fract_y
 _atom_site_fract_z
 _atom_site_occupancy
  Rb  Rb0  1  0.909174  0.338934  0.395958  1
  Rb  Rb1  1  0.409174  0.661066  0.104042  1
  Rb  Rb2  1  0.090826  0.661066  0.604042  1
  Rb  Rb3  1  0.590826  0.338934  0.895958  1
  Rb  Rb4  1  0.190524  0.128128  0.585720  1
  Rb  Rb5  1  0.690524  0.871872  0.914280  1
  Rb  Rb6  1  0.809476  0.871872  0.414280  1
  Rb  Rb7  1  0.309476  0.128128  0.085720  1
  Rb  Rb8  1  0.621209  0.372014  0.475024  1
  Rb  Rb9  1  0.121209  0.627986  0.024976  1
  Rb  Rb10  1  0.378791  0.627986  0.524976  1
  Rb  Rb11  1  0.878791  0.372014  0.975024  1
  Ga  Ga12  1  0.938544  0.065047  0.836918  1
  Ga  Ga13  1  0.438544  0.934953  0.663082  1
  Ga  Ga14  1  0.061456  0.934953  0.163082  1
  Ga  Ga15  1  0.561456  0.065047  0.336918  1
  Te  Te16  1  0.393072  0.155980  0.378324  1
  Te  Te17  1  0.893072  0.844020  0.121676  1
  Te  Te18  1  0.606928  0.844020  0.621676  1
  Te  Te19  1  0.106928  0.155980  0.878324  1
  Te  Te20  1  0.679051  0.348630  0.188423  1
  Te  Te21  1  0.179051  0.651370  0.311577  1
  Te  Te22  1  0.320949  0.651370  0.811577  1
  Te  Te23  1  0.820949  0.348630  0.688423  1
  Te  Te24  1  0.549835  0.875197  0.234095  1
  Te  Te25  1  0.049835  0.124803  0.265905  1
  Te  Te26  1  0.450165  0.124803  0.765905  1
  Te  Te27  1  0.950165  0.875197  0.734095  1
