# generated using pymatgen
data_CePr2(InPt)3
_symmetry_space_group_name_H-M   'P 1'
_cell_length_a   7.73961206
_cell_length_b   7.69231096
_cell_length_c   4.08096500
_cell_angle_alpha   90.00000000
_cell_angle_beta   90.00000000
_cell_angle_gamma   120.18959147
_symmetry_Int_Tables_number   1
_chemical_formula_structural   CePr2(InPt)3
_chemical_formula_sum   'Ce1 Pr2 In3 Pt3'
_cell_volume   210.00839457
_cell_formula_units_Z   1
loop_
 _symmetry_equiv_pos_site_id
 _symmetry_equiv_pos_as_xyz
  1  'x, y, z'
loop_
 _atom_site_type_symbol
 _atom_site_label
 _atom_site_symmetry_multiplicity
 _atom_site_fract_x
 _atom_site_fract_y
 _atom_site_fract_z
 _atom_site_occupancy
  Ce  Ce0  1  0.589172  0.000042  0.000000  1
  Pr  Pr1  1  0.001615  0.591271  0.000000  1
  Pr  Pr2  1  0.410390  0.408682  0.000000  1
  In  In3  1  0.248392  0.000002  0.500000  1
  In  In4  1  0.002040  0.254225  0.500000  1
  In  In5  1  0.747819  0.745654  0.500000  1
  Pt  Pt6  1  0.343700  0.679962  0.500000  1
  Pt  Pt7  1  0.663694  0.320060  0.500000  1
  Pt  Pt8  1  0.993178  0.000101  0.000000  1
