# generated using pymatgen
data_Dy16MgHg3IrPt3
_symmetry_space_group_name_H-M   'P 1'
_cell_length_a   9.68376628
_cell_length_b   9.65803568
_cell_length_c   9.65803700
_cell_angle_alpha   59.99999890
_cell_angle_beta   60.08785577
_cell_angle_gamma   60.08785577
_symmetry_Int_Tables_number   1
_chemical_formula_structural   Dy16MgHg3IrPt3
_chemical_formula_sum   'Dy16 Mg1 Hg3 Ir1 Pt3'
_cell_volume   639.56164413
_cell_formula_units_Z   1
loop_
 _symmetry_equiv_pos_site_id
 _symmetry_equiv_pos_as_xyz
  1  'x, y, z'
loop_
 _atom_site_type_symbol
 _atom_site_label
 _atom_site_symmetry_multiplicity
 _atom_site_fract_x
 _atom_site_fract_y
 _atom_site_fract_z
 _atom_site_occupancy
  Dy  Dy0  1  0.353805  0.347778  0.347778  1
  Dy  Dy1  1  0.353805  0.347778  0.950638  1
  Dy  Dy2  1  0.353805  0.950638  0.347778  1
  Dy  Dy3  1  0.937503  0.354165  0.354165  1
  Dy  Dy4  1  0.805549  0.190968  0.190968  1
  Dy  Dy5  1  0.187650  0.811434  0.811434  1
  Dy  Dy6  1  0.187650  0.811434  0.189481  1
  Dy  Dy7  1  0.805549  0.190968  0.812515  1
  Dy  Dy8  1  0.187650  0.189481  0.811434  1
  Dy  Dy9  1  0.805549  0.812515  0.190968  1
  Dy  Dy10  1  0.932889  0.565791  0.565791  1
  Dy  Dy11  1  0.565286  0.935812  0.935812  1
  Dy  Dy12  1  0.565286  0.935812  0.563092  1
  Dy  Dy13  1  0.932889  0.565791  0.935530  1
  Dy  Dy14  1  0.565286  0.563092  0.935812  1
  Dy  Dy15  1  0.932889  0.935530  0.565791  1
  Mg  Mg16  1  0.283638  0.572121  0.572121  1
  Hg  Hg17  1  0.583311  0.587692  0.587692  1
  Hg  Hg18  1  0.583311  0.587692  0.241305  1
  Hg  Hg19  1  0.583311  0.241305  0.587692  1
  Ir  Ir20  1  0.573917  0.142028  0.142028  1
  Pt  Pt21  1  0.139824  0.144125  0.144125  1
  Pt  Pt22  1  0.139824  0.144125  0.571925  1
  Pt  Pt23  1  0.139824  0.571925  0.144125  1
