# generated using pymatgen
data_Hf3MnTl4F28
_symmetry_space_group_name_H-M   'P 1'
_cell_length_a   5.64723247
_cell_length_b   8.97082574
_cell_length_c   12.04368100
_cell_angle_alpha   62.43455227
_cell_angle_beta   89.95870653
_cell_angle_gamma   90.02351714
_symmetry_Int_Tables_number   1
_chemical_formula_structural   Hf3MnTl4F28
_chemical_formula_sum   'Hf3 Mn1 Tl4 F28'
_cell_volume   540.87559050
_cell_formula_units_Z   1
loop_
 _symmetry_equiv_pos_site_id
 _symmetry_equiv_pos_as_xyz
  1  'x, y, z'
loop_
 _atom_site_type_symbol
 _atom_site_label
 _atom_site_symmetry_multiplicity
 _atom_site_fract_x
 _atom_site_fract_y
 _atom_site_fract_z
 _atom_site_occupancy
  Hf  Hf0  1  0.759203  0.274964  0.954492  1
  Hf  Hf1  1  0.256789  0.725288  0.543714  1
  Hf  Hf2  1  0.243545  0.723891  0.047290  1
  Mn  Mn3  1  0.738350  0.274241  0.453937  1
  Tl  Tl4  1  0.757748  0.818513  0.763381  1
  Tl  Tl5  1  0.260529  0.186792  0.728258  1
  Tl  Tl6  1  0.242893  0.186611  0.241509  1
  Tl  Tl7  1  0.743349  0.814701  0.266858  1
  F  F8  1  0.456039  0.705395  0.922478  1
  F  F9  1  0.927808  0.292324  0.571192  1
  F  F10  1  0.543968  0.291229  0.079360  1
  F  F11  1  0.043597  0.709577  0.418289  1
  F  F12  1  0.462327  0.281679  0.538365  1
  F  F13  1  0.949266  0.721378  0.953122  1
  F  F14  1  0.554548  0.715492  0.454656  1
  F  F15  1  0.052344  0.278956  0.048070  1
  F  F16  1  0.775678  0.527027  0.856613  1
  F  F17  1  0.263703  0.472358  0.637678  1
  F  F18  1  0.224116  0.470740  0.147788  1
  F  F19  1  0.727482  0.505456  0.362827  1
  F  F20  1  0.758874  0.024804  0.053490  1
  F  F21  1  0.263223  0.975110  0.448719  1
  F  F22  1  0.242963  0.972342  0.946963  1
  F  F23  1  0.738942  0.042724  0.542983  1
  F  F24  1  0.976863  0.733834  0.643742  1
  F  F25  1  0.484279  0.272355  0.848707  1
  F  F26  1  0.005247  0.272132  0.364834  1
  F  F27  1  0.519500  0.726579  0.151815  1
  F  F28  1  0.035483  0.741730  0.177806  1
  F  F29  1  0.550209  0.261329  0.329184  1
  F  F30  1  0.966539  0.255810  0.823060  1
  F  F31  1  0.463019  0.742169  0.674977  1
  F  F32  1  0.409963  0.968045  0.234677  1
  F  F33  1  0.911299  0.033629  0.272064  1
  F  F34  1  0.593645  0.031612  0.770912  1
  F  F35  1  0.096669  0.969185  0.726192  1
