# generated using pymatgen
data_Er8ScTiIr6
_symmetry_space_group_name_H-M   'P 1'
_cell_length_a   10.69217900
_cell_length_b   10.69217900
_cell_length_c   6.17550800
_cell_angle_alpha   90.00000000
_cell_angle_beta   90.00000000
_cell_angle_gamma   90.00000000
_symmetry_Int_Tables_number   1
_chemical_formula_structural   Er8ScTiIr6
_chemical_formula_sum   'Er16 Sc2 Ti2 Ir12'
_cell_volume   706.00069760
_cell_formula_units_Z   2
loop_
 _symmetry_equiv_pos_site_id
 _symmetry_equiv_pos_as_xyz
  1  'x, y, z'
loop_
 _atom_site_type_symbol
 _atom_site_label
 _atom_site_symmetry_multiplicity
 _atom_site_fract_x
 _atom_site_fract_y
 _atom_site_fract_z
 _atom_site_occupancy
  Er  Er0  1  0.285746  0.085015  0.376319  1
  Er  Er1  1  0.285746  0.914985  0.876319  1
  Er  Er2  1  0.714254  0.085015  0.876319  1
  Er  Er3  1  0.714254  0.914985  0.376319  1
  Er  Er4  1  0.586515  0.789385  0.874927  1
  Er  Er5  1  0.586515  0.210615  0.374927  1
  Er  Er6  1  0.413485  0.789385  0.374927  1
  Er  Er7  1  0.413485  0.210615  0.874927  1
  Er  Er8  1  0.210615  0.413485  0.625073  1
  Er  Er9  1  0.210615  0.586515  0.125073  1
  Er  Er10  1  0.789385  0.413485  0.125073  1
  Er  Er11  1  0.789385  0.586515  0.625073  1
  Er  Er12  1  0.914985  0.714254  0.123681  1
  Er  Er13  1  0.914985  0.285746  0.623681  1
  Er  Er14  1  0.085015  0.714254  0.623681  1
  Er  Er15  1  0.085015  0.285746  0.123681  1
  Sc  Sc16  1  0.500000  0.500000  0.000000  1
  Sc  Sc17  1  0.500000  0.500000  0.500000  1
  Ti  Ti18  1  0.000000  0.000000  0.500000  1
  Ti  Ti19  1  0.000000  0.000000  0.000000  1
  Ir  Ir20  1  0.862605  0.137395  0.250000  1
  Ir  Ir21  1  0.862605  0.862605  0.750000  1
  Ir  Ir22  1  0.137395  0.137395  0.750000  1
  Ir  Ir23  1  0.137395  0.862605  0.250000  1
  Ir  Ir24  1  0.649483  0.350517  0.750000  1
  Ir  Ir25  1  0.649483  0.649483  0.250000  1
  Ir  Ir26  1  0.350517  0.350517  0.250000  1
  Ir  Ir27  1  0.350517  0.649483  0.750000  1
  Ir  Ir28  1  0.500000  0.000000  0.123250  1
  Ir  Ir29  1  0.500000  0.000000  0.623250  1
  Ir  Ir30  1  0.000000  0.500000  0.876750  1
  Ir  Ir31  1  0.000000  0.500000  0.376750  1
