# generated using pymatgen
data_Tb16InCo3NiHg3
_symmetry_space_group_name_H-M   'P 1'
_cell_length_a   9.55417191
_cell_length_b   9.54560996
_cell_length_c   9.55417082
_cell_angle_alpha   59.74065821
_cell_angle_beta   59.77488585
_cell_angle_gamma   59.74066173
_symmetry_Int_Tables_number   1
_chemical_formula_structural   Tb16InCo3NiHg3
_chemical_formula_sum   'Tb16 In1 Co3 Ni1 Hg3'
_cell_volume   612.66445014
_cell_formula_units_Z   1
loop_
 _symmetry_equiv_pos_site_id
 _symmetry_equiv_pos_as_xyz
  1  'x, y, z'
loop_
 _atom_site_type_symbol
 _atom_site_label
 _atom_site_symmetry_multiplicity
 _atom_site_fract_x
 _atom_site_fract_y
 _atom_site_fract_z
 _atom_site_occupancy
  Tb  Tb0  1  0.438967  0.437243  0.058246  1
  Tb  Tb1  1  0.596062  0.596695  0.596062  1
  Tb  Tb2  1  0.188294  0.811342  0.813355  1
  Tb  Tb3  1  0.062427  0.061604  0.437999  1
  Tb  Tb4  1  0.437999  0.061604  0.062427  1
  Tb  Tb5  1  0.813046  0.185940  0.813046  1
  Tb  Tb6  1  0.437814  0.058282  0.437814  1
  Tb  Tb7  1  0.600072  0.205407  0.600072  1
  Tb  Tb8  1  0.813355  0.811342  0.188294  1
  Tb  Tb9  1  0.207431  0.599686  0.598930  1
  Tb  Tb10  1  0.813325  0.185680  0.188954  1
  Tb  Tb11  1  0.058246  0.437243  0.438967  1
  Tb  Tb12  1  0.187683  0.812380  0.187683  1
  Tb  Tb13  1  0.598930  0.599686  0.207431  1
  Tb  Tb14  1  0.188954  0.185680  0.813325  1
  Tb  Tb15  1  0.061774  0.436725  0.061774  1
  In  In16  1  0.829237  0.511221  0.829237  1
  Co  Co17  1  0.828210  0.390289  0.390406  1
  Co  Co18  1  0.390226  0.828368  0.390226  1
  Co  Co19  1  0.390406  0.390289  0.828210  1
  Ni  Ni20  1  0.391681  0.390800  0.391681  1
  Hg  Hg21  1  0.834178  0.833861  0.496925  1
  Hg  Hg22  1  0.834757  0.834771  0.834757  1
  Hg  Hg23  1  0.496925  0.833861  0.834178  1
