# generated using pymatgen
data_Sm2Cd4Cu17Pt
_symmetry_space_group_name_H-M   'P 1'
_cell_length_a   5.09683000
_cell_length_b   5.09683064
_cell_length_c   16.11100100
_cell_angle_alpha   90.00000000
_cell_angle_beta   90.00000000
_cell_angle_gamma   119.99999583
_symmetry_Int_Tables_number   1
_chemical_formula_structural   Sm2Cd4Cu17Pt
_chemical_formula_sum   'Sm2 Cd4 Cu17 Pt1'
_cell_volume   362.45452494
_cell_formula_units_Z   1
loop_
 _symmetry_equiv_pos_site_id
 _symmetry_equiv_pos_as_xyz
  1  'x, y, z'
loop_
 _atom_site_type_symbol
 _atom_site_label
 _atom_site_symmetry_multiplicity
 _atom_site_fract_x
 _atom_site_fract_y
 _atom_site_fract_z
 _atom_site_occupancy
  Sm  Sm0  1  0.666667  0.333333  0.250000  1
  Sm  Sm1  1  0.333333  0.666667  0.750000  1
  Cd  Cd2  1  0.666667  0.333333  0.467878  1
  Cd  Cd3  1  0.333333  0.666667  0.963722  1
  Cd  Cd4  1  0.666667  0.333333  0.032122  1
  Cd  Cd5  1  0.333333  0.666667  0.536278  1
  Cu  Cu6  1  0.666667  0.333333  0.750000  1
  Cu  Cu7  1  0.166592  0.833408  0.380967  1
  Cu  Cu8  1  0.166592  0.333183  0.380967  1
  Cu  Cu9  1  0.000000  0.000000  0.750000  1
  Cu  Cu10  1  0.000000  0.000000  0.250000  1
  Cu  Cu11  1  0.000000  0.000000  0.996329  1
  Cu  Cu12  1  0.000000  0.000000  0.503671  1
  Cu  Cu13  1  0.166592  0.333183  0.119033  1
  Cu  Cu14  1  0.831344  0.168656  0.625298  1
  Cu  Cu15  1  0.337311  0.168656  0.625298  1
  Cu  Cu16  1  0.666817  0.833408  0.119033  1
  Cu  Cu17  1  0.166592  0.833408  0.119033  1
  Cu  Cu18  1  0.831344  0.662689  0.874702  1
  Cu  Cu19  1  0.831344  0.168656  0.874702  1
  Cu  Cu20  1  0.831344  0.662689  0.625298  1
  Cu  Cu21  1  0.337311  0.168656  0.874702  1
  Cu  Cu22  1  0.666817  0.833408  0.380967  1
  Pt  Pt23  1  0.333333  0.666667  0.250000  1
