# generated using pymatgen
data_PaTiFe(Co10B3)2
_symmetry_space_group_name_H-M   'P 1'
_cell_length_a   7.46195424
_cell_length_b   7.46195500
_cell_length_c   7.46195400
_cell_angle_alpha   60.00000442
_cell_angle_beta   60.00000105
_cell_angle_gamma   60.00000151
_symmetry_Int_Tables_number   1
_chemical_formula_structural   PaTiFe(Co10B3)2
_chemical_formula_sum   'Pa1 Ti1 Fe1 Co20 B6'
_cell_volume   293.79391693
_cell_formula_units_Z   1
loop_
 _symmetry_equiv_pos_site_id
 _symmetry_equiv_pos_as_xyz
  1  'x, y, z'
loop_
 _atom_site_type_symbol
 _atom_site_label
 _atom_site_symmetry_multiplicity
 _atom_site_fract_x
 _atom_site_fract_y
 _atom_site_fract_z
 _atom_site_occupancy
  Pa  Pa0  1  0.750000  0.750000  0.750000  1
  Ti  Ti1  1  0.250000  0.250000  0.250000  1
  Fe  Fe2  1  0.000000  0.000000  0.000000  1
  Co  Co3  1  0.613629  0.613629  0.159110  1
  Co  Co4  1  0.613629  0.159110  0.613629  1
  Co  Co5  1  0.159110  0.613629  0.613629  1
  Co  Co6  1  0.613629  0.613629  0.613629  1
  Co  Co7  1  0.380838  0.380838  0.857487  1
  Co  Co8  1  0.380838  0.857487  0.380838  1
  Co  Co9  1  0.857487  0.380838  0.380838  1
  Co  Co10  1  0.380838  0.380838  0.380838  1
  Co  Co11  1  0.003085  0.003085  0.334315  1
  Co  Co12  1  0.659514  0.003085  0.334315  1
  Co  Co13  1  0.003085  0.659514  0.334315  1
  Co  Co14  1  0.659514  0.334315  0.003085  1
  Co  Co15  1  0.003085  0.334315  0.003085  1
  Co  Co16  1  0.003085  0.334315  0.659514  1
  Co  Co17  1  0.334315  0.659514  0.003085  1
  Co  Co18  1  0.334315  0.003085  0.659514  1
  Co  Co19  1  0.334315  0.003085  0.003085  1
  Co  Co20  1  0.003085  0.003085  0.659514  1
  Co  Co21  1  0.003085  0.659514  0.003085  1
  Co  Co22  1  0.659514  0.003085  0.003085  1
  B  B23  1  0.726053  0.726053  0.273947  1
  B  B24  1  0.273947  0.726053  0.273947  1
  B  B25  1  0.726053  0.273947  0.273947  1
  B  B26  1  0.273947  0.273947  0.726053  1
  B  B27  1  0.726053  0.273947  0.726053  1
  B  B28  1  0.273947  0.726053  0.726053  1
