# generated using pymatgen
data_Na2AcIO6
_symmetry_space_group_name_H-M   'P 1'
_cell_length_a   5.76040101
_cell_length_b   5.89890800
_cell_length_c   8.23151200
_cell_angle_alpha   90.00000000
_cell_angle_beta   90.00382940
_cell_angle_gamma   90.00000000
_symmetry_Int_Tables_number   1
_chemical_formula_structural   Na2AcIO6
_chemical_formula_sum   'Na4 Ac2 I2 O12'
_cell_volume   279.70739959
_cell_formula_units_Z   2
loop_
 _symmetry_equiv_pos_site_id
 _symmetry_equiv_pos_as_xyz
  1  'x, y, z'
loop_
 _atom_site_type_symbol
 _atom_site_label
 _atom_site_symmetry_multiplicity
 _atom_site_fract_x
 _atom_site_fract_y
 _atom_site_fract_z
 _atom_site_occupancy
  Na  Na0  1  0.490884  0.959482  0.753731  1
  Na  Na1  1  0.009116  0.459482  0.746269  1
  Na  Na2  1  0.509116  0.040518  0.246269  1
  Na  Na3  1  0.990884  0.540518  0.253731  1
  Ac  Ac4  1  0.500000  0.500000  0.000000  1
  Ac  Ac5  1  0.000000  0.000000  0.500000  1
  I  I6  1  0.500000  0.500000  0.500000  1
  I  I7  1  0.000000  0.000000  0.000000  1
  O  O8  1  0.348068  0.230883  0.570436  1
  O  O9  1  0.151932  0.730883  0.929564  1
  O  O10  1  0.651932  0.769117  0.429564  1
  O  O11  1  0.848068  0.269117  0.070436  1
  O  O12  1  0.615941  0.555124  0.713171  1
  O  O13  1  0.884059  0.055124  0.786829  1
  O  O14  1  0.384059  0.444876  0.286829  1
  O  O15  1  0.115941  0.944876  0.213171  1
  O  O16  1  0.230118  0.667181  0.552927  1
  O  O17  1  0.269882  0.167181  0.947073  1
  O  O18  1  0.769882  0.332819  0.447073  1
  O  O19  1  0.730118  0.832819  0.052927  1
