# generated using pymatgen
data_Ca3LaBi3
_symmetry_space_group_name_H-M   'P 1'
_cell_length_a   8.47662644
_cell_length_b   8.43167259
_cell_length_c   8.49134443
_cell_angle_alpha   109.51212982
_cell_angle_beta   109.71039193
_cell_angle_gamma   109.44120024
_symmetry_Int_Tables_number   1
_chemical_formula_structural   Ca3LaBi3
_chemical_formula_sum   'Ca6 La2 Bi6'
_cell_volume   465.73821489
_cell_formula_units_Z   2
loop_
 _symmetry_equiv_pos_site_id
 _symmetry_equiv_pos_as_xyz
  1  'x, y, z'
loop_
 _atom_site_type_symbol
 _atom_site_label
 _atom_site_symmetry_multiplicity
 _atom_site_fract_x
 _atom_site_fract_y
 _atom_site_fract_z
 _atom_site_occupancy
  Ca  Ca0  1  0.146803  0.501439  0.001482  1
  Ca  Ca1  1  0.355346  0.355021  0.353600  1
  Ca  Ca2  1  0.645365  0.498561  0.000043  1
  Ca  Ca3  1  0.498970  0.000580  0.645616  1
  Ca  Ca4  1  0.498390  0.999420  0.145037  1
  Ca  Ca5  1  0.000325  0.644979  0.498579  1
  La  La6  1  0.853923  0.854115  0.854404  1
  La  La7  1  0.999808  0.145885  0.500289  1
  Bi  Bi8  1  0.251585  0.125956  0.875683  1
  Bi  Bi9  1  0.125630  0.874044  0.249727  1
  Bi  Bi10  1  0.750191  0.375066  0.624963  1
  Bi  Bi11  1  0.874453  0.250366  0.125524  1
  Bi  Bi12  1  0.624087  0.749634  0.375158  1
  Bi  Bi13  1  0.375125  0.624934  0.749897  1
