# generated using pymatgen
data_YbLu3Ga17SiIr6
_symmetry_space_group_name_H-M   'P 1'
_cell_length_a   7.55450011
_cell_length_b   7.53548019
_cell_length_c   9.48400718
_cell_angle_alpha   90.03832733
_cell_angle_beta   89.85397516
_cell_angle_gamma   119.92687311
_symmetry_Int_Tables_number   1
_chemical_formula_structural   YbLu3Ga17SiIr6
_chemical_formula_sum   'Yb1 Lu3 Ga17 Si1 Ir6'
_cell_volume   467.90448099
_cell_formula_units_Z   1
loop_
 _symmetry_equiv_pos_site_id
 _symmetry_equiv_pos_as_xyz
  1  'x, y, z'
loop_
 _atom_site_type_symbol
 _atom_site_label
 _atom_site_symmetry_multiplicity
 _atom_site_fract_x
 _atom_site_fract_y
 _atom_site_fract_z
 _atom_site_occupancy
  Yb  Yb0  1  0.330775  0.002648  0.749144  1
  Lu  Lu1  1  0.998308  0.664446  0.247799  1
  Lu  Lu2  1  0.002729  0.331781  0.751611  1
  Lu  Lu3  1  0.673225  0.003583  0.247920  1
  Ga  Ga4  1  0.130286  0.128931  0.250709  1
  Ga  Ga5  1  0.872687  0.874542  0.750793  1
  Ga  Ga6  1  0.000395  0.672911  0.917305  1
  Ga  Ga7  1  0.001513  0.667004  0.580861  1
  Ga  Ga8  1  0.333718  0.997376  0.420178  1
  Ga  Ga9  1  0.999077  0.334353  0.419566  1
  Ga  Ga10  1  0.663743  0.000098  0.580969  1
  Ga  Ga11  1  0.656834  0.994675  0.917330  1
  Ga  Ga12  1  0.333191  0.997308  0.080375  1
  Ga  Ga13  1  0.332592  0.330444  0.565613  1
  Ga  Ga14  1  0.669133  0.669438  0.432611  1
  Ga  Ga15  1  0.668568  0.670170  0.069590  1
  Ga  Ga16  1  0.339144  0.331347  0.933759  1
  Ga  Ga17  1  0.339833  0.545960  0.251114  1
  Ga  Ga18  1  0.662498  0.451936  0.751628  1
  Ga  Ga19  1  0.547019  0.337992  0.250677  1
  Ga  Ga20  1  0.451448  0.659419  0.750700  1
  Si  Si21  1  0.999700  0.334176  0.072656  1
  Ir  Ir22  1  0.686228  0.330472  0.005327  1
  Ir  Ir23  1  0.312223  0.655506  0.002501  1
  Ir  Ir24  1  0.327359  0.669681  0.499219  1
  Ir  Ir25  1  0.673222  0.329355  0.499059  1
  Ir  Ir26  1  0.996642  0.014392  0.002587  1
  Ir  Ir27  1  0.997910  0.000061  0.498400  1
