# generated using pymatgen
data_Er4TmVReO12
_symmetry_space_group_name_H-M   'P 1'
_cell_length_a   6.73693502
_cell_length_b   6.73693527
_cell_length_c   7.40376603
_cell_angle_alpha   73.87642773
_cell_angle_beta   73.87642882
_cell_angle_gamma   50.26290245
_symmetry_Int_Tables_number   1
_chemical_formula_structural   Er4TmVReO12
_chemical_formula_sum   'Er4 Tm1 V1 Re1 O12'
_cell_volume   245.94457029
_cell_formula_units_Z   1
loop_
 _symmetry_equiv_pos_site_id
 _symmetry_equiv_pos_as_xyz
  1  'x, y, z'
loop_
 _atom_site_type_symbol
 _atom_site_label
 _atom_site_symmetry_multiplicity
 _atom_site_fract_x
 _atom_site_fract_y
 _atom_site_fract_z
 _atom_site_occupancy
  Er  Er0  1  0.819173  0.789745  0.360026  1
  Er  Er1  1  0.210255  0.180827  0.639974  1
  Er  Er2  1  0.186930  0.183995  0.177628  1
  Er  Er3  1  0.816005  0.813070  0.822372  1
  Tm  Tm4  1  0.508426  0.491574  0.500000  1
  V  V5  1  0.266771  0.733229  0.000000  1
  Re  Re6  1  0.715878  0.284122  0.000000  1
  O  O7  1  0.408788  0.930265  0.915429  1
  O  O8  1  0.069735  0.591212  0.084571  1
  O  O9  1  0.593246  0.088241  0.083696  1
  O  O10  1  0.911759  0.406754  0.916304  1
  O  O11  1  0.606273  0.092129  0.569035  1
  O  O12  1  0.907871  0.393727  0.430965  1
  O  O13  1  0.411312  0.900118  0.422411  1
  O  O14  1  0.988606  0.012015  0.817064  1
  O  O15  1  0.987985  0.011394  0.182936  1
  O  O16  1  0.493788  0.502683  0.800034  1
  O  O17  1  0.497317  0.506212  0.199966  1
  O  O18  1  0.099882  0.588688  0.577589  1
