# generated using pymatgen
data_Sm4Al18Co5Au
_symmetry_space_group_name_H-M   'P 1'
_cell_length_a   7.48638373
_cell_length_b   7.48638352
_cell_length_c   9.45067118
_cell_angle_alpha   89.77538707
_cell_angle_beta   89.77539802
_cell_angle_gamma   119.14594209
_symmetry_Int_Tables_number   1
_chemical_formula_structural   Sm4Al18Co5Au
_chemical_formula_sum   'Sm4 Al18 Co5 Au1'
_cell_volume   462.59190004
_cell_formula_units_Z   1
loop_
 _symmetry_equiv_pos_site_id
 _symmetry_equiv_pos_as_xyz
  1  'x, y, z'
loop_
 _atom_site_type_symbol
 _atom_site_label
 _atom_site_symmetry_multiplicity
 _atom_site_fract_x
 _atom_site_fract_y
 _atom_site_fract_z
 _atom_site_occupancy
  Sm  Sm0  1  0.996054  0.677202  0.251152  1
  Sm  Sm1  1  0.003946  0.322798  0.748848  1
  Sm  Sm2  1  0.677202  0.996054  0.251152  1
  Sm  Sm3  1  0.322798  0.003946  0.748848  1
  Al  Al4  1  0.138995  0.138995  0.263307  1
  Al  Al5  1  0.861005  0.861005  0.736693  1
  Al  Al6  1  0.333145  0.333145  0.540607  1
  Al  Al7  1  0.654413  0.654413  0.050497  1
  Al  Al8  1  0.345587  0.345587  0.949503  1
  Al  Al9  1  0.666855  0.666855  0.459393  1
  Al  Al10  1  0.340341  0.556152  0.252278  1
  Al  Al11  1  0.659659  0.443848  0.747722  1
  Al  Al12  1  0.556152  0.340341  0.252278  1
  Al  Al13  1  0.443848  0.659659  0.747722  1
  Al  Al14  1  0.003195  0.349962  0.075359  1
  Al  Al15  1  0.001935  0.663021  0.569131  1
  Al  Al16  1  0.336979  0.998065  0.430869  1
  Al  Al17  1  0.650038  0.996805  0.924641  1
  Al  Al18  1  0.996805  0.650038  0.924641  1
  Al  Al19  1  0.998065  0.336979  0.430869  1
  Al  Al20  1  0.663021  0.001935  0.569131  1
  Al  Al21  1  0.349962  0.003195  0.075359  1
  Co  Co22  1  0.000000  0.000000  0.500000  1
  Co  Co23  1  0.670646  0.329354  0.000000  1
  Co  Co24  1  0.329298  0.670702  0.500000  1
  Co  Co25  1  0.329354  0.670646  0.000000  1
  Co  Co26  1  0.670702  0.329298  0.500000  1
  Au  Au27  1  0.000000  0.000000  0.000000  1
