# generated using pymatgen
data_Y4Ho3Co6Sn22Au
_symmetry_space_group_name_H-M   'P 1'
_cell_length_a   9.66842000
_cell_length_b   9.66841784
_cell_length_c   9.95282000
_cell_angle_alpha   90.00000000
_cell_angle_beta   90.00000000
_cell_angle_gamma   119.99999369
_symmetry_Int_Tables_number   1
_chemical_formula_structural   Y4Ho3Co6Sn22Au
_chemical_formula_sum   'Y4 Ho3 Co6 Sn22 Au1'
_cell_volume   805.72664984
_cell_formula_units_Z   1
loop_
 _symmetry_equiv_pos_site_id
 _symmetry_equiv_pos_as_xyz
  1  'x, y, z'
loop_
 _atom_site_type_symbol
 _atom_site_label
 _atom_site_symmetry_multiplicity
 _atom_site_fract_x
 _atom_site_fract_y
 _atom_site_fract_z
 _atom_site_occupancy
  Y  Y0  1  0.000000  0.000000  0.000011  1
  Y  Y1  1  0.521178  0.478822  0.693137  1
  Y  Y2  1  0.521178  0.042354  0.693137  1
  Y  Y3  1  0.957646  0.478822  0.693137  1
  Ho  Ho4  1  0.041917  0.520959  0.306699  1
  Ho  Ho5  1  0.479041  0.958083  0.306699  1
  Ho  Ho6  1  0.479041  0.520959  0.306699  1
  Co  Co7  1  0.167861  0.832139  0.803222  1
  Co  Co8  1  0.167861  0.335721  0.803222  1
  Co  Co9  1  0.664279  0.832139  0.803222  1
  Co  Co10  1  0.335966  0.167983  0.196959  1
  Co  Co11  1  0.832017  0.664034  0.196959  1
  Co  Co12  1  0.832017  0.167983  0.196959  1
  Sn  Sn13  1  0.666667  0.333333  0.182191  1
  Sn  Sn14  1  0.666667  0.333333  0.881284  1
  Sn  Sn15  1  0.333333  0.666667  0.119516  1
  Sn  Sn16  1  0.346126  0.346161  0.000111  1
  Sn  Sn17  1  0.000035  0.653874  0.000111  1
  Sn  Sn18  1  0.653839  0.999965  0.000111  1
  Sn  Sn19  1  0.653839  0.653874  0.000111  1
  Sn  Sn20  1  0.333333  0.666667  0.817855  1
  Sn  Sn21  1  0.433942  0.216972  0.452767  1
  Sn  Sn22  1  0.216992  0.783008  0.546637  1
  Sn  Sn23  1  0.216992  0.433982  0.546637  1
  Sn  Sn24  1  0.566018  0.783008  0.546637  1
  Sn  Sn25  1  0.113980  0.886020  0.277223  1
  Sn  Sn26  1  0.783028  0.566058  0.452767  1
  Sn  Sn27  1  0.783028  0.216972  0.452767  1
  Sn  Sn28  1  0.346126  0.999965  0.000111  1
  Sn  Sn29  1  0.113980  0.227961  0.277223  1
  Sn  Sn30  1  0.772039  0.886020  0.277223  1
  Sn  Sn31  1  0.227545  0.113772  0.722852  1
  Sn  Sn32  1  0.886228  0.772455  0.722852  1
  Sn  Sn33  1  0.886228  0.113772  0.722852  1
  Sn  Sn34  1  0.000035  0.346161  0.000111  1
  Au  Au35  1  0.000000  0.000000  0.499986  1
