# generated using pymatgen
data_Li4CaTm3Pt4
_symmetry_space_group_name_H-M   'P 1'
_cell_length_a   3.98083100
_cell_length_b   6.96280480
_cell_length_c   8.38332000
_cell_angle_alpha   89.94861091
_cell_angle_beta   90.00000000
_cell_angle_gamma   90.00000000
_symmetry_Int_Tables_number   1
_chemical_formula_structural   Li4CaTm3Pt4
_chemical_formula_sum   'Li4 Ca1 Tm3 Pt4'
_cell_volume   232.36666774
_cell_formula_units_Z   1
loop_
 _symmetry_equiv_pos_site_id
 _symmetry_equiv_pos_as_xyz
  1  'x, y, z'
loop_
 _atom_site_type_symbol
 _atom_site_label
 _atom_site_symmetry_multiplicity
 _atom_site_fract_x
 _atom_site_fract_y
 _atom_site_fract_z
 _atom_site_occupancy
  Li  Li0  1  0.250000  0.623517  0.557275  1
  Li  Li1  1  0.250000  0.126505  0.943736  1
  Li  Li2  1  0.750000  0.375168  0.442160  1
  Li  Li3  1  0.750000  0.877108  0.056868  1
  Ca  Ca4  1  0.750000  0.452182  0.820460  1
  Tm  Tm5  1  0.250000  0.046826  0.322399  1
  Tm  Tm6  1  0.250000  0.548996  0.177090  1
  Tm  Tm7  1  0.750000  0.949884  0.676374  1
  Pt  Pt8  1  0.250000  0.233015  0.618445  1
  Pt  Pt9  1  0.250000  0.759942  0.874932  1
  Pt  Pt10  1  0.750000  0.753498  0.371980  1
  Pt  Pt11  1  0.750000  0.253362  0.138281  1
