# generated using pymatgen
data_SmZn3P7N12
_symmetry_space_group_name_H-M   'P 1'
_cell_length_a   7.28099436
_cell_length_b   7.30205912
_cell_length_c   7.28099581
_cell_angle_alpha   109.52983880
_cell_angle_beta   109.41254851
_cell_angle_gamma   109.52983736
_symmetry_Int_Tables_number   1
_chemical_formula_structural   SmZn3P7N12
_chemical_formula_sum   'Sm1 Zn3 P7 N12'
_cell_volume   297.77634472
_cell_formula_units_Z   1
loop_
 _symmetry_equiv_pos_site_id
 _symmetry_equiv_pos_as_xyz
  1  'x, y, z'
loop_
 _atom_site_type_symbol
 _atom_site_label
 _atom_site_symmetry_multiplicity
 _atom_site_fract_x
 _atom_site_fract_y
 _atom_site_fract_z
 _atom_site_occupancy
  Sm  Sm0  1  0.000000  0.319375  0.000000  1
  Zn  Zn1  1  0.667357  0.664026  0.667357  1
  Zn  Zn2  1  0.332643  0.996669  0.000000  1
  Zn  Zn3  1  0.000000  0.996669  0.332643  1
  P  P4  1  0.745586  0.252913  0.493365  1
  P  P5  1  0.252220  0.759547  0.506635  1
  P  P6  1  0.506635  0.759547  0.252220  1
  P  P7  1  0.493365  0.252913  0.745586  1
  P  P8  1  0.747780  0.507327  0.254414  1
  P  P9  1  0.254414  0.507327  0.747780  1
  P  P10  1  0.000000  0.945455  0.000000  1
  N  N11  1  0.571423  0.280180  0.000000  1
  N  N12  1  0.435333  0.439312  0.706206  1
  N  N13  1  0.000000  0.280180  0.571423  1
  N  N14  1  0.270873  0.003980  0.564667  1
  N  N15  1  0.706206  0.439312  0.435333  1
  N  N16  1  0.000000  0.569864  0.293275  1
  N  N17  1  0.564667  0.003980  0.270873  1
  N  N18  1  0.428577  0.708757  0.428577  1
  N  N19  1  0.293275  0.569864  0.000000  1
  N  N20  1  0.706725  0.276589  0.706725  1
  N  N21  1  0.729127  0.733106  0.293794  1
  N  N22  1  0.293794  0.733106  0.729127  1
