# generated using pymatgen
data_Sc5Co17(MoP6)2
_symmetry_space_group_name_H-M   'P 1'
_cell_length_a   11.89247092
_cell_length_b   11.89247124
_cell_length_c   3.61588100
_cell_angle_alpha   90.00000000
_cell_angle_beta   90.00000000
_cell_angle_gamma   120.30588483
_symmetry_Int_Tables_number   1
_chemical_formula_structural   Sc5Co17(MoP6)2
_chemical_formula_sum   'Sc5 Co17 Mo2 P12'
_cell_volume   441.51155533
_cell_formula_units_Z   1
loop_
 _symmetry_equiv_pos_site_id
 _symmetry_equiv_pos_as_xyz
  1  'x, y, z'
loop_
 _atom_site_type_symbol
 _atom_site_label
 _atom_site_symmetry_multiplicity
 _atom_site_fract_x
 _atom_site_fract_y
 _atom_site_fract_z
 _atom_site_occupancy
  Sc  Sc0  1  0.332651  0.668721  0.000000  1
  Sc  Sc1  1  0.668721  0.332651  0.000000  1
  Sc  Sc2  1  0.818360  0.000822  0.500000  1
  Sc  Sc3  1  0.000822  0.818360  0.500000  1
  Sc  Sc4  1  0.185710  0.185710  0.500000  1
  Co  Co5  1  0.549380  0.549380  0.000000  1
  Co  Co6  1  0.356285  0.483696  0.500000  1
  Co  Co7  1  0.519269  0.871997  0.500000  1
  Co  Co8  1  0.129623  0.647047  0.500000  1
  Co  Co9  1  0.871997  0.519269  0.500000  1
  Co  Co10  1  0.647047  0.129623  0.500000  1
  Co  Co11  1  0.483696  0.356285  0.500000  1
  Co  Co12  1  0.179459  0.374023  0.000000  1
  Co  Co13  1  0.623226  0.798804  0.000000  1
  Co  Co14  1  0.194348  0.823250  0.000000  1
  Co  Co15  1  0.798804  0.623226  0.000000  1
  Co  Co16  1  0.823250  0.194348  0.000000  1
  Co  Co17  1  0.374023  0.179459  0.000000  1
  Co  Co18  1  0.279612  0.001003  0.500000  1
  Co  Co19  1  0.001003  0.279612  0.500000  1
  Co  Co20  1  0.714342  0.714342  0.500000  1
  Co  Co21  1  0.997089  0.997089  0.000000  1
  Mo  Mo22  1  0.448282  0.000826  0.000000  1
  Mo  Mo23  1  0.000826  0.448282  0.000000  1
  P  P24  1  0.175521  0.001227  0.000000  1
  P  P25  1  0.001227  0.175521  0.000000  1
  P  P26  1  0.820591  0.820591  0.000000  1
  P  P27  1  0.169787  0.483767  0.500000  1
  P  P28  1  0.516264  0.682802  0.500000  1
  P  P29  1  0.315649  0.833450  0.500000  1
  P  P30  1  0.682802  0.516264  0.500000  1
  P  P31  1  0.833450  0.315649  0.500000  1
  P  P32  1  0.483767  0.169787  0.500000  1
  P  P33  1  0.643364  0.997501  0.000000  1
  P  P34  1  0.997501  0.643364  0.000000  1
  P  P35  1  0.362251  0.362251  0.000000  1
