# generated using pymatgen
data_CrTc4MoSe8
_symmetry_space_group_name_H-M   'P 1'
_cell_length_a   6.69448308
_cell_length_b   6.67236773
_cell_length_c   6.69367282
_cell_angle_alpha   93.21930780
_cell_angle_beta   93.42906369
_cell_angle_gamma   93.61381972
_symmetry_Int_Tables_number   1
_chemical_formula_structural   CrTc4MoSe8
_chemical_formula_sum   'Cr1 Tc4 Mo1 Se8'
_cell_volume   297.32513004
_cell_formula_units_Z   1
loop_
 _symmetry_equiv_pos_site_id
 _symmetry_equiv_pos_as_xyz
  1  'x, y, z'
loop_
 _atom_site_type_symbol
 _atom_site_label
 _atom_site_symmetry_multiplicity
 _atom_site_fract_x
 _atom_site_fract_y
 _atom_site_fract_z
 _atom_site_occupancy
  Cr  Cr0  1  0.245048  0.543996  0.415154  1
  Tc  Tc1  1  0.548896  0.415338  0.237133  1
  Tc  Tc2  1  0.764569  0.453763  0.588447  1
  Tc  Tc3  1  0.586113  0.764569  0.452404  1
  Tc  Tc4  1  0.450497  0.587018  0.765269  1
  Mo  Mo5  1  0.412002  0.235571  0.545883  1
  Se  Se6  1  0.367153  0.724789  0.130537  1
  Se  Se7  1  0.123719  0.375247  0.724202  1
  Se  Se8  1  0.736164  0.126894  0.370325  1
  Se  Se9  1  0.626331  0.270867  0.877430  1
  Se  Se10  1  0.878375  0.625763  0.277067  1
  Se  Se11  1  0.267320  0.864199  0.617259  1
  Se  Se12  1  0.212019  0.226626  0.213338  1
  Se  Se13  1  0.781796  0.785362  0.785553  1
