# generated using pymatgen
data_Tb3Tm(Pa2Ga5)4
_symmetry_space_group_name_H-M   'P 1'
_cell_length_a   6.07550202
_cell_length_b   9.52275400
_cell_length_c   11.69055004
_cell_angle_alpha   90.00000000
_cell_angle_beta   89.99104128
_cell_angle_gamma   90.00000000
_symmetry_Int_Tables_number   1
_chemical_formula_structural   Tb3Tm(Pa2Ga5)4
_chemical_formula_sum   'Tb3 Tm1 Pa8 Ga20'
_cell_volume   676.36273967
_cell_formula_units_Z   1
loop_
 _symmetry_equiv_pos_site_id
 _symmetry_equiv_pos_as_xyz
  1  'x, y, z'
loop_
 _atom_site_type_symbol
 _atom_site_label
 _atom_site_symmetry_multiplicity
 _atom_site_fract_x
 _atom_site_fract_y
 _atom_site_fract_z
 _atom_site_occupancy
  Tb  Tb0  1  0.858385  0.750000  0.071921  1
  Tb  Tb1  1  0.641516  0.750000  0.571763  1
  Tb  Tb2  1  0.141559  0.250000  0.928078  1
  Tm  Tm3  1  0.357524  0.250000  0.427772  1
  Pa  Pa4  1  0.880774  0.502278  0.352330  1
  Pa  Pa5  1  0.619469  0.997559  0.852192  1
  Pa  Pa6  1  0.119594  0.002832  0.647330  1
  Pa  Pa7  1  0.380546  0.497419  0.147949  1
  Pa  Pa8  1  0.119594  0.497168  0.647330  1
  Pa  Pa9  1  0.380546  0.002581  0.147949  1
  Pa  Pa10  1  0.880774  0.997722  0.352330  1
  Pa  Pa11  1  0.619469  0.502441  0.852192  1
  Ga  Ga12  1  0.870909  0.052994  0.091480  1
  Ga  Ga13  1  0.628432  0.446684  0.590782  1
  Ga  Ga14  1  0.129096  0.552964  0.908580  1
  Ga  Ga15  1  0.371075  0.948964  0.408974  1
  Ga  Ga16  1  0.129096  0.947036  0.908580  1
  Ga  Ga17  1  0.371075  0.551036  0.408974  1
  Ga  Ga18  1  0.870909  0.447006  0.091480  1
  Ga  Ga19  1  0.628432  0.053316  0.590782  1
  Ga  Ga20  1  0.155510  0.750000  0.264455  1
  Ga  Ga21  1  0.344429  0.750000  0.764363  1
  Ga  Ga22  1  0.844465  0.250000  0.735354  1
  Ga  Ga23  1  0.654049  0.250000  0.236736  1
  Ga  Ga24  1  0.390507  0.750000  0.993899  1
  Ga  Ga25  1  0.110004  0.750000  0.493710  1
  Ga  Ga26  1  0.609466  0.250000  0.006345  1
  Ga  Ga27  1  0.892657  0.250000  0.505849  1
  Ga  Ga28  1  0.595712  0.750000  0.292158  1
  Ga  Ga29  1  0.904027  0.750000  0.791917  1
  Ga  Ga30  1  0.404021  0.250000  0.707414  1
  Ga  Ga31  1  0.096376  0.250000  0.209033  1
