# generated using pymatgen
data_Rb8Dy3HoF20
_symmetry_space_group_name_H-M   'P 1'
_cell_length_a   6.94688002
_cell_length_b   7.44225300
_cell_length_c   11.51797302
_cell_angle_alpha   90.00000000
_cell_angle_beta   90.06481205
_cell_angle_gamma   90.00000000
_symmetry_Int_Tables_number   1
_chemical_formula_structural   Rb8Dy3HoF20
_chemical_formula_sum   'Rb8 Dy3 Ho1 F20'
_cell_volume   595.48387666
_cell_formula_units_Z   1
loop_
 _symmetry_equiv_pos_site_id
 _symmetry_equiv_pos_as_xyz
  1  'x, y, z'
loop_
 _atom_site_type_symbol
 _atom_site_label
 _atom_site_symmetry_multiplicity
 _atom_site_fract_x
 _atom_site_fract_y
 _atom_site_fract_z
 _atom_site_occupancy
  Rb  Rb0  1  0.531825  0.498835  0.828646  1
  Rb  Rb1  1  0.468420  0.501687  0.171308  1
  Rb  Rb2  1  0.031661  0.501582  0.671904  1
  Rb  Rb3  1  0.468420  0.998313  0.171308  1
  Rb  Rb4  1  0.968293  0.498746  0.328147  1
  Rb  Rb5  1  0.531825  0.001165  0.828646  1
  Rb  Rb6  1  0.968293  0.001254  0.328147  1
  Rb  Rb7  1  0.031661  0.998418  0.671904  1
  Dy  Dy8  1  0.560078  0.750000  0.501115  1
  Dy  Dy9  1  0.439812  0.250000  0.498788  1
  Dy  Dy10  1  0.059719  0.250000  0.998924  1
  Ho  Ho11  1  0.940247  0.750000  0.001015  1
  F  F12  1  0.845641  0.750000  0.817947  1
  F  F13  1  0.154795  0.250000  0.182808  1
  F  F14  1  0.345139  0.250000  0.682915  1
  F  F15  1  0.654688  0.750000  0.317248  1
  F  F16  1  0.375270  0.750000  0.657101  1
  F  F17  1  0.624662  0.250000  0.342947  1
  F  F18  1  0.875090  0.250000  0.842775  1
  F  F19  1  0.123770  0.750000  0.156226  1
  F  F20  1  0.876363  0.750000  0.515279  1
  F  F21  1  0.123546  0.250000  0.484808  1
  F  F22  1  0.375647  0.250000  0.984579  1
  F  F23  1  0.625710  0.750000  0.015489  1
  F  F24  1  0.638946  0.033772  0.572870  1
  F  F25  1  0.360911  0.966173  0.427151  1
  F  F26  1  0.138654  0.965146  0.927777  1
  F  F27  1  0.360911  0.533827  0.427151  1
  F  F28  1  0.861201  0.033136  0.072215  1
  F  F29  1  0.638946  0.466228  0.572870  1
  F  F30  1  0.861201  0.466864  0.072215  1
  F  F31  1  0.138654  0.534854  0.927777  1
