# generated using pymatgen
data_CeY3(MgRh)4
_symmetry_space_group_name_H-M   'P 1'
_cell_length_a   4.08328600
_cell_length_b   7.12671507
_cell_length_c   8.65200368
_cell_angle_alpha   90.95447118
_cell_angle_beta   90.00000000
_cell_angle_gamma   90.00000000
_symmetry_Int_Tables_number   1
_chemical_formula_structural   CeY3(MgRh)4
_chemical_formula_sum   'Ce1 Y3 Mg4 Rh4'
_cell_volume   251.74197072
_cell_formula_units_Z   1
loop_
 _symmetry_equiv_pos_site_id
 _symmetry_equiv_pos_as_xyz
  1  'x, y, z'
loop_
 _atom_site_type_symbol
 _atom_site_label
 _atom_site_symmetry_multiplicity
 _atom_site_fract_x
 _atom_site_fract_y
 _atom_site_fract_z
 _atom_site_occupancy
  Ce  Ce0  1  0.250000  0.534230  0.179803  1
  Y  Y1  1  0.750000  0.465077  0.818463  1
  Y  Y2  1  0.750000  0.960744  0.678057  1
  Y  Y3  1  0.250000  0.033564  0.326410  1
  Mg  Mg4  1  0.250000  0.634938  0.560388  1
  Mg  Mg5  1  0.750000  0.357964  0.445251  1
  Mg  Mg6  1  0.750000  0.870597  0.058923  1
  Mg  Mg7  1  0.250000  0.138631  0.938695  1
  Rh  Rh8  1  0.250000  0.753239  0.874368  1
  Rh  Rh9  1  0.750000  0.265675  0.129048  1
  Rh  Rh10  1  0.750000  0.738975  0.361372  1
  Rh  Rh11  1  0.250000  0.246365  0.629221  1
