# generated using pymatgen
data_YbLuCo4(SiC)2
_symmetry_space_group_name_H-M   'P 1'
_cell_length_a   5.51542621
_cell_length_b   5.51542561
_cell_length_c   6.67610500
_cell_angle_alpha   90.00000000
_cell_angle_beta   90.00000000
_cell_angle_gamma   140.83377906
_symmetry_Int_Tables_number   1
_chemical_formula_structural   YbLuCo4(SiC)2
_chemical_formula_sum   'Yb1 Lu1 Co4 Si2 C2'
_cell_volume   128.26387503
_cell_formula_units_Z   1
loop_
 _symmetry_equiv_pos_site_id
 _symmetry_equiv_pos_as_xyz
  1  'x, y, z'
loop_
 _atom_site_type_symbol
 _atom_site_label
 _atom_site_symmetry_multiplicity
 _atom_site_fract_x
 _atom_site_fract_y
 _atom_site_fract_z
 _atom_site_occupancy
  Yb  Yb0  1  0.448247  0.551753  0.750000  1
  Lu  Lu1  1  0.550484  0.449516  0.250000  1
  Co  Co2  1  0.836165  0.163835  0.057886  1
  Co  Co3  1  0.163886  0.836114  0.944695  1
  Co  Co4  1  0.163886  0.836114  0.555305  1
  Co  Co5  1  0.836165  0.163835  0.442114  1
  Si  Si6  1  0.272054  0.727946  0.250000  1
  Si  Si7  1  0.727927  0.272073  0.750000  1
  C  C8  1  0.000593  0.999407  0.004862  1
  C  C9  1  0.000593  0.999407  0.495138  1
