# generated using pymatgen
data_Cu2Ni3RhSe8
_symmetry_space_group_name_H-M   'P 1'
_cell_length_a   7.18405327
_cell_length_b   7.18405232
_cell_length_c   7.22444631
_cell_angle_alpha   60.18478988
_cell_angle_beta   60.18479280
_cell_angle_gamma   59.99999688
_symmetry_Int_Tables_number   1
_chemical_formula_structural   Cu2Ni3RhSe8
_chemical_formula_sum   'Cu2 Ni3 Rh1 Se8'
_cell_volume   264.38450391
_cell_formula_units_Z   1
loop_
 _symmetry_equiv_pos_site_id
 _symmetry_equiv_pos_as_xyz
  1  'x, y, z'
loop_
 _atom_site_type_symbol
 _atom_site_label
 _atom_site_symmetry_multiplicity
 _atom_site_fract_x
 _atom_site_fract_y
 _atom_site_fract_z
 _atom_site_occupancy
  Cu  Cu0  1  0.499280  0.499280  0.502161  1
  Cu  Cu1  1  0.750720  0.750720  0.747839  1
  Ni  Ni2  1  0.125000  0.125000  0.125000  1
  Ni  Ni3  1  0.125000  0.625000  0.125000  1
  Ni  Ni4  1  0.625000  0.125000  0.125000  1
  Rh  Rh5  1  0.125000  0.125000  0.625000  1
  Se  Se6  1  0.340764  0.882711  0.893815  1
  Se  Se7  1  0.367289  0.367289  0.356185  1
  Se  Se8  1  0.909236  0.367289  0.356185  1
  Se  Se9  1  0.887084  0.887084  0.338749  1
  Se  Se10  1  0.882711  0.882711  0.893815  1
  Se  Se11  1  0.367289  0.909236  0.356185  1
  Se  Se12  1  0.362916  0.362916  0.911251  1
  Se  Se13  1  0.882711  0.340764  0.893815  1
