# generated using pymatgen
data_Yb3Dy(ReB4)4
_symmetry_space_group_name_H-M   'P 1'
_cell_length_a   3.57922000
_cell_length_b   5.98553161
_cell_length_c   11.57251661
_cell_angle_alpha   90.03990919
_cell_angle_beta   90.00000000
_cell_angle_gamma   90.00000000
_symmetry_Int_Tables_number   1
_chemical_formula_structural   Yb3Dy(ReB4)4
_chemical_formula_sum   'Yb3 Dy1 Re4 B16'
_cell_volume   247.92414793
_cell_formula_units_Z   1
loop_
 _symmetry_equiv_pos_site_id
 _symmetry_equiv_pos_as_xyz
  1  'x, y, z'
loop_
 _atom_site_type_symbol
 _atom_site_label
 _atom_site_symmetry_multiplicity
 _atom_site_fract_x
 _atom_site_fract_y
 _atom_site_fract_z
 _atom_site_occupancy
  Yb  Yb0  1  0.500000  0.628644  0.848733  1
  Yb  Yb1  1  0.500000  0.128195  0.649864  1
  Yb  Yb2  1  0.500000  0.872395  0.351217  1
  Dy  Dy3  1  0.500000  0.371947  0.150673  1
  Re  Re4  1  0.500000  0.369653  0.415620  1
  Re  Re5  1  0.500000  0.631297  0.583695  1
  Re  Re6  1  0.500000  0.131957  0.916316  1
  Re  Re7  1  0.500000  0.869878  0.085144  1
  B  B8  1  0.000000  0.112678  0.047466  1
  B  B9  1  0.000000  0.885167  0.952181  1
  B  B10  1  0.000000  0.385094  0.547175  1
  B  B11  1  0.000000  0.614448  0.452109  1
  B  B12  1  0.000000  0.134376  0.467907  1
  B  B13  1  0.000000  0.865022  0.531961  1
  B  B14  1  0.000000  0.364456  0.967845  1
  B  B15  1  0.000000  0.635780  0.031473  1
  B  B16  1  0.000000  0.023427  0.192890  1
  B  B17  1  0.000000  0.976446  0.807632  1
  B  B18  1  0.000000  0.476249  0.692318  1
  B  B19  1  0.000000  0.524454  0.307656  1
  B  B20  1  0.000000  0.213954  0.315353  1
  B  B21  1  0.000000  0.784718  0.684821  1
  B  B22  1  0.000000  0.283998  0.814663  1
  B  B23  1  0.000000  0.715768  0.185289  1
