# generated using pymatgen
data_Sc8Mn7Si14Tc
_symmetry_space_group_name_H-M   'P 1'
_cell_length_a   5.12729951
_cell_length_b   9.67000858
_cell_length_c   9.66248800
_cell_angle_alpha   85.98326234
_cell_angle_beta   74.61955494
_cell_angle_gamma   74.65565015
_symmetry_Int_Tables_number   1
_chemical_formula_structural   Sc8Mn7Si14Tc
_chemical_formula_sum   'Sc8 Mn7 Si14 Tc1'
_cell_volume   445.45240104
_cell_formula_units_Z   1
loop_
 _symmetry_equiv_pos_site_id
 _symmetry_equiv_pos_as_xyz
  1  'x, y, z'
loop_
 _atom_site_type_symbol
 _atom_site_label
 _atom_site_symmetry_multiplicity
 _atom_site_fract_x
 _atom_site_fract_y
 _atom_site_fract_z
 _atom_site_occupancy
  Sc  Sc0  1  0.196833  0.803760  0.802081  1
  Sc  Sc1  1  0.800559  0.196518  0.196477  1
  Sc  Sc2  1  0.001645  0.196051  0.802438  1
  Sc  Sc3  1  0.002235  0.803672  0.196392  1
  Sc  Sc4  1  0.361521  0.000061  0.277014  1
  Sc  Sc5  1  0.638547  0.999841  0.722672  1
  Sc  Sc6  1  0.636393  0.723489  0.999150  1
  Sc  Sc7  1  0.364405  0.276446  0.999389  1
  Mn  Mn8  1  0.601709  0.500026  0.797242  1
  Mn  Mn9  1  0.104161  0.499855  0.791742  1
  Mn  Mn10  1  0.600281  0.798310  0.501852  1
  Mn  Mn11  1  0.897869  0.500136  0.204382  1
  Mn  Mn12  1  0.397818  0.205236  0.498925  1
  Mn  Mn13  1  0.897130  0.202202  0.501752  1
  Mn  Mn14  1  0.103967  0.794441  0.498653  1
  Si  Si15  1  0.412752  0.592559  0.590185  1
  Si  Si16  1  0.608576  0.407019  0.415389  1
  Si  Si17  1  0.996200  0.407234  0.590261  1
  Si  Si18  1  0.976176  0.593259  0.415568  1
  Si  Si19  1  0.249078  0.999922  0.999804  1
  Si  Si20  1  0.751362  0.999947  0.999569  1
  Si  Si21  1  0.191399  0.291285  0.298660  1
  Si  Si22  1  0.795759  0.702536  0.701709  1
  Si  Si23  1  0.510203  0.708637  0.298682  1
  Si  Si24  1  0.502839  0.297451  0.701873  1
  Si  Si25  1  0.208440  0.000063  0.580936  1
  Si  Si26  1  0.790427  0.999973  0.420812  1
  Si  Si27  1  0.805840  0.417191  0.995201  1
  Si  Si28  1  0.199346  0.582769  0.994998  1
  Tc  Tc29  1  0.396533  0.500111  0.206190  1
