# generated using pymatgen
data_U2Ti(AlRu2)3
_symmetry_space_group_name_H-M   'P 1'
_cell_length_a   4.49239400
_cell_length_b   6.32808000
_cell_length_c   13.50030700
_cell_angle_alpha   90.00000000
_cell_angle_beta   90.00058194
_cell_angle_gamma   90.00000000
_symmetry_Int_Tables_number   1
_chemical_formula_structural   U2Ti(AlRu2)3
_chemical_formula_sum   'U4 Ti2 Al6 Ru12'
_cell_volume   383.78981387
_cell_formula_units_Z   2
loop_
 _symmetry_equiv_pos_site_id
 _symmetry_equiv_pos_as_xyz
  1  'x, y, z'
loop_
 _atom_site_type_symbol
 _atom_site_label
 _atom_site_symmetry_multiplicity
 _atom_site_fract_x
 _atom_site_fract_y
 _atom_site_fract_z
 _atom_site_occupancy
  U  U0  1  0.000069  0.499999  0.991628  1
  U  U1  1  0.499807  0.000000  0.161674  1
  U  U2  1  0.999829  0.499999  0.338354  1
  U  U3  1  0.500067  0.000000  0.508355  1
  Ti  Ti4  1  0.000112  0.499999  0.671789  1
  Ti  Ti5  1  0.500110  0.000000  0.828175  1
  Al  Al6  1  0.000013  0.000000  0.987877  1
  Al  Al7  1  0.499893  0.499999  0.163986  1
  Al  Al8  1  0.999902  0.000000  0.335958  1
  Al  Al9  1  0.500013  0.499999  0.512178  1
  Al  Al10  1  0.000110  0.000000  0.674875  1
  Al  Al11  1  0.500102  0.499999  0.825124  1
  Ru  Ru12  1  0.500080  0.244420  0.990830  1
  Ru  Ru13  1  0.500080  0.755579  0.990830  1
  Ru  Ru14  1  0.999805  0.253956  0.164395  1
  Ru  Ru15  1  0.999805  0.746044  0.164395  1
  Ru  Ru16  1  0.499830  0.245721  0.335529  1
  Ru  Ru17  1  0.499830  0.754280  0.335529  1
  Ru  Ru18  1  0.000069  0.255402  0.509252  1
  Ru  Ru19  1  0.000069  0.744598  0.509252  1
  Ru  Ru20  1  0.500097  0.252476  0.670959  1
  Ru  Ru21  1  0.500097  0.747525  0.670959  1
  Ru  Ru22  1  0.000105  0.247489  0.829049  1
  Ru  Ru23  1  0.000105  0.752511  0.829049  1
