# generated using pymatgen
data_SmPa(Be12Ni)2
_symmetry_space_group_name_H-M   'P 1'
_cell_length_a   7.26871682
_cell_length_b   7.32987355
_cell_length_c   7.24864577
_cell_angle_alpha   59.81055701
_cell_angle_beta   59.82252059
_cell_angle_gamma   59.53969663
_symmetry_Int_Tables_number   1
_chemical_formula_structural   SmPa(Be12Ni)2
_chemical_formula_sum   'Sm1 Pa1 Be24 Ni2'
_cell_volume   271.36946065
_cell_formula_units_Z   1
loop_
 _symmetry_equiv_pos_site_id
 _symmetry_equiv_pos_as_xyz
  1  'x, y, z'
loop_
 _atom_site_type_symbol
 _atom_site_label
 _atom_site_symmetry_multiplicity
 _atom_site_fract_x
 _atom_site_fract_y
 _atom_site_fract_z
 _atom_site_occupancy
  Sm  Sm0  1  0.249096  0.250904  0.249096  1
  Pa  Pa1  1  0.753644  0.746356  0.753644  1
  Be  Be2  1  0.500058  0.499942  0.500058  1
  Be  Be3  1  0.000339  0.999661  0.000339  1
  Be  Be4  1  0.568287  0.787771  0.434832  1
  Be  Be5  1  0.434832  0.209109  0.568287  1
  Be  Be6  1  0.294571  0.936030  0.708156  1
  Be  Be7  1  0.708156  0.061242  0.294571  1
  Be  Be8  1  0.932111  0.284088  0.066023  1
  Be  Be9  1  0.066023  0.717778  0.932111  1
  Be  Be10  1  0.205758  0.797018  0.559179  1
  Be  Be11  1  0.792055  0.202147  0.442000  1
  Be  Be12  1  0.442000  0.563798  0.792055  1
  Be  Be13  1  0.559179  0.438045  0.205758  1
  Be  Be14  1  0.712603  0.286480  0.935894  1
  Be  Be15  1  0.290452  0.716655  0.060953  1
  Be  Be16  1  0.060953  0.931940  0.290452  1
  Be  Be17  1  0.935894  0.065023  0.712603  1
  Be  Be18  1  0.562561  0.204967  0.793322  1
  Be  Be19  1  0.439835  0.792491  0.204714  1
  Be  Be20  1  0.793322  0.439151  0.562561  1
  Be  Be21  1  0.204714  0.562959  0.439835  1
  Be  Be22  1  0.935415  0.712588  0.290131  1
  Be  Be23  1  0.060862  0.289171  0.712980  1
  Be  Be24  1  0.290131  0.061865  0.935415  1
  Be  Be25  1  0.712980  0.936988  0.060862  1
  Ni  Ni26  1  0.797160  0.560304  0.197010  1
  Ni  Ni27  1  0.197010  0.445527  0.797160  1
