# generated using pymatgen
data_Li12Ho11Er(WO6)8
_symmetry_space_group_name_H-M   'P 1'
_cell_length_a   10.65330070
_cell_length_b   10.65512311
_cell_length_c   10.65509600
_cell_angle_alpha   109.47065312
_cell_angle_beta   109.47506820
_cell_angle_gamma   109.47525400
_symmetry_Int_Tables_number   1
_chemical_formula_structural   Li12Ho11Er(WO6)8
_chemical_formula_sum   'Li12 Ho11 Er1 W8 O48'
_cell_volume   930.97695063
_cell_formula_units_Z   1
loop_
 _symmetry_equiv_pos_site_id
 _symmetry_equiv_pos_as_xyz
  1  'x, y, z'
loop_
 _atom_site_type_symbol
 _atom_site_label
 _atom_site_symmetry_multiplicity
 _atom_site_fract_x
 _atom_site_fract_y
 _atom_site_fract_z
 _atom_site_occupancy
  Li  Li0  1  0.749998  0.875002  0.125003  1
  Li  Li1  1  0.374976  0.749875  0.124986  1
  Li  Li2  1  0.374972  0.125092  0.249989  1
  Li  Li3  1  0.874991  0.624992  0.249996  1
  Li  Li4  1  0.125024  0.250005  0.374900  1
  Li  Li5  1  0.250001  0.624873  0.374875  1
  Li  Li6  1  0.749999  0.374997  0.624994  1
  Li  Li7  1  0.874987  0.749997  0.624990  1
  Li  Li8  1  0.125023  0.375017  0.750124  1
  Li  Li9  1  0.625010  0.875005  0.750001  1
  Li  Li10  1  0.625003  0.250001  0.875006  1
  Li  Li11  1  0.249999  0.125123  0.875124  1
  Ho  Ho12  1  0.875173  0.250082  0.125032  1
  Ho  Ho13  1  0.125031  0.875018  0.250025  1
  Ho  Ho14  1  0.624831  0.374969  0.249922  1
  Ho  Ho15  1  0.624829  0.749858  0.374910  1
  Ho  Ho16  1  0.750000  0.125002  0.375003  1
  Ho  Ho17  1  0.374971  0.249976  0.624983  1
  Ho  Ho18  1  0.250002  0.875002  0.625000  1
  Ho  Ho19  1  0.875173  0.125092  0.750141  1
  Ho  Ho20  1  0.374971  0.624994  0.749986  1
  Ho  Ho21  1  0.125028  0.750012  0.875005  1
  Ho  Ho22  1  0.749998  0.624997  0.874999  1
  Er  Er23  1  0.250004  0.375005  0.124999  1
  W  W24  1  0.000271  0.000281  0.000171  1
  W  W25  1  0.500013  0.000026  0.000016  1
  W  W26  1  0.000273  0.499989  0.000104  1
  W  W27  1  0.499720  0.499894  0.000009  1
  W  W28  1  0.999987  0.000001  0.500015  1
  W  W29  1  0.500012  0.999984  0.499997  1
  W  W30  1  0.999990  0.499985  0.499972  1
  W  W31  1  0.499720  0.499823  0.499712  1
  O  O32  1  0.619361  0.202073  0.028249  1
  O  O33  1  0.408378  0.326289  0.028558  1
  O  O34  1  0.908893  0.880746  0.082717  1
  O  O35  1  0.173886  0.702133  0.082703  1
  O  O36  1  0.173888  0.971753  0.091182  1
  O  O37  1  0.917444  0.619315  0.091239  1
  O  O38  1  0.416892  0.590776  0.119421  1
  O  O39  1  0.702076  0.028270  0.119393  1
  O  O40  1  0.083107  0.202526  0.173880  1
  O  O41  1  0.091625  0.471442  0.173713  1
  O  O42  1  0.673770  0.582645  0.202030  1
  O  O43  1  0.528236  0.119416  0.202055  1
  O  O44  1  0.416892  0.326122  0.297474  1
  O  O45  1  0.880644  0.471752  0.297930  1
  O  O46  1  0.797925  0.917317  0.326195  1
  O  O47  1  0.528232  0.908820  0.326177  1
  O  O48  1  0.971765  0.297947  0.380589  1
  O  O49  1  0.408381  0.582092  0.379819  1
  O  O50  1  0.380617  0.082657  0.408836  1
  O  O51  1  0.028236  0.826208  0.408864  1
  O  O52  1  0.297934  0.826156  0.417315  1
  O  O53  1  0.119382  0.091162  0.417342  1
  O  O54  1  0.797925  0.380607  0.471730  1
  O  O55  1  0.673773  0.591130  0.471745  1
  O  O56  1  0.326116  0.408819  0.528248  1
  O  O57  1  0.202068  0.619382  0.528218  1
  O  O58  1  0.702074  0.173804  0.582683  1
  O  O59  1  0.880640  0.908891  0.582713  1
  O  O60  1  0.619356  0.917288  0.591109  1
  O  O61  1  0.971766  0.173818  0.591177  1
  O  O62  1  0.591109  0.417280  0.619255  1
  O  O63  1  0.028237  0.702026  0.619373  1
  O  O64  1  0.471764  0.091140  0.673793  1
  O  O65  1  0.202069  0.082686  0.673847  1
  O  O66  1  0.582558  0.673797  0.701874  1
  O  O67  1  0.119380  0.528220  0.702039  1
  O  O68  1  0.471764  0.880628  0.797973  1
  O  O69  1  0.326115  0.417297  0.797867  1
  O  O70  1  0.908890  0.528144  0.826170  1
  O  O71  1  0.917442  0.798129  0.826204  1
  O  O72  1  0.297934  0.971780  0.880617  1
  O  O73  1  0.582558  0.408760  0.880683  1
  O  O74  1  0.083110  0.380579  0.909225  1
  O  O75  1  0.826230  0.028257  0.908873  1
  O  O76  1  0.826233  0.297977  0.917358  1
  O  O77  1  0.091625  0.120186  0.917914  1
  O  O78  1  0.591112  0.673831  0.971855  1
  O  O79  1  0.380619  0.797966  0.971782  1
