# generated using pymatgen
data_Sc8Ta11Si16Ir
_symmetry_space_group_name_H-M   'P 1'
_cell_length_a   6.87323663
_cell_length_b   6.88876138
_cell_length_c   12.66944417
_cell_angle_alpha   90.47163257
_cell_angle_beta   89.99536688
_cell_angle_gamma   89.99816586
_symmetry_Int_Tables_number   1
_chemical_formula_structural   Sc8Ta11Si16Ir
_chemical_formula_sum   'Sc8 Ta11 Si16 Ir1'
_cell_volume   599.85362077
_cell_formula_units_Z   1
loop_
 _symmetry_equiv_pos_site_id
 _symmetry_equiv_pos_as_xyz
  1  'x, y, z'
loop_
 _atom_site_type_symbol
 _atom_site_label
 _atom_site_symmetry_multiplicity
 _atom_site_fract_x
 _atom_site_fract_y
 _atom_site_fract_z
 _atom_site_occupancy
  Sc  Sc0  1  0.000479  0.658879  0.032627  1
  Sc  Sc1  1  0.839999  0.503808  0.280711  1
  Sc  Sc2  1  0.158958  0.499675  0.780946  1
  Sc  Sc3  1  0.500454  0.840814  0.718080  1
  Sc  Sc4  1  0.497514  0.158217  0.218231  1
  Sc  Sc5  1  0.001067  0.343577  0.531739  1
  Sc  Sc6  1  0.658659  0.001222  0.969420  1
  Sc  Sc7  1  0.339248  0.998867  0.469228  1
  Ta  Ta8  1  0.330119  0.330158  0.000513  1
  Ta  Ta9  1  0.175738  0.828925  0.250145  1
  Ta  Ta10  1  0.830050  0.171806  0.749088  1
  Ta  Ta11  1  0.673438  0.665883  0.500471  1
  Ta  Ta12  1  0.003164  0.151110  0.126747  1
  Ta  Ta13  1  0.348285  0.502486  0.376174  1
  Ta  Ta14  1  0.651358  0.493392  0.875263  1
  Ta  Ta15  1  0.510335  0.343388  0.622473  1
  Ta  Ta16  1  0.495044  0.654242  0.125460  1
  Ta  Ta17  1  0.997202  0.844867  0.628705  1
  Ta  Ta18  1  0.151843  0.005884  0.873116  1
  Si  Si19  1  0.300369  0.956777  0.062973  1
  Si  Si20  1  0.547150  0.800311  0.316227  1
  Si  Si21  1  0.456694  0.197434  0.813606  1
  Si  Si22  1  0.801651  0.543615  0.686950  1
  Si  Si23  1  0.199988  0.455191  0.187167  1
  Si  Si24  1  0.703768  0.037311  0.560844  1
  Si  Si25  1  0.955918  0.301725  0.936832  1
  Si  Si26  1  0.040420  0.708947  0.435823  1
  Si  Si27  1  0.704403  0.361822  0.072149  1
  Si  Si28  1  0.131328  0.200005  0.320931  1
  Si  Si29  1  0.859319  0.795515  0.822203  1
  Si  Si30  1  0.205526  0.140006  0.677418  1
  Si  Si31  1  0.798538  0.862308  0.179814  1
  Si  Si32  1  0.295894  0.633882  0.570716  1
  Si  Si33  1  0.361698  0.705921  0.928728  1
  Si  Si34  1  0.637634  0.291562  0.427908  1
  Ir  Ir35  1  0.836747  0.010468  0.370571  1
