# generated using pymatgen
data_Y8CdIn3Au8
_symmetry_space_group_name_H-M   'P 1'
_cell_length_a   8.04744800
_cell_length_b   8.04744800
_cell_length_c   7.37495300
_cell_angle_alpha   90.00000000
_cell_angle_beta   90.00000000
_cell_angle_gamma   90.00000000
_symmetry_Int_Tables_number   1
_chemical_formula_structural   Y8CdIn3Au8
_chemical_formula_sum   'Y8 Cd1 In3 Au8'
_cell_volume   477.61242364
_cell_formula_units_Z   1
loop_
 _symmetry_equiv_pos_site_id
 _symmetry_equiv_pos_as_xyz
  1  'x, y, z'
loop_
 _atom_site_type_symbol
 _atom_site_label
 _atom_site_symmetry_multiplicity
 _atom_site_fract_x
 _atom_site_fract_y
 _atom_site_fract_z
 _atom_site_occupancy
  Y  Y0  1  0.160722  0.161862  0.999601  1
  Y  Y1  1  0.839278  0.838138  0.999601  1
  Y  Y2  1  0.661862  0.339278  0.500399  1
  Y  Y3  1  0.338138  0.660722  0.500399  1
  Y  Y4  1  0.679619  0.320766  0.999705  1
  Y  Y5  1  0.320381  0.679234  0.999705  1
  Y  Y6  1  0.820766  0.820381  0.500295  1
  Y  Y7  1  0.179234  0.179619  0.500295  1
  Cd  Cd8  1  0.500000  0.000000  0.250000  1
  In  In9  1  0.500000  0.000000  0.750000  1
  In  In10  1  0.000000  0.500000  0.250000  1
  In  In11  1  0.000000  0.500000  0.750000  1
  Au  Au12  1  0.373651  0.369923  0.232011  1
  Au  Au13  1  0.627535  0.628430  0.768557  1
  Au  Au14  1  0.626349  0.630077  0.232011  1
  Au  Au15  1  0.871570  0.127535  0.731443  1
  Au  Au16  1  0.869923  0.126349  0.267989  1
  Au  Au17  1  0.372465  0.371570  0.768557  1
  Au  Au18  1  0.130077  0.873651  0.267989  1
  Au  Au19  1  0.128430  0.872465  0.731443  1
