# generated using pymatgen
data_Pr9LuIr5Ru
_symmetry_space_group_name_H-M   'P 1'
_cell_length_a   11.27510400
_cell_length_b   11.29049900
_cell_length_c   6.60327600
_cell_angle_alpha   90.00000000
_cell_angle_beta   90.00000000
_cell_angle_gamma   90.00000000
_symmetry_Int_Tables_number   1
_chemical_formula_structural   Pr9LuIr5Ru
_chemical_formula_sum   'Pr18 Lu2 Ir10 Ru2'
_cell_volume   840.60727276
_cell_formula_units_Z   2
loop_
 _symmetry_equiv_pos_site_id
 _symmetry_equiv_pos_as_xyz
  1  'x, y, z'
loop_
 _atom_site_type_symbol
 _atom_site_label
 _atom_site_symmetry_multiplicity
 _atom_site_fract_x
 _atom_site_fract_y
 _atom_site_fract_z
 _atom_site_occupancy
  Pr  Pr0  1  0.289084  0.085974  0.385745  1
  Pr  Pr1  1  0.289084  0.914026  0.885745  1
  Pr  Pr2  1  0.710916  0.085974  0.885745  1
  Pr  Pr3  1  0.710916  0.914026  0.385745  1
  Pr  Pr4  1  0.586969  0.794963  0.886113  1
  Pr  Pr5  1  0.586969  0.205037  0.386113  1
  Pr  Pr6  1  0.413031  0.794963  0.386113  1
  Pr  Pr7  1  0.413031  0.205037  0.886113  1
  Pr  Pr8  1  0.208164  0.410460  0.618062  1
  Pr  Pr9  1  0.208164  0.589540  0.118062  1
  Pr  Pr10  1  0.791836  0.410460  0.118062  1
  Pr  Pr11  1  0.791836  0.589540  0.618062  1
  Pr  Pr12  1  0.911189  0.714268  0.118139  1
  Pr  Pr13  1  0.911189  0.285732  0.618139  1
  Pr  Pr14  1  0.088811  0.714268  0.618139  1
  Pr  Pr15  1  0.088811  0.285732  0.118139  1
  Pr  Pr16  1  0.500000  0.500000  0.993844  1
  Pr  Pr17  1  0.500000  0.500000  0.493844  1
  Lu  Lu18  1  0.000000  0.000000  0.493820  1
  Lu  Lu19  1  0.000000  0.000000  0.993820  1
  Ir  Ir20  1  0.855951  0.145935  0.247750  1
  Ir  Ir21  1  0.855951  0.854065  0.747750  1
  Ir  Ir22  1  0.144049  0.145935  0.747750  1
  Ir  Ir23  1  0.144049  0.854065  0.247750  1
  Ir  Ir24  1  0.655408  0.346524  0.748650  1
  Ir  Ir25  1  0.655408  0.653476  0.248650  1
  Ir  Ir26  1  0.344592  0.346524  0.248650  1
  Ir  Ir27  1  0.344592  0.653476  0.748650  1
  Ir  Ir28  1  0.000000  0.500000  0.880143  1
  Ir  Ir29  1  0.000000  0.500000  0.380143  1
  Ru  Ru30  1  0.500000  0.000000  0.123280  1
  Ru  Ru31  1  0.500000  0.000000  0.623280  1
