# generated using pymatgen
data_Y4Al17Co5SiPd
_symmetry_space_group_name_H-M   'P 1'
_cell_length_a   7.42088310
_cell_length_b   7.42088264
_cell_length_c   9.32061235
_cell_angle_alpha   89.81381558
_cell_angle_beta   89.81381324
_cell_angle_gamma   119.18947079
_symmetry_Int_Tables_number   1
_chemical_formula_structural   Y4Al17Co5SiPd
_chemical_formula_sum   'Y4 Al17 Co5 Si1 Pd1'
_cell_volume   448.09151388
_cell_formula_units_Z   1
loop_
 _symmetry_equiv_pos_site_id
 _symmetry_equiv_pos_as_xyz
  1  'x, y, z'
loop_
 _atom_site_type_symbol
 _atom_site_label
 _atom_site_symmetry_multiplicity
 _atom_site_fract_x
 _atom_site_fract_y
 _atom_site_fract_z
 _atom_site_occupancy
  Y  Y0  1  0.994120  0.679859  0.251271  1
  Y  Y1  1  0.004728  0.325520  0.748920  1
  Y  Y2  1  0.679859  0.994120  0.251271  1
  Y  Y3  1  0.325520  0.004728  0.748920  1
  Al  Al4  1  0.869161  0.869161  0.741441  1
  Al  Al5  1  0.331724  0.331724  0.545390  1
  Al  Al6  1  0.657265  0.657265  0.047602  1
  Al  Al7  1  0.339974  0.339974  0.948171  1
  Al  Al8  1  0.665597  0.665597  0.458294  1
  Al  Al9  1  0.336661  0.556552  0.251336  1
  Al  Al10  1  0.660679  0.443943  0.748439  1
  Al  Al11  1  0.556552  0.336661  0.251336  1
  Al  Al12  1  0.443943  0.660679  0.748439  1
  Al  Al13  1  0.000868  0.345699  0.075692  1
  Al  Al14  1  0.002621  0.664249  0.570260  1
  Al  Al15  1  0.338022  0.998287  0.428164  1
  Al  Al16  1  0.655863  0.999188  0.925841  1
  Al  Al17  1  0.999188  0.655863  0.925841  1
  Al  Al18  1  0.998287  0.338022  0.428164  1
  Al  Al19  1  0.664249  0.002621  0.570260  1
  Al  Al20  1  0.345699  0.000868  0.075692  1
  Co  Co21  1  0.001422  0.001422  0.492830  1
  Co  Co22  1  0.669277  0.327210  0.000778  1
  Co  Co23  1  0.327701  0.669598  0.499212  1
  Co  Co24  1  0.327210  0.669277  0.000778  1
  Co  Co25  1  0.669598  0.327701  0.499212  1
  Si  Si26  1  0.133187  0.133187  0.261488  1
  Pd  Pd27  1  0.001025  0.001025  0.004958  1
