# generated using pymatgen
data_SmAl2GaAg
_symmetry_space_group_name_H-M   'P 1'
_cell_length_a   4.19512869
_cell_length_b   4.24934589
_cell_length_c   6.35272854
_cell_angle_alpha   70.46087622
_cell_angle_beta   70.72010973
_cell_angle_gamma   90.00000547
_symmetry_Int_Tables_number   1
_chemical_formula_structural   SmAl2GaAg
_chemical_formula_sum   'Sm1 Al2 Ga1 Ag1'
_cell_volume   99.96095538
_cell_formula_units_Z   1
loop_
 _symmetry_equiv_pos_site_id
 _symmetry_equiv_pos_as_xyz
  1  'x, y, z'
loop_
 _atom_site_type_symbol
 _atom_site_label
 _atom_site_symmetry_multiplicity
 _atom_site_fract_x
 _atom_site_fract_y
 _atom_site_fract_z
 _atom_site_occupancy
  Sm  Sm0  1  0.001554  0.001554  0.996893  1
  Al  Al1  1  0.248183  0.748183  0.503634  1
  Al  Al2  1  0.389204  0.389204  0.221593  1
  Ga  Ga3  1  0.609150  0.609150  0.781701  1
  Ag  Ag4  1  0.751910  0.251910  0.496180  1
