# generated using pymatgen
data_Cs2NbFeSe4
_symmetry_space_group_name_H-M   'P 1'
_cell_length_a   15.16287091
_cell_length_b   13.51713309
_cell_length_c   8.01605583
_cell_angle_alpha   85.48549260
_cell_angle_beta   62.70995837
_cell_angle_gamma   31.80454749
_symmetry_Int_Tables_number   1
_chemical_formula_structural   Cs2NbFeSe4
_chemical_formula_sum   'Cs4 Nb2 Fe2 Se8'
_cell_volume   575.45922540
_cell_formula_units_Z   2
loop_
 _symmetry_equiv_pos_site_id
 _symmetry_equiv_pos_as_xyz
  1  'x, y, z'
loop_
 _atom_site_type_symbol
 _atom_site_label
 _atom_site_symmetry_multiplicity
 _atom_site_fract_x
 _atom_site_fract_y
 _atom_site_fract_z
 _atom_site_occupancy
  Cs  Cs0  1  0.572711  0.572711  0.927289  1
  Cs  Cs1  1  0.927289  0.927289  0.572711  1
  Cs  Cs2  1  0.677289  0.677289  0.322711  1
  Cs  Cs3  1  0.322711  0.322711  0.677289  1
  Nb  Nb4  1  0.500000  0.500000  0.500000  1
  Nb  Nb5  1  0.750000  0.750000  0.750000  1
  Fe  Fe6  1  0.250000  0.250000  0.250000  1
  Fe  Fe7  1  0.000000  0.000000  0.000000  1
  Se  Se8  1  0.207014  0.898087  0.606970  1
  Se  Se9  1  0.287929  0.606970  0.898087  1
  Se  Se10  1  0.606970  0.287929  0.207014  1
  Se  Se11  1  0.898087  0.207014  0.287929  1
  Se  Se12  1  0.643030  0.962071  0.042986  1
  Se  Se13  1  0.351913  0.042986  0.962071  1
  Se  Se14  1  0.962071  0.643030  0.351913  1
  Se  Se15  1  0.042986  0.351913  0.643030  1
