# generated using pymatgen
data_Sm11Er(C2I11)2
_symmetry_space_group_name_H-M   'P 1'
_cell_length_a   9.68486044
_cell_length_b   10.84296963
_cell_length_c   15.15079665
_cell_angle_alpha   88.11266932
_cell_angle_beta   104.30877680
_cell_angle_gamma   110.07491128
_symmetry_Int_Tables_number   1
_chemical_formula_structural   Sm11Er(C2I11)2
_chemical_formula_sum   'Sm11 Er1 C4 I22'
_cell_volume   1445.64743697
_cell_formula_units_Z   1
loop_
 _symmetry_equiv_pos_site_id
 _symmetry_equiv_pos_as_xyz
  1  'x, y, z'
loop_
 _atom_site_type_symbol
 _atom_site_label
 _atom_site_symmetry_multiplicity
 _atom_site_fract_x
 _atom_site_fract_y
 _atom_site_fract_z
 _atom_site_occupancy
  Sm  Sm0  1  0.615405  0.522642  0.878089  1
  Sm  Sm1  1  0.421593  0.781494  0.266200  1
  Sm  Sm2  1  0.578154  0.217628  0.733284  1
  Sm  Sm3  1  0.626010  0.574468  0.367456  1
  Sm  Sm4  1  0.373256  0.425151  0.631760  1
  Sm  Sm5  1  0.833747  0.646439  0.200074  1
  Sm  Sm6  1  0.165084  0.352988  0.799967  1
  Sm  Sm7  1  0.628312  0.849528  0.096803  1
  Sm  Sm8  1  0.371092  0.150021  0.903470  1
  Sm  Sm9  1  0.859545  0.946137  0.345603  1
  Sm  Sm10  1  0.138980  0.052429  0.653514  1
  Er  Er11  1  0.389544  0.481846  0.123656  1
  C  C12  1  0.429935  0.342709  0.795378  1
  C  C13  1  0.568677  0.655736  0.203653  1
  C  C14  1  0.317230  0.232945  0.741395  1
  C  C15  1  0.681429  0.765753  0.257969  1
  I  I16  1  0.382503  0.306601  0.275999  1
  I  I17  1  0.615084  0.696231  0.718823  1
  I  I18  1  0.126419  0.555248  0.149235  1
  I  I19  1  0.878874  0.441157  0.849225  1
  I  I20  1  0.622805  0.375229  0.068002  1
  I  I21  1  0.371186  0.622561  0.937691  1
  I  I22  1  0.119586  0.212906  0.477176  1
  I  I23  1  0.879997  0.786419  0.522282  1
  I  I24  1  0.613983  0.034413  0.389317  1
  I  I25  1  0.385507  0.965199  0.610339  1
  I  I26  1  0.129032  0.868136  0.304871  1
  I  I27  1  0.870581  0.130899  0.694866  1
  I  I28  1  0.129630  0.537369  0.647742  1
  I  I29  1  0.870712  0.462755  0.352512  1
  I  I30  1  0.623116  0.373946  0.559299  1
  I  I31  1  0.376435  0.625666  0.440183  1
  I  I32  1  0.144423  0.224444  0.987797  1
  I  I33  1  0.863017  0.782722  0.016197  1
  I  I34  1  0.628697  0.045157  0.901801  1
  I  I35  1  0.371078  0.955172  0.098310  1
  I  I36  1  0.125925  0.885607  0.822595  1
  I  I37  1  0.873418  0.114249  0.177468  1
