# generated using pymatgen
data_KTl(AgTe2)4
_symmetry_space_group_name_H-M   'P 1'
_cell_length_a   12.01055058
_cell_length_b   12.01055055
_cell_length_c   11.00282800
_cell_angle_alpha   90.13345834
_cell_angle_beta   90.13345834
_cell_angle_gamma   14.87961710
_symmetry_Int_Tables_number   1
_chemical_formula_structural   KTl(AgTe2)4
_chemical_formula_sum   'K1 Tl1 Ag4 Te8'
_cell_volume   407.57295348
_cell_formula_units_Z   1
loop_
 _symmetry_equiv_pos_site_id
 _symmetry_equiv_pos_as_xyz
  1  'x, y, z'
loop_
 _atom_site_type_symbol
 _atom_site_label
 _atom_site_symmetry_multiplicity
 _atom_site_fract_x
 _atom_site_fract_y
 _atom_site_fract_z
 _atom_site_occupancy
  K  K0  1  0.000000  0.000000  0.000000  1
  Tl  Tl1  1  0.500000  0.500000  0.500000  1
  Ag  Ag2  1  0.244269  0.244269  0.116977  1
  Ag  Ag3  1  0.844319  0.844319  0.462229  1
  Ag  Ag4  1  0.155681  0.155681  0.537771  1
  Ag  Ag5  1  0.755731  0.755731  0.883023  1
  Te  Te6  1  0.906067  0.906067  0.681053  1
  Te  Te7  1  0.093933  0.093933  0.318947  1
  Te  Te8  1  0.583438  0.583438  0.736021  1
  Te  Te9  1  0.416562  0.416562  0.263979  1
  Te  Te10  1  0.645932  0.645932  0.990836  1
  Te  Te11  1  0.354068  0.354068  0.009164  1
  Te  Te12  1  0.741488  0.741488  0.340114  1
  Te  Te13  1  0.258512  0.258512  0.659886  1
