# generated using pymatgen
data_Cs2KIn3F12
_symmetry_space_group_name_H-M   'P 1'
_cell_length_a   8.07762131
_cell_length_b   8.07762059
_cell_length_c   13.62177683
_cell_angle_alpha   73.22849591
_cell_angle_beta   73.22849562
_cell_angle_gamma   59.88823085
_symmetry_Int_Tables_number   1
_chemical_formula_structural   Cs2KIn3F12
_chemical_formula_sum   'Cs4 K2 In6 F24'
_cell_volume   724.96625613
_cell_formula_units_Z   2
loop_
 _symmetry_equiv_pos_site_id
 _symmetry_equiv_pos_as_xyz
  1  'x, y, z'
loop_
 _atom_site_type_symbol
 _atom_site_label
 _atom_site_symmetry_multiplicity
 _atom_site_fract_x
 _atom_site_fract_y
 _atom_site_fract_z
 _atom_site_occupancy
  Cs  Cs0  1  0.887334  0.480011  0.692618  1
  Cs  Cs1  1  0.112666  0.519989  0.307382  1
  Cs  Cs2  1  0.519989  0.112666  0.807382  1
  Cs  Cs3  1  0.480011  0.887334  0.192618  1
  K  K4  1  0.230174  0.769826  0.750000  1
  K  K5  1  0.769826  0.230174  0.250000  1
  In  In6  1  0.500000  0.000000  0.500000  1
  In  In7  1  0.000000  0.500000  0.000000  1
  In  In8  1  0.000000  0.000000  0.500000  1
  In  In9  1  0.000000  0.000000  0.000000  1
  In  In10  1  0.500000  0.500000  0.500000  1
  In  In11  1  0.500000  0.500000  0.000000  1
  F  F12  1  0.893773  0.964829  0.656478  1
  F  F13  1  0.517634  0.880988  0.654002  1
  F  F14  1  0.276857  0.409252  0.036427  1
  F  F15  1  0.695433  0.193723  0.029232  1
  F  F16  1  0.880988  0.517634  0.154002  1
  F  F17  1  0.119012  0.482366  0.845998  1
  F  F18  1  0.482366  0.119012  0.345998  1
  F  F19  1  0.806277  0.304567  0.470768  1
  F  F20  1  0.106227  0.035171  0.343522  1
  F  F21  1  0.590748  0.723143  0.463573  1
  F  F22  1  0.462929  0.508060  0.152370  1
  F  F23  1  0.409252  0.276857  0.536427  1
  F  F24  1  0.508060  0.462929  0.652370  1
  F  F25  1  0.801869  0.932679  0.462095  1
  F  F26  1  0.198131  0.067321  0.537905  1
  F  F27  1  0.537071  0.491940  0.847630  1
  F  F28  1  0.932679  0.801869  0.962095  1
  F  F29  1  0.491940  0.537071  0.347630  1
  F  F30  1  0.723143  0.590748  0.963573  1
  F  F31  1  0.964829  0.893773  0.156478  1
  F  F32  1  0.067321  0.198131  0.037905  1
  F  F33  1  0.304567  0.806277  0.970768  1
  F  F34  1  0.035171  0.106227  0.843522  1
  F  F35  1  0.193723  0.695433  0.529232  1
