# generated using pymatgen
data_YbPu3(CN2)6
_symmetry_space_group_name_H-M   'P 1'
_cell_length_a   6.58904269
_cell_length_b   6.58904483
_cell_length_c   10.68371867
_cell_angle_alpha   90.00000471
_cell_angle_beta   107.96093545
_cell_angle_gamma   59.99999790
_symmetry_Int_Tables_number   1
_chemical_formula_structural   YbPu3(CN2)6
_chemical_formula_sum   'Yb1 Pu3 C6 N12'
_cell_volume   375.36836030
_cell_formula_units_Z   1
loop_
 _symmetry_equiv_pos_site_id
 _symmetry_equiv_pos_as_xyz
  1  'x, y, z'
loop_
 _atom_site_type_symbol
 _atom_site_label
 _atom_site_symmetry_multiplicity
 _atom_site_fract_x
 _atom_site_fract_y
 _atom_site_fract_z
 _atom_site_occupancy
  Yb  Yb0  1  0.328551  0.335725  0.992827  1
  Pu  Pu1  1  0.670766  0.664616  0.006151  1
  Pu  Pu2  1  0.328822  0.835589  0.493233  1
  Pu  Pu3  1  0.670782  0.164609  0.506172  1
  C  C4  1  0.197730  0.249572  0.250740  1
  C  C5  1  0.500312  0.552697  0.250740  1
  C  C6  1  0.803439  0.946990  0.250740  1
  C  C7  1  0.199009  0.046768  0.749560  1
  C  C8  1  0.503783  0.449449  0.749560  1
  C  C9  1  0.796327  0.754224  0.749560  1
  N  N10  1  0.086740  0.352247  0.133827  1
  N  N11  1  0.486075  0.561012  0.133827  1
  N  N12  1  0.694841  0.952913  0.133827  1
  N  N13  1  0.317763  0.143473  0.369436  1
  N  N14  1  0.512907  0.538764  0.369436  1
  N  N15  1  0.908200  0.948327  0.369436  1
  N  N16  1  0.090095  0.053452  0.630055  1
  N  N17  1  0.486506  0.460042  0.630055  1
  N  N18  1  0.683508  0.856452  0.630055  1
  N  N19  1  0.311805  0.035014  0.866921  1
  N  N20  1  0.520102  0.444885  0.866921  1
  N  N21  1  0.901935  0.653180  0.866921  1
