# generated using pymatgen
data_Tm2Ga9Ir2Pt
_symmetry_space_group_name_H-M   'P 1'
_cell_length_a   7.59636843
_cell_length_b   7.59636889
_cell_length_c   9.44044508
_cell_angle_alpha   89.95390442
_cell_angle_beta   89.95390489
_cell_angle_gamma   119.83302808
_symmetry_Int_Tables_number   1
_chemical_formula_structural   Tm2Ga9Ir2Pt
_chemical_formula_sum   'Tm4 Ga18 Ir4 Pt2'
_cell_volume   472.56642403
_cell_formula_units_Z   2
loop_
 _symmetry_equiv_pos_site_id
 _symmetry_equiv_pos_as_xyz
  1  'x, y, z'
loop_
 _atom_site_type_symbol
 _atom_site_label
 _atom_site_symmetry_multiplicity
 _atom_site_fract_x
 _atom_site_fract_y
 _atom_site_fract_z
 _atom_site_occupancy
  Tm  Tm0  1  0.996894  0.669231  0.751215  1
  Tm  Tm1  1  0.003106  0.330769  0.248785  1
  Tm  Tm2  1  0.669231  0.996894  0.751215  1
  Tm  Tm3  1  0.330769  0.003106  0.248785  1
  Ga  Ga4  1  0.126294  0.126294  0.750546  1
  Ga  Ga5  1  0.873706  0.873706  0.249454  1
  Ga  Ga6  1  0.998194  0.331364  0.584308  1
  Ga  Ga7  1  0.001806  0.668636  0.415692  1
  Ga  Ga8  1  0.002162  0.665375  0.080821  1
  Ga  Ga9  1  0.334625  0.997838  0.919179  1
  Ga  Ga10  1  0.997838  0.334625  0.919179  1
  Ga  Ga11  1  0.665375  0.002162  0.080821  1
  Ga  Ga12  1  0.668636  0.001806  0.415692  1
  Ga  Ga13  1  0.331364  0.998194  0.584308  1
  Ga  Ga14  1  0.330056  0.330056  0.066462  1
  Ga  Ga15  1  0.669944  0.669944  0.933538  1
  Ga  Ga16  1  0.671872  0.671872  0.571875  1
  Ga  Ga17  1  0.328128  0.328128  0.428125  1
  Ga  Ga18  1  0.339987  0.545700  0.752837  1
  Ga  Ga19  1  0.660013  0.454300  0.247163  1
  Ga  Ga20  1  0.545700  0.339987  0.752837  1
  Ga  Ga21  1  0.454300  0.660013  0.247163  1
  Ir  Ir22  1  0.327926  0.672074  0.000000  1
  Ir  Ir23  1  0.672074  0.327926  0.000000  1
  Ir  Ir24  1  0.000000  0.000000  0.500000  1
  Ir  Ir25  1  0.000000  0.000000  0.000000  1
  Pt  Pt26  1  0.671155  0.328845  0.500000  1
  Pt  Pt27  1  0.328845  0.671155  0.500000  1
