# generated using pymatgen
data_Dy8Be3Si12Ni
_symmetry_space_group_name_H-M   'P 1'
_cell_length_a   7.86552500
_cell_length_b   7.86552521
_cell_length_c   8.06935900
_cell_angle_alpha   90.00000000
_cell_angle_beta   90.00000000
_cell_angle_gamma   119.99999489
_symmetry_Int_Tables_number   1
_chemical_formula_structural   Dy8Be3Si12Ni
_chemical_formula_sum   'Dy8 Be3 Si12 Ni1'
_cell_volume   432.33971780
_cell_formula_units_Z   1
loop_
 _symmetry_equiv_pos_site_id
 _symmetry_equiv_pos_as_xyz
  1  'x, y, z'
loop_
 _atom_site_type_symbol
 _atom_site_label
 _atom_site_symmetry_multiplicity
 _atom_site_fract_x
 _atom_site_fract_y
 _atom_site_fract_z
 _atom_site_occupancy
  Dy  Dy0  1  0.000000  0.000000  0.249740  1
  Dy  Dy1  1  0.000000  0.000000  0.750082  1
  Dy  Dy2  1  0.001009  0.500504  0.250526  1
  Dy  Dy3  1  0.499496  0.500504  0.250526  1
  Dy  Dy4  1  0.500145  0.000289  0.749444  1
  Dy  Dy5  1  0.499496  0.998991  0.250526  1
  Dy  Dy6  1  0.500145  0.499855  0.749444  1
  Dy  Dy7  1  0.999711  0.499855  0.749444  1
  Be  Be8  1  0.333333  0.666667  0.502122  1
  Be  Be9  1  0.666667  0.333333  0.002253  1
  Be  Be10  1  0.666667  0.333333  0.497692  1
  Si  Si11  1  0.172720  0.345440  0.999705  1
  Si  Si12  1  0.654560  0.827280  0.999705  1
  Si  Si13  1  0.172109  0.344217  0.500240  1
  Si  Si14  1  0.341763  0.170882  0.000208  1
  Si  Si15  1  0.172720  0.827280  0.999705  1
  Si  Si16  1  0.655783  0.827891  0.500240  1
  Si  Si17  1  0.829118  0.658237  0.000208  1
  Si  Si18  1  0.346649  0.173325  0.499706  1
  Si  Si19  1  0.172109  0.827891  0.500240  1
  Si  Si20  1  0.826675  0.653351  0.499706  1
  Si  Si21  1  0.829118  0.170882  0.000208  1
  Si  Si22  1  0.826675  0.173325  0.499706  1
  Ni  Ni23  1  0.333333  0.666667  0.998623  1
