# generated using pymatgen
data_Li4Tb2DyHoSi6
_symmetry_space_group_name_H-M   'P 1'
_cell_length_a   9.27776851
_cell_length_b   9.27776777
_cell_length_c   6.70915300
_cell_angle_alpha   90.00000000
_cell_angle_beta   90.00000000
_cell_angle_gamma   153.50008241
_symmetry_Int_Tables_number   1
_chemical_formula_structural   Li4Tb2DyHoSi6
_chemical_formula_sum   'Li4 Tb2 Dy1 Ho1 Si6'
_cell_volume   257.68011775
_cell_formula_units_Z   1
loop_
 _symmetry_equiv_pos_site_id
 _symmetry_equiv_pos_as_xyz
  1  'x, y, z'
loop_
 _atom_site_type_symbol
 _atom_site_label
 _atom_site_symmetry_multiplicity
 _atom_site_fract_x
 _atom_site_fract_y
 _atom_site_fract_z
 _atom_site_occupancy
  Li  Li0  1  0.190230  0.809770  0.059393  1
  Li  Li1  1  0.190230  0.809770  0.440607  1
  Li  Li2  1  0.809604  0.190396  0.940376  1
  Li  Li3  1  0.809604  0.190396  0.559624  1
  Tb  Tb4  1  0.552935  0.447065  0.250000  1
  Tb  Tb5  1  0.447310  0.552690  0.750000  1
  Dy  Dy6  1  0.345010  0.654990  0.250000  1
  Ho  Ho7  1  0.654877  0.345123  0.750000  1
  Si  Si8  1  0.720980  0.279020  0.250000  1
  Si  Si9  1  0.278680  0.721320  0.750000  1
  Si  Si10  1  0.059449  0.940551  0.926783  1
  Si  Si11  1  0.940819  0.059181  0.073041  1
  Si  Si12  1  0.940819  0.059181  0.426959  1
  Si  Si13  1  0.059449  0.940551  0.573217  1
