# generated using pymatgen
data_Tc7MoAs12
_symmetry_space_group_name_H-M   'P 1'
_cell_length_a   6.70723688
_cell_length_b   6.70736068
_cell_length_c   8.06617407
_cell_angle_alpha   95.69932408
_cell_angle_beta   101.57448346
_cell_angle_gamma   104.55705833
_symmetry_Int_Tables_number   1
_chemical_formula_structural   Tc7MoAs12
_chemical_formula_sum   'Tc7 Mo1 As12'
_cell_volume   339.77085497
_cell_formula_units_Z   1
loop_
 _symmetry_equiv_pos_site_id
 _symmetry_equiv_pos_as_xyz
  1  'x, y, z'
loop_
 _atom_site_type_symbol
 _atom_site_label
 _atom_site_symmetry_multiplicity
 _atom_site_fract_x
 _atom_site_fract_y
 _atom_site_fract_z
 _atom_site_occupancy
  Tc  Tc0  1  0.081469  0.570430  0.855978  1
  Tc  Tc1  1  0.373605  0.429955  0.132011  1
  Tc  Tc2  1  0.631750  0.569951  0.867277  1
  Tc  Tc3  1  0.528266  0.863582  0.367027  1
  Tc  Tc4  1  0.468532  0.135259  0.634626  1
  Tc  Tc5  1  0.091615  0.876324  0.375925  1
  Tc  Tc6  1  0.911228  0.122842  0.624377  1
  Mo  Mo7  1  0.912268  0.429860  0.140173  1
  As  As8  1  0.736275  0.599921  0.351088  1
  As  As9  1  0.265177  0.407382  0.654250  1
  As  As10  1  0.237267  0.564298  0.385588  1
  As  As11  1  0.762140  0.434034  0.614303  1
  As  As12  1  0.857604  0.122412  0.312144  1
  As  As13  1  0.140919  0.873695  0.686581  1
  As  As14  1  0.372058  0.153975  0.319016  1
  As  As15  1  0.629530  0.847324  0.682332  1
  As  As16  1  0.546032  0.204833  0.964043  1
  As  As17  1  0.451860  0.791533  0.033997  1
  As  As18  1  0.034456  0.192868  0.951060  1
  As  As19  1  0.967948  0.809521  0.048203  1
