# generated using pymatgen
data_Er2Ga9NiRuRh
_symmetry_space_group_name_H-M   'P 1'
_cell_length_a   7.53678489
_cell_length_b   7.53678508
_cell_length_c   9.48465799
_cell_angle_alpha   90.10150923
_cell_angle_beta   90.10151098
_cell_angle_gamma   120.59784061
_symmetry_Int_Tables_number   1
_chemical_formula_structural   Er2Ga9NiRuRh
_chemical_formula_sum   'Er4 Ga18 Ni2 Ru2 Rh2'
_cell_volume   463.73923138
_cell_formula_units_Z   2
loop_
 _symmetry_equiv_pos_site_id
 _symmetry_equiv_pos_as_xyz
  1  'x, y, z'
loop_
 _atom_site_type_symbol
 _atom_site_label
 _atom_site_symmetry_multiplicity
 _atom_site_fract_x
 _atom_site_fract_y
 _atom_site_fract_z
 _atom_site_occupancy
  Er  Er0  1  0.995846  0.660247  0.248972  1
  Er  Er1  1  0.004154  0.339753  0.751028  1
  Er  Er2  1  0.660247  0.995846  0.248972  1
  Er  Er3  1  0.339753  0.004154  0.751028  1
  Ga  Ga4  1  0.111524  0.111524  0.250285  1
  Ga  Ga5  1  0.888476  0.888476  0.749715  1
  Ga  Ga6  1  0.999327  0.327994  0.077764  1
  Ga  Ga7  1  0.000673  0.672006  0.922236  1
  Ga  Ga8  1  0.001194  0.673076  0.578374  1
  Ga  Ga9  1  0.326924  0.998806  0.421626  1
  Ga  Ga10  1  0.998806  0.326924  0.421626  1
  Ga  Ga11  1  0.673076  0.001194  0.578374  1
  Ga  Ga12  1  0.672006  0.000673  0.922236  1
  Ga  Ga13  1  0.327994  0.999327  0.077764  1
  Ga  Ga14  1  0.328153  0.328153  0.564747  1
  Ga  Ga15  1  0.671847  0.671847  0.435253  1
  Ga  Ga16  1  0.669280  0.669280  0.063031  1
  Ga  Ga17  1  0.330720  0.330720  0.936969  1
  Ga  Ga18  1  0.335806  0.542901  0.249232  1
  Ga  Ga19  1  0.664194  0.457099  0.750768  1
  Ga  Ga20  1  0.542901  0.335806  0.249232  1
  Ga  Ga21  1  0.457099  0.664194  0.750768  1
  Ni  Ni22  1  0.000000  0.000000  0.000000  1
  Ni  Ni23  1  0.000000  0.000000  0.500000  1
  Ru  Ru24  1  0.672693  0.327307  0.000000  1
  Ru  Ru25  1  0.327307  0.672693  0.000000  1
  Rh  Rh26  1  0.328482  0.671518  0.500000  1
  Rh  Rh27  1  0.671518  0.328482  0.500000  1
