# generated using pymatgen
data_PrEuB8
_symmetry_space_group_name_H-M   'P 1'
_cell_length_a   7.25090800
_cell_length_b   7.24881500
_cell_length_c   4.13265800
_cell_angle_alpha   90.00000000
_cell_angle_beta   90.00000000
_cell_angle_gamma   90.00000000
_symmetry_Int_Tables_number   1
_chemical_formula_structural   PrEuB8
_chemical_formula_sum   'Pr2 Eu2 B16'
_cell_volume   217.21453227
_cell_formula_units_Z   2
loop_
 _symmetry_equiv_pos_site_id
 _symmetry_equiv_pos_as_xyz
  1  'x, y, z'
loop_
 _atom_site_type_symbol
 _atom_site_label
 _atom_site_symmetry_multiplicity
 _atom_site_fract_x
 _atom_site_fract_y
 _atom_site_fract_z
 _atom_site_occupancy
  Pr  Pr0  1  0.317135  0.182713  0.000000  1
  Pr  Pr1  1  0.817135  0.317287  0.000000  1
  Eu  Eu2  1  0.183285  0.683490  0.000000  1
  Eu  Eu3  1  0.683285  0.816510  0.000000  1
  B  B4  1  0.325919  0.462562  0.500000  1
  B  B5  1  0.674187  0.539503  0.500000  1
  B  B6  1  0.538429  0.326989  0.500000  1
  B  B7  1  0.461510  0.675201  0.500000  1
  B  B8  1  0.999443  0.997767  0.204314  1
  B  B9  1  0.499443  0.502233  0.795686  1
  B  B10  1  0.999443  0.997767  0.795686  1
  B  B11  1  0.499443  0.502233  0.204314  1
  B  B12  1  0.587915  0.087321  0.500000  1
  B  B13  1  0.087915  0.412679  0.500000  1
  B  B14  1  0.912733  0.587611  0.500000  1
  B  B15  1  0.412733  0.912389  0.500000  1
  B  B16  1  0.038429  0.173011  0.500000  1
  B  B17  1  0.174187  0.960497  0.500000  1
  B  B18  1  0.825919  0.037438  0.500000  1
  B  B19  1  0.961510  0.824799  0.500000  1
