# generated using pymatgen
data_MnCd2Fe(PO3)8
_symmetry_space_group_name_H-M   'P 1'
_cell_length_a   7.57802189
_cell_length_b   7.59090359
_cell_length_c   10.19157740
_cell_angle_alpha   67.07774284
_cell_angle_beta   66.78594791
_cell_angle_gamma   70.30121133
_symmetry_Int_Tables_number   1
_chemical_formula_structural   MnCd2Fe(PO3)8
_chemical_formula_sum   'Mn1 Cd2 Fe1 P8 O24'
_cell_volume   484.44166761
_cell_formula_units_Z   1
loop_
 _symmetry_equiv_pos_site_id
 _symmetry_equiv_pos_as_xyz
  1  'x, y, z'
loop_
 _atom_site_type_symbol
 _atom_site_label
 _atom_site_symmetry_multiplicity
 _atom_site_fract_x
 _atom_site_fract_y
 _atom_site_fract_z
 _atom_site_occupancy
  Mn  Mn0  1  0.500000  0.000000  0.500000  1
  Cd  Cd1  1  0.957346  0.044891  0.248955  1
  Cd  Cd2  1  0.042654  0.955109  0.751045  1
  Fe  Fe3  1  0.000000  0.500000  0.000000  1
  P  P4  1  0.279389  0.733360  0.025388  1
  P  P5  1  0.265966  0.719404  0.474457  1
  P  P6  1  0.720611  0.266640  0.974612  1
  P  P7  1  0.734034  0.280596  0.525543  1
  P  P8  1  0.310615  0.311271  0.194637  1
  P  P9  1  0.691078  0.686682  0.303344  1
  P  P10  1  0.689385  0.688729  0.805363  1
  P  P11  1  0.308922  0.313318  0.696656  1
  O  O12  1  0.184727  0.910042  0.077381  1
  O  O13  1  0.089914  0.814825  0.422094  1
  O  O14  1  0.815273  0.089958  0.922619  1
  O  O15  1  0.910086  0.185175  0.577906  1
  O  O16  1  0.195872  0.699010  0.925860  1
  O  O17  1  0.299769  0.802043  0.574838  1
  O  O18  1  0.804128  0.300990  0.074140  1
  O  O19  1  0.700231  0.197957  0.425162  1
  O  O20  1  0.491565  0.262523  0.054250  1
  O  O21  1  0.737993  0.508788  0.444849  1
  O  O22  1  0.508435  0.737477  0.945750  1
  O  O23  1  0.262007  0.491212  0.555151  1
  O  O24  1  0.289533  0.540835  0.168196  1
  O  O25  1  0.460250  0.708975  0.331010  1
  O  O26  1  0.710467  0.459165  0.831804  1
  O  O27  1  0.539750  0.291025  0.668990  1
  O  O28  1  0.354230  0.198477  0.338034  1
  O  O29  1  0.804502  0.641300  0.159633  1
  O  O30  1  0.645770  0.801523  0.661966  1
  O  O31  1  0.195498  0.358700  0.840367  1
  O  O32  1  0.131509  0.291273  0.173294  1
  O  O33  1  0.712093  0.866069  0.322958  1
  O  O34  1  0.868491  0.708727  0.826706  1
  O  O35  1  0.287907  0.133931  0.677042  1
