# generated using pymatgen
data_Sc8Ti9Si16W3
_symmetry_space_group_name_H-M   'P 1'
_cell_length_a   6.63885453
_cell_length_b   6.78366960
_cell_length_c   12.96461800
_cell_angle_alpha   90.00000000
_cell_angle_beta   90.00000000
_cell_angle_gamma   90.07828159
_symmetry_Int_Tables_number   1
_chemical_formula_structural   Sc8Ti9Si16W3
_chemical_formula_sum   'Sc8 Ti9 Si16 W3'
_cell_volume   583.87134224
_cell_formula_units_Z   1
loop_
 _symmetry_equiv_pos_site_id
 _symmetry_equiv_pos_as_xyz
  1  'x, y, z'
loop_
 _atom_site_type_symbol
 _atom_site_label
 _atom_site_symmetry_multiplicity
 _atom_site_fract_x
 _atom_site_fract_y
 _atom_site_fract_z
 _atom_site_occupancy
  Sc  Sc0  1  0.499617  0.675170  0.594852  1
  Sc  Sc1  1  0.001588  0.827312  0.905388  1
  Sc  Sc2  1  0.499823  0.325293  0.095925  1
  Sc  Sc3  1  0.000027  0.174073  0.403695  1
  Sc  Sc4  1  0.499823  0.325293  0.404075  1
  Sc  Sc5  1  0.000027  0.174073  0.096305  1
  Sc  Sc6  1  0.499617  0.675170  0.905148  1
  Sc  Sc7  1  0.001588  0.827312  0.594612  1
  Ti  Ti8  1  0.662120  0.172152  0.626861  1
  Ti  Ti9  1  0.165211  0.325824  0.873246  1
  Ti  Ti10  1  0.334859  0.827222  0.126687  1
  Ti  Ti11  1  0.835564  0.672307  0.373078  1
  Ti  Ti12  1  0.334859  0.827222  0.373313  1
  Ti  Ti13  1  0.835564  0.672307  0.126922  1
  Ti  Ti14  1  0.662120  0.172152  0.873139  1
  Ti  Ti15  1  0.165211  0.325824  0.626754  1
  Ti  Ti16  1  0.838011  0.492002  0.750000  1
  Si  Si17  1  0.667225  0.964435  0.459077  1
  Si  Si18  1  0.165307  0.534717  0.040981  1
  Si  Si19  1  0.333953  0.036002  0.959317  1
  Si  Si20  1  0.834032  0.464904  0.539926  1
  Si  Si21  1  0.333953  0.036002  0.540683  1
  Si  Si22  1  0.834032  0.464904  0.960074  1
  Si  Si23  1  0.667225  0.964435  0.040923  1
  Si  Si24  1  0.165307  0.534717  0.459019  1
  Si  Si25  1  0.463281  0.384159  0.750000  1
  Si  Si26  1  0.962447  0.115599  0.750000  1
  Si  Si27  1  0.537016  0.615434  0.250000  1
  Si  Si28  1  0.036723  0.885211  0.250000  1
  Si  Si29  1  0.703316  0.861002  0.750000  1
  Si  Si30  1  0.204056  0.638228  0.750000  1
  Si  Si31  1  0.297390  0.139356  0.250000  1
  Si  Si32  1  0.796873  0.361276  0.250000  1
  W  W33  1  0.338507  0.008399  0.750000  1
  W  W34  1  0.162188  0.509036  0.250000  1
  W  W35  1  0.661535  0.991478  0.250000  1
