# generated using pymatgen
data_Yb15Er2Lu3Pt16
_symmetry_space_group_name_H-M   'P 1'
_cell_length_a   7.45659049
_cell_length_b   7.53674824
_cell_length_c   14.49895428
_cell_angle_alpha   90.04329483
_cell_angle_beta   90.02053356
_cell_angle_gamma   90.02788867
_symmetry_Int_Tables_number   1
_chemical_formula_structural   Yb15Er2Lu3Pt16
_chemical_formula_sum   'Yb15 Er2 Lu3 Pt16'
_cell_volume   814.81830723
_cell_formula_units_Z   1
loop_
 _symmetry_equiv_pos_site_id
 _symmetry_equiv_pos_as_xyz
  1  'x, y, z'
loop_
 _atom_site_type_symbol
 _atom_site_label
 _atom_site_symmetry_multiplicity
 _atom_site_fract_x
 _atom_site_fract_y
 _atom_site_fract_z
 _atom_site_occupancy
  Yb  Yb0  1  0.851172  0.665884  0.122100  1
  Yb  Yb1  1  0.647837  0.166039  0.878232  1
  Yb  Yb2  1  0.147826  0.333743  0.621047  1
  Yb  Yb3  1  0.490980  0.675404  0.594821  1
  Yb  Yb4  1  0.990839  0.823300  0.905738  1
  Yb  Yb5  1  0.509292  0.322187  0.093714  1
  Yb  Yb6  1  0.007460  0.177976  0.405660  1
  Yb  Yb7  1  0.508731  0.322820  0.404824  1
  Yb  Yb8  1  0.007292  0.179892  0.094139  1
  Yb  Yb9  1  0.491300  0.679194  0.904919  1
  Yb  Yb10  1  0.991543  0.820091  0.595578  1
  Yb  Yb11  1  0.809083  0.506362  0.750149  1
  Yb  Yb12  1  0.308395  0.992141  0.750061  1
  Yb  Yb13  1  0.189294  0.490227  0.249147  1
  Yb  Yb14  1  0.694559  0.008278  0.249425  1
  Er  Er15  1  0.648726  0.162203  0.623056  1
  Er  Er16  1  0.149383  0.336050  0.876273  1
  Lu  Lu17  1  0.352038  0.835908  0.124209  1
  Lu  Lu18  1  0.852280  0.664636  0.376815  1
  Lu  Lu19  1  0.352122  0.834158  0.376726  1
  Pt  Pt20  1  0.683231  0.956727  0.458675  1
  Pt  Pt21  1  0.190147  0.541589  0.039462  1
  Pt  Pt22  1  0.310166  0.040090  0.961870  1
  Pt  Pt23  1  0.812681  0.458330  0.538092  1
  Pt  Pt24  1  0.324250  0.030560  0.540100  1
  Pt  Pt25  1  0.828153  0.466169  0.956935  1
  Pt  Pt26  1  0.671416  0.965704  0.043992  1
  Pt  Pt27  1  0.176809  0.544803  0.456323  1
  Pt  Pt28  1  0.443458  0.378248  0.747120  1
  Pt  Pt29  1  0.943293  0.119865  0.751370  1
  Pt  Pt30  1  0.553192  0.624937  0.252642  1
  Pt  Pt31  1  0.060820  0.877251  0.253966  1
  Pt  Pt32  1  0.680103  0.863393  0.746566  1
  Pt  Pt33  1  0.180599  0.635735  0.753523  1
  Pt  Pt34  1  0.324890  0.132644  0.249419  1
  Pt  Pt35  1  0.816637  0.367464  0.253312  1
