# generated using pymatgen
data_Lu2Al6Si4Pt
_symmetry_space_group_name_H-M   'P 1'
_cell_length_a   4.15853956
_cell_length_b   4.15683419
_cell_length_c   16.91098000
_cell_angle_alpha   97.05968118
_cell_angle_beta   89.95034458
_cell_angle_gamma   119.98642288
_symmetry_Int_Tables_number   1
_chemical_formula_structural   Lu2Al6Si4Pt
_chemical_formula_sum   'Lu2 Al6 Si4 Pt1'
_cell_volume   250.65522127
_cell_formula_units_Z   1
loop_
 _symmetry_equiv_pos_site_id
 _symmetry_equiv_pos_as_xyz
  1  'x, y, z'
loop_
 _atom_site_type_symbol
 _atom_site_label
 _atom_site_symmetry_multiplicity
 _atom_site_fract_x
 _atom_site_fract_y
 _atom_site_fract_z
 _atom_site_occupancy
  Lu  Lu0  1  0.434333  0.868746  0.303159  1
  Lu  Lu1  1  0.565668  0.131255  0.696841  1
  Al  Al2  1  0.682456  0.365475  0.048496  1
  Al  Al3  1  0.051717  0.102135  0.152555  1
  Al  Al4  1  0.813583  0.628786  0.443988  1
  Al  Al5  1  0.186417  0.371215  0.556012  1
  Al  Al6  1  0.948283  0.897866  0.847445  1
  Al  Al7  1  0.317545  0.634525  0.951504  1
  Si  Si8  1  0.735139  0.470460  0.205781  1
  Si  Si9  1  0.134609  0.268982  0.403353  1
  Si  Si10  1  0.865391  0.731019  0.596648  1
  Si  Si11  1  0.264861  0.529541  0.794219  1
  Pt  Pt12  1  0.000000  0.000000  0.000000  1
