# generated using pymatgen
data_K2Zr4PbS10
_symmetry_space_group_name_H-M   'P 1'
_cell_length_a   6.46100762
_cell_length_b   10.88445255
_cell_length_c   8.65851800
_cell_angle_alpha   59.88406235
_cell_angle_beta   68.29058533
_cell_angle_gamma   90.21345517
_symmetry_Int_Tables_number   1
_chemical_formula_structural   K2Zr4PbS10
_chemical_formula_sum   'K2 Zr4 Pb1 S10'
_cell_volume   475.58000692
_cell_formula_units_Z   1
loop_
 _symmetry_equiv_pos_site_id
 _symmetry_equiv_pos_as_xyz
  1  'x, y, z'
loop_
 _atom_site_type_symbol
 _atom_site_label
 _atom_site_symmetry_multiplicity
 _atom_site_fract_x
 _atom_site_fract_y
 _atom_site_fract_z
 _atom_site_occupancy
  K  K0  1  0.781805  0.073801  0.428619  1
  K  K1  1  0.006301  0.527262  0.985651  1
  Zr  Zr2  1  0.402879  0.799613  0.195444  1
  Zr  Zr3  1  0.202133  0.398366  0.593293  1
  Zr  Zr4  1  0.597726  0.202089  0.806095  1
  Zr  Zr5  1  0.000441  0.998334  0.996673  1
  Pb  Pb6  1  0.798517  0.601616  0.407259  1
  S  S7  1  0.020866  0.864781  0.326243  1
  S  S8  1  0.597590  0.032517  0.152473  1
  S  S9  1  0.195636  0.240842  0.946279  1
  S  S10  1  0.791802  0.411484  0.785802  1
  S  S11  1  0.345290  0.637903  0.553240  1
  S  S12  1  0.401432  0.962463  0.852558  1
  S  S13  1  0.000192  0.165937  0.647351  1
  S  S14  1  0.588803  0.334786  0.469747  1
  S  S15  1  0.255917  0.560762  0.238063  1
  S  S16  1  0.812670  0.787445  0.015210  1
