# generated using pymatgen
data_Ho17Lu2MgIr12
_symmetry_space_group_name_H-M   'P 1'
_cell_length_a   10.79842300
_cell_length_b   10.79842300
_cell_length_c   6.31053400
_cell_angle_alpha   90.00000000
_cell_angle_beta   90.00000000
_cell_angle_gamma   90.00000000
_symmetry_Int_Tables_number   1
_chemical_formula_structural   Ho17Lu2MgIr12
_chemical_formula_sum   'Ho17 Lu2 Mg1 Ir12'
_cell_volume   735.84574447
_cell_formula_units_Z   1
loop_
 _symmetry_equiv_pos_site_id
 _symmetry_equiv_pos_as_xyz
  1  'x, y, z'
loop_
 _atom_site_type_symbol
 _atom_site_label
 _atom_site_symmetry_multiplicity
 _atom_site_fract_x
 _atom_site_fract_y
 _atom_site_fract_z
 _atom_site_occupancy
  Ho  Ho0  1  0.284238  0.084785  0.378782  1
  Ho  Ho1  1  0.290771  0.911938  0.879414  1
  Ho  Ho2  1  0.709229  0.088062  0.879414  1
  Ho  Ho3  1  0.715762  0.915215  0.378782  1
  Ho  Ho4  1  0.588422  0.791314  0.878517  1
  Ho  Ho5  1  0.587302  0.208563  0.377030  1
  Ho  Ho6  1  0.412698  0.791437  0.377030  1
  Ho  Ho7  1  0.411578  0.208686  0.878517  1
  Ho  Ho8  1  0.208563  0.412698  0.622970  1
  Ho  Ho9  1  0.208686  0.588422  0.121483  1
  Ho  Ho10  1  0.791314  0.411578  0.121483  1
  Ho  Ho11  1  0.791437  0.587302  0.622970  1
  Ho  Ho12  1  0.911938  0.709229  0.120586  1
  Ho  Ho13  1  0.915215  0.284238  0.621218  1
  Ho  Ho14  1  0.084785  0.715762  0.621218  1
  Ho  Ho15  1  0.088062  0.290771  0.120586  1
  Ho  Ho16  1  0.000000  0.000000  0.000000  1
  Lu  Lu17  1  0.500000  0.500000  0.000000  1
  Lu  Lu18  1  0.500000  0.500000  0.500000  1
  Mg  Mg19  1  0.000000  0.000000  0.500000  1
  Ir  Ir20  1  0.846219  0.154375  0.247657  1
  Ir  Ir21  1  0.845625  0.846219  0.752343  1
  Ir  Ir22  1  0.154375  0.153781  0.752343  1
  Ir  Ir23  1  0.153781  0.845625  0.247657  1
  Ir  Ir24  1  0.652378  0.348012  0.748699  1
  Ir  Ir25  1  0.651988  0.652378  0.251301  1
  Ir  Ir26  1  0.348012  0.347622  0.251301  1
  Ir  Ir27  1  0.347622  0.651988  0.748699  1
  Ir  Ir28  1  0.500000  0.000000  0.124146  1
  Ir  Ir29  1  0.500000  0.000000  0.621027  1
  Ir  Ir30  1  0.000000  0.500000  0.875854  1
  Ir  Ir31  1  0.000000  0.500000  0.378973  1
