# generated using pymatgen
data_LaPa(FeB)8
_symmetry_space_group_name_H-M   'P 1'
_cell_length_a   7.02870200
_cell_length_b   7.02870200
_cell_length_c   3.81087000
_cell_angle_alpha   90.00000000
_cell_angle_beta   90.00000000
_cell_angle_gamma   90.00000000
_symmetry_Int_Tables_number   1
_chemical_formula_structural   LaPa(FeB)8
_chemical_formula_sum   'La1 Pa1 Fe8 B8'
_cell_volume   188.26708368
_cell_formula_units_Z   1
loop_
 _symmetry_equiv_pos_site_id
 _symmetry_equiv_pos_as_xyz
  1  'x, y, z'
loop_
 _atom_site_type_symbol
 _atom_site_label
 _atom_site_symmetry_multiplicity
 _atom_site_fract_x
 _atom_site_fract_y
 _atom_site_fract_z
 _atom_site_occupancy
  La  La0  1  0.500000  0.500000  0.500000  1
  Pa  Pa1  1  0.000000  0.000000  0.000000  1
  Fe  Fe2  1  0.128116  0.382866  0.898289  1
  Fe  Fe3  1  0.871884  0.617134  0.898289  1
  Fe  Fe4  1  0.889489  0.364580  0.395308  1
  Fe  Fe5  1  0.110511  0.635420  0.395308  1
  Fe  Fe6  1  0.364580  0.110511  0.604692  1
  Fe  Fe7  1  0.635420  0.889489  0.604692  1
  Fe  Fe8  1  0.617134  0.128116  0.101711  1
  Fe  Fe9  1  0.382866  0.871884  0.101711  1
  B  B10  1  0.665987  0.801014  0.104716  1
  B  B11  1  0.334013  0.198986  0.104716  1
  B  B12  1  0.290313  0.837354  0.602639  1
  B  B13  1  0.709687  0.162646  0.602639  1
  B  B14  1  0.837354  0.709687  0.397361  1
  B  B15  1  0.162646  0.290313  0.397361  1
  B  B16  1  0.198986  0.665987  0.895284  1
  B  B17  1  0.801014  0.334013  0.895284  1
