# generated using pymatgen
data_Dy2Y18Ir11Os
_symmetry_space_group_name_H-M   'P 1'
_cell_length_a   10.91627500
_cell_length_b   10.91598500
_cell_length_c   6.41819200
_cell_angle_alpha   90.00000000
_cell_angle_beta   90.00000000
_cell_angle_gamma   90.00011547
_symmetry_Int_Tables_number   1
_chemical_formula_structural   Dy2Y18Ir11Os
_chemical_formula_sum   'Dy2 Y18 Ir11 Os1'
_cell_volume   764.80391578
_cell_formula_units_Z   1
loop_
 _symmetry_equiv_pos_site_id
 _symmetry_equiv_pos_as_xyz
  1  'x, y, z'
loop_
 _atom_site_type_symbol
 _atom_site_label
 _atom_site_symmetry_multiplicity
 _atom_site_fract_x
 _atom_site_fract_y
 _atom_site_fract_z
 _atom_site_occupancy
  Dy  Dy0  1  0.500000  0.500000  0.999176  1
  Dy  Dy1  1  0.500000  0.500000  0.499302  1
  Y  Y2  1  0.292580  0.087311  0.376671  1
  Y  Y3  1  0.293151  0.912728  0.880472  1
  Y  Y4  1  0.706849  0.087272  0.880472  1
  Y  Y5  1  0.707420  0.912689  0.376671  1
  Y  Y6  1  0.587207  0.793132  0.880573  1
  Y  Y7  1  0.587248  0.207432  0.376778  1
  Y  Y8  1  0.412752  0.792568  0.376778  1
  Y  Y9  1  0.412793  0.206868  0.880573  1
  Y  Y10  1  0.208936  0.411632  0.621401  1
  Y  Y11  1  0.208847  0.588103  0.121035  1
  Y  Y12  1  0.791153  0.411897  0.121035  1
  Y  Y13  1  0.791064  0.588368  0.621401  1
  Y  Y14  1  0.911840  0.708818  0.121131  1
  Y  Y15  1  0.911554  0.291105  0.621490  1
  Y  Y16  1  0.088446  0.708895  0.621490  1
  Y  Y17  1  0.088160  0.291182  0.121131  1
  Y  Y18  1  0.000000  0.000000  0.499270  1
  Y  Y19  1  0.000000  0.000000  0.999117  1
  Ir  Ir20  1  0.847550  0.153958  0.250156  1
  Ir  Ir21  1  0.847476  0.846368  0.749789  1
  Ir  Ir22  1  0.152524  0.153632  0.749789  1
  Ir  Ir23  1  0.152450  0.846042  0.250156  1
  Ir  Ir24  1  0.652898  0.348186  0.749812  1
  Ir  Ir25  1  0.653224  0.651757  0.250202  1
  Ir  Ir26  1  0.346776  0.348243  0.250202  1
  Ir  Ir27  1  0.347102  0.651814  0.749812  1
  Ir  Ir28  1  0.500000  0.000000  0.624675  1
  Ir  Ir29  1  0.000000  0.500000  0.876247  1
  Ir  Ir30  1  0.000000  0.500000  0.376594  1
  Os  Os31  1  0.500000  0.000000  0.126591  1
