# generated using pymatgen
data_Li6TiAs5Rh12
_symmetry_space_group_name_H-M   'P 1'
_cell_length_a   4.19511402
_cell_length_b   5.92364800
_cell_length_c   12.61800900
_cell_angle_alpha   90.00000000
_cell_angle_beta   90.00514897
_cell_angle_gamma   90.00000000
_symmetry_Int_Tables_number   1
_chemical_formula_structural   Li6TiAs5Rh12
_chemical_formula_sum   'Li6 Ti1 As5 Rh12'
_cell_volume   313.56230153
_cell_formula_units_Z   1
loop_
 _symmetry_equiv_pos_site_id
 _symmetry_equiv_pos_as_xyz
  1  'x, y, z'
loop_
 _atom_site_type_symbol
 _atom_site_label
 _atom_site_symmetry_multiplicity
 _atom_site_fract_x
 _atom_site_fract_y
 _atom_site_fract_z
 _atom_site_occupancy
  Li  Li0  1  0.000026  0.000000  0.999073  1
  Li  Li1  1  0.499895  0.500000  0.167620  1
  Li  Li2  1  0.999922  0.000000  0.333327  1
  Li  Li3  1  0.500005  0.500000  0.499040  1
  Li  Li4  1  0.000205  0.000000  0.667595  1
  Li  Li5  1  0.500080  0.500000  0.833338  1
  Ti  Ti6  1  0.500167  0.000000  0.833355  1
  As  As7  1  0.999992  0.500000  0.998188  1
  As  As8  1  0.499838  0.000000  0.165721  1
  As  As9  1  0.999676  0.500000  0.333328  1
  As  As10  1  0.499998  0.000000  0.500950  1
  As  As11  1  0.000188  0.500000  0.668466  1
  Rh  Rh12  1  0.500006  0.250749  0.002780  1
  Rh  Rh13  1  0.500006  0.749250  0.002780  1
  Rh  Rh14  1  0.999877  0.249917  0.167430  1
  Rh  Rh15  1  0.999877  0.750084  0.167430  1
  Rh  Rh16  1  0.499838  0.249476  0.333330  1
  Rh  Rh17  1  0.499838  0.750524  0.333330  1
  Rh  Rh18  1  0.999996  0.249900  0.499222  1
  Rh  Rh19  1  0.999996  0.750099  0.499222  1
  Rh  Rh20  1  0.500174  0.250730  0.663905  1
  Rh  Rh21  1  0.500174  0.749270  0.663905  1
  Rh  Rh22  1  0.000111  0.255300  0.833334  1
  Rh  Rh23  1  0.000111  0.744701  0.833334  1
