# generated using pymatgen
data_TbDy15(C2Cl3)4
_symmetry_space_group_name_H-M   'P 1'
_cell_length_a   3.65418700
_cell_length_b   10.51220422
_cell_length_c   19.69970842
_cell_angle_alpha   89.97638791
_cell_angle_beta   90.00000000
_cell_angle_gamma   90.00000000
_symmetry_Int_Tables_number   1
_chemical_formula_structural   TbDy15(C2Cl3)4
_chemical_formula_sum   'Tb1 Dy15 C8 Cl12'
_cell_volume   756.73586731
_cell_formula_units_Z   1
loop_
 _symmetry_equiv_pos_site_id
 _symmetry_equiv_pos_as_xyz
  1  'x, y, z'
loop_
 _atom_site_type_symbol
 _atom_site_label
 _atom_site_symmetry_multiplicity
 _atom_site_fract_x
 _atom_site_fract_y
 _atom_site_fract_z
 _atom_site_occupancy
  Tb  Tb0  1  0.250000  0.138628  0.572893  1
  Dy  Dy1  1  0.250000  0.638528  0.926632  1
  Dy  Dy2  1  0.750000  0.861350  0.426573  1
  Dy  Dy3  1  0.750000  0.361477  0.073466  1
  Dy  Dy4  1  0.250000  0.637630  0.756120  1
  Dy  Dy5  1  0.250000  0.137699  0.743984  1
  Dy  Dy6  1  0.750000  0.362252  0.244043  1
  Dy  Dy7  1  0.750000  0.862387  0.255940  1
  Dy  Dy8  1  0.250000  0.100501  0.331952  1
  Dy  Dy9  1  0.250000  0.600505  0.167988  1
  Dy  Dy10  1  0.750000  0.899605  0.668095  1
  Dy  Dy11  1  0.750000  0.399434  0.831966  1
  Dy  Dy12  1  0.250000  0.124261  0.164385  1
  Dy  Dy13  1  0.250000  0.624233  0.335571  1
  Dy  Dy14  1  0.750000  0.875640  0.835518  1
  Dy  Dy15  1  0.750000  0.375662  0.664552  1
  C  C16  1  0.250000  0.863640  0.347849  1
  C  C17  1  0.250000  0.363847  0.152151  1
  C  C18  1  0.750000  0.136394  0.652603  1
  C  C19  1  0.750000  0.636189  0.847948  1
  C  C20  1  0.250000  0.388560  0.750128  1
  C  C21  1  0.250000  0.887767  0.750107  1
  C  C22  1  0.750000  0.611904  0.250030  1
  C  C23  1  0.750000  0.111740  0.249895  1
  Cl  Cl24  1  0.250000  0.378159  0.952449  1
  Cl  Cl25  1  0.250000  0.876815  0.547555  1
  Cl  Cl26  1  0.750000  0.621874  0.047644  1
  Cl  Cl27  1  0.750000  0.121825  0.451563  1
  Cl  Cl28  1  0.250000  0.886939  0.945250  1
  Cl  Cl29  1  0.250000  0.388608  0.555020  1
  Cl  Cl30  1  0.750000  0.113032  0.054810  1
  Cl  Cl31  1  0.750000  0.612877  0.445121  1
  Cl  Cl32  1  0.250000  0.360629  0.354074  1
  Cl  Cl33  1  0.250000  0.860637  0.145891  1
  Cl  Cl34  1  0.750000  0.639460  0.645977  1
  Cl  Cl35  1  0.750000  0.139314  0.854258  1
