# generated using pymatgen
data_Sr2La8Si8O3
_symmetry_space_group_name_H-M   'P 1'
_cell_length_a   11.08141100
_cell_length_b   11.03464394
_cell_length_c   4.68156800
_cell_angle_alpha   90.00000000
_cell_angle_beta   90.00000000
_cell_angle_gamma   120.14030093
_symmetry_Int_Tables_number   1
_chemical_formula_structural   Sr2La8Si8O3
_chemical_formula_sum   'Sr2 La8 Si8 O3'
_cell_volume   495.06203932
_cell_formula_units_Z   1
loop_
 _symmetry_equiv_pos_site_id
 _symmetry_equiv_pos_as_xyz
  1  'x, y, z'
loop_
 _atom_site_type_symbol
 _atom_site_label
 _atom_site_symmetry_multiplicity
 _atom_site_fract_x
 _atom_site_fract_y
 _atom_site_fract_z
 _atom_site_occupancy
  Sr  Sr0  1  0.207719  0.792328  0.000000  1
  Sr  Sr1  1  0.584609  0.792328  0.000000  1
  La  La2  1  0.003932  0.503293  0.500000  1
  La  La3  1  0.788755  0.577511  0.000000  1
  La  La4  1  0.000056  0.000111  0.000000  1
  La  La5  1  0.206686  0.413371  0.000000  1
  La  La6  1  0.424012  0.213067  0.000000  1
  La  La7  1  0.499362  0.503293  0.500000  1
  La  La8  1  0.789054  0.213067  0.000000  1
  La  La9  1  0.496784  0.993569  0.500000  1
  Si  Si10  1  0.998630  0.783961  0.500000  1
  Si  Si11  1  0.001975  0.219769  0.500000  1
  Si  Si12  1  0.217794  0.219769  0.500000  1
  Si  Si13  1  0.787059  0.004107  0.500000  1
  Si  Si14  1  0.329480  0.658962  0.500000  1
  Si  Si15  1  0.217049  0.004107  0.500000  1
  Si  Si16  1  0.667499  0.334997  0.500000  1
  Si  Si17  1  0.785331  0.783961  0.500000  1
  O  O18  1  0.975787  0.478100  0.000000  1
  O  O19  1  0.502314  0.478100  0.000000  1
  O  O20  1  0.516114  0.032229  0.000000  1
