# generated using pymatgen
data_V11GaCoSi3
_symmetry_space_group_name_H-M   'P 1'
_cell_length_a   4.70003100
_cell_length_b   4.71168200
_cell_length_c   9.34615400
_cell_angle_alpha   90.00000000
_cell_angle_beta   90.00000000
_cell_angle_gamma   90.00000000
_symmetry_Int_Tables_number   1
_chemical_formula_structural   V11GaCoSi3
_chemical_formula_sum   'V11 Ga1 Co1 Si3'
_cell_volume   206.97106130
_cell_formula_units_Z   1
loop_
 _symmetry_equiv_pos_site_id
 _symmetry_equiv_pos_as_xyz
  1  'x, y, z'
loop_
 _atom_site_type_symbol
 _atom_site_label
 _atom_site_symmetry_multiplicity
 _atom_site_fract_x
 _atom_site_fract_y
 _atom_site_fract_z
 _atom_site_occupancy
  V  V0  1  0.000030  0.500000  0.124247  1
  V  V1  1  0.002186  0.500000  0.631166  1
  V  V2  1  0.497980  0.249157  0.748175  1
  V  V3  1  0.497980  0.249157  0.251825  1
  V  V4  1  0.748683  0.000000  0.500000  1
  V  V5  1  0.000030  0.500000  0.875753  1
  V  V6  1  0.002186  0.500000  0.368834  1
  V  V7  1  0.497980  0.750843  0.748175  1
  V  V8  1  0.497980  0.750843  0.251825  1
  V  V9  1  0.246879  0.000000  0.000000  1
  V  V10  1  0.254730  0.000000  0.500000  1
  Ga  Ga11  1  0.500362  0.500000  0.000000  1
  Co  Co12  1  0.750420  0.000000  0.000000  1
  Si  Si13  1  0.497708  0.500000  0.500000  1
  Si  Si14  1  0.002433  0.000000  0.751201  1
  Si  Si15  1  0.002433  0.000000  0.248799  1
