# generated using pymatgen
data_La17Pr3(Ir2Rh)4
_symmetry_space_group_name_H-M   'P 1'
_cell_length_a   11.36368300
_cell_length_b   11.36368300
_cell_length_c   6.74427400
_cell_angle_alpha   90.00000000
_cell_angle_beta   90.00000000
_cell_angle_gamma   90.00000000
_symmetry_Int_Tables_number   1
_chemical_formula_structural   La17Pr3(Ir2Rh)4
_chemical_formula_sum   'La17 Pr3 Ir8 Rh4'
_cell_volume   870.91029921
_cell_formula_units_Z   1
loop_
 _symmetry_equiv_pos_site_id
 _symmetry_equiv_pos_as_xyz
  1  'x, y, z'
loop_
 _atom_site_type_symbol
 _atom_site_label
 _atom_site_symmetry_multiplicity
 _atom_site_fract_x
 _atom_site_fract_y
 _atom_site_fract_z
 _atom_site_occupancy
  La  La0  1  0.291203  0.092236  0.388089  1
  La  La1  1  0.290787  0.907229  0.889391  1
  La  La2  1  0.709213  0.092771  0.889391  1
  La  La3  1  0.708797  0.907764  0.388089  1
  La  La4  1  0.592619  0.790611  0.888749  1
  La  La5  1  0.592027  0.209358  0.389312  1
  La  La6  1  0.407973  0.790642  0.389312  1
  La  La7  1  0.407381  0.209389  0.888749  1
  La  La8  1  0.209358  0.407973  0.610688  1
  La  La9  1  0.209389  0.592619  0.111251  1
  La  La10  1  0.790611  0.407381  0.111251  1
  La  La11  1  0.790642  0.592027  0.610688  1
  La  La12  1  0.907229  0.709213  0.110609  1
  La  La13  1  0.907764  0.291203  0.611911  1
  La  La14  1  0.092236  0.708797  0.611911  1
  La  La15  1  0.092771  0.290787  0.110609  1
  La  La16  1  0.000000  0.000000  0.500000  1
  Pr  Pr17  1  0.000000  0.000000  0.000000  1
  Pr  Pr18  1  0.500000  0.500000  0.000000  1
  Pr  Pr19  1  0.500000  0.500000  0.500000  1
  Ir  Ir20  1  0.845244  0.154563  0.251182  1
  Ir  Ir21  1  0.845437  0.845244  0.748818  1
  Ir  Ir22  1  0.154563  0.154756  0.748818  1
  Ir  Ir23  1  0.154756  0.845437  0.251182  1
  Ir  Ir24  1  0.655079  0.344796  0.750162  1
  Ir  Ir25  1  0.655204  0.655079  0.249838  1
  Ir  Ir26  1  0.344796  0.344921  0.249838  1
  Ir  Ir27  1  0.344921  0.655204  0.750162  1
  Rh  Rh28  1  0.500000  0.000000  0.115261  1
  Rh  Rh29  1  0.500000  0.000000  0.615472  1
  Rh  Rh30  1  0.000000  0.500000  0.884739  1
  Rh  Rh31  1  0.000000  0.500000  0.384528  1
