# generated using pymatgen
data_Mn6Nb4IrRu
_symmetry_space_group_name_H-M   'P 1'
_cell_length_a   4.83303100
_cell_length_b   4.83303058
_cell_length_c   8.22967700
_cell_angle_alpha   90.00000000
_cell_angle_beta   90.00000000
_cell_angle_gamma   119.99998237
_symmetry_Int_Tables_number   1
_chemical_formula_structural   Mn6Nb4IrRu
_chemical_formula_sum   'Mn6 Nb4 Ir1 Ru1'
_cell_volume   166.47637962
_cell_formula_units_Z   1
loop_
 _symmetry_equiv_pos_site_id
 _symmetry_equiv_pos_as_xyz
  1  'x, y, z'
loop_
 _atom_site_type_symbol
 _atom_site_label
 _atom_site_symmetry_multiplicity
 _atom_site_fract_x
 _atom_site_fract_y
 _atom_site_fract_z
 _atom_site_occupancy
  Mn  Mn0  1  0.822121  0.177879  0.250482  1
  Mn  Mn1  1  0.822121  0.644243  0.250482  1
  Mn  Mn2  1  0.355757  0.177879  0.250482  1
  Mn  Mn3  1  0.177879  0.822121  0.749518  1
  Mn  Mn4  1  0.177879  0.355757  0.749518  1
  Mn  Mn5  1  0.644243  0.822121  0.749518  1
  Nb  Nb6  1  0.333333  0.666667  0.430121  1
  Nb  Nb7  1  0.666667  0.333333  0.569879  1
  Nb  Nb8  1  0.666667  0.333333  0.929994  1
  Nb  Nb9  1  0.333333  0.666667  0.070006  1
  Ir  Ir10  1  0.000000  0.000000  0.000000  1
  Ru  Ru11  1  0.000000  0.000000  0.500000  1
