# generated using pymatgen
data_PdRhPb2O7
_symmetry_space_group_name_H-M   'P 1'
_cell_length_a   7.35243624
_cell_length_b   7.32445414
_cell_length_c   7.35243621
_cell_angle_alpha   60.12582356
_cell_angle_beta   60.29884520
_cell_angle_gamma   60.12582728
_symmetry_Int_Tables_number   1
_chemical_formula_structural   PdRhPb2O7
_chemical_formula_sum   'Pd2 Rh2 Pb4 O14'
_cell_volume   281.13903915
_cell_formula_units_Z   2
loop_
 _symmetry_equiv_pos_site_id
 _symmetry_equiv_pos_as_xyz
  1  'x, y, z'
loop_
 _atom_site_type_symbol
 _atom_site_label
 _atom_site_symmetry_multiplicity
 _atom_site_fract_x
 _atom_site_fract_y
 _atom_site_fract_z
 _atom_site_occupancy
  Pd  Pd0  1  0.625000  0.125000  0.625000  1
  Pd  Pd1  1  0.625000  0.625000  0.625000  1
  Rh  Rh2  1  0.125000  0.625000  0.625000  1
  Rh  Rh3  1  0.625000  0.625000  0.125000  1
  Pb  Pb4  1  0.625000  0.125000  0.125000  1
  Pb  Pb5  1  0.125000  0.625000  0.125000  1
  Pb  Pb6  1  0.125000  0.125000  0.625000  1
  Pb  Pb7  1  0.125000  0.125000  0.125000  1
  O  O8  1  0.708155  0.706255  0.290493  1
  O  O9  1  0.290493  0.295098  0.708155  1
  O  O10  1  0.708473  0.291527  0.708473  1
  O  O11  1  0.293909  0.706091  0.293909  1
  O  O12  1  0.290493  0.706255  0.708155  1
  O  O13  1  0.708155  0.295098  0.290493  1
  O  O14  1  0.541845  0.543745  0.959507  1
  O  O15  1  0.959507  0.954902  0.541845  1
  O  O16  1  0.541527  0.958473  0.541527  1
  O  O17  1  0.956091  0.543909  0.956091  1
  O  O18  1  0.959507  0.543745  0.541845  1
  O  O19  1  0.541845  0.954902  0.959507  1
  O  O20  1  0.252749  0.247251  0.252749  1
  O  O21  1  0.997251  0.002749  0.997251  1
