# generated using pymatgen
data_Sr6MnCo4O15
_symmetry_space_group_name_H-M   'P 1'
_cell_length_a   6.93856501
_cell_length_b   6.93856507
_cell_length_c   6.93856478
_cell_angle_alpha   87.96471608
_cell_angle_beta   87.96471919
_cell_angle_gamma   87.96470686
_symmetry_Int_Tables_number   1
_chemical_formula_structural   Sr6MnCo4O15
_chemical_formula_sum   'Sr6 Mn1 Co4 O15'
_cell_volume   333.43045997
_cell_formula_units_Z   1
loop_
 _symmetry_equiv_pos_site_id
 _symmetry_equiv_pos_as_xyz
  1  'x, y, z'
loop_
 _atom_site_type_symbol
 _atom_site_label
 _atom_site_symmetry_multiplicity
 _atom_site_fract_x
 _atom_site_fract_y
 _atom_site_fract_z
 _atom_site_occupancy
  Sr  Sr0  1  0.500000  0.857536  0.142464  1
  Sr  Sr1  1  0.142464  0.500000  0.857536  1
  Sr  Sr2  1  0.857536  0.142464  0.500000  1
  Sr  Sr3  1  0.000000  0.676349  0.323651  1
  Sr  Sr4  1  0.323651  0.000000  0.676349  1
  Sr  Sr5  1  0.676349  0.323651  0.000000  1
  Mn  Mn6  1  0.500000  0.500000  0.500000  1
  Co  Co7  1  0.707203  0.707203  0.707203  1
  Co  Co8  1  0.292797  0.292797  0.292797  1
  Co  Co9  1  0.900693  0.900693  0.900693  1
  Co  Co10  1  0.099307  0.099307  0.099307  1
  O  O11  1  0.359284  0.555244  0.259671  1
  O  O12  1  0.259671  0.359284  0.555244  1
  O  O13  1  0.555244  0.259671  0.359284  1
  O  O14  1  0.640716  0.740329  0.444756  1
  O  O15  1  0.444756  0.640716  0.740329  1
  O  O16  1  0.740329  0.444756  0.640716  1
  O  O17  1  0.203546  0.027695  0.340030  1
  O  O18  1  0.340030  0.203546  0.027695  1
  O  O19  1  0.027695  0.340030  0.203546  1
  O  O20  1  0.796454  0.659970  0.972305  1
  O  O21  1  0.972305  0.796454  0.659970  1
  O  O22  1  0.151439  0.848561  0.000000  1
  O  O23  1  0.848561  0.000000  0.151439  1
  O  O24  1  0.000000  0.151439  0.848561  1
  O  O25  1  0.659970  0.972305  0.796454  1
