# generated using pymatgen
data_HoTm3S4
_symmetry_space_group_name_H-M   'P 1'
_cell_length_a   12.51770317
_cell_length_b   12.51770287
_cell_length_c   12.51770155
_cell_angle_alpha   17.89329348
_cell_angle_beta   17.89329607
_cell_angle_gamma   17.89329518
_symmetry_Int_Tables_number   1
_chemical_formula_structural   HoTm3S4
_chemical_formula_sum   'Ho1 Tm3 S4'
_cell_volume   161.65520817
_cell_formula_units_Z   1
loop_
 _symmetry_equiv_pos_site_id
 _symmetry_equiv_pos_as_xyz
  1  'x, y, z'
loop_
 _atom_site_type_symbol
 _atom_site_label
 _atom_site_symmetry_multiplicity
 _atom_site_fract_x
 _atom_site_fract_y
 _atom_site_fract_z
 _atom_site_occupancy
  Ho  Ho0  1  0.000000  0.000000  0.000000  1
  Tm  Tm1  1  0.250360  0.250360  0.250360  1
  Tm  Tm2  1  0.500000  0.500000  0.500000  1
  Tm  Tm3  1  0.749640  0.749640  0.749640  1
  S  S4  1  0.375692  0.375692  0.375692  1
  S  S5  1  0.125116  0.125116  0.125116  1
  S  S6  1  0.624308  0.624308  0.624308  1
  S  S7  1  0.874884  0.874884  0.874884  1
