# generated using pymatgen
data_Tb15YCd2(Ni2Ag)2
_symmetry_space_group_name_H-M   'P 1'
_cell_length_a   9.53022879
_cell_length_b   9.53022878
_cell_length_c   9.51398300
_cell_angle_alpha   60.05637710
_cell_angle_beta   60.05637714
_cell_angle_gamma   60.10175078
_symmetry_Int_Tables_number   1
_chemical_formula_structural   Tb15YCd2(Ni2Ag)2
_chemical_formula_sum   'Tb15 Y1 Cd2 Ni4 Ag2'
_cell_volume   612.00786292
_cell_formula_units_Z   1
loop_
 _symmetry_equiv_pos_site_id
 _symmetry_equiv_pos_as_xyz
  1  'x, y, z'
loop_
 _atom_site_type_symbol
 _atom_site_label
 _atom_site_symmetry_multiplicity
 _atom_site_fract_x
 _atom_site_fract_y
 _atom_site_fract_z
 _atom_site_occupancy
  Tb  Tb0  1  0.598801  0.598801  0.597955  1
  Tb  Tb1  1  0.598801  0.598801  0.204444  1
  Tb  Tb2  1  0.600654  0.200550  0.599399  1
  Tb  Tb3  1  0.200550  0.600654  0.599399  1
  Tb  Tb4  1  0.061438  0.438750  0.439595  1
  Tb  Tb5  1  0.438750  0.061438  0.060218  1
  Tb  Tb6  1  0.438750  0.061438  0.439595  1
  Tb  Tb7  1  0.061438  0.438750  0.060218  1
  Tb  Tb8  1  0.439627  0.439627  0.060373  1
  Tb  Tb9  1  0.061209  0.061209  0.438791  1
  Tb  Tb10  1  0.182977  0.813809  0.814746  1
  Tb  Tb11  1  0.813809  0.182977  0.188468  1
  Tb  Tb12  1  0.813809  0.182977  0.814746  1
  Tb  Tb13  1  0.182977  0.813809  0.188468  1
  Tb  Tb14  1  0.813493  0.813493  0.186507  1
  Y  Y15  1  0.185617  0.185617  0.814383  1
  Cd  Cd16  1  0.831510  0.509522  0.829484  1
  Cd  Cd17  1  0.509522  0.831510  0.829484  1
  Ni  Ni18  1  0.392774  0.392774  0.393422  1
  Ni  Ni19  1  0.392774  0.392774  0.821031  1
  Ni  Ni20  1  0.391931  0.822650  0.392709  1
  Ni  Ni21  1  0.822650  0.391931  0.392709  1
  Ag  Ag22  1  0.833069  0.833069  0.831567  1
  Ag  Ag23  1  0.833069  0.833069  0.502293  1
