# generated using pymatgen
data_Dy3Tm3Co16(P6Os)2
_symmetry_space_group_name_H-M   'P 1'
_cell_length_a   3.69460500
_cell_length_b   10.44508718
_cell_length_c   12.19740720
_cell_angle_alpha   89.97910481
_cell_angle_beta   90.00000000
_cell_angle_gamma   90.00000000
_symmetry_Int_Tables_number   1
_chemical_formula_structural   Dy3Tm3Co16(P6Os)2
_chemical_formula_sum   'Dy3 Tm3 Co16 P12 Os2'
_cell_volume   470.70366126
_cell_formula_units_Z   1
loop_
 _symmetry_equiv_pos_site_id
 _symmetry_equiv_pos_as_xyz
  1  'x, y, z'
loop_
 _atom_site_type_symbol
 _atom_site_label
 _atom_site_symmetry_multiplicity
 _atom_site_fract_x
 _atom_site_fract_y
 _atom_site_fract_z
 _atom_site_occupancy
  Dy  Dy0  1  0.000000  0.500165  0.524816  1
  Dy  Dy1  1  0.500000  0.999988  0.474754  1
  Dy  Dy2  1  0.000000  0.317420  0.793118  1
  Tm  Tm3  1  0.500000  0.817606  0.207246  1
  Tm  Tm4  1  0.500000  0.182289  0.206828  1
  Tm  Tm5  1  0.000000  0.682774  0.793025  1
  Co  Co6  1  0.500000  0.500822  0.704132  1
  Co  Co7  1  0.000000  0.999900  0.295619  1
  Co  Co8  1  0.000000  0.500536  0.987162  1
  Co  Co9  1  0.500000  0.999472  0.013790  1
  Co  Co10  1  0.500000  0.332509  0.990714  1
  Co  Co11  1  0.500000  0.667875  0.989950  1
  Co  Co12  1  0.000000  0.167155  0.010680  1
  Co  Co13  1  0.000000  0.832455  0.010546  1
  Co  Co14  1  0.500000  0.297501  0.430066  1
  Co  Co15  1  0.500000  0.702603  0.430651  1
  Co  Co16  1  0.000000  0.202377  0.568467  1
  Co  Co17  1  0.000000  0.797607  0.569245  1
  Co  Co18  1  0.500000  0.878510  0.709045  1
  Co  Co19  1  0.500000  0.120311  0.708390  1
  Co  Co20  1  0.000000  0.621316  0.291121  1
  Co  Co21  1  0.000000  0.378712  0.290653  1
  P  P22  1  0.500000  0.500832  0.880866  1
  P  P23  1  0.000000  0.999763  0.120006  1
  P  P24  1  0.500000  0.499935  0.350963  1
  P  P25  1  0.000000  0.000168  0.648839  1
  P  P26  1  0.500000  0.311846  0.615664  1
  P  P27  1  0.500000  0.688326  0.616918  1
  P  P28  1  0.000000  0.187952  0.382573  1
  P  P29  1  0.000000  0.811988  0.382990  1
  P  P30  1  0.500000  0.845801  0.892350  1
  P  P31  1  0.500000  0.153466  0.893107  1
  P  P32  1  0.000000  0.654461  0.108030  1
  P  P33  1  0.000000  0.345527  0.107558  1
  Os  Os34  1  0.500000  0.500446  0.158867  1
  Os  Os35  1  0.000000  0.999586  0.841251  1
