# generated using pymatgen
data_Nb3P6RhO24
_symmetry_space_group_name_H-M   'P 1'
_cell_length_a   8.75538313
_cell_length_b   8.75476515
_cell_length_c   9.05428974
_cell_angle_alpha   90.12369685
_cell_angle_beta   118.77912697
_cell_angle_gamma   120.00642408
_symmetry_Int_Tables_number   1
_chemical_formula_structural   Nb3P6RhO24
_chemical_formula_sum   'Nb3 P6 Rh1 O24'
_cell_volume   499.05996784
_cell_formula_units_Z   1
loop_
 _symmetry_equiv_pos_site_id
 _symmetry_equiv_pos_as_xyz
  1  'x, y, z'
loop_
 _atom_site_type_symbol
 _atom_site_label
 _atom_site_symmetry_multiplicity
 _atom_site_fract_x
 _atom_site_fract_y
 _atom_site_fract_z
 _atom_site_occupancy
  Nb  Nb0  1  0.782714  0.640085  0.423434  1
  Nb  Nb1  1  0.212168  0.357126  0.568721  1
  Nb  Nb2  1  0.783048  0.140386  0.923723  1
  P  P3  1  0.001923  0.964509  0.244574  1
  P  P4  1  0.280036  0.538043  0.247260  1
  P  P5  1  0.280747  0.751676  0.751506  1
  P  P6  1  0.708063  0.241264  0.248562  1
  P  P7  1  0.724439  0.473528  0.752920  1
  P  P8  1  0.005130  0.031211  0.755720  1
  Rh  Rh9  1  0.210082  0.857040  0.066451  1
  O  O10  1  0.296060  0.714574  0.227789  1
  O  O11  1  0.856958  0.989337  0.075892  1
  O  O12  1  0.857563  0.854359  0.593470  1
  O  O13  1  0.849893  0.799284  0.280797  1
  O  O14  1  0.151013  0.932072  0.235498  1
  O  O15  1  0.482999  0.553512  0.284977  1
  O  O16  1  0.091529  0.732396  0.582554  1
  O  O17  1  0.899748  0.640518  0.918759  1
  O  O18  1  0.282885  0.770461  0.917840  1
  O  O19  1  0.485993  0.920420  0.774638  1
  O  O20  1  0.734998  0.493380  0.587823  1
  O  O21  1  0.723629  0.426965  0.276545  1
  O  O22  1  0.279760  0.576430  0.716583  1
  O  O23  1  0.269956  0.504196  0.411628  1
  O  O24  1  0.516158  0.080277  0.235323  1
  O  O25  1  0.719745  0.217664  0.085208  1
  O  O26  1  0.087361  0.360877  0.084099  1
  O  O27  1  0.909974  0.274528  0.416074  1
  O  O28  1  0.510459  0.435328  0.708497  1
  O  O29  1  0.857691  0.068433  0.774696  1
  O  O30  1  0.140214  0.200303  0.712940  1
  O  O31  1  0.134514  0.140146  0.405549  1
  O  O32  1  0.158002  0.025576  0.927784  1
  O  O33  1  0.714553  0.294095  0.782165  1
