# generated using pymatgen
data_Er7ThGaPd24
_symmetry_space_group_name_H-M   'P 1'
_cell_length_a   8.33305501
_cell_length_b   8.33305501
_cell_length_c   8.33305501
_cell_angle_alpha   90.00464808
_cell_angle_beta   90.00464808
_cell_angle_gamma   89.99535192
_symmetry_Int_Tables_number   1
_chemical_formula_structural   Er7ThGaPd24
_chemical_formula_sum   'Er7 Th1 Ga1 Pd24'
_cell_volume   578.64571667
_cell_formula_units_Z   1
loop_
 _symmetry_equiv_pos_site_id
 _symmetry_equiv_pos_as_xyz
  1  'x, y, z'
loop_
 _atom_site_type_symbol
 _atom_site_label
 _atom_site_symmetry_multiplicity
 _atom_site_fract_x
 _atom_site_fract_y
 _atom_site_fract_z
 _atom_site_occupancy
  Er  Er0  1  0.252063  0.747876  0.252124  1
  Er  Er1  1  0.747876  0.252063  0.252124  1
  Er  Er2  1  0.747876  0.747876  0.747937  1
  Er  Er3  1  0.747897  0.747897  0.252103  1
  Er  Er4  1  0.748102  0.252046  0.747954  1
  Er  Er5  1  0.252046  0.748102  0.747954  1
  Er  Er6  1  0.252046  0.252046  0.251898  1
  Th  Th7  1  0.253057  0.253057  0.746943  1
  Ga  Ga8  1  0.999396  0.999396  0.000604  1
  Pd  Pd9  1  0.500885  0.500885  0.746715  1
  Pd  Pd10  1  0.500885  0.253285  0.499115  1
  Pd  Pd11  1  0.253285  0.500885  0.499115  1
  Pd  Pd12  1  0.500089  0.500089  0.253182  1
  Pd  Pd13  1  0.500089  0.746818  0.499911  1
  Pd  Pd14  1  0.746818  0.500089  0.499911  1
  Pd  Pd15  1  0.998880  0.998880  0.708539  1
  Pd  Pd16  1  0.998880  0.291461  0.001120  1
  Pd  Pd17  1  0.291461  0.998880  0.001120  1
  Pd  Pd18  1  0.999887  0.999887  0.291227  1
  Pd  Pd19  1  0.999887  0.708773  0.000113  1
  Pd  Pd20  1  0.708773  0.999887  0.000113  1
  Pd  Pd21  1  0.999293  0.500622  0.739804  1
  Pd  Pd22  1  0.500622  0.260196  0.000707  1
  Pd  Pd23  1  0.260196  0.999293  0.499378  1
  Pd  Pd24  1  0.999293  0.260196  0.499378  1
  Pd  Pd25  1  0.500622  0.999293  0.739804  1
  Pd  Pd26  1  0.260196  0.500622  0.000707  1
  Pd  Pd27  1  0.999881  0.500155  0.260236  1
  Pd  Pd28  1  0.500155  0.739764  0.000119  1
  Pd  Pd29  1  0.999881  0.739764  0.499845  1
  Pd  Pd30  1  0.500155  0.999881  0.260236  1
  Pd  Pd31  1  0.739764  0.999881  0.499845  1
  Pd  Pd32  1  0.739764  0.500155  0.000119  1
