# generated using pymatgen
data_Cs4HfZrTe6
_symmetry_space_group_name_H-M   'P 1'
_cell_length_a   8.75471306
_cell_length_b   8.75471136
_cell_length_c   7.73404000
_cell_angle_alpha   90.00000000
_cell_angle_beta   90.00000000
_cell_angle_gamma   71.80133623
_symmetry_Int_Tables_number   1
_chemical_formula_structural   Cs4HfZrTe6
_chemical_formula_sum   'Cs4 Hf1 Zr1 Te6'
_cell_volume   563.12436779
_cell_formula_units_Z   1
loop_
 _symmetry_equiv_pos_site_id
 _symmetry_equiv_pos_as_xyz
  1  'x, y, z'
loop_
 _atom_site_type_symbol
 _atom_site_label
 _atom_site_symmetry_multiplicity
 _atom_site_fract_x
 _atom_site_fract_y
 _atom_site_fract_z
 _atom_site_occupancy
  Cs  Cs0  1  0.012491  0.679719  0.250000  1
  Cs  Cs1  1  0.320281  0.987509  0.250000  1
  Cs  Cs2  1  0.679846  0.012461  0.750000  1
  Cs  Cs3  1  0.987539  0.320154  0.750000  1
  Hf  Hf4  1  0.419040  0.580960  0.750000  1
  Zr  Zr5  1  0.581875  0.418125  0.250000  1
  Te  Te6  1  0.360282  0.362337  0.998117  1
  Te  Te7  1  0.637662  0.639717  0.998117  1
  Te  Te8  1  0.846596  0.153404  0.250000  1
  Te  Te9  1  0.360282  0.362337  0.501883  1
  Te  Te10  1  0.637662  0.639717  0.501883  1
  Te  Te11  1  0.156442  0.843558  0.750000  1
