# generated using pymatgen
data_Tb4Al4OsPt3
_symmetry_space_group_name_H-M   'P 1'
_cell_length_a   4.39647400
_cell_length_b   6.87879402
_cell_length_c   7.85961332
_cell_angle_alpha   89.77913512
_cell_angle_beta   90.00000000
_cell_angle_gamma   90.00000000
_symmetry_Int_Tables_number   1
_chemical_formula_structural   Tb4Al4OsPt3
_chemical_formula_sum   'Tb4 Al4 Os1 Pt3'
_cell_volume   237.69211097
_cell_formula_units_Z   1
loop_
 _symmetry_equiv_pos_site_id
 _symmetry_equiv_pos_as_xyz
  1  'x, y, z'
loop_
 _atom_site_type_symbol
 _atom_site_label
 _atom_site_symmetry_multiplicity
 _atom_site_fract_x
 _atom_site_fract_y
 _atom_site_fract_z
 _atom_site_occupancy
  Tb  Tb0  1  0.250000  0.031894  0.679032  1
  Tb  Tb1  1  0.250000  0.528246  0.818099  1
  Tb  Tb2  1  0.750000  0.979200  0.319315  1
  Tb  Tb3  1  0.750000  0.468624  0.186732  1
  Al  Al4  1  0.250000  0.146526  0.065122  1
  Al  Al5  1  0.250000  0.641459  0.435482  1
  Al  Al6  1  0.750000  0.854862  0.937276  1
  Al  Al7  1  0.750000  0.352172  0.561172  1
  Os  Os8  1  0.250000  0.269111  0.382341  1
  Pt  Pt9  1  0.250000  0.773798  0.114562  1
  Pt  Pt10  1  0.750000  0.727597  0.617934  1
  Pt  Pt11  1  0.750000  0.226511  0.882934  1
