# generated using pymatgen
data_Y5Zr3(Si3Rh4)4
_symmetry_space_group_name_H-M   'P 1'
_cell_length_a   13.01452500
_cell_length_b   13.01452502
_cell_length_c   4.01075700
_cell_angle_alpha   90.00000000
_cell_angle_beta   90.00000000
_cell_angle_gamma   120.00000250
_symmetry_Int_Tables_number   1
_chemical_formula_structural   Y5Zr3(Si3Rh4)4
_chemical_formula_sum   'Y5 Zr3 Si12 Rh16'
_cell_volume   588.32000403
_cell_formula_units_Z   1
loop_
 _symmetry_equiv_pos_site_id
 _symmetry_equiv_pos_as_xyz
  1  'x, y, z'
loop_
 _atom_site_type_symbol
 _atom_site_label
 _atom_site_symmetry_multiplicity
 _atom_site_fract_x
 _atom_site_fract_y
 _atom_site_fract_z
 _atom_site_occupancy
  Y  Y0  1  0.186382  0.186382  0.500000  1
  Y  Y1  1  0.813618  0.000000  0.500000  1
  Y  Y2  1  0.000000  0.813618  0.500000  1
  Y  Y3  1  0.333333  0.666667  0.000000  1
  Y  Y4  1  0.666667  0.333333  0.000000  1
  Zr  Zr5  1  0.560496  0.560496  0.000000  1
  Zr  Zr6  1  0.439504  0.000000  0.000000  1
  Zr  Zr7  1  0.000000  0.439504  0.000000  1
  Si  Si8  1  0.818200  0.818200  0.000000  1
  Si  Si9  1  0.181800  0.000000  0.000000  1
  Si  Si10  1  0.000000  0.181800  0.000000  1
  Si  Si11  1  0.175939  0.479852  0.500000  1
  Si  Si12  1  0.520148  0.696087  0.500000  1
  Si  Si13  1  0.303913  0.824061  0.500000  1
  Si  Si14  1  0.696087  0.520148  0.500000  1
  Si  Si15  1  0.824061  0.303913  0.500000  1
  Si  Si16  1  0.479852  0.175939  0.500000  1
  Si  Si17  1  0.356384  0.356384  0.000000  1
  Si  Si18  1  0.643616  0.000000  0.000000  1
  Si  Si19  1  0.000000  0.643616  0.000000  1
  Rh  Rh20  1  0.721816  0.721816  0.500000  1
  Rh  Rh21  1  0.278184  0.000000  0.500000  1
  Rh  Rh22  1  0.000000  0.278184  0.500000  1
  Rh  Rh23  1  0.180207  0.373559  0.000000  1
  Rh  Rh24  1  0.626441  0.806647  0.000000  1
  Rh  Rh25  1  0.193353  0.819793  0.000000  1
  Rh  Rh26  1  0.806647  0.626441  0.000000  1
  Rh  Rh27  1  0.819793  0.193353  0.000000  1
  Rh  Rh28  1  0.373559  0.180207  0.000000  1
  Rh  Rh29  1  0.364628  0.488639  0.500000  1
  Rh  Rh30  1  0.511361  0.875990  0.500000  1
  Rh  Rh31  1  0.124010  0.635372  0.500000  1
  Rh  Rh32  1  0.875990  0.511361  0.500000  1
  Rh  Rh33  1  0.635372  0.124010  0.500000  1
  Rh  Rh34  1  0.488639  0.364628  0.500000  1
  Rh  Rh35  1  0.000000  0.000000  0.000000  1
