# generated using pymatgen
data_Sr3Ta2NiO9
_symmetry_space_group_name_H-M   'P 1'
_cell_length_a   5.70353900
_cell_length_b   5.70353854
_cell_length_c   7.01610800
_cell_angle_alpha   90.00000000
_cell_angle_beta   90.00000000
_cell_angle_gamma   119.99998527
_symmetry_Int_Tables_number   1
_chemical_formula_structural   Sr3Ta2NiO9
_chemical_formula_sum   'Sr3 Ta2 Ni1 O9'
_cell_volume   197.65861947
_cell_formula_units_Z   1
loop_
 _symmetry_equiv_pos_site_id
 _symmetry_equiv_pos_as_xyz
  1  'x, y, z'
loop_
 _atom_site_type_symbol
 _atom_site_label
 _atom_site_symmetry_multiplicity
 _atom_site_fract_x
 _atom_site_fract_y
 _atom_site_fract_z
 _atom_site_occupancy
  Sr  Sr0  1  0.000000  0.000000  0.000000  1
  Sr  Sr1  1  0.333333  0.666667  0.661450  1
  Sr  Sr2  1  0.666667  0.333333  0.338550  1
  Ta  Ta3  1  0.333333  0.666667  0.178248  1
  Ta  Ta4  1  0.666667  0.333333  0.821752  1
  Ni  Ni5  1  0.000000  0.000000  0.500000  1
  O  O6  1  0.168993  0.831007  0.327240  1
  O  O7  1  0.831007  0.168993  0.672760  1
  O  O8  1  0.168993  0.337985  0.327240  1
  O  O9  1  0.831007  0.662015  0.672760  1
  O  O10  1  0.662015  0.831007  0.327240  1
  O  O11  1  0.337985  0.168993  0.672760  1
  O  O12  1  0.500000  0.000000  0.000000  1
  O  O13  1  0.000000  0.500000  0.000000  1
  O  O14  1  0.500000  0.500000  0.000000  1
