# generated using pymatgen
data_Eu2Dy2Ga7Ag5
_symmetry_space_group_name_H-M   'P 1'
_cell_length_a   4.41413600
_cell_length_b   7.12637944
_cell_length_c   10.44746520
_cell_angle_alpha   89.23682626
_cell_angle_beta   90.00000000
_cell_angle_gamma   90.00000000
_symmetry_Int_Tables_number   1
_chemical_formula_structural   Eu2Dy2Ga7Ag5
_chemical_formula_sum   'Eu2 Dy2 Ga7 Ag5'
_cell_volume   328.61475396
_cell_formula_units_Z   1
loop_
 _symmetry_equiv_pos_site_id
 _symmetry_equiv_pos_as_xyz
  1  'x, y, z'
loop_
 _atom_site_type_symbol
 _atom_site_label
 _atom_site_symmetry_multiplicity
 _atom_site_fract_x
 _atom_site_fract_y
 _atom_site_fract_z
 _atom_site_occupancy
  Eu  Eu0  1  0.000000  0.216108  0.828849  1
  Eu  Eu1  1  0.000000  0.721047  0.675163  1
  Dy  Dy2  1  0.500000  0.786824  0.169023  1
  Dy  Dy3  1  0.500000  0.275887  0.328493  1
  Ga  Ga4  1  0.500000  0.920839  0.854576  1
  Ga  Ga5  1  0.500000  0.418127  0.644981  1
  Ga  Ga6  1  0.000000  0.079674  0.154701  1
  Ga  Ga7  1  0.000000  0.574841  0.346076  1
  Ga  Ga8  1  0.500000  0.201414  0.038612  1
  Ga  Ga9  1  0.000000  0.298416  0.530395  1
  Ga  Ga10  1  0.000000  0.798231  0.970335  1
  Ag  Ag11  1  0.500000  0.539734  0.906290  1
  Ag  Ag12  1  0.500000  0.044258  0.597694  1
  Ag  Ag13  1  0.000000  0.460680  0.100568  1
  Ag  Ag14  1  0.000000  0.963203  0.399375  1
  Ag  Ag15  1  0.500000  0.700721  0.454866  1
