# generated using pymatgen
data_Ca4N5
_symmetry_space_group_name_H-M   'P 1'
_cell_length_a   6.89527712
_cell_length_b   7.83977794
_cell_length_c   6.89783573
_cell_angle_alpha   63.03023127
_cell_angle_beta   60.98177448
_cell_angle_gamma   116.93923419
_symmetry_Int_Tables_number   1
_chemical_formula_structural   Ca4N5
_chemical_formula_sum   'Ca4 N5'
_cell_volume   146.52866420
_cell_formula_units_Z   1
loop_
 _symmetry_equiv_pos_site_id
 _symmetry_equiv_pos_as_xyz
  1  'x, y, z'
loop_
 _atom_site_type_symbol
 _atom_site_label
 _atom_site_symmetry_multiplicity
 _atom_site_fract_x
 _atom_site_fract_y
 _atom_site_fract_z
 _atom_site_occupancy
  Ca  Ca0  1  0.550858  0.363318  0.842773  1
  Ca  Ca1  1  0.974061  0.363338  0.264746  1
  Ca  Ca2  1  0.032739  0.862521  0.783393  1
  Ca  Ca3  1  0.489154  0.864256  0.327144  1
  N  N4  1  0.761037  0.363379  0.055183  1
  N  N5  1  0.719877  0.863538  0.489205  1
  N  N6  1  0.805049  0.862936  0.617255  1
  N  N7  1  0.327094  0.863680  0.096175  1
  N  N8  1  0.199175  0.863072  0.011040  1
