# generated using pymatgen
data_TbY3Al18(Ir2Pd)2
_symmetry_space_group_name_H-M   'P 1'
_cell_length_a   7.59055243
_cell_length_b   7.59139084
_cell_length_c   9.48156955
_cell_angle_alpha   89.93167938
_cell_angle_beta   89.92268617
_cell_angle_gamma   119.58859185
_symmetry_Int_Tables_number   1
_chemical_formula_structural   TbY3Al18(Ir2Pd)2
_chemical_formula_sum   'Tb1 Y3 Al18 Ir4 Pd2'
_cell_volume   475.10516188
_cell_formula_units_Z   1
loop_
 _symmetry_equiv_pos_site_id
 _symmetry_equiv_pos_as_xyz
  1  'x, y, z'
loop_
 _atom_site_type_symbol
 _atom_site_label
 _atom_site_symmetry_multiplicity
 _atom_site_fract_x
 _atom_site_fract_y
 _atom_site_fract_z
 _atom_site_occupancy
  Tb  Tb0  1  0.995300  0.670640  0.251301  1
  Y  Y1  1  0.004705  0.329317  0.748653  1
  Y  Y2  1  0.670659  0.995344  0.251339  1
  Y  Y3  1  0.329355  0.004754  0.748651  1
  Al  Al4  1  0.127971  0.127998  0.250630  1
  Al  Al5  1  0.872147  0.872167  0.749372  1
  Al  Al6  1  0.001130  0.331385  0.077316  1
  Al  Al7  1  0.998860  0.668514  0.922624  1
  Al  Al8  1  0.000027  0.664859  0.573996  1
  Al  Al9  1  0.335257  0.000070  0.426114  1
  Al  Al10  1  0.999969  0.335026  0.426125  1
  Al  Al11  1  0.664866  0.000046  0.573911  1
  Al  Al12  1  0.668521  0.998881  0.922675  1
  Al  Al13  1  0.331592  0.001228  0.077304  1
  Al  Al14  1  0.332681  0.332686  0.549731  1
  Al  Al15  1  0.667217  0.667305  0.450306  1
  Al  Al16  1  0.668771  0.668852  0.057191  1
  Al  Al17  1  0.331125  0.331127  0.942765  1
  Al  Al18  1  0.340254  0.547161  0.253107  1
  Al  Al19  1  0.659758  0.452726  0.746891  1
  Al  Al20  1  0.547129  0.340223  0.253102  1
  Al  Al21  1  0.452752  0.659776  0.746899  1
  Ir  Ir22  1  0.328205  0.671809  0.500050  1
  Ir  Ir23  1  0.671776  0.328147  0.500061  1
  Ir  Ir24  1  0.999987  0.000029  0.999955  1
  Ir  Ir25  1  0.999990  0.999999  0.500034  1
  Pd  Pd26  1  0.672048  0.327808  0.999945  1
  Pd  Pd27  1  0.327946  0.672123  0.999952  1
