# generated using pymatgen
data_Th5Zn2Tc3
_symmetry_space_group_name_H-M   'P 1'
_cell_length_a   8.53070206
_cell_length_b   8.53070267
_cell_length_c   8.53070203
_cell_angle_alpha   109.53041012
_cell_angle_beta   109.53040670
_cell_angle_gamma   109.53041712
_symmetry_Int_Tables_number   1
_chemical_formula_structural   Th5Zn2Tc3
_chemical_formula_sum   'Th10 Zn4 Tc6'
_cell_volume   476.84480134
_cell_formula_units_Z   2
loop_
 _symmetry_equiv_pos_site_id
 _symmetry_equiv_pos_as_xyz
  1  'x, y, z'
loop_
 _atom_site_type_symbol
 _atom_site_label
 _atom_site_symmetry_multiplicity
 _atom_site_fract_x
 _atom_site_fract_y
 _atom_site_fract_z
 _atom_site_occupancy
  Th  Th0  1  0.465254  0.156899  0.214855  1
  Th  Th1  1  0.156899  0.214855  0.465254  1
  Th  Th2  1  0.214855  0.465254  0.156899  1
  Th  Th3  1  0.407245  0.685976  0.906730  1
  Th  Th4  1  0.685976  0.906730  0.407245  1
  Th  Th5  1  0.906730  0.407245  0.685976  1
  Th  Th6  1  0.656939  0.099189  0.849372  1
  Th  Th7  1  0.099189  0.849372  0.656939  1
  Th  Th8  1  0.849372  0.656939  0.099189  1
  Th  Th9  1  0.628371  0.628371  0.628371  1
  Zn  Zn10  1  0.407200  0.315168  0.908707  1
  Zn  Zn11  1  0.315168  0.908707  0.407200  1
  Zn  Zn12  1  0.908707  0.407200  0.315168  1
  Zn  Zn13  1  0.999760  0.999760  0.999760  1
  Tc  Tc14  1  0.024619  0.158042  0.775553  1
  Tc  Tc15  1  0.158042  0.775553  0.024619  1
  Tc  Tc16  1  0.775553  0.024619  0.158042  1
  Tc  Tc17  1  0.659267  0.539290  0.291564  1
  Tc  Tc18  1  0.539290  0.291564  0.659267  1
  Tc  Tc19  1  0.291564  0.659267  0.539290  1
