# generated using pymatgen
data_Dy2B2Ir5
_symmetry_space_group_name_H-M   'P 1'
_cell_length_a   11.02339230
_cell_length_b   11.02339201
_cell_length_c   11.02339323
_cell_angle_alpha   28.74671252
_cell_angle_beta   28.74671623
_cell_angle_gamma   28.74672000
_symmetry_Int_Tables_number   1
_chemical_formula_structural   Dy2B2Ir5
_chemical_formula_sum   'Dy4 B4 Ir10'
_cell_volume   273.94333554
_cell_formula_units_Z   2
loop_
 _symmetry_equiv_pos_site_id
 _symmetry_equiv_pos_as_xyz
  1  'x, y, z'
loop_
 _atom_site_type_symbol
 _atom_site_label
 _atom_site_symmetry_multiplicity
 _atom_site_fract_x
 _atom_site_fract_y
 _atom_site_fract_z
 _atom_site_occupancy
  Dy  Dy0  1  0.152065  0.152065  0.152065  1
  Dy  Dy1  1  0.950240  0.950240  0.950240  1
  Dy  Dy2  1  0.847935  0.847935  0.847935  1
  Dy  Dy3  1  0.049760  0.049760  0.049760  1
  B  B4  1  0.617418  0.617418  0.617418  1
  B  B5  1  0.716107  0.716107  0.716107  1
  B  B6  1  0.382582  0.382582  0.382582  1
  B  B7  1  0.283893  0.283893  0.283893  1
  Ir  Ir8  1  0.405718  0.899821  0.405718  1
  Ir  Ir9  1  0.899821  0.405718  0.405718  1
  Ir  Ir10  1  0.500000  0.500000  0.000000  1
  Ir  Ir11  1  0.500000  0.000000  0.500000  1
  Ir  Ir12  1  0.000000  0.500000  0.500000  1
  Ir  Ir13  1  0.500000  0.500000  0.500000  1
  Ir  Ir14  1  0.594282  0.100179  0.594282  1
  Ir  Ir15  1  0.594282  0.594282  0.100179  1
  Ir  Ir16  1  0.100179  0.594282  0.594282  1
  Ir  Ir17  1  0.405718  0.405718  0.899821  1
