# generated using pymatgen
data_NdNp3Ga12Pd
_symmetry_space_group_name_H-M   'P 1'
_cell_length_a   7.52041358
_cell_length_b   7.52015723
_cell_length_c   7.52041498
_cell_angle_alpha   109.47052763
_cell_angle_beta   109.47191107
_cell_angle_gamma   109.47052906
_symmetry_Int_Tables_number   1
_chemical_formula_structural   NdNp3Ga12Pd
_chemical_formula_sum   'Nd1 Np3 Ga12 Pd1'
_cell_volume   327.41025743
_cell_formula_units_Z   1
loop_
 _symmetry_equiv_pos_site_id
 _symmetry_equiv_pos_as_xyz
  1  'x, y, z'
loop_
 _atom_site_type_symbol
 _atom_site_label
 _atom_site_symmetry_multiplicity
 _atom_site_fract_x
 _atom_site_fract_y
 _atom_site_fract_z
 _atom_site_occupancy
  Nd  Nd0  1  0.000000  0.500000  0.000000  1
  Np  Np1  1  0.500000  0.000000  0.000000  1
  Np  Np2  1  0.000000  0.000000  0.500000  1
  Np  Np3  1  0.500000  0.500000  0.500000  1
  Ga  Ga4  1  0.296966  0.004191  0.296966  1
  Ga  Ga5  1  0.496448  0.248223  0.748223  1
  Ga  Ga6  1  0.000000  0.707226  0.703034  1
  Ga  Ga7  1  0.703034  0.995809  0.703034  1
  Ga  Ga8  1  0.748223  0.500000  0.251777  1
  Ga  Ga9  1  0.251777  0.751777  0.503552  1
  Ga  Ga10  1  0.748223  0.248223  0.496448  1
  Ga  Ga11  1  0.703034  0.707226  0.000000  1
  Ga  Ga12  1  0.251777  0.500000  0.748223  1
  Ga  Ga13  1  0.503552  0.751777  0.251777  1
  Ga  Ga14  1  0.296966  0.292774  0.000000  1
  Ga  Ga15  1  0.000000  0.292774  0.296966  1
  Pd  Pd16  1  0.000000  0.000000  0.000000  1
