# generated using pymatgen
data_LiAlB4Ru5
_symmetry_space_group_name_H-M   'P 1'
_cell_length_a   2.93303600
_cell_length_b   8.23541889
_cell_length_c   10.08167923
_cell_angle_alpha   89.53724601
_cell_angle_beta   90.00000000
_cell_angle_gamma   90.00000000
_symmetry_Int_Tables_number   1
_chemical_formula_structural   LiAlB4Ru5
_chemical_formula_sum   'Li2 Al2 B8 Ru10'
_cell_volume   243.51280204
_cell_formula_units_Z   2
loop_
 _symmetry_equiv_pos_site_id
 _symmetry_equiv_pos_as_xyz
  1  'x, y, z'
loop_
 _atom_site_type_symbol
 _atom_site_label
 _atom_site_symmetry_multiplicity
 _atom_site_fract_x
 _atom_site_fract_y
 _atom_site_fract_z
 _atom_site_occupancy
  Li  Li0  1  0.500000  0.144552  0.685228  1
  Li  Li1  1  0.500000  0.855448  0.314772  1
  Al  Al2  1  0.500000  0.637308  0.815717  1
  Al  Al3  1  0.500000  0.362692  0.184283  1
  B  B4  1  0.500000  0.856574  0.602768  1
  B  B5  1  0.500000  0.143426  0.397232  1
  B  B6  1  0.500000  0.346567  0.892874  1
  B  B7  1  0.500000  0.653433  0.107126  1
  B  B8  1  0.500000  0.960218  0.909407  1
  B  B9  1  0.500000  0.039782  0.090593  1
  B  B10  1  0.500000  0.456805  0.587283  1
  B  B11  1  0.500000  0.543195  0.412717  1
  Ru  Ru12  1  0.000000  0.399162  0.737624  1
  Ru  Ru13  1  0.000000  0.600838  0.262376  1
  Ru  Ru14  1  0.000000  0.878385  0.765562  1
  Ru  Ru15  1  0.000000  0.121615  0.234438  1
  Ru  Ru16  1  0.000000  0.000000  0.500000  1
  Ru  Ru17  1  0.000000  0.500000  0.000000  1
  Ru  Ru18  1  0.000000  0.657128  0.546283  1
  Ru  Ru19  1  0.000000  0.342872  0.453717  1
  Ru  Ru20  1  0.000000  0.155073  0.949566  1
  Ru  Ru21  1  0.000000  0.844927  0.050434  1
