# generated using pymatgen
data_Tb4Ho4Sc12Si15As
_symmetry_space_group_name_H-M   'P 1'
_cell_length_a   7.13178433
_cell_length_b   7.36298170
_cell_length_c   13.96280538
_cell_angle_alpha   90.05515887
_cell_angle_beta   88.79416466
_cell_angle_gamma   90.18195119
_symmetry_Int_Tables_number   1
_chemical_formula_structural   Tb4Ho4Sc12Si15As
_chemical_formula_sum   'Tb4 Ho4 Sc12 Si15 As1'
_cell_volume   733.03726925
_cell_formula_units_Z   1
loop_
 _symmetry_equiv_pos_site_id
 _symmetry_equiv_pos_as_xyz
  1  'x, y, z'
loop_
 _atom_site_type_symbol
 _atom_site_label
 _atom_site_symmetry_multiplicity
 _atom_site_fract_x
 _atom_site_fract_y
 _atom_site_fract_z
 _atom_site_occupancy
  Tb  Tb0  1  0.011532  0.176011  0.097184  1
  Tb  Tb1  1  0.988979  0.824680  0.902637  1
  Tb  Tb2  1  0.489169  0.675110  0.903054  1
  Tb  Tb3  1  0.994312  0.821847  0.595541  1
  Ho  Ho4  1  0.511427  0.325075  0.097468  1
  Ho  Ho5  1  0.004001  0.178272  0.403601  1
  Ho  Ho6  1  0.503292  0.321007  0.402138  1
  Ho  Ho7  1  0.501376  0.677648  0.597379  1
  Sc  Sc8  1  0.166519  0.500713  0.749694  1
  Sc  Sc9  1  0.833251  0.499003  0.253067  1
  Sc  Sc10  1  0.333625  0.001050  0.251664  1
  Sc  Sc11  1  0.666581  0.999044  0.748814  1
  Sc  Sc12  1  0.342486  0.170620  0.626372  1
  Sc  Sc13  1  0.658502  0.827899  0.373848  1
  Sc  Sc14  1  0.156375  0.671766  0.377111  1
  Sc  Sc15  1  0.667240  0.823427  0.125694  1
  Sc  Sc16  1  0.840810  0.329099  0.622484  1
  Sc  Sc17  1  0.332479  0.176162  0.874056  1
  Sc  Sc18  1  0.833331  0.322944  0.874541  1
  Sc  Sc19  1  0.166849  0.676899  0.125209  1
  Si  Si20  1  0.038133  0.116992  0.749349  1
  Si  Si21  1  0.961774  0.883645  0.249795  1
  Si  Si22  1  0.458354  0.616622  0.249062  1
  Si  Si23  1  0.540702  0.383239  0.750484  1
  Si  Si24  1  0.290341  0.871005  0.750036  1
  Si  Si25  1  0.710547  0.128101  0.249362  1
  Si  Si26  1  0.209421  0.373556  0.249924  1
  Si  Si27  1  0.791956  0.626532  0.750130  1
  Si  Si28  1  0.810114  0.539717  0.457160  1
  Si  Si29  1  0.329577  0.962429  0.460525  1
  Si  Si30  1  0.842499  0.535103  0.039451  1
  Si  Si31  1  0.670039  0.038180  0.539817  1
  Si  Si32  1  0.156647  0.465200  0.960442  1
  Si  Si33  1  0.655829  0.035200  0.960088  1
  Si  Si34  1  0.344260  0.966282  0.040209  1
  As  As35  1  0.187674  0.459917  0.542609  1
