# generated using pymatgen
data_LaCr4(CuO4)3
_symmetry_space_group_name_H-M   'P 1'
_cell_length_a   6.46012855
_cell_length_b   6.46023638
_cell_length_c   6.46038400
_cell_angle_alpha   109.47551770
_cell_angle_beta   109.47104161
_cell_angle_gamma   109.46822523
_symmetry_Int_Tables_number   1
_chemical_formula_structural   LaCr4(CuO4)3
_chemical_formula_sum   'La1 Cr4 Cu3 O12'
_cell_volume   207.54868821
_cell_formula_units_Z   1
loop_
 _symmetry_equiv_pos_site_id
 _symmetry_equiv_pos_as_xyz
  1  'x, y, z'
loop_
 _atom_site_type_symbol
 _atom_site_label
 _atom_site_symmetry_multiplicity
 _atom_site_fract_x
 _atom_site_fract_y
 _atom_site_fract_z
 _atom_site_occupancy
  La  La0  1  0.000000  0.000000  0.000000  1
  Cr  Cr1  1  0.499999  0.000000  0.000000  1
  Cr  Cr2  1  0.000000  0.499999  0.000000  1
  Cr  Cr3  1  0.000000  0.000000  0.499999  1
  Cr  Cr4  1  0.499999  0.499999  0.499999  1
  Cu  Cu5  1  0.500000  0.500000  0.000000  1
  Cu  Cu6  1  0.500000  0.000000  0.500000  1
  Cu  Cu7  1  0.000000  0.500000  0.500000  1
  O  O8  1  0.311328  0.831102  0.142468  1
  O  O9  1  0.480255  0.311399  0.168899  1
  O  O10  1  0.857494  0.688593  0.168856  1
  O  O11  1  0.168866  0.480233  0.311324  1
  O  O12  1  0.831108  0.142465  0.311353  1
  O  O13  1  0.311353  0.168884  0.480237  1
  O  O14  1  0.688647  0.831117  0.519763  1
  O  O15  1  0.831135  0.519767  0.688676  1
  O  O16  1  0.168893  0.857536  0.688648  1
  O  O17  1  0.142507  0.311408  0.831145  1
  O  O18  1  0.519745  0.688601  0.831102  1
  O  O19  1  0.688673  0.168899  0.857533  1
