# generated using pymatgen
data_Nd16Cd4Co2NiOs
_symmetry_space_group_name_H-M   'P 1'
_cell_length_a   9.87507514
_cell_length_b   9.89300402
_cell_length_c   9.89300471
_cell_angle_alpha   59.62117484
_cell_angle_beta   59.66628527
_cell_angle_gamma   59.66628335
_symmetry_Int_Tables_number   1
_chemical_formula_structural   Nd16Cd4Co2NiOs
_chemical_formula_sum   'Nd16 Cd4 Co2 Ni1 Os1'
_cell_volume   677.99496395
_cell_formula_units_Z   1
loop_
 _symmetry_equiv_pos_site_id
 _symmetry_equiv_pos_as_xyz
  1  'x, y, z'
loop_
 _atom_site_type_symbol
 _atom_site_label
 _atom_site_symmetry_multiplicity
 _atom_site_fract_x
 _atom_site_fract_y
 _atom_site_fract_z
 _atom_site_occupancy
  Nd  Nd0  1  0.593553  0.598870  0.598870  1
  Nd  Nd1  1  0.597864  0.601183  0.207629  1
  Nd  Nd2  1  0.597864  0.207629  0.601183  1
  Nd  Nd3  1  0.210164  0.598413  0.598413  1
  Nd  Nd4  1  0.060152  0.438826  0.438826  1
  Nd  Nd5  1  0.436896  0.059946  0.059946  1
  Nd  Nd6  1  0.438727  0.056846  0.438883  1
  Nd  Nd7  1  0.062636  0.438691  0.054518  1
  Nd  Nd8  1  0.438727  0.438883  0.056846  1
  Nd  Nd9  1  0.062636  0.054518  0.438691  1
  Nd  Nd10  1  0.187029  0.812952  0.812952  1
  Nd  Nd11  1  0.802482  0.191833  0.191833  1
  Nd  Nd12  1  0.811620  0.188724  0.813843  1
  Nd  Nd13  1  0.190821  0.804224  0.191009  1
  Nd  Nd14  1  0.811620  0.813843  0.188724  1
  Nd  Nd15  1  0.190821  0.191009  0.804224  1
  Cd  Cd16  1  0.829690  0.829677  0.829677  1
  Cd  Cd17  1  0.829756  0.828898  0.510180  1
  Cd  Cd18  1  0.829756  0.510180  0.828898  1
  Cd  Cd19  1  0.509173  0.829750  0.829750  1
  Co  Co20  1  0.394071  0.392866  0.828391  1
  Co  Co21  1  0.394071  0.828391  0.392866  1
  Ni  Ni22  1  0.826934  0.393030  0.393030  1
  Os  Os23  1  0.392939  0.390818  0.390818  1
