# generated using pymatgen
data_Hg6Te3SCl4
_symmetry_space_group_name_H-M   'P 1'
_cell_length_a   8.32804710
_cell_length_b   8.27823288
_cell_length_c   8.27823375
_cell_angle_alpha   109.34900335
_cell_angle_beta   109.59316161
_cell_angle_gamma   109.59315797
_symmetry_Int_Tables_number   1
_chemical_formula_structural   Hg6Te3SCl4
_chemical_formula_sum   'Hg6 Te3 S1 Cl4'
_cell_volume   438.67293888
_cell_formula_units_Z   1
loop_
 _symmetry_equiv_pos_site_id
 _symmetry_equiv_pos_as_xyz
  1  'x, y, z'
loop_
 _atom_site_type_symbol
 _atom_site_label
 _atom_site_symmetry_multiplicity
 _atom_site_fract_x
 _atom_site_fract_y
 _atom_site_fract_z
 _atom_site_occupancy
  Hg  Hg0  1  0.922011  0.247214  0.174724  1
  Hg  Hg1  1  0.747287  0.325276  0.572490  1
  Hg  Hg2  1  0.174796  0.927510  0.252786  1
  Hg  Hg3  1  0.274616  0.209946  0.963928  1
  Hg  Hg4  1  0.310688  0.536072  0.746018  1
  Hg  Hg5  1  0.564670  0.753982  0.290054  1
  Te  Te6  1  0.955289  0.951034  0.938870  1
  Te  Te7  1  0.504255  0.987836  0.548966  1
  Te  Te8  1  0.016419  0.561130  0.512164  1
  S  S9  1  0.530253  0.500000  0.000000  1
  Cl  Cl10  1  0.009719  0.500000  0.000000  1
  Cl  Cl11  1  0.487325  0.478128  0.493850  1
  Cl  Cl12  1  0.993475  0.006150  0.484278  1
  Cl  Cl13  1  0.509197  0.015722  0.021872  1
