# generated using pymatgen
data_Ta2NbB4
_symmetry_space_group_name_H-M   'P 1'
_cell_length_a   7.41775417
_cell_length_b   7.41775455
_cell_length_c   7.41775360
_cell_angle_alpha   154.17413917
_cell_angle_beta   35.88787457
_cell_angle_gamma   155.51136605
_symmetry_Int_Tables_number   1
_chemical_formula_structural   Ta2NbB4
_chemical_formula_sum   'Ta2 Nb1 B4'
_cell_volume   73.61089583
_cell_formula_units_Z   1
loop_
 _symmetry_equiv_pos_site_id
 _symmetry_equiv_pos_as_xyz
  1  'x, y, z'
loop_
 _atom_site_type_symbol
 _atom_site_label
 _atom_site_symmetry_multiplicity
 _atom_site_fract_x
 _atom_site_fract_y
 _atom_site_fract_z
 _atom_site_occupancy
  Ta  Ta0  1  0.184563  0.000000  0.184563  1
  Ta  Ta1  1  0.815437  0.000000  0.815437  1
  Nb  Nb2  1  0.499999  0.499999  0.000000  1
  B  B3  1  0.935341  0.499999  0.435341  1
  B  B4  1  0.064659  0.500002  0.564662  1
  B  B5  1  0.366074  0.000000  0.366074  1
  B  B6  1  0.633927  0.000000  0.633927  1
