# generated using pymatgen
data_Sc2Ir6C
_symmetry_space_group_name_H-M   'P 1'
_cell_length_a   5.68471783
_cell_length_b   5.68471823
_cell_length_c   5.68471800
_cell_angle_alpha   60.00000135
_cell_angle_beta   59.99999899
_cell_angle_gamma   59.99999833
_symmetry_Int_Tables_number   1
_chemical_formula_structural   Sc2Ir6C
_chemical_formula_sum   'Sc2 Ir6 C1'
_cell_volume   129.90078606
_cell_formula_units_Z   1
loop_
 _symmetry_equiv_pos_site_id
 _symmetry_equiv_pos_as_xyz
  1  'x, y, z'
loop_
 _atom_site_type_symbol
 _atom_site_label
 _atom_site_symmetry_multiplicity
 _atom_site_fract_x
 _atom_site_fract_y
 _atom_site_fract_z
 _atom_site_occupancy
  Sc  Sc0  1  0.250000  0.250000  0.250000  1
  Sc  Sc1  1  0.750000  0.750000  0.750000  1
  Ir  Ir2  1  0.743006  0.256995  0.256995  1
  Ir  Ir3  1  0.256995  0.743006  0.256995  1
  Ir  Ir4  1  0.743004  0.743004  0.256996  1
  Ir  Ir5  1  0.256995  0.256995  0.743006  1
  Ir  Ir6  1  0.743004  0.256996  0.743004  1
  Ir  Ir7  1  0.256996  0.743004  0.743004  1
  C  C8  1  0.000000  0.000000  0.000000  1
