# generated using pymatgen
data_NpCrFe(Sb6Os)2
_symmetry_space_group_name_H-M   'P 1'
_cell_length_a   8.10878917
_cell_length_b   8.15486396
_cell_length_c   8.09333955
_cell_angle_alpha   109.52044518
_cell_angle_beta   109.37469200
_cell_angle_gamma   109.63002980
_symmetry_Int_Tables_number   1
_chemical_formula_structural   NpCrFe(Sb6Os)2
_chemical_formula_sum   'Np1 Cr1 Fe1 Sb12 Os2'
_cell_volume   411.41288432
_cell_formula_units_Z   1
loop_
 _symmetry_equiv_pos_site_id
 _symmetry_equiv_pos_as_xyz
  1  'x, y, z'
loop_
 _atom_site_type_symbol
 _atom_site_label
 _atom_site_symmetry_multiplicity
 _atom_site_fract_x
 _atom_site_fract_y
 _atom_site_fract_z
 _atom_site_occupancy
  Np  Np0  1  0.000000  0.000000  0.000000  1
  Cr  Cr1  1  0.000000  0.000000  0.500000  1
  Fe  Fe2  1  0.000000  0.500000  0.000000  1
  Sb  Sb3  1  0.156139  0.815124  0.661149  1
  Sb  Sb4  1  0.843861  0.184876  0.338851  1
  Sb  Sb5  1  0.846025  0.506592  0.672414  1
  Sb  Sb6  1  0.153975  0.493408  0.327586  1
  Sb  Sb7  1  0.824165  0.656656  0.150115  1
  Sb  Sb8  1  0.175835  0.343344  0.849885  1
  Sb  Sb9  1  0.505315  0.661556  0.844494  1
  Sb  Sb10  1  0.494685  0.338444  0.155506  1
  Sb  Sb11  1  0.672643  0.165496  0.826509  1
  Sb  Sb12  1  0.327357  0.834504  0.173491  1
  Sb  Sb13  1  0.659061  0.842656  0.505016  1
  Sb  Sb14  1  0.340939  0.157344  0.494984  1
  Os  Os15  1  0.500000  0.000000  0.000000  1
  Os  Os16  1  0.500000  0.500000  0.500000  1
