# generated using pymatgen
data_Na11Li(OsN2)4
_symmetry_space_group_name_H-M   'P 1'
_cell_length_a   8.24791049
_cell_length_b   5.58786085
_cell_length_c   10.23611494
_cell_angle_alpha   57.11321343
_cell_angle_beta   91.01246659
_cell_angle_gamma   90.98587894
_symmetry_Int_Tables_number   1
_chemical_formula_structural   Na11Li(OsN2)4
_chemical_formula_sum   'Na11 Li1 Os4 N8'
_cell_volume   396.08327219
_cell_formula_units_Z   1
loop_
 _symmetry_equiv_pos_site_id
 _symmetry_equiv_pos_as_xyz
  1  'x, y, z'
loop_
 _atom_site_type_symbol
 _atom_site_label
 _atom_site_symmetry_multiplicity
 _atom_site_fract_x
 _atom_site_fract_y
 _atom_site_fract_z
 _atom_site_occupancy
  Na  Na0  1  0.504430  0.403293  0.516219  1
  Na  Na1  1  0.000452  0.133801  0.992915  1
  Na  Na2  1  0.498782  0.913937  0.498494  1
  Na  Na3  1  0.358818  0.630364  0.861269  1
  Na  Na4  1  0.875886  0.334934  0.639321  1
  Na  Na5  1  0.635860  0.386094  0.115083  1
  Na  Na6  1  0.144709  0.603780  0.381476  1
  Na  Na7  1  0.256646  0.213752  0.765773  1
  Na  Na8  1  0.773220  0.742533  0.745951  1
  Na  Na9  1  0.741459  0.767531  0.252119  1
  Na  Na10  1  0.239156  0.238404  0.240238  1
  Li  Li11  1  0.981892  0.610351  0.040612  1
  Os  Os12  1  0.106455  0.892695  0.588277  1
  Os  Os13  1  0.606842  0.090248  0.903402  1
  Os  Os14  1  0.893839  0.127935  0.387337  1
  Os  Os15  1  0.390878  0.877613  0.102207  1
  N  N16  1  0.783237  0.873928  0.942058  1
  N  N17  1  0.276363  0.115285  0.565503  1
  N  N18  1  0.211564  0.756818  0.050050  1
  N  N19  1  0.728541  0.246007  0.448648  1
  N  N20  1  0.561441  0.442078  0.741244  1
  N  N21  1  0.062682  0.538515  0.747106  1
  N  N22  1  0.434784  0.876463  0.274796  1
  N  N23  1  0.932062  0.183641  0.199905  1
