# generated using pymatgen
data_Tb4ScPd9
_symmetry_space_group_name_H-M   'P 1'
_cell_length_a   9.72855700
_cell_length_b   9.72855700
_cell_length_c   5.74859000
_cell_angle_alpha   90.00000000
_cell_angle_beta   90.00000000
_cell_angle_gamma   90.00000000
_symmetry_Int_Tables_number   1
_chemical_formula_structural   Tb4ScPd9
_chemical_formula_sum   'Tb8 Sc2 Pd18'
_cell_volume   544.07427329
_cell_formula_units_Z   2
loop_
 _symmetry_equiv_pos_site_id
 _symmetry_equiv_pos_as_xyz
  1  'x, y, z'
loop_
 _atom_site_type_symbol
 _atom_site_label
 _atom_site_symmetry_multiplicity
 _atom_site_fract_x
 _atom_site_fract_y
 _atom_site_fract_z
 _atom_site_occupancy
  Tb  Tb0  1  0.451602  0.809523  0.000000  1
  Tb  Tb1  1  0.548398  0.190477  0.000000  1
  Tb  Tb2  1  0.190477  0.548398  0.000000  1
  Tb  Tb3  1  0.809523  0.451602  0.000000  1
  Tb  Tb4  1  0.309523  0.048398  0.500000  1
  Tb  Tb5  1  0.690477  0.951602  0.500000  1
  Tb  Tb6  1  0.951602  0.690477  0.500000  1
  Tb  Tb7  1  0.048398  0.309523  0.500000  1
  Sc  Sc8  1  0.500000  0.500000  0.500000  1
  Sc  Sc9  1  0.000000  0.000000  0.000000  1
  Pd  Pd10  1  0.187092  0.812908  0.249121  1
  Pd  Pd11  1  0.812908  0.187092  0.750879  1
  Pd  Pd12  1  0.812908  0.187092  0.249121  1
  Pd  Pd13  1  0.187092  0.812908  0.750879  1
  Pd  Pd14  1  0.437669  0.773536  0.500000  1
  Pd  Pd15  1  0.562331  0.226464  0.500000  1
  Pd  Pd16  1  0.226464  0.562331  0.500000  1
  Pd  Pd17  1  0.773536  0.437669  0.500000  1
  Pd  Pd18  1  0.312908  0.312908  0.250879  1
  Pd  Pd19  1  0.687092  0.687092  0.749121  1
  Pd  Pd20  1  0.687092  0.687092  0.250879  1
  Pd  Pd21  1  0.312908  0.312908  0.749121  1
  Pd  Pd22  1  0.273536  0.062331  0.000000  1
  Pd  Pd23  1  0.726464  0.937669  0.000000  1
  Pd  Pd24  1  0.937669  0.726464  0.000000  1
  Pd  Pd25  1  0.062331  0.273536  0.000000  1
  Pd  Pd26  1  0.000000  0.000000  0.500000  1
  Pd  Pd27  1  0.500000  0.500000  0.000000  1
