# generated using pymatgen
data_VZn3(SiRu2)4
_symmetry_space_group_name_H-M   'P 1'
_cell_length_a   5.91662100
_cell_length_b   5.91662100
_cell_length_c   5.91662100
_cell_angle_alpha   90.00000000
_cell_angle_beta   90.00000000
_cell_angle_gamma   90.00000000
_symmetry_Int_Tables_number   1
_chemical_formula_structural   VZn3(SiRu2)4
_chemical_formula_sum   'V1 Zn3 Si4 Ru8'
_cell_volume   207.11962538
_cell_formula_units_Z   1
loop_
 _symmetry_equiv_pos_site_id
 _symmetry_equiv_pos_as_xyz
  1  'x, y, z'
loop_
 _atom_site_type_symbol
 _atom_site_label
 _atom_site_symmetry_multiplicity
 _atom_site_fract_x
 _atom_site_fract_y
 _atom_site_fract_z
 _atom_site_occupancy
  V  V0  1  0.500000  0.500000  0.500000  1
  Zn  Zn1  1  0.500000  0.000000  0.000000  1
  Zn  Zn2  1  0.000000  0.000000  0.500000  1
  Zn  Zn3  1  0.000000  0.500000  0.000000  1
  Si  Si4  1  0.000000  0.500000  0.500000  1
  Si  Si5  1  0.500000  0.000000  0.500000  1
  Si  Si6  1  0.500000  0.500000  0.000000  1
  Si  Si7  1  0.000000  0.000000  0.000000  1
  Ru  Ru8  1  0.251259  0.748741  0.748741  1
  Ru  Ru9  1  0.748741  0.251259  0.748741  1
  Ru  Ru10  1  0.748741  0.748741  0.748741  1
  Ru  Ru11  1  0.748741  0.748741  0.251259  1
  Ru  Ru12  1  0.748741  0.251259  0.251259  1
  Ru  Ru13  1  0.251259  0.251259  0.748741  1
  Ru  Ru14  1  0.251259  0.748741  0.251259  1
  Ru  Ru15  1  0.251259  0.251259  0.251259  1
