# generated using pymatgen
data_Tm4Al18Ni5Ru
_symmetry_space_group_name_H-M   'P 1'
_cell_length_a   7.45981307
_cell_length_b   7.45980684
_cell_length_c   9.33361200
_cell_angle_alpha   90.11500936
_cell_angle_beta   90.11515519
_cell_angle_gamma   119.61383001
_symmetry_Int_Tables_number   1
_chemical_formula_structural   Tm4Al18Ni5Ru
_chemical_formula_sum   'Tm4 Al18 Ni5 Ru1'
_cell_volume   451.55358257
_cell_formula_units_Z   1
loop_
 _symmetry_equiv_pos_site_id
 _symmetry_equiv_pos_as_xyz
  1  'x, y, z'
loop_
 _atom_site_type_symbol
 _atom_site_label
 _atom_site_symmetry_multiplicity
 _atom_site_fract_x
 _atom_site_fract_y
 _atom_site_fract_z
 _atom_site_occupancy
  Tm  Tm0  1  0.993534  0.669263  0.249870  1
  Tm  Tm1  1  0.005895  0.330120  0.750235  1
  Tm  Tm2  1  0.669895  0.994122  0.249765  1
  Tm  Tm3  1  0.330752  0.006479  0.750131  1
  Al  Al4  1  0.123147  0.123773  0.250090  1
  Al  Al5  1  0.876248  0.876874  0.749911  1
  Al  Al6  1  0.000665  0.333758  0.071970  1
  Al  Al7  1  0.003866  0.666261  0.928718  1
  Al  Al8  1  0.002619  0.666916  0.572256  1
  Al  Al9  1  0.333102  0.997403  0.427746  1
  Al  Al10  1  0.998362  0.334935  0.427899  1
  Al  Al11  1  0.665085  0.001666  0.572106  1
  Al  Al12  1  0.666259  0.999354  0.928028  1
  Al  Al13  1  0.333755  0.996156  0.071281  1
  Al  Al14  1  0.331414  0.332575  0.551748  1
  Al  Al15  1  0.667438  0.668600  0.448251  1
  Al  Al16  1  0.668790  0.668175  0.048997  1
  Al  Al17  1  0.331835  0.331224  0.951004  1
  Al  Al18  1  0.337930  0.553076  0.250214  1
  Al  Al19  1  0.660995  0.450077  0.748928  1
  Al  Al20  1  0.549931  0.339025  0.251067  1
  Al  Al21  1  0.446938  0.662090  0.749790  1
  Ni  Ni22  1  0.330120  0.670192  0.000276  1
  Ni  Ni23  1  0.328629  0.671645  0.499944  1
  Ni  Ni24  1  0.671062  0.328795  0.499746  1
  Ni  Ni25  1  0.000489  0.999051  0.000024  1
  Ni  Ni26  1  0.998945  0.000703  0.499995  1
  Ru  Ru27  1  0.672298  0.327695  0.000010  1
