# generated using pymatgen
data_Ho8ErMg(BiAu2)2
_symmetry_space_group_name_H-M   'P 1'
_cell_length_a   8.70783918
_cell_length_b   8.70783936
_cell_length_c   8.70783983
_cell_angle_alpha   125.66936769
_cell_angle_beta   125.66936368
_cell_angle_gamma   80.43224206
_symmetry_Int_Tables_number   1
_chemical_formula_structural   Ho8ErMg(BiAu2)2
_chemical_formula_sum   'Ho8 Er1 Mg1 Bi2 Au4'
_cell_volume   420.39739262
_cell_formula_units_Z   1
loop_
 _symmetry_equiv_pos_site_id
 _symmetry_equiv_pos_as_xyz
  1  'x, y, z'
loop_
 _atom_site_type_symbol
 _atom_site_label
 _atom_site_symmetry_multiplicity
 _atom_site_fract_x
 _atom_site_fract_y
 _atom_site_fract_z
 _atom_site_occupancy
  Ho  Ho0  1  0.008223  0.523203  0.812041  1
  Ho  Ho1  1  0.711162  0.196183  0.187959  1
  Ho  Ho2  1  0.523203  0.711162  0.514979  1
  Ho  Ho3  1  0.196183  0.008223  0.485021  1
  Ho  Ho4  1  0.991777  0.476797  0.187959  1
  Ho  Ho5  1  0.288838  0.803817  0.812041  1
  Ho  Ho6  1  0.476797  0.288838  0.485021  1
  Ho  Ho7  1  0.803817  0.991777  0.514979  1
  Er  Er8  1  0.500000  0.500000  0.000000  1
  Mg  Mg9  1  0.000000  0.000000  0.000000  1
  Bi  Bi10  1  0.745786  0.745786  0.000000  1
  Bi  Bi11  1  0.254214  0.254214  0.000000  1
  Au  Au12  1  0.634866  0.141627  0.776492  1
  Au  Au13  1  0.365134  0.858373  0.223508  1
  Au  Au14  1  0.141627  0.365134  0.506761  1
  Au  Au15  1  0.858373  0.634866  0.493239  1
