# generated using pymatgen
data_HfZr4SnBi2B
_symmetry_space_group_name_H-M   'P 1'
_cell_length_a   8.63316817
_cell_length_b   8.64294169
_cell_length_c   5.85605300
_cell_angle_alpha   90.00000000
_cell_angle_beta   90.00000000
_cell_angle_gamma   119.67991930
_symmetry_Int_Tables_number   1
_chemical_formula_structural   HfZr4SnBi2B
_chemical_formula_sum   'Hf2 Zr8 Sn2 Bi4 B2'
_cell_volume   379.62879576
_cell_formula_units_Z   2
loop_
 _symmetry_equiv_pos_site_id
 _symmetry_equiv_pos_as_xyz
  1  'x, y, z'
loop_
 _atom_site_type_symbol
 _atom_site_label
 _atom_site_symmetry_multiplicity
 _atom_site_fract_x
 _atom_site_fract_y
 _atom_site_fract_z
 _atom_site_occupancy
  Hf  Hf0  1  0.222362  0.222446  0.250000  1
  Hf  Hf1  1  0.776215  0.006084  0.250000  1
  Zr  Zr2  1  0.667217  0.331167  0.003324  1
  Zr  Zr3  1  0.331657  0.667265  0.003353  1
  Zr  Zr4  1  0.331657  0.667265  0.496647  1
  Zr  Zr5  1  0.667217  0.331167  0.496676  1
  Zr  Zr6  1  0.773724  0.774233  0.750000  1
  Zr  Zr7  1  0.227590  0.999404  0.750000  1
  Zr  Zr8  1  0.998772  0.227479  0.750000  1
  Zr  Zr9  1  0.005288  0.772270  0.250000  1
  Sn  Sn10  1  0.399329  0.001276  0.250000  1
  Sn  Sn11  1  0.000981  0.398403  0.250000  1
  Bi  Bi12  1  0.398215  0.398199  0.750000  1
  Bi  Bi13  1  0.597320  0.999363  0.750000  1
  Bi  Bi14  1  0.999417  0.597768  0.750000  1
  Bi  Bi15  1  0.604084  0.604522  0.250000  1
  B  B16  1  0.999476  0.000842  0.002243  1
  B  B17  1  0.999476  0.000842  0.497757  1
