# generated using pymatgen
data_Ti5P7Pd9
_symmetry_space_group_name_H-M   'P 1'
_cell_length_a   3.68486000
_cell_length_b   6.41986881
_cell_length_c   13.50134115
_cell_angle_alpha   76.24625603
_cell_angle_beta   90.00000000
_cell_angle_gamma   90.00000000
_symmetry_Int_Tables_number   1
_chemical_formula_structural   Ti5P7Pd9
_chemical_formula_sum   'Ti5 P7 Pd9'
_cell_volume   310.23394148
_cell_formula_units_Z   1
loop_
 _symmetry_equiv_pos_site_id
 _symmetry_equiv_pos_as_xyz
  1  'x, y, z'
loop_
 _atom_site_type_symbol
 _atom_site_label
 _atom_site_symmetry_multiplicity
 _atom_site_fract_x
 _atom_site_fract_y
 _atom_site_fract_z
 _atom_site_occupancy
  Ti  Ti0  1  0.000000  0.542569  0.000000  1
  Ti  Ti1  1  0.000000  0.820680  0.173639  1
  Ti  Ti2  1  0.500001  0.069803  0.458423  1
  Ti  Ti3  1  0.500001  0.528226  0.541577  1
  Ti  Ti4  1  0.000000  0.994320  0.826362  1
  P  P5  1  0.000000  0.143528  0.000000  1
  P  P6  1  0.500001  0.567459  0.132433  1
  P  P7  1  0.500001  0.955349  0.288226  1
  P  P8  1  0.000000  0.370764  0.433066  1
  P  P9  1  0.000000  0.803830  0.566934  1
  P  P10  1  0.500001  0.243575  0.711774  1
  P  P11  1  0.500001  0.699891  0.867567  1
  Pd  Pd12  1  0.500001  0.892439  0.000000  1
  Pd  Pd13  1  0.500001  0.207123  0.117751  1
  Pd  Pd14  1  0.000000  0.212483  0.281357  1
  Pd  Pd15  1  0.500001  0.532677  0.312290  1
  Pd  Pd16  1  0.000000  0.776144  0.392811  1
  Pd  Pd17  1  0.000000  0.168955  0.607190  1
  Pd  Pd18  1  0.500001  0.844966  0.687710  1
  Pd  Pd19  1  0.000000  0.493841  0.718643  1
  Pd  Pd20  1  0.500001  0.324873  0.882249  1
