# generated using pymatgen
data_Dy6ZrAl15Os7
_symmetry_space_group_name_H-M   'P 1'
_cell_length_a   9.00345916
_cell_length_b   9.00346043
_cell_length_c   8.99383449
_cell_angle_alpha   59.96459310
_cell_angle_beta   59.96458721
_cell_angle_gamma   60.00000355
_symmetry_Int_Tables_number   1
_chemical_formula_structural   Dy6ZrAl15Os7
_chemical_formula_sum   'Dy6 Zr1 Al15 Os7'
_cell_volume   515.24776109
_cell_formula_units_Z   1
loop_
 _symmetry_equiv_pos_site_id
 _symmetry_equiv_pos_as_xyz
  1  'x, y, z'
loop_
 _atom_site_type_symbol
 _atom_site_label
 _atom_site_symmetry_multiplicity
 _atom_site_fract_x
 _atom_site_fract_y
 _atom_site_fract_z
 _atom_site_occupancy
  Dy  Dy0  1  0.707100  0.707100  0.286250  1
  Dy  Dy1  1  0.299551  0.707100  0.286250  1
  Dy  Dy2  1  0.707100  0.299551  0.286250  1
  Dy  Dy3  1  0.286871  0.286871  0.715446  1
  Dy  Dy4  1  0.710811  0.286871  0.715446  1
  Dy  Dy5  1  0.286871  0.710811  0.715446  1
  Zr  Zr6  1  0.881110  0.881110  0.356667  1
  Al  Al7  1  0.878381  0.363657  0.879581  1
  Al  Al8  1  0.363657  0.878381  0.879581  1
  Al  Al9  1  0.878381  0.878381  0.879581  1
  Al  Al10  1  0.123875  0.123875  0.628376  1
  Al  Al11  1  0.120657  0.636996  0.121691  1
  Al  Al12  1  0.636996  0.120657  0.121691  1
  Al  Al13  1  0.120657  0.120657  0.121691  1
  Al  Al14  1  0.669087  0.669087  0.992739  1
  Al  Al15  1  0.665247  0.998871  0.670637  1
  Al  Al16  1  0.998871  0.665247  0.670637  1
  Al  Al17  1  0.665247  0.665247  0.670637  1
  Al  Al18  1  0.331217  0.331217  0.006350  1
  Al  Al19  1  0.333002  0.001492  0.332505  1
  Al  Al20  1  0.001492  0.333002  0.332505  1
  Al  Al21  1  0.333002  0.333002  0.332505  1
  Os  Os22  1  0.003840  0.003840  0.988479  1
  Os  Os23  1  0.000718  0.000718  0.502558  1
  Os  Os24  1  0.496005  0.000718  0.502558  1
  Os  Os25  1  0.000718  0.496005  0.502558  1
  Os  Os26  1  0.499484  0.499484  0.000462  1
  Os  Os27  1  0.000571  0.499484  0.000462  1
  Os  Os28  1  0.499484  0.000571  0.000462  1
