# generated using pymatgen
data_Ho10Tl(C2Br9)2
_symmetry_space_group_name_H-M   'P 1'
_cell_length_a   10.62093906
_cell_length_b   10.71055752
_cell_length_c   10.86432600
_cell_angle_alpha   113.32258423
_cell_angle_beta   87.53659278
_cell_angle_gamma   118.69469406
_symmetry_Int_Tables_number   1
_chemical_formula_structural   Ho10Tl(C2Br9)2
_chemical_formula_sum   'Ho10 Tl1 C4 Br18'
_cell_volume   978.78133731
_cell_formula_units_Z   1
loop_
 _symmetry_equiv_pos_site_id
 _symmetry_equiv_pos_as_xyz
  1  'x, y, z'
loop_
 _atom_site_type_symbol
 _atom_site_label
 _atom_site_symmetry_multiplicity
 _atom_site_fract_x
 _atom_site_fract_y
 _atom_site_fract_z
 _atom_site_occupancy
  Ho  Ho0  1  0.664141  0.718468  0.703760  1
  Ho  Ho1  1  0.282302  0.362979  0.011507  1
  Ho  Ho2  1  0.092682  0.404837  0.299258  1
  Ho  Ho3  1  0.959426  0.035077  0.331709  1
  Ho  Ho4  1  0.907318  0.595163  0.700742  1
  Ho  Ho5  1  0.111551  0.941596  0.001126  1
  Ho  Ho6  1  0.040574  0.964923  0.668291  1
  Ho  Ho7  1  0.335859  0.281532  0.296240  1
  Ho  Ho8  1  0.717698  0.637021  0.988493  1
  Ho  Ho9  1  0.888449  0.058404  0.998874  1
  Tl  Tl10  1  0.500000  0.000000  0.500000  1
  C  C11  1  0.156787  0.226847  0.122320  1
  C  C12  1  0.843213  0.773153  0.877680  1
  C  C13  1  0.922859  0.853022  0.796938  1
  C  C14  1  0.077141  0.146978  0.203062  1
  Br  Br15  1  0.451166  0.530773  0.833340  1
  Br  Br16  1  0.384334  0.039832  0.159695  1
  Br  Br17  1  0.777364  0.857957  0.501951  1
  Br  Br18  1  0.837672  0.311323  0.154093  1
  Br  Br19  1  0.548834  0.469227  0.166660  1
  Br  Br20  1  0.222636  0.142043  0.498049  1
  Br  Br21  1  0.315993  0.098322  0.828220  1
  Br  Br22  1  0.684007  0.901678  0.171780  1
  Br  Br23  1  0.974225  0.759079  0.171805  1
  Br  Br24  1  0.933311  0.301162  0.500360  1
  Br  Br25  1  0.025775  0.240921  0.828195  1
  Br  Br26  1  0.066689  0.698838  0.499640  1
  Br  Br27  1  0.261401  0.623734  0.187626  1
  Br  Br28  1  0.738599  0.376266  0.812374  1
  Br  Br29  1  0.640356  0.434771  0.501173  1
  Br  Br30  1  0.162328  0.688677  0.845907  1
  Br  Br31  1  0.615666  0.960168  0.840305  1
  Br  Br32  1  0.359644  0.565229  0.498827  1
