# generated using pymatgen
data_Dy5Co16Si6(TcP2)3
_symmetry_space_group_name_H-M   'P 1'
_cell_length_a   12.11355700
_cell_length_b   12.11355617
_cell_length_c   3.72852400
_cell_angle_alpha   90.00000000
_cell_angle_beta   90.00000000
_cell_angle_gamma   119.99999407
_symmetry_Int_Tables_number   1
_chemical_formula_structural   Dy5Co16Si6(TcP2)3
_chemical_formula_sum   'Dy5 Co16 Si6 Tc3 P6'
_cell_volume   473.81733448
_cell_formula_units_Z   1
loop_
 _symmetry_equiv_pos_site_id
 _symmetry_equiv_pos_as_xyz
  1  'x, y, z'
loop_
 _atom_site_type_symbol
 _atom_site_label
 _atom_site_symmetry_multiplicity
 _atom_site_fract_x
 _atom_site_fract_y
 _atom_site_fract_z
 _atom_site_occupancy
  Dy  Dy0  1  0.666667  0.333333  0.000000  1
  Dy  Dy1  1  0.333333  0.666667  0.000000  1
  Dy  Dy2  1  0.184967  0.184967  0.500000  1
  Dy  Dy3  1  0.815033  0.000000  0.500000  1
  Dy  Dy4  1  0.000000  0.815033  0.500000  1
  Co  Co5  1  0.821999  0.193722  0.000000  1
  Co  Co6  1  0.806278  0.628277  0.000000  1
  Co  Co7  1  0.371723  0.178001  0.000000  1
  Co  Co8  1  0.193722  0.821999  0.000000  1
  Co  Co9  1  0.628277  0.806278  0.000000  1
  Co  Co10  1  0.178001  0.371723  0.000000  1
  Co  Co11  1  0.646262  0.121966  0.500000  1
  Co  Co12  1  0.878034  0.524295  0.500000  1
  Co  Co13  1  0.475705  0.353738  0.500000  1
  Co  Co14  1  0.121966  0.646262  0.500000  1
  Co  Co15  1  0.524295  0.878034  0.500000  1
  Co  Co16  1  0.353738  0.475705  0.500000  1
  Co  Co17  1  0.724268  0.724268  0.500000  1
  Co  Co18  1  0.275732  0.000000  0.500000  1
  Co  Co19  1  0.000000  0.275732  0.500000  1
  Co  Co20  1  0.000000  0.000000  0.000000  1
  Si  Si21  1  0.837811  0.316355  0.500000  1
  Si  Si22  1  0.683645  0.521456  0.500000  1
  Si  Si23  1  0.478544  0.162189  0.500000  1
  Si  Si24  1  0.316355  0.837811  0.500000  1
  Si  Si25  1  0.521456  0.683645  0.500000  1
  Si  Si26  1  0.162189  0.478544  0.500000  1
  Tc  Tc27  1  0.555703  0.555703  0.000000  1
  Tc  Tc28  1  0.444297  0.000000  0.000000  1
  Tc  Tc29  1  0.000000  0.444297  0.000000  1
  P  P30  1  0.364473  0.364473  0.000000  1
  P  P31  1  0.635527  0.000000  0.000000  1
  P  P32  1  0.000000  0.635527  0.000000  1
  P  P33  1  0.819778  0.819778  0.000000  1
  P  P34  1  0.180222  0.000000  0.000000  1
  P  P35  1  0.000000  0.180222  0.000000  1
