# generated using pymatgen
data_Pr8Er8Sc4Si15Se
_symmetry_space_group_name_H-M   'P 1'
_cell_length_a   7.47308858
_cell_length_b   7.67940983
_cell_length_c   14.61103678
_cell_angle_alpha   89.85031803
_cell_angle_beta   87.40754566
_cell_angle_gamma   90.08677793
_symmetry_Int_Tables_number   1
_chemical_formula_structural   Pr8Er8Sc4Si15Se
_chemical_formula_sum   'Pr8 Er8 Sc4 Si15 Se1'
_cell_volume   837.64930878
_cell_formula_units_Z   1
loop_
 _symmetry_equiv_pos_site_id
 _symmetry_equiv_pos_as_xyz
  1  'x, y, z'
loop_
 _atom_site_type_symbol
 _atom_site_label
 _atom_site_symmetry_multiplicity
 _atom_site_fract_x
 _atom_site_fract_y
 _atom_site_fract_z
 _atom_site_occupancy
  Pr  Pr0  1  0.999355  0.176083  0.399529  1
  Pr  Pr1  1  0.501451  0.315371  0.399292  1
  Pr  Pr2  1  0.483369  0.678936  0.900256  1
  Pr  Pr3  1  0.505219  0.682905  0.599689  1
  Pr  Pr4  1  0.999144  0.822151  0.598452  1
  Pr  Pr5  1  0.982124  0.823869  0.899456  1
  Pr  Pr6  1  0.518325  0.322169  0.100684  1
  Pr  Pr7  1  0.018292  0.179989  0.100728  1
  Er  Er8  1  0.351458  0.163507  0.624141  1
  Er  Er9  1  0.651009  0.831954  0.376955  1
  Er  Er10  1  0.150723  0.667098  0.379245  1
  Er  Er11  1  0.827659  0.323557  0.874578  1
  Er  Er12  1  0.843840  0.333535  0.619545  1
  Er  Er13  1  0.326581  0.176349  0.874232  1
  Er  Er14  1  0.171635  0.676339  0.124310  1
  Er  Er15  1  0.673001  0.824130  0.124663  1
  Sc  Sc16  1  0.669495  0.996182  0.745861  1
  Sc  Sc17  1  0.833213  0.496537  0.256065  1
  Sc  Sc18  1  0.331698  0.001876  0.253603  1
  Sc  Sc19  1  0.166886  0.506918  0.753075  1
  Si  Si20  1  0.290829  0.871646  0.750442  1
  Si  Si21  1  0.458654  0.614610  0.249664  1
  Si  Si22  1  0.037587  0.117261  0.748221  1
  Si  Si23  1  0.538734  0.386552  0.749223  1
  Si  Si24  1  0.961914  0.884184  0.249649  1
  Si  Si25  1  0.710698  0.125535  0.248876  1
  Si  Si26  1  0.853138  0.532763  0.040114  1
  Si  Si27  1  0.353780  0.969414  0.041293  1
  Si  Si28  1  0.145235  0.469776  0.957605  1
  Si  Si29  1  0.687111  0.036969  0.545195  1
  Si  Si30  1  0.311488  0.961053  0.456723  1
  Si  Si31  1  0.801755  0.536191  0.452193  1
  Si  Si32  1  0.792601  0.626307  0.750038  1
  Si  Si33  1  0.210234  0.375358  0.249584  1
  Si  Si34  1  0.644593  0.032351  0.958210  1
  Se  Se35  1  0.197174  0.460575  0.548609  1
