# generated using pymatgen
data_Y3Al3ZnSiPd
_symmetry_space_group_name_H-M   'P 1'
_cell_length_a   6.96546500
_cell_length_b   6.96546506
_cell_length_c   4.27325600
_cell_angle_alpha   90.00000000
_cell_angle_beta   90.00000000
_cell_angle_gamma   119.99999495
_symmetry_Int_Tables_number   1
_chemical_formula_structural   Y3Al3ZnSiPd
_chemical_formula_sum   'Y3 Al3 Zn1 Si1 Pd1'
_cell_volume   179.55181412
_cell_formula_units_Z   1
loop_
 _symmetry_equiv_pos_site_id
 _symmetry_equiv_pos_as_xyz
  1  'x, y, z'
loop_
 _atom_site_type_symbol
 _atom_site_label
 _atom_site_symmetry_multiplicity
 _atom_site_fract_x
 _atom_site_fract_y
 _atom_site_fract_z
 _atom_site_occupancy
  Y  Y0  1  0.418894  0.996905  0.000000  1
  Y  Y1  1  0.003095  0.421989  0.000000  1
  Y  Y2  1  0.578011  0.581105  0.000000  1
  Al  Al3  1  0.765058  0.005084  0.500000  1
  Al  Al4  1  0.240024  0.234941  0.500000  1
  Al  Al5  1  0.994916  0.759975  0.500000  1
  Zn  Zn6  1  0.666666  0.333333  0.500000  1
  Si  Si7  1  0.333333  0.666666  0.500000  1
  Pd  Pd8  1  0.000000  0.000000  0.000000  1
