# generated using pymatgen
data_ThPIr2Pt
_symmetry_space_group_name_H-M   'P 1'
_cell_length_a   4.05106800
_cell_length_b   4.05106800
_cell_length_c   10.88639800
_cell_angle_alpha   90.00000000
_cell_angle_beta   90.00000000
_cell_angle_gamma   90.00000000
_symmetry_Int_Tables_number   1
_chemical_formula_structural   ThPIr2Pt
_chemical_formula_sum   'Th2 P2 Ir4 Pt2'
_cell_volume   178.65833166
_cell_formula_units_Z   2
loop_
 _symmetry_equiv_pos_site_id
 _symmetry_equiv_pos_as_xyz
  1  'x, y, z'
loop_
 _atom_site_type_symbol
 _atom_site_label
 _atom_site_symmetry_multiplicity
 _atom_site_fract_x
 _atom_site_fract_y
 _atom_site_fract_z
 _atom_site_occupancy
  Th  Th0  1  0.000000  0.500000  0.240136  1
  Th  Th1  1  0.500000  0.000000  0.759864  1
  P  P2  1  0.000000  0.500000  0.622184  1
  P  P3  1  0.500000  0.000000  0.377816  1
  Ir  Ir4  1  0.000000  0.000000  0.500000  1
  Ir  Ir5  1  0.500000  0.500000  0.500000  1
  Ir  Ir6  1  0.000000  0.500000  0.828141  1
  Ir  Ir7  1  0.500000  0.000000  0.171859  1
  Pt  Pt8  1  0.000000  0.000000  0.000000  1
  Pt  Pt9  1  0.500000  0.500000  0.000000  1
