# generated using pymatgen
data_Pr6SmSiBr12
_symmetry_space_group_name_H-M   'P 1'
_cell_length_a   9.54414214
_cell_length_b   9.54414212
_cell_length_c   9.54414192
_cell_angle_alpha   107.63852909
_cell_angle_beta   107.63852551
_cell_angle_gamma   107.63852237
_symmetry_Int_Tables_number   1
_chemical_formula_structural   Pr6SmSiBr12
_chemical_formula_sum   'Pr6 Sm1 Si1 Br12'
_cell_volume   711.04149635
_cell_formula_units_Z   1
loop_
 _symmetry_equiv_pos_site_id
 _symmetry_equiv_pos_as_xyz
  1  'x, y, z'
loop_
 _atom_site_type_symbol
 _atom_site_label
 _atom_site_symmetry_multiplicity
 _atom_site_fract_x
 _atom_site_fract_y
 _atom_site_fract_z
 _atom_site_occupancy
  Pr  Pr0  1  0.967857  0.891774  0.677480  1
  Pr  Pr1  1  0.032143  0.108226  0.322520  1
  Pr  Pr2  1  0.108226  0.322520  0.032143  1
  Pr  Pr3  1  0.322520  0.032143  0.108226  1
  Pr  Pr4  1  0.891774  0.677480  0.967857  1
  Pr  Pr5  1  0.677480  0.967857  0.891774  1
  Sm  Sm6  1  0.500000  0.500000  0.500000  1
  Si  Si7  1  0.000000  0.000000  0.000000  1
  Br  Br8  1  0.529892  0.609673  0.832477  1
  Br  Br9  1  0.470108  0.390327  0.167523  1
  Br  Br10  1  0.312384  0.925208  0.772674  1
  Br  Br11  1  0.390327  0.167523  0.470108  1
  Br  Br12  1  0.925208  0.772674  0.312384  1
  Br  Br13  1  0.687616  0.074792  0.227326  1
  Br  Br14  1  0.074792  0.227326  0.687616  1
  Br  Br15  1  0.772674  0.312384  0.925208  1
  Br  Br16  1  0.227326  0.687616  0.074792  1
  Br  Br17  1  0.832477  0.529892  0.609673  1
  Br  Br18  1  0.167523  0.470108  0.390327  1
  Br  Br19  1  0.609673  0.832477  0.529892  1
