# generated using pymatgen
data_TmCoH4
_symmetry_space_group_name_H-M   'P 1'
_cell_length_a   5.97774067
_cell_length_b   5.97774078
_cell_length_c   4.65272500
_cell_angle_alpha   90.00000000
_cell_angle_beta   90.00000000
_cell_angle_gamma   145.72828017
_symmetry_Int_Tables_number   1
_chemical_formula_structural   TmCoH4
_chemical_formula_sum   'Tm2 Co2 H8'
_cell_volume   93.62269146
_cell_formula_units_Z   2
loop_
 _symmetry_equiv_pos_site_id
 _symmetry_equiv_pos_as_xyz
  1  'x, y, z'
loop_
 _atom_site_type_symbol
 _atom_site_label
 _atom_site_symmetry_multiplicity
 _atom_site_fract_x
 _atom_site_fract_y
 _atom_site_fract_z
 _atom_site_occupancy
  Tm  Tm0  1  0.867014  0.132986  0.750000  1
  Tm  Tm1  1  0.132986  0.867014  0.250000  1
  Co  Co2  1  0.598525  0.401475  0.750000  1
  Co  Co3  1  0.401475  0.598525  0.250000  1
  H  H4  1  0.089063  0.910937  0.750000  1
  H  H5  1  0.910937  0.089063  0.250000  1
  H  H6  1  0.693689  0.306311  0.497294  1
  H  H7  1  0.306311  0.693689  0.502706  1
  H  H8  1  0.693689  0.306311  0.002706  1
  H  H9  1  0.306311  0.693689  0.997294  1
  H  H10  1  0.500000  0.500000  0.000000  1
  H  H11  1  0.500000  0.500000  0.500000  1
