# generated using pymatgen
data_Y10CdCoHg2
_symmetry_space_group_name_H-M   'P 1'
_cell_length_a   9.66041457
_cell_length_b   9.67480570
_cell_length_c   9.64275000
_cell_angle_alpha   90.00000000
_cell_angle_beta   90.00000000
_cell_angle_gamma   120.04928069
_symmetry_Int_Tables_number   1
_chemical_formula_structural   Y10CdCoHg2
_chemical_formula_sum   'Y20 Cd2 Co2 Hg4'
_cell_volume   780.10610517
_cell_formula_units_Z   2
loop_
 _symmetry_equiv_pos_site_id
 _symmetry_equiv_pos_as_xyz
  1  'x, y, z'
loop_
 _atom_site_type_symbol
 _atom_site_label
 _atom_site_symmetry_multiplicity
 _atom_site_fract_x
 _atom_site_fract_y
 _atom_site_fract_z
 _atom_site_occupancy
  Y  Y0  1  0.003772  0.001886  0.508803  1
  Y  Y1  1  0.003772  0.001886  0.991197  1
  Y  Y2  1  0.538480  0.454012  0.250000  1
  Y  Y3  1  0.538480  0.084467  0.250000  1
  Y  Y4  1  0.914132  0.457066  0.250000  1
  Y  Y5  1  0.457491  0.542339  0.750000  1
  Y  Y6  1  0.457491  0.915152  0.750000  1
  Y  Y7  1  0.084876  0.542438  0.750000  1
  Y  Y8  1  0.210790  0.787999  0.435607  1
  Y  Y9  1  0.210790  0.422793  0.435607  1
  Y  Y10  1  0.577620  0.788811  0.435518  1
  Y  Y11  1  0.788737  0.210956  0.564474  1
  Y  Y12  1  0.788737  0.577779  0.564474  1
  Y  Y13  1  0.422049  0.211023  0.565466  1
  Y  Y14  1  0.788737  0.210956  0.935526  1
  Y  Y15  1  0.788737  0.577779  0.935526  1
  Y  Y16  1  0.422049  0.211023  0.934534  1
  Y  Y17  1  0.210790  0.787999  0.064393  1
  Y  Y18  1  0.210790  0.422793  0.064393  1
  Y  Y19  1  0.577620  0.788811  0.064482  1
  Cd  Cd20  1  0.884856  0.113052  0.250000  1
  Cd  Cd21  1  0.884856  0.771804  0.250000  1
  Co  Co22  1  0.333087  0.666544  0.250000  1
  Co  Co23  1  0.666988  0.333494  0.750000  1
  Hg  Hg24  1  0.231721  0.115860  0.250000  1
  Hg  Hg25  1  0.121797  0.879466  0.750000  1
  Hg  Hg26  1  0.121797  0.242331  0.750000  1
  Hg  Hg27  1  0.758961  0.879481  0.750000  1
