# generated using pymatgen
data_Lu5Sc(AlAu)6
_symmetry_space_group_name_H-M   'P 1'
_cell_length_a   7.30910400
_cell_length_b   7.31319341
_cell_length_c   7.74770200
_cell_angle_alpha   90.00000000
_cell_angle_beta   90.00000000
_cell_angle_gamma   119.97983985
_symmetry_Int_Tables_number   1
_chemical_formula_structural   Lu5Sc(AlAu)6
_chemical_formula_sum   'Lu5 Sc1 Al6 Au6'
_cell_volume   358.72606229
_cell_formula_units_Z   1
loop_
 _symmetry_equiv_pos_site_id
 _symmetry_equiv_pos_as_xyz
  1  'x, y, z'
loop_
 _atom_site_type_symbol
 _atom_site_label
 _atom_site_symmetry_multiplicity
 _atom_site_fract_x
 _atom_site_fract_y
 _atom_site_fract_z
 _atom_site_occupancy
  Lu  Lu0  1  0.584746  0.988799  0.750000  1
  Lu  Lu1  1  0.011229  0.595764  0.750000  1
  Lu  Lu2  1  0.989652  0.585334  0.250000  1
  Lu  Lu3  1  0.595809  0.010462  0.250000  1
  Lu  Lu4  1  0.415434  0.404905  0.250000  1
  Sc  Sc5  1  0.400773  0.411244  0.750000  1
  Al  Al6  1  0.747183  0.746751  0.995515  1
  Al  Al7  1  0.251794  0.002710  0.998651  1
  Al  Al8  1  0.002649  0.252069  0.998409  1
  Al  Al9  1  0.747183  0.746751  0.504485  1
  Al  Al10  1  0.251794  0.002710  0.501349  1
  Al  Al11  1  0.002649  0.252069  0.501591  1
  Au  Au12  1  0.002561  0.002498  0.750000  1
  Au  Au13  1  0.999504  0.999569  0.250000  1
  Au  Au14  1  0.664618  0.333898  0.982013  1
  Au  Au15  1  0.664618  0.333898  0.517987  1
  Au  Au16  1  0.333903  0.665284  0.486943  1
  Au  Au17  1  0.333903  0.665284  0.013057  1
