# generated using pymatgen
data_Hf10AlSnSb4
_symmetry_space_group_name_H-M   'P 1'
_cell_length_a   5.58296458
_cell_length_b   8.31126739
_cell_length_c   8.31126718
_cell_angle_alpha   96.47714546
_cell_angle_beta   109.62528736
_cell_angle_gamma   70.37470997
_symmetry_Int_Tables_number   1
_chemical_formula_structural   Hf10AlSnSb4
_chemical_formula_sum   'Hf10 Al1 Sn1 Sb4'
_cell_volume   342.15078670
_cell_formula_units_Z   1
loop_
 _symmetry_equiv_pos_site_id
 _symmetry_equiv_pos_as_xyz
  1  'x, y, z'
loop_
 _atom_site_type_symbol
 _atom_site_label
 _atom_site_symmetry_multiplicity
 _atom_site_fract_x
 _atom_site_fract_y
 _atom_site_fract_z
 _atom_site_occupancy
  Hf  Hf0  1  0.432401  0.856882  0.704198  1
  Hf  Hf1  1  0.585085  0.143118  0.295802  1
  Hf  Hf2  1  0.914915  0.295802  0.143118  1
  Hf  Hf3  1  0.067599  0.704198  0.856882  1
  Hf  Hf4  1  0.728202  0.704198  0.143118  1
  Hf  Hf5  1  0.289283  0.295802  0.856882  1
  Hf  Hf6  1  0.771798  0.143118  0.704198  1
  Hf  Hf7  1  0.210717  0.856882  0.295802  1
  Hf  Hf8  1  0.250000  0.500000  0.500000  1
  Hf  Hf9  1  0.750000  0.500000  0.500000  1
  Al  Al10  1  0.750000  0.000000  0.000000  1
  Sn  Sn11  1  0.250000  0.000000  0.000000  1
  Sb  Sb12  1  0.335968  0.500000  0.171935  1
  Sb  Sb13  1  0.664032  0.500000  0.828065  1
  Sb  Sb14  1  0.835968  0.828065  0.500000  1
  Sb  Sb15  1  0.164032  0.171935  0.500000  1
