# generated using pymatgen
data_Tb2Ti3P7Rh9
_symmetry_space_group_name_H-M   'P 1'
_cell_length_a   3.83629511
_cell_length_b   9.67454519
_cell_length_c   9.67491075
_cell_angle_alpha   120.01361798
_cell_angle_beta   89.99880415
_cell_angle_gamma   90.00103394
_symmetry_Int_Tables_number   1
_chemical_formula_structural   Tb2Ti3P7Rh9
_chemical_formula_sum   'Tb2 Ti3 P7 Rh9'
_cell_volume   310.92851479
_cell_formula_units_Z   1
loop_
 _symmetry_equiv_pos_site_id
 _symmetry_equiv_pos_as_xyz
  1  'x, y, z'
loop_
 _atom_site_type_symbol
 _atom_site_label
 _atom_site_symmetry_multiplicity
 _atom_site_fract_x
 _atom_site_fract_y
 _atom_site_fract_z
 _atom_site_occupancy
  Tb  Tb0  1  0.261597  0.666626  0.333294  1
  Tb  Tb1  1  0.761717  0.333452  0.666658  1
  Ti  Ti2  1  0.762196  0.100125  0.878746  1
  Ti  Ti3  1  0.762231  0.120990  0.221270  1
  Ti  Ti4  1  0.762178  0.778717  0.899892  1
  P  P5  1  0.262797  0.999797  0.999887  1
  P  P6  1  0.761740  0.876666  0.589072  1
  P  P7  1  0.761758  0.410776  0.287556  1
  P  P8  1  0.761725  0.712424  0.123371  1
  P  P9  1  0.261833  0.116053  0.416595  1
  P  P10  1  0.261852  0.583506  0.699379  1
  P  P11  1  0.261829  0.300661  0.884108  1
  Rh  Rh12  1  0.261744  0.884084  0.159685  1
  Rh  Rh13  1  0.261869  0.840543  0.724496  1
  Rh  Rh14  1  0.261804  0.275157  0.115712  1
  Rh  Rh15  1  0.761898  0.610115  0.558511  1
  Rh  Rh16  1  0.761843  0.441425  0.051651  1
  Rh  Rh17  1  0.761773  0.948531  0.390023  1
  Rh  Rh18  1  0.261989  0.365206  0.436074  1
  Rh  Rh19  1  0.261873  0.563809  0.928966  1
  Rh  Rh20  1  0.261754  0.071334  0.635056  1
