# generated using pymatgen
data_Sc2Mn4Co5NiP6
_symmetry_space_group_name_H-M   'P 1'
_cell_length_a   3.55722500
_cell_length_b   10.28849100
_cell_length_c   11.93877600
_cell_angle_alpha   90.00000000
_cell_angle_beta   90.00000000
_cell_angle_gamma   90.00000000
_symmetry_Int_Tables_number   1
_chemical_formula_structural   Sc2Mn4Co5NiP6
_chemical_formula_sum   'Sc4 Mn8 Co10 Ni2 P12'
_cell_volume   436.94102359
_cell_formula_units_Z   2
loop_
 _symmetry_equiv_pos_site_id
 _symmetry_equiv_pos_as_xyz
  1  'x, y, z'
loop_
 _atom_site_type_symbol
 _atom_site_label
 _atom_site_symmetry_multiplicity
 _atom_site_fract_x
 _atom_site_fract_y
 _atom_site_fract_z
 _atom_site_occupancy
  Sc  Sc0  1  0.250000  0.582853  0.708800  1
  Sc  Sc1  1  0.250000  0.917147  0.208800  1
  Sc  Sc2  1  0.750000  0.418735  0.291613  1
  Sc  Sc3  1  0.750000  0.081265  0.791613  1
  Mn  Mn4  1  0.250000  0.713835  0.991309  1
  Mn  Mn5  1  0.250000  0.786165  0.491309  1
  Mn  Mn6  1  0.750000  0.286107  0.007571  1
  Mn  Mn7  1  0.750000  0.213893  0.507571  1
  Mn  Mn8  1  0.250000  0.408378  0.488898  1
  Mn  Mn9  1  0.250000  0.091622  0.988898  1
  Mn  Mn10  1  0.750000  0.594375  0.509692  1
  Mn  Mn11  1  0.750000  0.905625  0.009692  1
  Co  Co12  1  0.750000  0.776602  0.822831  1
  Co  Co13  1  0.750000  0.723398  0.322831  1
  Co  Co14  1  0.250000  0.882004  0.698037  1
  Co  Co15  1  0.250000  0.617996  0.198037  1
  Co  Co16  1  0.750000  0.116240  0.301506  1
  Co  Co17  1  0.750000  0.383760  0.801506  1
  Co  Co18  1  0.250000  0.465251  0.933555  1
  Co  Co19  1  0.250000  0.034749  0.433555  1
  Co  Co20  1  0.750000  0.536109  0.067871  1
  Co  Co21  1  0.750000  0.963891  0.567871  1
  Ni  Ni22  1  0.250000  0.224765  0.178532  1
  Ni  Ni23  1  0.250000  0.275236  0.678532  1
  P  P24  1  0.250000  0.422711  0.114902  1
  P  P25  1  0.250000  0.077289  0.614902  1
  P  P26  1  0.750000  0.579639  0.884919  1
  P  P27  1  0.750000  0.920361  0.384919  1
  P  P28  1  0.250000  0.264987  0.866850  1
  P  P29  1  0.250000  0.235013  0.366850  1
  P  P30  1  0.750000  0.735691  0.134539  1
  P  P31  1  0.750000  0.764309  0.634539  1
  P  P32  1  0.250000  0.596502  0.382390  1
  P  P33  1  0.250000  0.903498  0.882390  1
  P  P34  1  0.750000  0.407285  0.616185  1
  P  P35  1  0.750000  0.092715  0.116185  1
