# generated using pymatgen
data_Sm4ReCl4
_symmetry_space_group_name_H-M   'P 1'
_cell_length_a   8.86319867
_cell_length_b   8.86320004
_cell_length_c   6.64253282
_cell_angle_alpha   89.92966340
_cell_angle_beta   89.92965358
_cell_angle_gamma   89.57216427
_symmetry_Int_Tables_number   1
_chemical_formula_structural   Sm4ReCl4
_chemical_formula_sum   'Sm8 Re2 Cl8'
_cell_volume   521.79749150
_cell_formula_units_Z   2
loop_
 _symmetry_equiv_pos_site_id
 _symmetry_equiv_pos_as_xyz
  1  'x, y, z'
loop_
 _atom_site_type_symbol
 _atom_site_label
 _atom_site_symmetry_multiplicity
 _atom_site_fract_x
 _atom_site_fract_y
 _atom_site_fract_z
 _atom_site_occupancy
  Sm  Sm0  1  0.105110  0.742349  0.985303  1
  Sm  Sm1  1  0.257651  0.894890  0.514697  1
  Sm  Sm2  1  0.894890  0.257651  0.014697  1
  Sm  Sm3  1  0.742349  0.105110  0.485303  1
  Sm  Sm4  1  0.744141  0.896097  0.003095  1
  Sm  Sm5  1  0.103903  0.255859  0.496905  1
  Sm  Sm6  1  0.255859  0.103903  0.996905  1
  Sm  Sm7  1  0.896097  0.744141  0.503095  1
  Re  Re8  1  0.005558  0.994442  0.250000  1
  Re  Re9  1  0.994442  0.005558  0.750000  1
  Cl  Cl10  1  0.414910  0.822935  0.915803  1
  Cl  Cl11  1  0.177065  0.585090  0.584197  1
  Cl  Cl12  1  0.585090  0.177065  0.084197  1
  Cl  Cl13  1  0.822935  0.414910  0.415803  1
  Cl  Cl14  1  0.819938  0.586874  0.914148  1
  Cl  Cl15  1  0.413126  0.180062  0.585852  1
  Cl  Cl16  1  0.180062  0.413126  0.085852  1
  Cl  Cl17  1  0.586874  0.819938  0.414148  1
