# generated using pymatgen
data_Tm3Sc(CrB4)4
_symmetry_space_group_name_H-M   'P 1'
_cell_length_a   3.38719600
_cell_length_b   5.88148867
_cell_length_c   11.35635616
_cell_angle_alpha   90.10919379
_cell_angle_beta   90.00000000
_cell_angle_gamma   90.00000000
_symmetry_Int_Tables_number   1
_chemical_formula_structural   Tm3Sc(CrB4)4
_chemical_formula_sum   'Tm3 Sc1 Cr4 B16'
_cell_volume   226.23813302
_cell_formula_units_Z   1
loop_
 _symmetry_equiv_pos_site_id
 _symmetry_equiv_pos_as_xyz
  1  'x, y, z'
loop_
 _atom_site_type_symbol
 _atom_site_label
 _atom_site_symmetry_multiplicity
 _atom_site_fract_x
 _atom_site_fract_y
 _atom_site_fract_z
 _atom_site_occupancy
  Tm  Tm0  1  0.000000  0.374742  0.650028  1
  Tm  Tm1  1  0.000000  0.125272  0.151422  1
  Tm  Tm2  1  0.000000  0.874716  0.849463  1
  Sc  Sc3  1  0.000000  0.625494  0.350017  1
  Cr  Cr4  1  0.000000  0.625669  0.083152  1
  Cr  Cr5  1  0.000000  0.374674  0.919025  1
  Cr  Cr6  1  0.000000  0.124947  0.417570  1
  Cr  Cr7  1  0.000000  0.873780  0.579769  1
  B  B8  1  0.500000  0.782686  0.186582  1
  B  B9  1  0.500000  0.217013  0.815269  1
  B  B10  1  0.500000  0.286176  0.315370  1
  B  B11  1  0.500000  0.717013  0.684078  1
  B  B12  1  0.500000  0.863859  0.033097  1
  B  B13  1  0.500000  0.135974  0.968299  1
  B  B14  1  0.500000  0.365260  0.466470  1
  B  B15  1  0.500000  0.634912  0.530587  1
  B  B16  1  0.500000  0.883045  0.450790  1
  B  B17  1  0.500000  0.113041  0.546046  1
  B  B18  1  0.500000  0.386746  0.048329  1
  B  B19  1  0.500000  0.613952  0.953344  1
  B  B20  1  0.500000  0.974396  0.307132  1
  B  B21  1  0.500000  0.024430  0.691666  1
  B  B22  1  0.500000  0.477604  0.194776  1
  B  B23  1  0.500000  0.524600  0.807720  1
