# generated using pymatgen
data_Eu3HfH10
_symmetry_space_group_name_H-M   'P 1'
_cell_length_a   6.37682029
_cell_length_b   6.37682044
_cell_length_c   6.37682007
_cell_angle_alpha   130.40367152
_cell_angle_beta   130.95228348
_cell_angle_gamma   72.32610427
_symmetry_Int_Tables_number   1
_chemical_formula_structural   Eu3HfH10
_chemical_formula_sum   'Eu3 Hf1 H10'
_cell_volume   145.78247932
_cell_formula_units_Z   1
loop_
 _symmetry_equiv_pos_site_id
 _symmetry_equiv_pos_as_xyz
  1  'x, y, z'
loop_
 _atom_site_type_symbol
 _atom_site_label
 _atom_site_symmetry_multiplicity
 _atom_site_fract_x
 _atom_site_fract_y
 _atom_site_fract_z
 _atom_site_occupancy
  Eu  Eu0  1  0.490799  0.990799  0.500000  1
  Eu  Eu1  1  0.739995  0.739995  0.000000  1
  Eu  Eu2  1  0.013729  0.513729  0.500000  1
  Hf  Hf3  1  0.267708  0.267708  0.000000  1
  H  H4  1  0.362322  0.340252  0.425837  1
  H  H5  1  0.914415  0.936484  0.574163  1
  H  H6  1  0.617590  0.142211  0.035398  1
  H  H7  1  0.106813  0.582192  0.964602  1
  H  H8  1  0.362322  0.936484  0.022070  1
  H  H9  1  0.914415  0.340252  0.977930  1
  H  H10  1  0.617590  0.582192  0.475379  1
  H  H11  1  0.106813  0.142211  0.524621  1
  H  H12  1  0.253674  0.753674  0.500000  1
  H  H13  1  0.481815  0.481815  0.000000  1
