# generated using pymatgen
data_TmZrAl8Fe9
_symmetry_space_group_name_H-M   'P 1'
_cell_length_a   6.49473012
_cell_length_b   6.49594662
_cell_length_c   6.49573031
_cell_angle_alpha   83.75743490
_cell_angle_beta   96.25229160
_cell_angle_gamma   96.25574357
_symmetry_Int_Tables_number   1
_chemical_formula_structural   TmZrAl8Fe9
_chemical_formula_sum   'Tm1 Zr1 Al8 Fe9'
_cell_volume   269.49445907
_cell_formula_units_Z   1
loop_
 _symmetry_equiv_pos_site_id
 _symmetry_equiv_pos_as_xyz
  1  'x, y, z'
loop_
 _atom_site_type_symbol
 _atom_site_label
 _atom_site_symmetry_multiplicity
 _atom_site_fract_x
 _atom_site_fract_y
 _atom_site_fract_z
 _atom_site_occupancy
  Tm  Tm0  1  0.363234  0.636701  0.636724  1
  Zr  Zr1  1  0.629016  0.370932  0.370959  1
  Al  Al2  1  0.319919  0.316666  0.000989  1
  Al  Al3  1  0.683296  0.680033  0.001028  1
  Al  Al4  1  0.872622  0.127425  0.127449  1
  Al  Al5  1  0.998996  0.680009  0.316682  1
  Al  Al6  1  0.319893  0.001040  0.316720  1
  Al  Al7  1  0.683277  0.001033  0.680024  1
  Al  Al8  1  0.999043  0.316644  0.679977  1
  Al  Al9  1  0.122618  0.877567  0.877443  1
  Fe  Fe10  1  0.500681  0.999348  0.999294  1
  Fe  Fe11  1  0.000700  0.499299  0.999295  1
  Fe  Fe12  1  0.339353  0.660657  0.165748  1
  Fe  Fe13  1  0.167273  0.337132  0.337201  1
  Fe  Fe14  1  0.662791  0.832651  0.337201  1
  Fe  Fe15  1  0.000705  0.999343  0.499301  1
  Fe  Fe16  1  0.834366  0.660644  0.660654  1
  Fe  Fe17  1  0.339412  0.165761  0.660612  1
  Fe  Fe18  1  0.662805  0.337120  0.832698  1
