# generated using pymatgen
data_Sm7Dy(SiBr6)2
_symmetry_space_group_name_H-M   'P 1'
_cell_length_a   4.14719700
_cell_length_b   13.50513473
_cell_length_c   14.32820498
_cell_angle_alpha   89.81891552
_cell_angle_beta   90.00000000
_cell_angle_gamma   90.00000000
_symmetry_Int_Tables_number   1
_chemical_formula_structural   Sm7Dy(SiBr6)2
_chemical_formula_sum   'Sm7 Dy1 Si2 Br12'
_cell_volume   802.49660503
_cell_formula_units_Z   1
loop_
 _symmetry_equiv_pos_site_id
 _symmetry_equiv_pos_as_xyz
  1  'x, y, z'
loop_
 _atom_site_type_symbol
 _atom_site_label
 _atom_site_symmetry_multiplicity
 _atom_site_fract_x
 _atom_site_fract_y
 _atom_site_fract_z
 _atom_site_occupancy
  Sm  Sm0  1  0.500000  0.119000  0.340208  1
  Sm  Sm1  1  0.500000  0.881411  0.659340  1
  Sm  Sm2  1  0.500000  0.617830  0.159419  1
  Sm  Sm3  1  0.500000  0.381163  0.841227  1
  Sm  Sm4  1  0.000000  0.118974  0.578606  1
  Sm  Sm5  1  0.000000  0.881144  0.421149  1
  Sm  Sm6  1  0.000000  0.617721  0.921975  1
  Dy  Dy7  1  0.000000  0.382758  0.077622  1
  Si  Si8  1  0.500000  0.000205  0.499669  1
  Si  Si9  1  0.500000  0.498170  0.001209  1
  Br  Br10  1  0.500000  0.249700  0.160622  1
  Br  Br11  1  0.500000  0.754746  0.837546  1
  Br  Br12  1  0.500000  0.744008  0.336760  1
  Br  Br13  1  0.500000  0.255621  0.663471  1
  Br  Br14  1  0.000000  0.255175  0.411035  1
  Br  Br15  1  0.000000  0.744983  0.588667  1
  Br  Br16  1  0.000000  0.754456  0.088418  1
  Br  Br17  1  0.000000  0.246116  0.915264  1
  Br  Br18  1  0.000000  0.002326  0.243451  1
  Br  Br19  1  0.000000  0.998204  0.756196  1
  Br  Br20  1  0.000000  0.498015  0.253809  1
  Br  Br21  1  0.000000  0.498272  0.744337  1
