# generated using pymatgen
data_Tm2Fe2Co10P7
_symmetry_space_group_name_H-M   'P 1'
_cell_length_a   8.94325838
_cell_length_b   8.94544980
_cell_length_c   3.58996000
_cell_angle_alpha   90.00000000
_cell_angle_beta   90.00000000
_cell_angle_gamma   120.05550229
_symmetry_Int_Tables_number   1
_chemical_formula_structural   Tm2Fe2Co10P7
_chemical_formula_sum   'Tm2 Fe2 Co10 P7'
_cell_volume   248.58506864
_cell_formula_units_Z   1
loop_
 _symmetry_equiv_pos_site_id
 _symmetry_equiv_pos_as_xyz
  1  'x, y, z'
loop_
 _atom_site_type_symbol
 _atom_site_label
 _atom_site_symmetry_multiplicity
 _atom_site_fract_x
 _atom_site_fract_y
 _atom_site_fract_z
 _atom_site_occupancy
  Tm  Tm0  1  0.333318  0.666280  0.000000  1
  Tm  Tm1  1  0.000156  0.999691  0.500000  1
  Fe  Fe2  1  0.448424  0.239184  0.500000  1
  Fe  Fe3  1  0.791920  0.553093  0.500000  1
  Co  Co4  1  0.727132  0.962563  0.000000  1
  Co  Co5  1  0.234799  0.272377  0.000000  1
  Co  Co6  1  0.037963  0.765009  0.000000  1
  Co  Co7  1  0.941445  0.449980  0.000000  1
  Co  Co8  1  0.510656  0.059033  0.000000  1
  Co  Co9  1  0.548724  0.491643  0.000000  1
  Co  Co10  1  0.101452  0.383407  0.500000  1
  Co  Co11  1  0.282318  0.898283  0.500000  1
  Co  Co12  1  0.616264  0.718696  0.500000  1
  Co  Co13  1  0.759082  0.207809  0.500000  1
  P  P14  1  0.964005  0.219273  0.000000  1
  P  P15  1  0.256144  0.036725  0.000000  1
  P  P16  1  0.781109  0.743847  0.000000  1
  P  P17  1  0.069953  0.623083  0.500000  1
  P  P18  1  0.551684  0.928537  0.500000  1
  P  P19  1  0.376628  0.446540  0.500000  1
  P  P20  1  0.666826  0.334939  0.000000  1
