# generated using pymatgen
data_Pr4Nd3PaTe12
_symmetry_space_group_name_H-M   'P 1'
_cell_length_a   4.44785300
_cell_length_b   12.00628550
_cell_length_c   12.33238940
_cell_angle_alpha   89.78737001
_cell_angle_beta   90.00000000
_cell_angle_gamma   90.00000000
_symmetry_Int_Tables_number   1
_chemical_formula_structural   Pr4Nd3PaTe12
_chemical_formula_sum   'Pr4 Nd3 Pa1 Te12'
_cell_volume   658.57210389
_cell_formula_units_Z   1
loop_
 _symmetry_equiv_pos_site_id
 _symmetry_equiv_pos_as_xyz
  1  'x, y, z'
loop_
 _atom_site_type_symbol
 _atom_site_label
 _atom_site_symmetry_multiplicity
 _atom_site_fract_x
 _atom_site_fract_y
 _atom_site_fract_z
 _atom_site_occupancy
  Pr  Pr0  1  0.250000  0.497480  0.697053  1
  Pr  Pr1  1  0.750000  0.504404  0.303844  1
  Pr  Pr2  1  0.750000  0.996522  0.801746  1
  Pr  Pr3  1  0.250000  0.002097  0.196664  1
  Nd  Nd4  1  0.750000  0.812226  0.482975  1
  Nd  Nd5  1  0.750000  0.688501  0.982247  1
  Nd  Nd6  1  0.250000  0.311590  0.017192  1
  Pa  Pa7  1  0.250000  0.187868  0.515566  1
  Te  Te8  1  0.250000  0.875995  0.957617  1
  Te  Te9  1  0.750000  0.124772  0.042335  1
  Te  Te10  1  0.750000  0.369421  0.544242  1
  Te  Te11  1  0.250000  0.623147  0.458172  1
  Te  Te12  1  0.250000  0.200735  0.768387  1
  Te  Te13  1  0.750000  0.801328  0.226605  1
  Te  Te14  1  0.750000  0.700045  0.724965  1
  Te  Te15  1  0.250000  0.299138  0.279114  1
  Te  Te16  1  0.250000  0.555035  0.118638  1
  Te  Te17  1  0.750000  0.443086  0.881713  1
  Te  Te18  1  0.750000  0.061129  0.384524  1
  Te  Te19  1  0.250000  0.945481  0.616402  1
