# generated using pymatgen
data_Rb8V7MoN16
_symmetry_space_group_name_H-M   'P 1'
_cell_length_a   5.90319032
_cell_length_b   8.34662350
_cell_length_c   11.85827500
_cell_angle_alpha   90.00000000
_cell_angle_beta   90.00000000
_cell_angle_gamma   90.00100436
_symmetry_Int_Tables_number   1
_chemical_formula_structural   Rb8V7MoN16
_chemical_formula_sum   'Rb8 V7 Mo1 N16'
_cell_volume   584.27745118
_cell_formula_units_Z   1
loop_
 _symmetry_equiv_pos_site_id
 _symmetry_equiv_pos_as_xyz
  1  'x, y, z'
loop_
 _atom_site_type_symbol
 _atom_site_label
 _atom_site_symmetry_multiplicity
 _atom_site_fract_x
 _atom_site_fract_y
 _atom_site_fract_z
 _atom_site_occupancy
  Rb  Rb0  1  0.741993  0.126750  0.001049  1
  Rb  Rb1  1  0.239760  0.866069  0.490115  1
  Rb  Rb2  1  0.239760  0.866069  0.009885  1
  Rb  Rb3  1  0.741993  0.126750  0.498951  1
  Rb  Rb4  1  0.734255  0.372702  0.250000  1
  Rb  Rb5  1  0.233879  0.617182  0.250000  1
  Rb  Rb6  1  0.288709  0.623657  0.750000  1
  Rb  Rb7  1  0.788370  0.391377  0.750000  1
  V  V8  1  0.242744  0.377231  0.002161  1
  V  V9  1  0.742849  0.627204  0.499360  1
  V  V10  1  0.742849  0.627204  0.000640  1
  V  V11  1  0.242744  0.377231  0.497839  1
  V  V12  1  0.234791  0.126545  0.250000  1
  V  V13  1  0.734699  0.877082  0.250000  1
  V  V14  1  0.779555  0.871548  0.750000  1
  Mo  Mo15  1  0.279174  0.118436  0.750000  1
  N  N16  1  0.973983  0.011771  0.250000  1
  N  N17  1  0.474847  0.992074  0.250000  1
  N  N18  1  0.072443  0.948629  0.750000  1
  N  N19  1  0.576969  0.039793  0.750000  1
  N  N20  1  0.242870  0.253536  0.373520  1
  N  N21  1  0.742853  0.753027  0.124307  1
  N  N22  1  0.738756  0.750907  0.873626  1
  N  N23  1  0.234363  0.246024  0.622650  1
  N  N24  1  0.738756  0.750907  0.626374  1
  N  N25  1  0.234363  0.246024  0.877350  1
  N  N26  1  0.242870  0.253536  0.126480  1
  N  N27  1  0.742853  0.753027  0.375693  1
  N  N28  1  0.493312  0.500305  0.499218  1
  N  N29  1  0.994666  0.503548  0.001184  1
  N  N30  1  0.493312  0.500305  0.000782  1
  N  N31  1  0.994666  0.503548  0.498816  1
