# generated using pymatgen
data_Ca4Th3U(PO4)8
_symmetry_space_group_name_H-M   'P 1'
_cell_length_a   6.23445881
_cell_length_b   7.09699600
_cell_length_c   14.22043574
_cell_angle_alpha   90.00000000
_cell_angle_beta   90.05752011
_cell_angle_gamma   90.00000000
_symmetry_Int_Tables_number   1
_chemical_formula_structural   Ca4Th3U(PO4)8
_chemical_formula_sum   'Ca4 Th3 U1 P8 O32'
_cell_volume   629.19607624
_cell_formula_units_Z   1
loop_
 _symmetry_equiv_pos_site_id
 _symmetry_equiv_pos_as_xyz
  1  'x, y, z'
loop_
 _atom_site_type_symbol
 _atom_site_label
 _atom_site_symmetry_multiplicity
 _atom_site_fract_x
 _atom_site_fract_y
 _atom_site_fract_z
 _atom_site_occupancy
  Ca  Ca0  1  0.892936  0.750000  0.381731  1
  Ca  Ca1  1  0.394133  0.250000  0.118926  1
  Ca  Ca2  1  0.105283  0.250000  0.619081  1
  Ca  Ca3  1  0.606133  0.750000  0.879058  1
  Th  Th4  1  0.127165  0.750000  0.126727  1
  Th  Th5  1  0.626617  0.250000  0.373567  1
  Th  Th6  1  0.873052  0.250000  0.872801  1
  U  U7  1  0.370924  0.750000  0.627758  1
  P  P8  1  0.399337  0.750000  0.373239  1
  P  P9  1  0.897214  0.250000  0.128445  1
  P  P10  1  0.599273  0.250000  0.628655  1
  P  P11  1  0.103705  0.750000  0.869848  1
  P  P12  1  0.626942  0.750000  0.127634  1
  P  P13  1  0.126583  0.250000  0.372321  1
  P  P14  1  0.373374  0.250000  0.872288  1
  P  P15  1  0.872934  0.750000  0.627273  1
  O  O16  1  0.771227  0.750000  0.038749  1
  O  O17  1  0.271178  0.250000  0.461158  1
  O  O18  1  0.229051  0.250000  0.961203  1
  O  O19  1  0.729671  0.750000  0.538125  1
  O  O20  1  0.790048  0.750000  0.210479  1
  O  O21  1  0.289022  0.250000  0.289345  1
  O  O22  1  0.210464  0.250000  0.789424  1
  O  O23  1  0.706702  0.750000  0.709120  1
  O  O24  1  0.529479  0.421228  0.871424  1
  O  O25  1  0.031282  0.579667  0.629397  1
  O  O26  1  0.470163  0.920924  0.128801  1
  O  O27  1  0.970503  0.078716  0.371482  1
  O  O28  1  0.470163  0.579076  0.128801  1
  O  O29  1  0.970503  0.421284  0.371482  1
  O  O30  1  0.529479  0.078772  0.871424  1
  O  O31  1  0.031282  0.920333  0.629397  1
  O  O32  1  0.270434  0.750000  0.788496  1
  O  O33  1  0.767714  0.250000  0.708997  1
  O  O34  1  0.729906  0.250000  0.208902  1
  O  O35  1  0.227913  0.750000  0.294214  1
  O  O36  1  0.234615  0.750000  0.962944  1
  O  O37  1  0.729635  0.250000  0.535517  1
  O  O38  1  0.767446  0.250000  0.035139  1
  O  O39  1  0.277537  0.750000  0.468945  1
  O  O40  1  0.952964  0.924210  0.866136  1
  O  O41  1  0.449644  0.073987  0.632663  1
  O  O42  1  0.047914  0.424510  0.132396  1
  O  O43  1  0.548966  0.575510  0.367647  1
  O  O44  1  0.047914  0.075490  0.132396  1
  O  O45  1  0.548966  0.924490  0.367647  1
  O  O46  1  0.952964  0.575790  0.866136  1
  O  O47  1  0.449644  0.426013  0.632663  1
