# generated using pymatgen
data_Yb3Pr3(Si3Os)8
_symmetry_space_group_name_H-M   'P 1'
_cell_length_a   10.18812930
_cell_length_b   10.18812887
_cell_length_c   8.23484653
_cell_angle_alpha   90.08256370
_cell_angle_beta   89.91743578
_cell_angle_gamma   132.32758015
_symmetry_Int_Tables_number   1
_chemical_formula_structural   Yb3Pr3(Si3Os)8
_chemical_formula_sum   'Yb3 Pr3 Si24 Os8'
_cell_volume   631.92959251
_cell_formula_units_Z   1
loop_
 _symmetry_equiv_pos_site_id
 _symmetry_equiv_pos_as_xyz
  1  'x, y, z'
loop_
 _atom_site_type_symbol
 _atom_site_label
 _atom_site_symmetry_multiplicity
 _atom_site_fract_x
 _atom_site_fract_y
 _atom_site_fract_z
 _atom_site_occupancy
  Yb  Yb0  1  0.000866  0.500866  0.750000  1
  Yb  Yb1  1  0.000182  0.000129  0.999578  1
  Yb  Yb2  1  0.500129  0.500182  0.500422  1
  Pr  Pr3  1  0.500872  0.000872  0.750000  1
  Pr  Pr4  1  0.998924  0.498924  0.250000  1
  Pr  Pr5  1  0.499245  0.999245  0.250000  1
  Si  Si6  1  0.800168  0.206871  0.503764  1
  Si  Si7  1  0.706871  0.300168  0.996236  1
  Si  Si8  1  0.199757  0.793498  0.503020  1
  Si  Si9  1  0.293498  0.699757  0.996980  1
  Si  Si10  1  0.668946  0.665564  0.168110  1
  Si  Si11  1  0.165564  0.168946  0.331890  1
  Si  Si12  1  0.832409  0.834356  0.668055  1
  Si  Si13  1  0.334356  0.332409  0.831945  1
  Si  Si14  1  0.846762  0.615115  0.992239  1
  Si  Si15  1  0.115115  0.346762  0.507761  1
  Si  Si16  1  0.653197  0.884376  0.492922  1
  Si  Si17  1  0.384376  0.153197  0.007078  1
  Si  Si18  1  0.153581  0.384497  0.005216  1
  Si  Si19  1  0.884497  0.653581  0.494784  1
  Si  Si20  1  0.120946  0.890179  0.730700  1
  Si  Si21  1  0.390179  0.620946  0.769300  1
  Si  Si22  1  0.377316  0.608156  0.231003  1
  Si  Si23  1  0.108156  0.877316  0.268997  1
  Si  Si24  1  0.877390  0.108262  0.269158  1
  Si  Si25  1  0.608262  0.377390  0.230842  1
  Si  Si26  1  0.623944  0.392533  0.768592  1
  Si  Si27  1  0.892533  0.123944  0.731408  1
  Si  Si28  1  0.615609  0.846431  0.992444  1
  Si  Si29  1  0.346431  0.115609  0.507556  1
  Os  Os30  1  0.626487  0.626574  0.874818  1
  Os  Os31  1  0.126574  0.126487  0.625182  1
  Os  Os32  1  0.373859  0.374032  0.125382  1
  Os  Os33  1  0.874032  0.873859  0.374618  1
  Os  Os34  1  0.169248  0.828730  0.999103  1
  Os  Os35  1  0.328730  0.669248  0.500897  1
  Os  Os36  1  0.830657  0.170334  0.999710  1
  Os  Os37  1  0.670334  0.330657  0.500290  1
