# generated using pymatgen
data_Yb4Ru3RhO12
_symmetry_space_group_name_H-M   'P 1'
_cell_length_a   5.27853880
_cell_length_b   5.62141467
_cell_length_c   7.64267518
_cell_angle_alpha   89.75227147
_cell_angle_beta   90.33403501
_cell_angle_gamma   89.91887485
_symmetry_Int_Tables_number   1
_chemical_formula_structural   Yb4Ru3RhO12
_chemical_formula_sum   'Yb4 Ru3 Rh1 O12'
_cell_volume   226.77378694
_cell_formula_units_Z   1
loop_
 _symmetry_equiv_pos_site_id
 _symmetry_equiv_pos_as_xyz
  1  'x, y, z'
loop_
 _atom_site_type_symbol
 _atom_site_label
 _atom_site_symmetry_multiplicity
 _atom_site_fract_x
 _atom_site_fract_y
 _atom_site_fract_z
 _atom_site_occupancy
  Yb  Yb0  1  0.026963  0.427490  0.251843  1
  Yb  Yb1  1  0.973037  0.572510  0.748157  1
  Yb  Yb2  1  0.521488  0.075038  0.746914  1
  Yb  Yb3  1  0.478512  0.924962  0.253086  1
  Ru  Ru4  1  0.000000  0.000000  0.000000  1
  Ru  Ru5  1  0.500000  0.500000  0.000000  1
  Ru  Ru6  1  0.000000  0.000000  0.500000  1
  Rh  Rh7  1  0.500000  0.500000  0.500000  1
  O  O8  1  0.309520  0.198030  0.054176  1
  O  O9  1  0.690480  0.801970  0.945824  1
  O  O10  1  0.808386  0.301370  0.947062  1
  O  O11  1  0.690297  0.809538  0.553606  1
  O  O12  1  0.191614  0.698630  0.052938  1
  O  O13  1  0.309703  0.190462  0.446394  1
  O  O14  1  0.184109  0.701131  0.444111  1
  O  O15  1  0.815891  0.298869  0.555889  1
  O  O16  1  0.614424  0.533465  0.246449  1
  O  O17  1  0.385576  0.466535  0.753551  1
  O  O18  1  0.107449  0.967401  0.750126  1
  O  O19  1  0.892551  0.032599  0.249874  1
