# generated using pymatgen
data_Ti2Co5Ge
_symmetry_space_group_name_H-M   'P 1'
_cell_length_a   3.75986400
_cell_length_b   5.05427600
_cell_length_c   9.97344000
_cell_angle_alpha   90.00000000
_cell_angle_beta   90.00000000
_cell_angle_gamma   90.00000000
_symmetry_Int_Tables_number   1
_chemical_formula_structural   Ti2Co5Ge
_chemical_formula_sum   'Ti4 Co10 Ge2'
_cell_volume   189.52917374
_cell_formula_units_Z   2
loop_
 _symmetry_equiv_pos_site_id
 _symmetry_equiv_pos_as_xyz
  1  'x, y, z'
loop_
 _atom_site_type_symbol
 _atom_site_label
 _atom_site_symmetry_multiplicity
 _atom_site_fract_x
 _atom_site_fract_y
 _atom_site_fract_z
 _atom_site_occupancy
  Ti  Ti0  1  0.500000  0.313788  0.139958  1
  Ti  Ti1  1  0.500000  0.686212  0.860042  1
  Ti  Ti2  1  0.500000  0.813788  0.360042  1
  Ti  Ti3  1  0.500000  0.186212  0.639958  1
  Co  Co4  1  0.000000  0.000000  0.500000  1
  Co  Co5  1  0.000000  0.500000  0.000000  1
  Co  Co6  1  0.000000  0.061980  0.250201  1
  Co  Co7  1  0.000000  0.938020  0.749799  1
  Co  Co8  1  0.000000  0.561980  0.249799  1
  Co  Co9  1  0.000000  0.438020  0.750201  1
  Co  Co10  1  0.500000  0.300662  0.386268  1
  Co  Co11  1  0.500000  0.699338  0.613732  1
  Co  Co12  1  0.500000  0.800662  0.113732  1
  Co  Co13  1  0.500000  0.199338  0.886268  1
  Ge  Ge14  1  0.000000  0.000000  0.000000  1
  Ge  Ge15  1  0.000000  0.500000  0.500000  1
