# generated using pymatgen
data_Sr3Ac5(US5)4
_symmetry_space_group_name_H-M   'P 1'
_cell_length_a   7.59241649
_cell_length_b   8.14577546
_cell_length_c   11.95184300
_cell_angle_alpha   89.98227482
_cell_angle_beta   89.90032646
_cell_angle_gamma   90.21065282
_symmetry_Int_Tables_number   1
_chemical_formula_structural   Sr3Ac5(US5)4
_chemical_formula_sum   'Sr3 Ac5 U4 S20'
_cell_volume   739.16896427
_cell_formula_units_Z   1
loop_
 _symmetry_equiv_pos_site_id
 _symmetry_equiv_pos_as_xyz
  1  'x, y, z'
loop_
 _atom_site_type_symbol
 _atom_site_label
 _atom_site_symmetry_multiplicity
 _atom_site_fract_x
 _atom_site_fract_y
 _atom_site_fract_z
 _atom_site_occupancy
  Sr  Sr0  1  0.552940  0.503269  0.327500  1
  Sr  Sr1  1  0.946779  0.996892  0.822893  1
  Sr  Sr2  1  0.448064  0.004044  0.676215  1
  Ac  Ac3  1  0.053594  0.495168  0.172101  1
  Ac  Ac4  1  0.446703  0.494856  0.669535  1
  Ac  Ac5  1  0.054199  0.003422  0.167346  1
  Ac  Ac6  1  0.553068  0.993992  0.333737  1
  Ac  Ac7  1  0.945620  0.504877  0.828281  1
  U  U8  1  0.062148  0.753067  0.494731  1
  U  U9  1  0.444241  0.750651  0.993172  1
  U  U10  1  0.939455  0.251821  0.506493  1
  U  U11  1  0.559359  0.248524  0.006294  1
  S  S12  1  0.826016  0.960263  0.573189  1
  S  S13  1  0.676112  0.539739  0.076166  1
  S  S14  1  0.170699  0.461882  0.420999  1
  S  S15  1  0.325710  0.039406  0.926708  1
  S  S16  1  0.170697  0.041945  0.415949  1
  S  S17  1  0.325308  0.458300  0.921616  1
  S  S18  1  0.828665  0.542087  0.581942  1
  S  S19  1  0.671839  0.959561  0.084964  1
  S  S20  1  0.860174  0.749037  0.309605  1
  S  S21  1  0.642447  0.749050  0.809837  1
  S  S22  1  0.141347  0.251672  0.688621  1
  S  S23  1  0.357806  0.249257  0.191384  1
  S  S24  1  0.438087  0.750318  0.497113  1
  S  S25  1  0.057722  0.748606  0.995539  1
  S  S26  1  0.560619  0.251163  0.504299  1
  S  S27  1  0.941364  0.248085  0.002925  1
  S  S28  1  0.166802  0.750296  0.708133  1
  S  S29  1  0.334166  0.748889  0.208204  1
  S  S30  1  0.832598  0.248628  0.291404  1
  S  S31  1  0.665651  0.251234  0.793106  1
