# generated using pymatgen
data_LaNd7(BeSi3)4
_symmetry_space_group_name_H-M   'P 1'
_cell_length_a   7.96184500
_cell_length_b   7.96184472
_cell_length_c   8.62358300
_cell_angle_alpha   90.00000000
_cell_angle_beta   90.00000000
_cell_angle_gamma   119.99999700
_symmetry_Int_Tables_number   1
_chemical_formula_structural   LaNd7(BeSi3)4
_chemical_formula_sum   'La1 Nd7 Be4 Si12'
_cell_volume   473.41914260
_cell_formula_units_Z   1
loop_
 _symmetry_equiv_pos_site_id
 _symmetry_equiv_pos_as_xyz
  1  'x, y, z'
loop_
 _atom_site_type_symbol
 _atom_site_label
 _atom_site_symmetry_multiplicity
 _atom_site_fract_x
 _atom_site_fract_y
 _atom_site_fract_z
 _atom_site_occupancy
  La  La0  1  0.000000  0.000000  0.750000  1
  Nd  Nd1  1  0.000000  0.000000  0.250000  1
  Nd  Nd2  1  0.499685  0.500315  0.750000  1
  Nd  Nd3  1  0.499685  0.999373  0.750000  1
  Nd  Nd4  1  0.000627  0.500315  0.750000  1
  Nd  Nd5  1  0.500321  0.499679  0.250000  1
  Nd  Nd6  1  0.999357  0.499679  0.250000  1
  Nd  Nd7  1  0.500321  0.000643  0.250000  1
  Be  Be8  1  0.666667  0.333333  0.998553  1
  Be  Be9  1  0.666667  0.333333  0.501447  1
  Be  Be10  1  0.333333  0.666667  0.497210  1
  Be  Be11  1  0.333333  0.666667  0.002790  1
  Si  Si12  1  0.827403  0.172597  0.000581  1
  Si  Si13  1  0.827403  0.654807  0.000581  1
  Si  Si14  1  0.345193  0.172597  0.000581  1
  Si  Si15  1  0.827403  0.172597  0.499419  1
  Si  Si16  1  0.827403  0.654807  0.499419  1
  Si  Si17  1  0.345193  0.172597  0.499419  1
  Si  Si18  1  0.172563  0.827437  0.498709  1
  Si  Si19  1  0.654876  0.827437  0.498709  1
  Si  Si20  1  0.172563  0.345124  0.498709  1
  Si  Si21  1  0.172563  0.827437  0.001291  1
  Si  Si22  1  0.654876  0.827437  0.001291  1
  Si  Si23  1  0.172563  0.345124  0.001291  1
