# generated using pymatgen
data_Dy4Lu6SiSn7
_symmetry_space_group_name_H-M   'P 1'
_cell_length_a   7.80644700
_cell_length_b   8.06705505
_cell_length_c   15.14449900
_cell_angle_alpha   90.00000000
_cell_angle_beta   90.00000000
_cell_angle_gamma   89.33212818
_symmetry_Int_Tables_number   1
_chemical_formula_structural   Dy4Lu6SiSn7
_chemical_formula_sum   'Dy8 Lu12 Si2 Sn14'
_cell_volume   953.66060232
_cell_formula_units_Z   2
loop_
 _symmetry_equiv_pos_site_id
 _symmetry_equiv_pos_as_xyz
  1  'x, y, z'
loop_
 _atom_site_type_symbol
 _atom_site_label
 _atom_site_symmetry_multiplicity
 _atom_site_fract_x
 _atom_site_fract_y
 _atom_site_fract_z
 _atom_site_occupancy
  Dy  Dy0  1  0.990637  0.169493  0.099431  1
  Dy  Dy1  1  0.009363  0.830507  0.900569  1
  Dy  Dy2  1  0.506351  0.680295  0.905041  1
  Dy  Dy3  1  0.009363  0.830507  0.599431  1
  Dy  Dy4  1  0.493649  0.319705  0.094959  1
  Dy  Dy5  1  0.990637  0.169493  0.400569  1
  Dy  Dy6  1  0.493649  0.319705  0.405041  1
  Dy  Dy7  1  0.506351  0.680295  0.594959  1
  Lu  Lu8  1  0.172691  0.495680  0.750000  1
  Lu  Lu9  1  0.827309  0.504320  0.250000  1
  Lu  Lu10  1  0.316078  0.995716  0.250000  1
  Lu  Lu11  1  0.683922  0.004284  0.750000  1
  Lu  Lu12  1  0.329130  0.160861  0.628008  1
  Lu  Lu13  1  0.670870  0.839139  0.371992  1
  Lu  Lu14  1  0.144697  0.674599  0.368925  1
  Lu  Lu15  1  0.670870  0.839139  0.128008  1
  Lu  Lu16  1  0.855303  0.325401  0.631075  1
  Lu  Lu17  1  0.329130  0.160861  0.871992  1
  Lu  Lu18  1  0.855303  0.325401  0.868925  1
  Lu  Lu19  1  0.144697  0.674599  0.131075  1
  Si  Si20  1  0.040367  0.122371  0.750000  1
  Si  Si21  1  0.959633  0.877629  0.250000  1
  Sn  Sn22  1  0.463953  0.621014  0.250000  1
  Sn  Sn23  1  0.536047  0.378986  0.750000  1
  Sn  Sn24  1  0.311766  0.850454  0.750000  1
  Sn  Sn25  1  0.688234  0.149546  0.250000  1
  Sn  Sn26  1  0.188693  0.350257  0.250000  1
  Sn  Sn27  1  0.811307  0.649743  0.750000  1
  Sn  Sn28  1  0.183184  0.463331  0.538294  1
  Sn  Sn29  1  0.816816  0.536669  0.461706  1
  Sn  Sn30  1  0.314697  0.957285  0.459099  1
  Sn  Sn31  1  0.816816  0.536669  0.038294  1
  Sn  Sn32  1  0.685303  0.042715  0.540901  1
  Sn  Sn33  1  0.183184  0.463331  0.961706  1
  Sn  Sn34  1  0.685303  0.042715  0.959099  1
  Sn  Sn35  1  0.314697  0.957285  0.040901  1
