# generated using pymatgen
data_Y8In3Os
_symmetry_space_group_name_H-M   'P 1'
_cell_length_a   10.42654900
_cell_length_b   10.42654985
_cell_length_c   7.15652600
_cell_angle_alpha   90.00000000
_cell_angle_beta   90.00000000
_cell_angle_gamma   120.00000048
_symmetry_Int_Tables_number   1
_chemical_formula_structural   Y8In3Os
_chemical_formula_sum   'Y16 In6 Os2'
_cell_volume   673.77376322
_cell_formula_units_Z   2
loop_
 _symmetry_equiv_pos_site_id
 _symmetry_equiv_pos_as_xyz
  1  'x, y, z'
loop_
 _atom_site_type_symbol
 _atom_site_label
 _atom_site_symmetry_multiplicity
 _atom_site_fract_x
 _atom_site_fract_y
 _atom_site_fract_z
 _atom_site_occupancy
  Y  Y0  1  0.466188  0.533812  0.480152  1
  Y  Y1  1  0.067624  0.533812  0.480152  1
  Y  Y2  1  0.466188  0.932376  0.480152  1
  Y  Y3  1  0.533812  0.466188  0.980152  1
  Y  Y4  1  0.932376  0.466188  0.980152  1
  Y  Y5  1  0.533812  0.067624  0.980152  1
  Y  Y6  1  0.822866  0.177134  0.275352  1
  Y  Y7  1  0.354267  0.177134  0.275352  1
  Y  Y8  1  0.822866  0.645733  0.275352  1
  Y  Y9  1  0.177134  0.822866  0.775352  1
  Y  Y10  1  0.645733  0.822866  0.775352  1
  Y  Y11  1  0.177134  0.354267  0.775352  1
  Y  Y12  1  0.333333  0.666667  0.104417  1
  Y  Y13  1  0.666667  0.333333  0.604417  1
  Y  Y14  1  0.000000  0.000000  0.496573  1
  Y  Y15  1  0.000000  0.000000  0.996573  1
  In  In16  1  0.162539  0.837461  0.232625  1
  In  In17  1  0.674922  0.837461  0.232625  1
  In  In18  1  0.162539  0.325078  0.232625  1
  In  In19  1  0.837461  0.162539  0.732625  1
  In  In20  1  0.325078  0.162539  0.732625  1
  In  In21  1  0.837461  0.674922  0.732625  1
  Os  Os22  1  0.333333  0.666667  0.706902  1
  Os  Os23  1  0.666667  0.333333  0.206902  1
