# generated using pymatgen
data_NdCo2(AsRu)3
_symmetry_space_group_name_H-M   'P 1'
_cell_length_a   3.92438900
_cell_length_b   11.07984600
_cell_length_c   12.59881500
_cell_angle_alpha   90.00000000
_cell_angle_beta   90.00000000
_cell_angle_gamma   90.00000000
_symmetry_Int_Tables_number   1
_chemical_formula_structural   NdCo2(AsRu)3
_chemical_formula_sum   'Nd4 Co8 As12 Ru12'
_cell_volume   547.81695890
_cell_formula_units_Z   4
loop_
 _symmetry_equiv_pos_site_id
 _symmetry_equiv_pos_as_xyz
  1  'x, y, z'
loop_
 _atom_site_type_symbol
 _atom_site_label
 _atom_site_symmetry_multiplicity
 _atom_site_fract_x
 _atom_site_fract_y
 _atom_site_fract_z
 _atom_site_occupancy
  Nd  Nd0  1  0.250000  0.584892  0.704782  1
  Nd  Nd1  1  0.250000  0.915108  0.204782  1
  Nd  Nd2  1  0.750000  0.415108  0.295218  1
  Nd  Nd3  1  0.750000  0.084892  0.795218  1
  Co  Co4  1  0.250000  0.885648  0.694819  1
  Co  Co5  1  0.250000  0.614352  0.194819  1
  Co  Co6  1  0.750000  0.114352  0.305181  1
  Co  Co7  1  0.750000  0.385648  0.805181  1
  Co  Co8  1  0.250000  0.465530  0.934428  1
  Co  Co9  1  0.250000  0.034470  0.434428  1
  Co  Co10  1  0.750000  0.534470  0.065572  1
  Co  Co11  1  0.750000  0.965530  0.565572  1
  As  As12  1  0.250000  0.423824  0.111626  1
  As  As13  1  0.250000  0.076176  0.611626  1
  As  As14  1  0.750000  0.576176  0.888374  1
  As  As15  1  0.750000  0.923824  0.388374  1
  As  As16  1  0.250000  0.273612  0.872471  1
  As  As17  1  0.250000  0.226388  0.372471  1
  As  As18  1  0.750000  0.726388  0.127529  1
  As  As19  1  0.750000  0.773612  0.627529  1
  As  As20  1  0.250000  0.601520  0.387256  1
  As  As21  1  0.250000  0.898480  0.887256  1
  As  As22  1  0.750000  0.398480  0.612744  1
  As  As23  1  0.750000  0.101520  0.112744  1
  Ru  Ru24  1  0.250000  0.703852  0.985913  1
  Ru  Ru25  1  0.250000  0.796148  0.485913  1
  Ru  Ru26  1  0.750000  0.296148  0.014087  1
  Ru  Ru27  1  0.750000  0.203852  0.514087  1
  Ru  Ru28  1  0.250000  0.405347  0.487976  1
  Ru  Ru29  1  0.250000  0.094653  0.987976  1
  Ru  Ru30  1  0.750000  0.594653  0.512024  1
  Ru  Ru31  1  0.750000  0.905347  0.012024  1
  Ru  Ru32  1  0.250000  0.221031  0.179411  1
  Ru  Ru33  1  0.250000  0.278969  0.679411  1
  Ru  Ru34  1  0.750000  0.778969  0.820589  1
  Ru  Ru35  1  0.750000  0.721031  0.320589  1
