# generated using pymatgen
data_Yb(HfIr)2
_symmetry_space_group_name_H-M   'P 1'
_cell_length_a   4.43147566
_cell_length_b   4.43147553
_cell_length_c   6.43873607
_cell_angle_alpha   110.12846614
_cell_angle_beta   110.12846402
_cell_angle_gamma   89.99999792
_symmetry_Int_Tables_number   1
_chemical_formula_structural   Yb(HfIr)2
_chemical_formula_sum   'Yb1 Hf2 Ir2'
_cell_volume   110.45961626
_cell_formula_units_Z   1
loop_
 _symmetry_equiv_pos_site_id
 _symmetry_equiv_pos_as_xyz
  1  'x, y, z'
loop_
 _atom_site_type_symbol
 _atom_site_label
 _atom_site_symmetry_multiplicity
 _atom_site_fract_x
 _atom_site_fract_y
 _atom_site_fract_z
 _atom_site_occupancy
  Yb  Yb0  1  0.000000  0.000000  0.000000  1
  Hf  Hf1  1  0.749999  0.250001  0.499999  1
  Hf  Hf2  1  0.250001  0.749999  0.499999  1
  Ir  Ir3  1  0.616519  0.616519  0.233039  1
  Ir  Ir4  1  0.383481  0.383481  0.766962  1
