# generated using pymatgen
data_Yb7Zr(Si3Pd)4
_symmetry_space_group_name_H-M   'P 1'
_cell_length_a   8.22979600
_cell_length_b   8.22979528
_cell_length_c   8.02609400
_cell_angle_alpha   90.00000000
_cell_angle_beta   90.00000000
_cell_angle_gamma   120.00001092
_symmetry_Int_Tables_number   1
_chemical_formula_structural   Yb7Zr(Si3Pd)4
_chemical_formula_sum   'Yb7 Zr1 Si12 Pd4'
_cell_volume   470.77449706
_cell_formula_units_Z   1
loop_
 _symmetry_equiv_pos_site_id
 _symmetry_equiv_pos_as_xyz
  1  'x, y, z'
loop_
 _atom_site_type_symbol
 _atom_site_label
 _atom_site_symmetry_multiplicity
 _atom_site_fract_x
 _atom_site_fract_y
 _atom_site_fract_z
 _atom_site_occupancy
  Yb  Yb0  1  0.501382  0.002763  0.250000  1
  Yb  Yb1  1  0.498504  0.997008  0.750000  1
  Yb  Yb2  1  0.997237  0.498618  0.250000  1
  Yb  Yb3  1  0.002992  0.501496  0.750000  1
  Yb  Yb4  1  0.501382  0.498618  0.250000  1
  Yb  Yb5  1  0.498504  0.501496  0.750000  1
  Yb  Yb6  1  0.000000  0.000000  0.250000  1
  Zr  Zr7  1  0.000000  0.000000  0.750000  1
  Si  Si8  1  0.163077  0.326153  0.993769  1
  Si  Si9  1  0.837042  0.674083  0.990804  1
  Si  Si10  1  0.673847  0.836923  0.993769  1
  Si  Si11  1  0.837042  0.674083  0.509196  1
  Si  Si12  1  0.325917  0.162958  0.990804  1
  Si  Si13  1  0.163077  0.326153  0.506231  1
  Si  Si14  1  0.163077  0.836923  0.993769  1
  Si  Si15  1  0.325917  0.162958  0.509196  1
  Si  Si16  1  0.837042  0.162958  0.990804  1
  Si  Si17  1  0.673847  0.836923  0.506231  1
  Si  Si18  1  0.837042  0.162958  0.509196  1
  Si  Si19  1  0.163077  0.836923  0.506231  1
  Pd  Pd20  1  0.333333  0.666667  0.002176  1
  Pd  Pd21  1  0.666667  0.333333  0.995697  1
  Pd  Pd22  1  0.666667  0.333333  0.504303  1
  Pd  Pd23  1  0.333333  0.666667  0.497824  1
