# generated using pymatgen
data_Y8Tm2AlSb5
_symmetry_space_group_name_H-M   'P 1'
_cell_length_a   6.38074318
_cell_length_b   8.92662356
_cell_length_c   8.92228466
_cell_angle_alpha   120.01608896
_cell_angle_beta   89.98613183
_cell_angle_gamma   90.02773391
_symmetry_Int_Tables_number   1
_chemical_formula_structural   Y8Tm2AlSb5
_chemical_formula_sum   'Y8 Tm2 Al1 Sb5'
_cell_volume   440.04258795
_cell_formula_units_Z   1
loop_
 _symmetry_equiv_pos_site_id
 _symmetry_equiv_pos_as_xyz
  1  'x, y, z'
loop_
 _atom_site_type_symbol
 _atom_site_label
 _atom_site_symmetry_multiplicity
 _atom_site_fract_x
 _atom_site_fract_y
 _atom_site_fract_z
 _atom_site_occupancy
  Y  Y0  1  0.998883  0.665217  0.327113  1
  Y  Y1  1  0.998883  0.338104  0.672887  1
  Y  Y2  1  0.749796  0.247804  0.000000  1
  Y  Y3  1  0.749578  0.752784  0.761863  1
  Y  Y4  1  0.749578  0.990921  0.238137  1
  Y  Y5  1  0.250671  0.756757  0.000000  1
  Y  Y6  1  0.250148  0.246280  0.245204  1
  Y  Y7  1  0.250148  0.001076  0.754796  1
  Tm  Tm8  1  0.501376  0.338499  0.672988  1
  Tm  Tm9  1  0.501376  0.665511  0.327012  1
  Al  Al10  1  0.747385  0.603620  0.000000  1
  Sb  Sb11  1  0.747912  0.388583  0.390412  1
  Sb  Sb12  1  0.747912  0.998169  0.609588  1
  Sb  Sb13  1  0.252597  0.393082  0.000000  1
  Sb  Sb14  1  0.251879  0.610817  0.608042  1
  Sb  Sb15  1  0.251879  0.002777  0.391958  1
