# generated using pymatgen
data_TbTm2Th(Ga3Ir)6
_symmetry_space_group_name_H-M   'P 1'
_cell_length_a   7.61292469
_cell_length_b   7.62119527
_cell_length_c   9.48367500
_cell_angle_alpha   90.00000000
_cell_angle_beta   90.00000000
_cell_angle_gamma   119.76142207
_symmetry_Int_Tables_number   1
_chemical_formula_structural   TbTm2Th(Ga3Ir)6
_chemical_formula_sum   'Tb1 Tm2 Th1 Ga18 Ir6'
_cell_volume   477.66231502
_cell_formula_units_Z   1
loop_
 _symmetry_equiv_pos_site_id
 _symmetry_equiv_pos_as_xyz
  1  'x, y, z'
loop_
 _atom_site_type_symbol
 _atom_site_label
 _atom_site_symmetry_multiplicity
 _atom_site_fract_x
 _atom_site_fract_y
 _atom_site_fract_z
 _atom_site_occupancy
  Tb  Tb0  1  0.669948  0.997136  0.750000  1
  Tm  Tm1  1  0.001937  0.330855  0.250000  1
  Tm  Tm2  1  0.330061  0.001679  0.250000  1
  Th  Th3  1  0.996844  0.669051  0.750000  1
  Ga  Ga4  1  0.129561  0.131657  0.750000  1
  Ga  Ga5  1  0.874181  0.876130  0.250000  1
  Ga  Ga6  1  0.000048  0.329451  0.576866  1
  Ga  Ga7  1  0.001578  0.665155  0.412301  1
  Ga  Ga8  1  0.001578  0.665155  0.087699  1
  Ga  Ga9  1  0.340218  0.004654  0.922962  1
  Ga  Ga10  1  0.000048  0.329451  0.923134  1
  Ga  Ga11  1  0.665426  0.002479  0.083234  1
  Ga  Ga12  1  0.665426  0.002479  0.416766  1
  Ga  Ga13  1  0.340218  0.004654  0.577038  1
  Ga  Ga14  1  0.330278  0.330077  0.069400  1
  Ga  Ga15  1  0.662975  0.667899  0.939840  1
  Ga  Ga16  1  0.662975  0.667899  0.560160  1
  Ga  Ga17  1  0.330278  0.330077  0.430600  1
  Ga  Ga18  1  0.342134  0.546163  0.750000  1
  Ga  Ga19  1  0.658855  0.450769  0.250000  1
  Ga  Ga20  1  0.541936  0.336325  0.750000  1
  Ga  Ga21  1  0.451565  0.661001  0.250000  1
  Ir  Ir22  1  0.673844  0.331192  0.500221  1
  Ir  Ir23  1  0.326318  0.670841  0.500054  1
  Ir  Ir24  1  0.326318  0.670841  0.999946  1
  Ir  Ir25  1  0.673844  0.331192  0.999779  1
  Ir  Ir26  1  0.000805  0.997870  0.500222  1
  Ir  Ir27  1  0.000805  0.997870  0.999778  1
