# generated using pymatgen
data_Cd3Au(BrO3)8
_symmetry_space_group_name_H-M   'P 1'
_cell_length_a   5.84950391
_cell_length_b   10.84976406
_cell_length_c   11.34445954
_cell_angle_alpha   118.68394075
_cell_angle_beta   88.03014171
_cell_angle_gamma   89.91823022
_symmetry_Int_Tables_number   1
_chemical_formula_structural   Cd3Au(BrO3)8
_chemical_formula_sum   'Cd3 Au1 Br8 O24'
_cell_volume   631.12330420
_cell_formula_units_Z   1
loop_
 _symmetry_equiv_pos_site_id
 _symmetry_equiv_pos_as_xyz
  1  'x, y, z'
loop_
 _atom_site_type_symbol
 _atom_site_label
 _atom_site_symmetry_multiplicity
 _atom_site_fract_x
 _atom_site_fract_y
 _atom_site_fract_z
 _atom_site_occupancy
  Cd  Cd0  1  0.640897  0.232820  0.488811  1
  Cd  Cd1  1  0.141568  0.267104  0.009357  1
  Cd  Cd2  1  0.640083  0.731785  0.990737  1
  Au  Au3  1  0.139180  0.767341  0.510533  1
  Br  Br4  1  0.261253  0.422969  0.350372  1
  Br  Br5  1  0.773963  0.587139  0.650958  1
  Br  Br6  1  0.290488  0.916024  0.860721  1
  Br  Br7  1  0.761899  0.082661  0.152515  1
  Br  Br8  1  0.794670  0.083731  0.689437  1
  Br  Br9  1  0.270884  0.911590  0.315504  1
  Br  Br10  1  0.283377  0.414514  0.806360  1
  Br  Br11  1  0.769843  0.582533  0.180287  1
  O  O12  1  0.418443  0.903036  0.987332  1
  O  O13  1  0.914852  0.108366  0.038002  1
  O  O14  1  0.428984  0.803705  0.718508  1
  O  O15  1  0.871639  0.194056  0.303951  1
  O  O16  1  0.377534  0.314102  0.195932  1
  O  O17  1  0.883106  0.692209  0.801720  1
  O  O18  1  0.922725  0.220732  0.813852  1
  O  O19  1  0.397908  0.773227  0.183301  1
  O  O20  1  0.941883  0.937315  0.671833  1
  O  O21  1  0.413997  0.055167  0.335501  1
  O  O22  1  0.375547  0.076841  0.884304  1
  O  O23  1  0.859718  0.923674  0.125435  1
  O  O24  1  0.418329  0.274191  0.676687  1
  O  O25  1  0.880104  0.727335  0.300444  1
  O  O26  1  0.355980  0.401869  0.943357  1
  O  O27  1  0.845128  0.580959  0.031903  1
  O  O28  1  0.421332  0.558647  0.823197  1
  O  O29  1  0.927378  0.445842  0.172204  1
  O  O30  1  0.353559  0.585724  0.375154  1
  O  O31  1  0.865448  0.424233  0.615918  1
  O  O32  1  0.415616  0.396806  0.459086  1
  O  O33  1  0.937888  0.611528  0.534320  1
  O  O34  1  0.863689  0.092050  0.547163  1
  O  O35  1  0.350710  0.898176  0.455299  1
