# generated using pymatgen
data_Dy15Lu(AlRh)4
_symmetry_space_group_name_H-M   'P 1'
_cell_length_a   9.50994966
_cell_length_b   9.52367410
_cell_length_c   9.52365874
_cell_angle_alpha   59.95388639
_cell_angle_beta   60.04752551
_cell_angle_gamma   60.04747353
_symmetry_Int_Tables_number   1
_chemical_formula_structural   Dy15Lu(AlRh)4
_chemical_formula_sum   'Dy15 Lu1 Al4 Rh4'
_cell_volume   610.14239648
_cell_formula_units_Z   1
loop_
 _symmetry_equiv_pos_site_id
 _symmetry_equiv_pos_as_xyz
  1  'x, y, z'
loop_
 _atom_site_type_symbol
 _atom_site_label
 _atom_site_symmetry_multiplicity
 _atom_site_fract_x
 _atom_site_fract_y
 _atom_site_fract_z
 _atom_site_occupancy
  Dy  Dy0  1  0.691366  0.691586  0.308243  1
  Dy  Dy1  1  0.308804  0.691575  0.308249  1
  Dy  Dy2  1  0.936507  0.937611  0.562020  1
  Dy  Dy3  1  0.147120  0.146500  0.559263  1
  Dy  Dy4  1  0.563845  0.937603  0.562038  1
  Dy  Dy5  1  0.147575  0.147205  0.147196  1
  Dy  Dy6  1  0.308806  0.308242  0.691576  1
  Dy  Dy7  1  0.936545  0.563446  0.563444  1
  Dy  Dy8  1  0.563857  0.562034  0.937600  1
  Dy  Dy9  1  0.563230  0.936763  0.936775  1
  Dy  Dy10  1  0.936522  0.562029  0.937593  1
  Dy  Dy11  1  0.147114  0.559280  0.146499  1
  Dy  Dy12  1  0.307984  0.692009  0.692009  1
  Dy  Dy13  1  0.691369  0.308234  0.691585  1
  Dy  Dy14  1  0.558021  0.147215  0.147206  1
  Lu  Lu15  1  0.692151  0.307867  0.307868  1
  Al  Al16  1  0.922327  0.922931  0.232405  1
  Al  Al17  1  0.232599  0.922715  0.922737  1
  Al  Al18  1  0.922336  0.232412  0.922927  1
  Al  Al19  1  0.921943  0.922727  0.922724  1
  Rh  Rh20  1  0.359449  0.356424  0.356437  1
  Rh  Rh21  1  0.927711  0.356411  0.356434  1
  Rh  Rh22  1  0.356409  0.357556  0.929624  1
  Rh  Rh23  1  0.356411  0.929623  0.357546  1
