# generated using pymatgen
data_V16Re3Si12Mo
_symmetry_space_group_name_H-M   'P 1'
_cell_length_a   7.05647943
_cell_length_b   7.05693115
_cell_length_c   13.27036701
_cell_angle_alpha   89.98266386
_cell_angle_beta   90.00626836
_cell_angle_gamma   139.75091479
_symmetry_Int_Tables_number   1
_chemical_formula_structural   V16Re3Si12Mo
_chemical_formula_sum   'V16 Re3 Si12 Mo1'
_cell_volume   426.96722151
_cell_formula_units_Z   1
loop_
 _symmetry_equiv_pos_site_id
 _symmetry_equiv_pos_as_xyz
  1  'x, y, z'
loop_
 _atom_site_type_symbol
 _atom_site_label
 _atom_site_symmetry_multiplicity
 _atom_site_fract_x
 _atom_site_fract_y
 _atom_site_fract_z
 _atom_site_occupancy
  V  V0  1  0.576469  0.926485  0.899704  1
  V  V1  1  0.421343  0.071685  0.601074  1
  V  V2  1  0.926425  0.576584  0.099518  1
  V  V3  1  0.851905  0.651718  0.675649  1
  V  V4  1  0.349514  0.151254  0.174478  1
  V  V5  1  0.650667  0.850186  0.324607  1
  V  V6  1  0.150444  0.350354  0.824970  1
  V  V7  1  0.651154  0.851906  0.675161  1
  V  V8  1  0.151363  0.349815  0.173862  1
  V  V9  1  0.851654  0.651925  0.325498  1
  V  V10  1  0.350119  0.150716  0.825050  1
  V  V11  1  0.422055  0.070970  0.399760  1
  V  V12  1  0.926224  0.576623  0.899479  1
  V  V13  1  0.071920  0.421596  0.602204  1
  V  V14  1  0.576704  0.925840  0.099705  1
  V  V15  1  0.999096  0.997495  0.500860  1
  Re  Re16  1  0.501182  0.501267  0.999693  1
  Re  Re17  1  0.500249  0.498309  0.500792  1
  Re  Re18  1  0.001492  0.001626  0.999676  1
  Si  Si19  1  0.250452  0.749624  0.750801  1
  Si  Si20  1  0.747482  0.250346  0.247714  1
  Si  Si21  1  0.749385  0.250813  0.750747  1
  Si  Si22  1  0.250793  0.751549  0.247719  1
  Si  Si23  1  0.244800  0.244940  0.667992  1
  Si  Si24  1  0.753038  0.752692  0.168920  1
  Si  Si25  1  0.247286  0.242726  0.332365  1
  Si  Si26  1  0.752544  0.753003  0.830732  1
  Si  Si27  1  0.583415  0.918412  0.501078  1
  Si  Si28  1  0.080740  0.420200  0.999515  1
  Si  Si29  1  0.919347  0.585860  0.501879  1
  Si  Si30  1  0.420129  0.080790  0.999687  1
  Mo  Mo31  1  0.070609  0.422694  0.399110  1
