# generated using pymatgen
data_CsPa3S5
_symmetry_space_group_name_H-M   'P 1'
_cell_length_a   3.95629200
_cell_length_b   11.60502100
_cell_length_c   22.03749000
_cell_angle_alpha   90.00000000
_cell_angle_beta   90.00000000
_cell_angle_gamma   90.00000000
_symmetry_Int_Tables_number   1
_chemical_formula_structural   CsPa3S5
_chemical_formula_sum   'Cs4 Pa12 S20'
_cell_volume   1011.80401114
_cell_formula_units_Z   4
loop_
 _symmetry_equiv_pos_site_id
 _symmetry_equiv_pos_as_xyz
  1  'x, y, z'
loop_
 _atom_site_type_symbol
 _atom_site_label
 _atom_site_symmetry_multiplicity
 _atom_site_fract_x
 _atom_site_fract_y
 _atom_site_fract_z
 _atom_site_occupancy
  Cs  Cs0  1  0.250000  0.988740  0.277772  1
  Cs  Cs1  1  0.750000  0.488740  0.222228  1
  Cs  Cs2  1  0.750000  0.011260  0.722228  1
  Cs  Cs3  1  0.250000  0.511260  0.777772  1
  Pa  Pa4  1  0.750000  0.800617  0.101666  1
  Pa  Pa5  1  0.250000  0.417001  0.558607  1
  Pa  Pa6  1  0.250000  0.199383  0.898334  1
  Pa  Pa7  1  0.750000  0.582999  0.441393  1
  Pa  Pa8  1  0.250000  0.082999  0.058607  1
  Pa  Pa9  1  0.250000  0.641219  0.978472  1
  Pa  Pa10  1  0.250000  0.300617  0.398334  1
  Pa  Pa11  1  0.250000  0.858781  0.478472  1
  Pa  Pa12  1  0.750000  0.917001  0.941393  1
  Pa  Pa13  1  0.750000  0.699383  0.601666  1
  Pa  Pa14  1  0.750000  0.358781  0.021528  1
  Pa  Pa15  1  0.750000  0.141219  0.521528  1
  S  S16  1  0.250000  0.753712  0.678797  1
  S  S17  1  0.750000  0.140769  0.978655  1
  S  S18  1  0.250000  0.304879  0.102667  1
  S  S19  1  0.750000  0.579350  0.061767  1
  S  S20  1  0.250000  0.079350  0.438233  1
  S  S21  1  0.750000  0.920650  0.561767  1
  S  S22  1  0.250000  0.420650  0.938233  1
  S  S23  1  0.250000  0.859231  0.021345  1
  S  S24  1  0.750000  0.359231  0.478655  1
  S  S25  1  0.750000  0.253712  0.821203  1
  S  S26  1  0.250000  0.525221  0.359949  1
  S  S27  1  0.250000  0.974779  0.859949  1
  S  S28  1  0.750000  0.804879  0.397333  1
  S  S29  1  0.750000  0.474779  0.640051  1
  S  S30  1  0.250000  0.195121  0.602667  1
  S  S31  1  0.250000  0.746288  0.178797  1
  S  S32  1  0.750000  0.025221  0.140051  1
  S  S33  1  0.750000  0.246288  0.321203  1
  S  S34  1  0.750000  0.695121  0.897333  1
  S  S35  1  0.250000  0.640769  0.521345  1
