# generated using pymatgen
data_YEr4P12Ru17Pt2
_symmetry_space_group_name_H-M   'P 1'
_cell_length_a   12.61507000
_cell_length_b   12.52229178
_cell_length_c   3.97698800
_cell_angle_alpha   90.00000000
_cell_angle_beta   90.00000000
_cell_angle_gamma   120.24538807
_symmetry_Int_Tables_number   1
_chemical_formula_structural   YEr4P12Ru17Pt2
_chemical_formula_sum   'Y1 Er4 P12 Ru17 Pt2'
_cell_volume   542.72421574
_cell_formula_units_Z   1
loop_
 _symmetry_equiv_pos_site_id
 _symmetry_equiv_pos_as_xyz
  1  'x, y, z'
loop_
 _atom_site_type_symbol
 _atom_site_label
 _atom_site_symmetry_multiplicity
 _atom_site_fract_x
 _atom_site_fract_y
 _atom_site_fract_z
 _atom_site_occupancy
  Y  Y0  1  0.183536  0.000000  0.500000  1
  Er  Er1  1  0.001287  0.182530  0.500000  1
  Er  Er2  1  0.818757  0.817470  0.500000  1
  Er  Er3  1  0.664250  0.327311  0.000000  1
  Er  Er4  1  0.336938  0.672689  0.000000  1
  P  P5  1  0.997489  0.812628  0.000000  1
  P  P6  1  0.184861  0.187372  0.000000  1
  P  P7  1  0.818205  0.000000  0.000000  1
  P  P8  1  0.692960  0.170050  0.500000  1
  P  P9  1  0.816541  0.515896  0.500000  1
  P  P10  1  0.478028  0.299394  0.500000  1
  P  P11  1  0.178634  0.700606  0.500000  1
  P  P12  1  0.522910  0.829950  0.500000  1
  P  P13  1  0.300643  0.484104  0.500000  1
  P  P14  1  0.000336  0.364850  0.000000  1
  P  P15  1  0.635486  0.635150  0.000000  1
  P  P16  1  0.373285  0.000000  0.000000  1
  Ru  Ru17  1  0.555224  0.000000  0.000000  1
  Ru  Ru18  1  0.997232  0.709599  0.500000  1
  Ru  Ru19  1  0.287632  0.290401  0.500000  1
  Ru  Ru20  1  0.719111  0.000000  0.500000  1
  Ru  Ru21  1  0.809144  0.184835  0.000000  1
  Ru  Ru22  1  0.812746  0.618295  0.000000  1
  Ru  Ru23  1  0.376671  0.193227  0.000000  1
  Ru  Ru24  1  0.183446  0.806773  0.000000  1
  Ru  Ru25  1  0.624311  0.815165  0.000000  1
  Ru  Ru26  1  0.194452  0.381705  0.000000  1
  Ru  Ru27  1  0.869991  0.365084  0.500000  1
  Ru  Ru28  1  0.629053  0.505523  0.500000  1
  Ru  Ru29  1  0.492301  0.124279  0.500000  1
  Ru  Ru30  1  0.368022  0.875721  0.500000  1
  Ru  Ru31  1  0.504907  0.634916  0.500000  1
  Ru  Ru32  1  0.123530  0.494477  0.500000  1
  Ru  Ru33  1  0.001553  0.000000  0.000000  1
  Pt  Pt34  1  0.998093  0.549657  0.000000  1
  Pt  Pt35  1  0.448436  0.450343  0.000000  1
