# generated using pymatgen
data_La5USe10
_symmetry_space_group_name_H-M   'P 1'
_cell_length_a   7.99976200
_cell_length_b   8.63042300
_cell_length_c   12.59646800
_cell_angle_alpha   90.00000000
_cell_angle_beta   90.00000000
_cell_angle_gamma   90.00000000
_symmetry_Int_Tables_number   1
_chemical_formula_structural   La5USe10
_chemical_formula_sum   'La10 U2 Se20'
_cell_volume   869.67690351
_cell_formula_units_Z   2
loop_
 _symmetry_equiv_pos_site_id
 _symmetry_equiv_pos_as_xyz
  1  'x, y, z'
loop_
 _atom_site_type_symbol
 _atom_site_label
 _atom_site_symmetry_multiplicity
 _atom_site_fract_x
 _atom_site_fract_y
 _atom_site_fract_z
 _atom_site_occupancy
  La  La0  1  0.527160  0.501258  0.323090  1
  La  La1  1  0.972840  0.998742  0.823090  1
  La  La2  1  0.479264  0.998788  0.677739  1
  La  La3  1  0.020736  0.501212  0.177739  1
  La  La4  1  0.479264  0.501212  0.677739  1
  La  La5  1  0.020736  0.998788  0.177739  1
  La  La6  1  0.527160  0.998742  0.323090  1
  La  La7  1  0.972840  0.501258  0.823090  1
  La  La8  1  0.078645  0.750000  0.490108  1
  La  La9  1  0.421355  0.750000  0.990108  1
  U  U10  1  0.940215  0.250000  0.505705  1
  U  U11  1  0.559785  0.250000  0.005705  1
  Se  Se12  1  0.836671  0.972659  0.595280  1
  Se  Se13  1  0.663329  0.527341  0.095280  1
  Se  Se14  1  0.163780  0.445028  0.403989  1
  Se  Se15  1  0.336220  0.054972  0.903989  1
  Se  Se16  1  0.163780  0.054972  0.403989  1
  Se  Se17  1  0.336220  0.445028  0.903989  1
  Se  Se18  1  0.836671  0.527341  0.595280  1
  Se  Se19  1  0.663329  0.972659  0.095280  1
  Se  Se20  1  0.825008  0.750000  0.307268  1
  Se  Se21  1  0.674992  0.750000  0.807268  1
  Se  Se22  1  0.163456  0.250000  0.681825  1
  Se  Se23  1  0.336544  0.250000  0.181825  1
  Se  Se24  1  0.466158  0.750000  0.499941  1
  Se  Se25  1  0.033842  0.750000  0.999941  1
  Se  Se26  1  0.549164  0.250000  0.501035  1
  Se  Se27  1  0.950836  0.250000  0.001035  1
  Se  Se28  1  0.200583  0.750000  0.722933  1
  Se  Se29  1  0.299417  0.750000  0.222933  1
  Se  Se30  1  0.808560  0.250000  0.290989  1
  Se  Se31  1  0.691440  0.250000  0.790989  1
