# generated using pymatgen
data_La10Co2Sn3Sb
_symmetry_space_group_name_H-M   'P 1'
_cell_length_a   8.36093300
_cell_length_b   9.23124271
_cell_length_c   12.74009004
_cell_angle_alpha   90.04553193
_cell_angle_beta   90.00000000
_cell_angle_gamma   90.00000000
_symmetry_Int_Tables_number   1
_chemical_formula_structural   La10Co2Sn3Sb
_chemical_formula_sum   'La20 Co4 Sn6 Sb2'
_cell_volume   983.30279334
_cell_formula_units_Z   2
loop_
 _symmetry_equiv_pos_site_id
 _symmetry_equiv_pos_as_xyz
  1  'x, y, z'
loop_
 _atom_site_type_symbol
 _atom_site_label
 _atom_site_symmetry_multiplicity
 _atom_site_fract_x
 _atom_site_fract_y
 _atom_site_fract_z
 _atom_site_occupancy
  La  La0  1  0.153704  0.749489  0.199663  1
  La  La1  1  0.653704  0.250511  0.300337  1
  La  La2  1  0.843218  0.250338  0.797835  1
  La  La3  1  0.343218  0.749662  0.702165  1
  La  La4  1  0.447932  0.751370  0.997877  1
  La  La5  1  0.947932  0.248630  0.502123  1
  La  La6  1  0.553417  0.249665  0.003132  1
  La  La7  1  0.053417  0.750335  0.496868  1
  La  La8  1  0.629682  0.750577  0.305732  1
  La  La9  1  0.129682  0.249423  0.194268  1
  La  La10  1  0.373410  0.250034  0.692449  1
  La  La11  1  0.873410  0.749966  0.807551  1
  La  La12  1  0.818980  0.971782  0.069347  1
  La  La13  1  0.318980  0.028218  0.430653  1
  La  La14  1  0.179532  0.469734  0.929794  1
  La  La15  1  0.679532  0.530266  0.570206  1
  La  La16  1  0.181289  0.029810  0.930056  1
  La  La17  1  0.681289  0.970190  0.569944  1
  La  La18  1  0.819208  0.527047  0.066339  1
  La  La19  1  0.319208  0.472953  0.433661  1
  Co  Co20  1  0.418408  0.748035  0.487705  1
  Co  Co21  1  0.918408  0.251965  0.012295  1
  Co  Co22  1  0.583043  0.253625  0.509917  1
  Co  Co23  1  0.083043  0.746375  0.990083  1
  Sn  Sn24  1  0.932215  0.993744  0.325847  1
  Sn  Sn25  1  0.432215  0.006256  0.174153  1
  Sn  Sn26  1  0.067892  0.493314  0.671449  1
  Sn  Sn27  1  0.567892  0.506686  0.828551  1
  Sn  Sn28  1  0.067074  0.006013  0.672778  1
  Sn  Sn29  1  0.567074  0.993987  0.827222  1
  Sb  Sb30  1  0.930996  0.505494  0.325731  1
  Sb  Sb31  1  0.430996  0.494506  0.174269  1
