# generated using pymatgen
data_MgNb(SnRu2)2
_symmetry_space_group_name_H-M   'P 1'
_cell_length_a   4.50129701
_cell_length_b   6.38614100
_cell_length_c   13.52847601
_cell_angle_alpha   89.99978645
_cell_angle_beta   90.00130997
_cell_angle_gamma   89.99935880
_symmetry_Int_Tables_number   1
_chemical_formula_structural   MgNb(SnRu2)2
_chemical_formula_sum   'Mg3 Nb3 Sn6 Ru12'
_cell_volume   388.88845324
_cell_formula_units_Z   3
loop_
 _symmetry_equiv_pos_site_id
 _symmetry_equiv_pos_as_xyz
  1  'x, y, z'
loop_
 _atom_site_type_symbol
 _atom_site_label
 _atom_site_symmetry_multiplicity
 _atom_site_fract_x
 _atom_site_fract_y
 _atom_site_fract_z
 _atom_site_occupancy
  Mg  Mg0  1  0.000005  0.000000  0.000869  1
  Mg  Mg1  1  0.499947  0.499988  0.166656  1
  Mg  Mg2  1  0.999952  0.000001  0.332436  1
  Nb  Nb3  1  0.500006  0.500004  0.492768  1
  Nb  Nb4  1  0.000039  0.999986  0.666656  1
  Nb  Nb5  1  0.500018  0.500003  0.840566  1
  Sn  Sn6  1  0.000000  0.499997  0.006349  1
  Sn  Sn7  1  0.499968  0.000025  0.166717  1
  Sn  Sn8  1  0.999966  0.499996  0.327031  1
  Sn  Sn9  1  0.500000  0.999999  0.496606  1
  Sn  Sn10  1  0.000044  0.500025  0.666674  1
  Sn  Sn11  1  0.500022  0.999987  0.836779  1
  Ru  Ru12  1  0.500110  0.253508  0.995406  1
  Ru  Ru13  1  0.499903  0.746504  0.995396  1
  Ru  Ru14  1  0.000122  0.244120  0.166657  1
  Ru  Ru15  1  0.999805  0.755873  0.166660  1
  Ru  Ru16  1  0.500068  0.253497  0.337882  1
  Ru  Ru17  1  0.499864  0.746502  0.337893  1
  Ru  Ru18  1  0.999902  0.252421  0.504022  1
  Ru  Ru19  1  0.000096  0.747575  0.504023  1
  Ru  Ru20  1  0.500111  0.246743  0.666660  1
  Ru  Ru21  1  0.499996  0.753257  0.666659  1
  Ru  Ru22  1  0.999941  0.252452  0.829319  1
  Ru  Ru23  1  0.000121  0.747544  0.829318  1
