# generated using pymatgen
data_Tm2TcB8Rh
_symmetry_space_group_name_H-M   'P 1'
_cell_length_a   3.55793300
_cell_length_b   5.93306557
_cell_length_c   11.49209905
_cell_angle_alpha   90.28688096
_cell_angle_beta   90.00000000
_cell_angle_gamma   90.00000000
_symmetry_Int_Tables_number   1
_chemical_formula_structural   Tm2TcB8Rh
_chemical_formula_sum   'Tm4 Tc2 B16 Rh2'
_cell_volume   242.58884705
_cell_formula_units_Z   2
loop_
 _symmetry_equiv_pos_site_id
 _symmetry_equiv_pos_as_xyz
  1  'x, y, z'
loop_
 _atom_site_type_symbol
 _atom_site_label
 _atom_site_symmetry_multiplicity
 _atom_site_fract_x
 _atom_site_fract_y
 _atom_site_fract_z
 _atom_site_occupancy
  Tm  Tm0  1  0.000000  0.130481  0.648592  1
  Tm  Tm1  1  0.000000  0.869519  0.351408  1
  Tm  Tm2  1  0.000000  0.629571  0.851009  1
  Tm  Tm3  1  0.000000  0.370429  0.148991  1
  Tc  Tc4  1  0.000000  0.635466  0.589389  1
  Tc  Tc5  1  0.000000  0.364534  0.410611  1
  B  B6  1  0.500000  0.791181  0.685987  1
  B  B7  1  0.500000  0.208819  0.314013  1
  B  B8  1  0.500000  0.291849  0.813577  1
  B  B9  1  0.500000  0.708151  0.186423  1
  B  B10  1  0.500000  0.865661  0.530502  1
  B  B11  1  0.500000  0.134339  0.469498  1
  B  B12  1  0.500000  0.364799  0.969736  1
  B  B13  1  0.500000  0.635201  0.030264  1
  B  B14  1  0.500000  0.021613  0.193637  1
  B  B15  1  0.500000  0.978387  0.806363  1
  B  B16  1  0.500000  0.522735  0.306912  1
  B  B17  1  0.500000  0.477265  0.693088  1
  B  B18  1  0.500000  0.113279  0.048145  1
  B  B19  1  0.500000  0.886721  0.951855  1
  B  B20  1  0.500000  0.612958  0.452960  1
  B  B21  1  0.500000  0.387042  0.547040  1
  Rh  Rh22  1  0.000000  0.142137  0.905546  1
  Rh  Rh23  1  0.000000  0.857863  0.094454  1
