# generated using pymatgen
data_ThBeCo3B
_symmetry_space_group_name_H-M   'P 1'
_cell_length_a   5.08499005
_cell_length_b   5.08447261
_cell_length_c   6.53683700
_cell_angle_alpha   90.00000000
_cell_angle_beta   90.00000000
_cell_angle_gamma   120.00473008
_symmetry_Int_Tables_number   1
_chemical_formula_structural   ThBeCo3B
_chemical_formula_sum   'Th2 Be2 Co6 B2'
_cell_volume   146.35703561
_cell_formula_units_Z   2
loop_
 _symmetry_equiv_pos_site_id
 _symmetry_equiv_pos_as_xyz
  1  'x, y, z'
loop_
 _atom_site_type_symbol
 _atom_site_label
 _atom_site_symmetry_multiplicity
 _atom_site_fract_x
 _atom_site_fract_y
 _atom_site_fract_z
 _atom_site_occupancy
  Th  Th0  1  0.999982  0.000000  0.000000  1
  Th  Th1  1  0.999985  0.000000  0.500000  1
  Be  Be2  1  0.333426  0.666789  0.000000  1
  Be  Be3  1  0.666538  0.333210  0.000000  1
  Co  Co4  1  0.499984  0.000001  0.276074  1
  Co  Co5  1  0.499984  0.500000  0.276026  1
  Co  Co6  1  0.999983  0.500000  0.276011  1
  Co  Co7  1  0.499984  0.000001  0.723926  1
  Co  Co8  1  0.499984  0.500000  0.723973  1
  Co  Co9  1  0.999983  0.500000  0.723988  1
  B  B10  1  0.333281  0.666617  0.500000  1
  B  B11  1  0.666685  0.333382  0.500000  1
