# generated using pymatgen
data_CuMo12Pd3(PtN)4
_symmetry_space_group_name_H-M   'P 1'
_cell_length_a   6.86866321
_cell_length_b   6.86866238
_cell_length_c   6.86866205
_cell_angle_alpha   90.05853005
_cell_angle_beta   90.05852443
_cell_angle_gamma   90.05852171
_symmetry_Int_Tables_number   1
_chemical_formula_structural   CuMo12Pd3(PtN)4
_chemical_formula_sum   'Cu1 Mo12 Pd3 Pt4 N4'
_cell_volume   324.05286106
_cell_formula_units_Z   1
loop_
 _symmetry_equiv_pos_site_id
 _symmetry_equiv_pos_as_xyz
  1  'x, y, z'
loop_
 _atom_site_type_symbol
 _atom_site_label
 _atom_site_symmetry_multiplicity
 _atom_site_fract_x
 _atom_site_fract_y
 _atom_site_fract_z
 _atom_site_occupancy
  Cu  Cu0  1  0.188946  0.188946  0.188946  1
  Mo  Mo1  1  0.800951  0.046701  0.122155  1
  Mo  Mo2  1  0.046701  0.122155  0.800951  1
  Mo  Mo3  1  0.543701  0.373612  0.199578  1
  Mo  Mo4  1  0.876161  0.303538  0.456055  1
  Mo  Mo5  1  0.122155  0.800951  0.046701  1
  Mo  Mo6  1  0.199578  0.543701  0.373612  1
  Mo  Mo7  1  0.303538  0.456055  0.876161  1
  Mo  Mo8  1  0.456055  0.876161  0.303538  1
  Mo  Mo9  1  0.622337  0.701559  0.952230  1
  Mo  Mo10  1  0.952230  0.622337  0.701559  1
  Mo  Mo11  1  0.373612  0.199578  0.543701  1
  Mo  Mo12  1  0.701559  0.952230  0.622337  1
  Pd  Pd13  1  0.307617  0.811596  0.689415  1
  Pd  Pd14  1  0.689415  0.307617  0.811596  1
  Pd  Pd15  1  0.811596  0.689415  0.307617  1
  Pt  Pt16  1  0.431554  0.063269  0.947794  1
  Pt  Pt17  1  0.947794  0.431554  0.063269  1
  Pt  Pt18  1  0.063269  0.947794  0.431554  1
  Pt  Pt19  1  0.559706  0.559706  0.559706  1
  N  N20  1  0.873891  0.873891  0.873891  1
  N  N21  1  0.125603  0.375483  0.626550  1
  N  N22  1  0.626550  0.125603  0.375483  1
  N  N23  1  0.375483  0.626550  0.125603  1
