# generated using pymatgen
data_Ce3Mg2CdIr2Au
_symmetry_space_group_name_H-M   'P 1'
_cell_length_a   7.56428200
_cell_length_b   7.66577931
_cell_length_c   4.01345500
_cell_angle_alpha   90.00000000
_cell_angle_beta   90.00000000
_cell_angle_gamma   120.44485775
_symmetry_Int_Tables_number   1
_chemical_formula_structural   Ce3Mg2CdIr2Au
_chemical_formula_sum   'Ce3 Mg2 Cd1 Ir2 Au1'
_cell_volume   200.63594553
_cell_formula_units_Z   1
loop_
 _symmetry_equiv_pos_site_id
 _symmetry_equiv_pos_as_xyz
  1  'x, y, z'
loop_
 _atom_site_type_symbol
 _atom_site_label
 _atom_site_symmetry_multiplicity
 _atom_site_fract_x
 _atom_site_fract_y
 _atom_site_fract_z
 _atom_site_occupancy
  Ce  Ce0  1  0.000000  0.573759  0.000000  1
  Ce  Ce1  1  0.423808  0.422717  0.000000  1
  Ce  Ce2  1  0.576192  0.998909  0.000000  1
  Mg  Mg3  1  0.249242  0.001046  0.500000  1
  Mg  Mg4  1  0.750758  0.751804  0.500000  1
  Cd  Cd5  1  0.000000  0.250310  0.500000  1
  Ir  Ir6  1  0.340780  0.678794  0.500000  1
  Ir  Ir7  1  0.659220  0.338012  0.500000  1
  Au  Au8  1  0.000000  0.984649  0.000000  1
