# generated using pymatgen
data_Zr8In4PdPtAu6
_symmetry_space_group_name_H-M   'P 1'
_cell_length_a   7.60162485
_cell_length_b   7.60162510
_cell_length_c   7.11942900
_cell_angle_alpha   90.16315746
_cell_angle_beta   90.16315951
_cell_angle_gamma   90.21826785
_symmetry_Int_Tables_number   1
_chemical_formula_structural   Zr8In4PdPtAu6
_chemical_formula_sum   'Zr8 In4 Pd1 Pt1 Au6'
_cell_volume   411.38775130
_cell_formula_units_Z   1
loop_
 _symmetry_equiv_pos_site_id
 _symmetry_equiv_pos_as_xyz
  1  'x, y, z'
loop_
 _atom_site_type_symbol
 _atom_site_label
 _atom_site_symmetry_multiplicity
 _atom_site_fract_x
 _atom_site_fract_y
 _atom_site_fract_z
 _atom_site_occupancy
  Zr  Zr0  1  0.148738  0.148738  0.005140  1
  Zr  Zr1  1  0.850410  0.850410  0.993401  1
  Zr  Zr2  1  0.645626  0.356482  0.501386  1
  Zr  Zr3  1  0.356482  0.645626  0.501386  1
  Zr  Zr4  1  0.690934  0.310434  0.999093  1
  Zr  Zr5  1  0.310434  0.690934  0.999093  1
  Zr  Zr6  1  0.800214  0.800214  0.505041  1
  Zr  Zr7  1  0.198429  0.198429  0.496247  1
  In  In8  1  0.499803  0.004856  0.248701  1
  In  In9  1  0.499941  0.996438  0.751690  1
  In  In10  1  0.004856  0.499803  0.248701  1
  In  In11  1  0.996438  0.499941  0.751690  1
  Pd  Pd12  1  0.370705  0.370705  0.209347  1
  Pt  Pt13  1  0.628710  0.628710  0.788656  1
  Au  Au14  1  0.629409  0.629409  0.203322  1
  Au  Au15  1  0.870667  0.130860  0.705977  1
  Au  Au16  1  0.869025  0.129521  0.293982  1
  Au  Au17  1  0.368798  0.368798  0.797191  1
  Au  Au18  1  0.129521  0.869025  0.293982  1
  Au  Au19  1  0.130860  0.870667  0.705977  1
