# generated using pymatgen
data_Tm2NbOs3
_symmetry_space_group_name_H-M   'P 1'
_cell_length_a   5.51232604
_cell_length_b   5.51232571
_cell_length_c   8.54090300
_cell_angle_alpha   90.00000000
_cell_angle_beta   90.00000000
_cell_angle_gamma   120.00387886
_symmetry_Int_Tables_number   1
_chemical_formula_structural   Tm2NbOs3
_chemical_formula_sum   'Tm4 Nb2 Os6'
_cell_volume   224.74353788
_cell_formula_units_Z   2
loop_
 _symmetry_equiv_pos_site_id
 _symmetry_equiv_pos_as_xyz
  1  'x, y, z'
loop_
 _atom_site_type_symbol
 _atom_site_label
 _atom_site_symmetry_multiplicity
 _atom_site_fract_x
 _atom_site_fract_y
 _atom_site_fract_z
 _atom_site_occupancy
  Tm  Tm0  1  0.666673  0.333327  0.565848  1
  Tm  Tm1  1  0.333327  0.666673  0.434152  1
  Tm  Tm2  1  0.333327  0.666673  0.065848  1
  Tm  Tm3  1  0.666673  0.333327  0.934152  1
  Nb  Nb4  1  0.000000  0.000000  0.500000  1
  Nb  Nb5  1  0.000000  0.000000  0.000000  1
  Os  Os6  1  0.174126  0.348236  0.750000  1
  Os  Os7  1  0.174112  0.825888  0.750000  1
  Os  Os8  1  0.651764  0.825874  0.750000  1
  Os  Os9  1  0.825874  0.651764  0.250000  1
  Os  Os10  1  0.825888  0.174112  0.250000  1
  Os  Os11  1  0.348236  0.174126  0.250000  1
