# generated using pymatgen
data_La2Nd3Sn15Ir3Rh5
_symmetry_space_group_name_H-M   'P 1'
_cell_length_a   4.55205600
_cell_length_b   7.32742149
_cell_length_c   18.77780221
_cell_angle_alpha   90.01008189
_cell_angle_beta   90.00000000
_cell_angle_gamma   90.00000000
_symmetry_Int_Tables_number   1
_chemical_formula_structural   La2Nd3Sn15Ir3Rh5
_chemical_formula_sum   'La2 Nd3 Sn15 Ir3 Rh5'
_cell_volume   626.33044644
_cell_formula_units_Z   1
loop_
 _symmetry_equiv_pos_site_id
 _symmetry_equiv_pos_as_xyz
  1  'x, y, z'
loop_
 _atom_site_type_symbol
 _atom_site_label
 _atom_site_symmetry_multiplicity
 _atom_site_fract_x
 _atom_site_fract_y
 _atom_site_fract_z
 _atom_site_occupancy
  La  La0  1  0.000000  0.999322  0.142697  1
  La  La1  1  0.000000  0.501237  0.640870  1
  Nd  Nd2  1  0.500000  0.001909  0.856533  1
  Nd  Nd3  1  0.500000  0.502402  0.357487  1
  Nd  Nd4  1  0.500000  0.493208  0.930038  1
  Sn  Sn5  1  0.000000  0.718275  0.806909  1
  Sn  Sn6  1  0.000000  0.781905  0.306679  1
  Sn  Sn7  1  0.500000  0.278967  0.194606  1
  Sn  Sn8  1  0.500000  0.217128  0.694100  1
  Sn  Sn9  1  0.000000  0.852413  0.969194  1
  Sn  Sn10  1  0.000000  0.630758  0.467159  1
  Sn  Sn11  1  0.500000  0.134883  0.031316  1
  Sn  Sn12  1  0.500000  0.363774  0.530004  1
  Sn  Sn13  1  0.000000  0.303851  0.819096  1
  Sn  Sn14  1  0.000000  0.200870  0.317807  1
  Sn  Sn15  1  0.500000  0.695712  0.186960  1
  Sn  Sn16  1  0.500000  0.809424  0.679077  1
  Sn  Sn17  1  0.500000  0.019351  0.433340  1
  Sn  Sn18  1  0.000000  0.510045  0.067794  1
  Sn  Sn19  1  0.000000  0.981486  0.567885  1
  Ir  Ir20  1  0.000000  0.228741  0.964199  1
  Ir  Ir21  1  0.500000  0.763873  0.045235  1
  Ir  Ir22  1  0.500000  0.749064  0.532988  1
  Rh  Rh23  1  0.000000  0.248198  0.464017  1
  Rh  Rh24  1  0.000000  0.017830  0.715837  1
  Rh  Rh25  1  0.000000  0.484638  0.214374  1
  Rh  Rh26  1  0.500000  0.988165  0.289880  1
  Rh  Rh27  1  0.500000  0.522567  0.773923  1
