# generated using pymatgen
data_PrHg4Se2Br5
_symmetry_space_group_name_H-M   'P 1'
_cell_length_a   8.75374861
_cell_length_b   11.37055300
_cell_length_c   9.49898700
_cell_angle_alpha   90.00000000
_cell_angle_beta   114.11024165
_cell_angle_gamma   90.00000000
_symmetry_Int_Tables_number   1
_chemical_formula_structural   PrHg4Se2Br5
_chemical_formula_sum   'Pr2 Hg8 Se4 Br10'
_cell_volume   862.99863440
_cell_formula_units_Z   2
loop_
 _symmetry_equiv_pos_site_id
 _symmetry_equiv_pos_as_xyz
  1  'x, y, z'
loop_
 _atom_site_type_symbol
 _atom_site_label
 _atom_site_symmetry_multiplicity
 _atom_site_fract_x
 _atom_site_fract_y
 _atom_site_fract_z
 _atom_site_occupancy
  Pr  Pr0  1  0.504934  0.433481  0.511461  1
  Pr  Pr1  1  0.495066  0.933481  0.488539  1
  Hg  Hg2  1  0.924813  0.187936  0.333098  1
  Hg  Hg3  1  0.075187  0.687936  0.666902  1
  Hg  Hg4  1  0.949776  0.661912  0.363525  1
  Hg  Hg5  1  0.050224  0.161912  0.636475  1
  Hg  Hg6  1  0.497579  0.182240  0.989473  1
  Hg  Hg7  1  0.502421  0.682240  0.010527  1
  Hg  Hg8  1  0.796677  0.432127  0.018358  1
  Hg  Hg9  1  0.203323  0.932127  0.981642  1
  Se  Se10  1  0.801795  0.205064  0.030178  1
  Se  Se11  1  0.198205  0.705064  0.969822  1
  Se  Se12  1  0.191695  0.157217  0.939772  1
  Se  Se13  1  0.808305  0.657217  0.060228  1
  Br  Br14  1  0.850434  0.924903  0.686711  1
  Br  Br15  1  0.149566  0.424903  0.313289  1
  Br  Br16  1  0.859224  0.440068  0.721581  1
  Br  Br17  1  0.140776  0.940068  0.278419  1
  Br  Br18  1  0.406760  0.459886  0.771049  1
  Br  Br19  1  0.593240  0.959886  0.228951  1
  Br  Br20  1  0.594069  0.388238  0.255616  1
  Br  Br21  1  0.405931  0.888238  0.744384  1
  Br  Br22  1  0.495605  0.180528  0.572415  1
  Br  Br23  1  0.504395  0.680528  0.427585  1
