# generated using pymatgen
data_Tb5Y3(HoGa5)4
_symmetry_space_group_name_H-M   'P 1'
_cell_length_a   6.11164803
_cell_length_b   9.65591904
_cell_length_c   11.56348202
_cell_angle_alpha   90.00223606
_cell_angle_beta   89.99357871
_cell_angle_gamma   89.99026635
_symmetry_Int_Tables_number   1
_chemical_formula_structural   Tb5Y3(HoGa5)4
_chemical_formula_sum   'Tb5 Y3 Ho4 Ga20'
_cell_volume   682.40244015
_cell_formula_units_Z   1
loop_
 _symmetry_equiv_pos_site_id
 _symmetry_equiv_pos_as_xyz
  1  'x, y, z'
loop_
 _atom_site_type_symbol
 _atom_site_label
 _atom_site_symmetry_multiplicity
 _atom_site_fract_x
 _atom_site_fract_y
 _atom_site_fract_z
 _atom_site_occupancy
  Tb  Tb0  1  0.890560  0.509352  0.351339  1
  Tb  Tb1  1  0.609457  0.990632  0.851412  1
  Tb  Tb2  1  0.109451  0.009323  0.648597  1
  Tb  Tb3  1  0.390593  0.490662  0.148604  1
  Tb  Tb4  1  0.109420  0.490723  0.648670  1
  Y  Y5  1  0.390540  0.009332  0.148755  1
  Y  Y6  1  0.890535  0.990715  0.351248  1
  Y  Y7  1  0.609466  0.509310  0.851336  1
  Ho  Ho8  1  0.848967  0.749940  0.075024  1
  Ho  Ho9  1  0.650986  0.750018  0.575004  1
  Ho  Ho10  1  0.151092  0.249941  0.925039  1
  Ho  Ho11  1  0.348958  0.250042  0.424960  1
  Ga  Ga12  1  0.875539  0.053755  0.089856  1
  Ga  Ga13  1  0.624351  0.446238  0.589879  1
  Ga  Ga14  1  0.124462  0.553769  0.910120  1
  Ga  Ga15  1  0.375544  0.946240  0.410128  1
  Ga  Ga16  1  0.124354  0.946228  0.910069  1
  Ga  Ga17  1  0.375627  0.553787  0.410140  1
  Ga  Ga18  1  0.875666  0.446218  0.089910  1
  Ga  Ga19  1  0.624348  0.053760  0.589914  1
  Ga  Ga20  1  0.172572  0.749976  0.252357  1
  Ga  Ga21  1  0.327442  0.750031  0.752398  1
  Ga  Ga22  1  0.827508  0.249982  0.747614  1
  Ga  Ga23  1  0.672571  0.250040  0.247620  1
  Ga  Ga24  1  0.373091  0.750017  0.004109  1
  Ga  Ga25  1  0.126939  0.749997  0.504040  1
  Ga  Ga26  1  0.626877  0.250019  0.995906  1
  Ga  Ga27  1  0.873116  0.249997  0.495964  1
  Ga  Ga28  1  0.601405  0.749959  0.299538  1
  Ga  Ga29  1  0.898598  0.749988  0.799503  1
  Ga  Ga30  1  0.398536  0.249973  0.700468  1
  Ga  Ga31  1  0.101429  0.250037  0.200479  1
