# generated using pymatgen
data_MgBiPtRhO7
_symmetry_space_group_name_H-M   'P 1'
_cell_length_a   7.14017055
_cell_length_b   7.28447213
_cell_length_c   7.14017055
_cell_angle_alpha   59.32918048
_cell_angle_beta   58.90161082
_cell_angle_gamma   59.32918769
_symmetry_Int_Tables_number   1
_chemical_formula_structural   MgBiPtRhO7
_chemical_formula_sum   'Mg2 Bi2 Pt2 Rh2 O14'
_cell_volume   257.72691822
_cell_formula_units_Z   2
loop_
 _symmetry_equiv_pos_site_id
 _symmetry_equiv_pos_as_xyz
  1  'x, y, z'
loop_
 _atom_site_type_symbol
 _atom_site_label
 _atom_site_symmetry_multiplicity
 _atom_site_fract_x
 _atom_site_fract_y
 _atom_site_fract_z
 _atom_site_occupancy
  Mg  Mg0  1  0.125000  0.125000  0.625000  1
  Mg  Mg1  1  0.625000  0.125000  0.125000  1
  Bi  Bi2  1  0.125000  0.625000  0.125000  1
  Bi  Bi3  1  0.125000  0.125000  0.125000  1
  Pt  Pt4  1  0.625000  0.125000  0.625000  1
  Pt  Pt5  1  0.625000  0.625000  0.625000  1
  Rh  Rh6  1  0.625000  0.625000  0.125000  1
  Rh  Rh7  1  0.125000  0.625000  0.625000  1
  O  O8  1  0.257368  0.242632  0.257368  1
  O  O9  1  0.992632  0.007368  0.992632  1
  O  O10  1  0.532625  0.967375  0.532625  1
  O  O11  1  0.287201  0.712799  0.287201  1
  O  O12  1  0.538842  0.531597  0.966882  1
  O  O13  1  0.966882  0.531597  0.538842  1
  O  O14  1  0.538842  0.962678  0.966882  1
  O  O15  1  0.966882  0.962678  0.538842  1
  O  O16  1  0.962799  0.537201  0.962799  1
  O  O17  1  0.711158  0.287322  0.283118  1
  O  O18  1  0.283118  0.718403  0.711158  1
  O  O19  1  0.717375  0.282625  0.717375  1
  O  O20  1  0.283118  0.287322  0.711158  1
  O  O21  1  0.711158  0.718403  0.283118  1
