# generated using pymatgen
data_LuHf7Sc7Si16W5
_symmetry_space_group_name_H-M   'P 1'
_cell_length_a   6.73492902
_cell_length_b   6.93602823
_cell_length_c   13.30836333
_cell_angle_alpha   89.95668824
_cell_angle_beta   90.20519656
_cell_angle_gamma   89.84855395
_symmetry_Int_Tables_number   1
_chemical_formula_structural   LuHf7Sc7Si16W5
_chemical_formula_sum   'Lu1 Hf7 Sc7 Si16 W5'
_cell_volume   621.67598967
_cell_formula_units_Z   1
loop_
 _symmetry_equiv_pos_site_id
 _symmetry_equiv_pos_as_xyz
  1  'x, y, z'
loop_
 _atom_site_type_symbol
 _atom_site_label
 _atom_site_symmetry_multiplicity
 _atom_site_fract_x
 _atom_site_fract_y
 _atom_site_fract_z
 _atom_site_occupancy
  Lu  Lu0  1  0.501599  0.673848  0.594063  1
  Hf  Hf1  1  0.665446  0.173230  0.624265  1
  Hf  Hf2  1  0.170307  0.326304  0.873232  1
  Hf  Hf3  1  0.328856  0.826623  0.126087  1
  Hf  Hf4  1  0.832848  0.670167  0.376373  1
  Hf  Hf5  1  0.328578  0.825739  0.376033  1
  Hf  Hf6  1  0.829497  0.672795  0.126134  1
  Hf  Hf7  1  0.671776  0.173164  0.872119  1
  Sc  Sc8  1  0.007581  0.824198  0.901049  1
  Sc  Sc9  1  0.494765  0.322386  0.097348  1
  Sc  Sc10  1  0.997407  0.177671  0.408095  1
  Sc  Sc11  1  0.496717  0.322817  0.402849  1
  Sc  Sc12  1  0.993719  0.175871  0.096122  1
  Sc  Sc13  1  0.503224  0.674381  0.902226  1
  Sc  Sc14  1  0.004336  0.823523  0.595418  1
  Si  Si15  1  0.666607  0.974942  0.455462  1
  Si  Si16  1  0.165773  0.527244  0.042038  1
  Si  Si17  1  0.335474  0.026874  0.956516  1
  Si  Si18  1  0.848566  0.468872  0.546116  1
  Si  Si19  1  0.320972  0.040967  0.542935  1
  Si  Si20  1  0.835094  0.473258  0.956263  1
  Si  Si21  1  0.663812  0.972171  0.042315  1
  Si  Si22  1  0.170979  0.527675  0.464228  1
  Si  Si23  1  0.465461  0.392500  0.749010  1
  Si  Si24  1  0.973663  0.110011  0.745656  1
  Si  Si25  1  0.529536  0.603117  0.250903  1
  Si  Si26  1  0.027759  0.897417  0.251417  1
  Si  Si27  1  0.710299  0.857691  0.749413  1
  Si  Si28  1  0.203524  0.641325  0.749059  1
  Si  Si29  1  0.290589  0.144270  0.251027  1
  Si  Si30  1  0.794230  0.353434  0.250544  1
  W  W31  1  0.171580  0.329689  0.627702  1
  W  W32  1  0.842282  0.492406  0.748154  1
  W  W33  1  0.341923  0.006129  0.748155  1
  W  W34  1  0.158695  0.503031  0.251085  1
  W  W35  1  0.656530  0.994263  0.250585  1
