# generated using pymatgen
data_Sm7Pt16
_symmetry_space_group_name_H-M   'P 1'
_cell_length_a   9.48568324
_cell_length_b   9.48568252
_cell_length_c   9.48568313
_cell_angle_alpha   131.75198650
_cell_angle_beta   131.75198605
_cell_angle_gamma   70.62102114
_symmetry_Int_Tables_number   1
_chemical_formula_structural   Sm7Pt16
_chemical_formula_sum   'Sm7 Pt16'
_cell_volume   465.38187136
_cell_formula_units_Z   1
loop_
 _symmetry_equiv_pos_site_id
 _symmetry_equiv_pos_as_xyz
  1  'x, y, z'
loop_
 _atom_site_type_symbol
 _atom_site_label
 _atom_site_symmetry_multiplicity
 _atom_site_fract_x
 _atom_site_fract_y
 _atom_site_fract_z
 _atom_site_occupancy
  Sm  Sm0  1  0.104626  0.104626  0.424191  1
  Sm  Sm1  1  0.680434  0.680434  0.575809  1
  Sm  Sm2  1  0.895374  0.319566  0.000000  1
  Sm  Sm3  1  0.750000  0.250000  0.500000  1
  Sm  Sm4  1  0.500000  0.500000  0.000000  1
  Sm  Sm5  1  0.319566  0.895374  0.000000  1
  Sm  Sm6  1  0.250000  0.750000  0.500000  1
  Pt  Pt7  1  0.434921  0.190030  0.000000  1
  Pt  Pt8  1  0.683630  0.934791  0.488843  1
  Pt  Pt9  1  0.934791  0.683630  0.488843  1
  Pt  Pt10  1  0.190030  0.434921  0.000000  1
  Pt  Pt11  1  0.316370  0.805212  0.251160  1
  Pt  Pt12  1  0.938615  0.676395  0.000000  1
  Pt  Pt13  1  0.809970  0.809970  0.244892  1
  Pt  Pt14  1  0.065209  0.554051  0.748840  1
  Pt  Pt15  1  0.061385  0.061385  0.737780  1
  Pt  Pt16  1  0.676395  0.938615  0.000000  1
  Pt  Pt17  1  0.565079  0.565079  0.755108  1
  Pt  Pt18  1  0.805212  0.316370  0.251160  1
  Pt  Pt19  1  0.554051  0.065209  0.748840  1
  Pt  Pt20  1  0.194788  0.445949  0.511157  1
  Pt  Pt21  1  0.323605  0.323605  0.262220  1
  Pt  Pt22  1  0.445949  0.194788  0.511157  1
