# generated using pymatgen
data_Ho3In3CoHg2
_symmetry_space_group_name_H-M   'P 1'
_cell_length_a   3.97456900
_cell_length_b   7.75812926
_cell_length_c   7.75613700
_cell_angle_alpha   120.00850749
_cell_angle_beta   90.00000000
_cell_angle_gamma   90.00000000
_symmetry_Int_Tables_number   1
_chemical_formula_structural   Ho3In3CoHg2
_chemical_formula_sum   'Ho3 In3 Co1 Hg2'
_cell_volume   207.10277499
_cell_formula_units_Z   1
loop_
 _symmetry_equiv_pos_site_id
 _symmetry_equiv_pos_as_xyz
  1  'x, y, z'
loop_
 _atom_site_type_symbol
 _atom_site_label
 _atom_site_symmetry_multiplicity
 _atom_site_fract_x
 _atom_site_fract_y
 _atom_site_fract_z
 _atom_site_occupancy
  Ho  Ho0  1  0.500000  0.387572  0.000000  1
  Ho  Ho1  1  0.500000  0.612136  0.612078  1
  Ho  Ho2  1  0.500000  0.000058  0.387922  1
  In  In3  1  0.000000  0.760863  0.000000  1
  In  In4  1  0.000000  0.239127  0.239315  1
  In  In5  1  0.000000  0.999812  0.760685  1
  Co  Co6  1  0.500000  0.000069  0.000000  1
  Hg  Hg7  1  0.000000  0.666743  0.333020  1
  Hg  Hg8  1  0.000000  0.333723  0.666980  1
