# generated using pymatgen
data_Dy3Ho5Sc12(SiGe)8
_symmetry_space_group_name_H-M   'P 1'
_cell_length_a   7.16539610
_cell_length_b   7.40103219
_cell_length_c   14.05856685
_cell_angle_alpha   90.00705171
_cell_angle_beta   90.12041172
_cell_angle_gamma   89.97489674
_symmetry_Int_Tables_number   1
_chemical_formula_structural   Dy3Ho5Sc12(SiGe)8
_chemical_formula_sum   'Dy3 Ho5 Sc12 Si8 Ge8'
_cell_volume   745.54273468
_cell_formula_units_Z   1
loop_
 _symmetry_equiv_pos_site_id
 _symmetry_equiv_pos_as_xyz
  1  'x, y, z'
loop_
 _atom_site_type_symbol
 _atom_site_label
 _atom_site_symmetry_multiplicity
 _atom_site_fract_x
 _atom_site_fract_y
 _atom_site_fract_z
 _atom_site_occupancy
  Dy  Dy0  1  0.002555  0.176792  0.401518  1
  Dy  Dy1  1  0.502881  0.322981  0.401548  1
  Dy  Dy2  1  0.497358  0.677105  0.598678  1
  Ho  Ho3  1  0.001855  0.177417  0.098299  1
  Ho  Ho4  1  0.998196  0.822670  0.901691  1
  Ho  Ho5  1  0.498331  0.677437  0.901447  1
  Ho  Ho6  1  0.997600  0.823043  0.598847  1
  Ho  Ho7  1  0.501782  0.322610  0.098306  1
  Sc  Sc8  1  0.173908  0.500640  0.750497  1
  Sc  Sc9  1  0.825772  0.499579  0.249448  1
  Sc  Sc10  1  0.325762  0.000592  0.249407  1
  Sc  Sc11  1  0.674059  0.999267  0.750387  1
  Sc  Sc12  1  0.342813  0.172361  0.626308  1
  Sc  Sc13  1  0.657124  0.827398  0.373709  1
  Sc  Sc14  1  0.156942  0.672804  0.373565  1
  Sc  Sc15  1  0.655662  0.827950  0.125808  1
  Sc  Sc16  1  0.842984  0.327277  0.626520  1
  Sc  Sc17  1  0.344163  0.172096  0.874065  1
  Sc  Sc18  1  0.844203  0.327911  0.874033  1
  Sc  Sc19  1  0.155880  0.672091  0.125876  1
  Si  Si20  1  0.045845  0.116931  0.750157  1
  Si  Si21  1  0.953995  0.882854  0.249776  1
  Si  Si22  1  0.454172  0.617287  0.249888  1
  Si  Si23  1  0.545754  0.382637  0.750104  1
  Si  Si24  1  0.296329  0.871807  0.750234  1
  Si  Si25  1  0.703360  0.128103  0.249631  1
  Si  Si26  1  0.203475  0.371872  0.249647  1
  Si  Si27  1  0.796849  0.628413  0.750231  1
  Ge  Ge28  1  0.174980  0.460390  0.540803  1
  Ge  Ge29  1  0.825211  0.540240  0.459570  1
  Ge  Ge30  1  0.324021  0.959676  0.459551  1
  Ge  Ge31  1  0.821948  0.539706  0.040594  1
  Ge  Ge32  1  0.676264  0.039679  0.540835  1
  Ge  Ge33  1  0.178090  0.460181  0.959245  1
  Ge  Ge34  1  0.678017  0.040029  0.959216  1
  Ge  Ge35  1  0.321861  0.960172  0.040561  1
