# generated using pymatgen
data_Y3Mg(Si4Tc3)2
_symmetry_space_group_name_H-M   'P 1'
_cell_length_a   6.78660196
_cell_length_b   6.64630245
_cell_length_c   6.76605207
_cell_angle_alpha   70.47382427
_cell_angle_beta   89.85853921
_cell_angle_gamma   90.07971620
_symmetry_Int_Tables_number   1
_chemical_formula_structural   Y3Mg(Si4Tc3)2
_chemical_formula_sum   'Y3 Mg1 Si8 Tc6'
_cell_volume   287.63486684
_cell_formula_units_Z   1
loop_
 _symmetry_equiv_pos_site_id
 _symmetry_equiv_pos_as_xyz
  1  'x, y, z'
loop_
 _atom_site_type_symbol
 _atom_site_label
 _atom_site_symmetry_multiplicity
 _atom_site_fract_x
 _atom_site_fract_y
 _atom_site_fract_z
 _atom_site_occupancy
  Y  Y0  1  0.330648  0.441728  0.193252  1
  Y  Y1  1  0.834319  0.056977  0.810537  1
  Y  Y2  1  0.666058  0.560127  0.806291  1
  Mg  Mg3  1  0.169917  0.952945  0.182783  1
  Si  Si4  1  0.542017  0.117912  0.104772  1
  Si  Si5  1  0.351574  0.643856  0.503415  1
  Si  Si6  1  0.869227  0.865965  0.482250  1
  Si  Si7  1  0.048918  0.376649  0.901002  1
  Si  Si8  1  0.142907  0.123888  0.508830  1
  Si  Si9  1  0.641139  0.366714  0.486599  1
  Si  Si10  1  0.952434  0.623552  0.107994  1
  Si  Si11  1  0.448357  0.879511  0.902007  1
  Tc  Tc12  1  0.848379  0.236335  0.237041  1
  Tc  Tc13  1  0.345502  0.258256  0.762769  1
  Tc  Tc14  1  0.153636  0.752460  0.771693  1
  Tc  Tc15  1  0.653913  0.742568  0.238866  1
  Tc  Tc16  1  0.497754  0.998148  0.500671  1
  Tc  Tc17  1  0.003303  0.502409  0.499227  1
