# generated using pymatgen
data_Y5Ho5Si6O
_symmetry_space_group_name_H-M   'P 1'
_cell_length_a   8.40702126
_cell_length_b   8.40555188
_cell_length_c   6.27320265
_cell_angle_alpha   90.05215469
_cell_angle_beta   89.97393341
_cell_angle_gamma   119.99421244
_symmetry_Int_Tables_number   1
_chemical_formula_structural   Y5Ho5Si6O
_chemical_formula_sum   'Y5 Ho5 Si6 O1'
_cell_volume   383.93125851
_cell_formula_units_Z   1
loop_
 _symmetry_equiv_pos_site_id
 _symmetry_equiv_pos_as_xyz
  1  'x, y, z'
loop_
 _atom_site_type_symbol
 _atom_site_label
 _atom_site_symmetry_multiplicity
 _atom_site_fract_x
 _atom_site_fract_y
 _atom_site_fract_z
 _atom_site_occupancy
  Y  Y0  1  0.237070  0.236979  0.258588  1
  Y  Y1  1  0.762930  0.999909  0.258588  1
  Y  Y2  1  0.000000  0.237291  0.741288  1
  Y  Y3  1  0.763001  0.762718  0.741454  1
  Y  Y4  1  0.236999  0.999717  0.741454  1
  Ho  Ho5  1  0.333091  0.666728  0.499918  1
  Ho  Ho6  1  0.666909  0.333636  0.499918  1
  Ho  Ho7  1  0.666907  0.333605  0.000100  1
  Ho  Ho8  1  0.333093  0.666698  0.000100  1
  Ho  Ho9  1  0.000000  0.763717  0.260229  1
  Si  Si10  1  0.000000  0.398351  0.249320  1
  Si  Si11  1  0.603088  0.602602  0.249429  1
  Si  Si12  1  0.396912  0.999514  0.249429  1
  Si  Si13  1  0.000000  0.602360  0.750546  1
  Si  Si14  1  0.397711  0.397740  0.750586  1
  Si  Si15  1  0.602289  0.000029  0.750586  1
  O  O16  1  0.000000  0.998403  0.498467  1
