# generated using pymatgen
data_FeBi2Pd3O8
_symmetry_space_group_name_H-M   'P 1'
_cell_length_a   5.63189656
_cell_length_b   6.13194163
_cell_length_c   6.55573304
_cell_angle_alpha   114.60670674
_cell_angle_beta   96.70479068
_cell_angle_gamma   110.49730365
_symmetry_Int_Tables_number   1
_chemical_formula_structural   FeBi2Pd3O8
_chemical_formula_sum   'Fe1 Bi2 Pd3 O8'
_cell_volume   183.41504749
_cell_formula_units_Z   1
loop_
 _symmetry_equiv_pos_site_id
 _symmetry_equiv_pos_as_xyz
  1  'x, y, z'
loop_
 _atom_site_type_symbol
 _atom_site_label
 _atom_site_symmetry_multiplicity
 _atom_site_fract_x
 _atom_site_fract_y
 _atom_site_fract_z
 _atom_site_occupancy
  Fe  Fe0  1  0.500000  0.500000  0.000000  1
  Bi  Bi1  1  0.857080  0.244684  0.652474  1
  Bi  Bi2  1  0.142920  0.755316  0.347526  1
  Pd  Pd3  1  0.500000  0.500000  0.500000  1
  Pd  Pd4  1  0.500000  0.000000  0.000000  1
  Pd  Pd5  1  0.000000  0.000000  0.000000  1
  O  O6  1  0.645737  0.396925  0.227615  1
  O  O7  1  0.354263  0.603075  0.772385  1
  O  O8  1  0.876004  0.647802  0.992030  1
  O  O9  1  0.123996  0.352198  0.007970  1
  O  O10  1  0.523989  0.870942  0.243861  1
  O  O11  1  0.476011  0.129058  0.756139  1
  O  O12  1  0.841905  0.855942  0.646735  1
  O  O13  1  0.158095  0.144058  0.353265  1
