# generated using pymatgen
data_Lu4Re2Ru5W
_symmetry_space_group_name_H-M   'P 1'
_cell_length_a   5.45127453
_cell_length_b   5.22426864
_cell_length_c   8.97684100
_cell_angle_alpha   90.00000000
_cell_angle_beta   90.00000000
_cell_angle_gamma   122.69073293
_symmetry_Int_Tables_number   1
_chemical_formula_structural   Lu4Re2Ru5W
_chemical_formula_sum   'Lu4 Re2 Ru5 W1'
_cell_volume   215.15520633
_cell_formula_units_Z   1
loop_
 _symmetry_equiv_pos_site_id
 _symmetry_equiv_pos_as_xyz
  1  'x, y, z'
loop_
 _atom_site_type_symbol
 _atom_site_label
 _atom_site_symmetry_multiplicity
 _atom_site_fract_x
 _atom_site_fract_y
 _atom_site_fract_z
 _atom_site_occupancy
  Lu  Lu0  1  0.335232  0.663516  0.433981  1
  Lu  Lu1  1  0.670188  0.344095  0.564429  1
  Lu  Lu2  1  0.670188  0.344095  0.935571  1
  Lu  Lu3  1  0.335232  0.663516  0.066019  1
  Re  Re4  1  0.338446  0.173176  0.250000  1
  Re  Re5  1  0.824597  0.665725  0.250000  1
  Ru  Ru6  1  0.167428  0.817636  0.750000  1
  Ru  Ru7  1  0.645826  0.817789  0.750000  1
  Ru  Ru8  1  0.016538  0.007016  0.999899  1
  Ru  Ru9  1  0.823813  0.175959  0.250000  1
  Ru  Ru10  1  0.016538  0.007016  0.500101  1
  W  W11  1  0.155972  0.320459  0.750000  1
