# generated using pymatgen
data_HoEr2Pa(ZnRh)4
_symmetry_space_group_name_H-M   'P 1'
_cell_length_a   3.83545200
_cell_length_b   7.12221988
_cell_length_c   8.30112409
_cell_angle_alpha   90.87564057
_cell_angle_beta   90.00000000
_cell_angle_gamma   90.00000000
_symmetry_Int_Tables_number   1
_chemical_formula_structural   HoEr2Pa(ZnRh)4
_chemical_formula_sum   'Ho1 Er2 Pa1 Zn4 Rh4'
_cell_volume   226.73476505
_cell_formula_units_Z   1
loop_
 _symmetry_equiv_pos_site_id
 _symmetry_equiv_pos_as_xyz
  1  'x, y, z'
loop_
 _atom_site_type_symbol
 _atom_site_label
 _atom_site_symmetry_multiplicity
 _atom_site_fract_x
 _atom_site_fract_y
 _atom_site_fract_z
 _atom_site_occupancy
  Ho  Ho0  1  0.250000  0.053629  0.320570  1
  Er  Er1  1  0.750000  0.442437  0.808156  1
  Er  Er2  1  0.750000  0.940000  0.687730  1
  Pa  Pa3  1  0.250000  0.553420  0.179489  1
  Zn  Zn4  1  0.250000  0.620039  0.564124  1
  Zn  Zn5  1  0.750000  0.371031  0.443199  1
  Zn  Zn6  1  0.750000  0.894082  0.062756  1
  Zn  Zn7  1  0.250000  0.126673  0.934736  1
  Rh  Rh8  1  0.250000  0.738754  0.887855  1
  Rh  Rh9  1  0.750000  0.283153  0.128618  1
  Rh  Rh10  1  0.750000  0.742634  0.356330  1
  Rh  Rh11  1  0.250000  0.234149  0.626436  1
