# generated using pymatgen
data_Ti20Si9P7
_symmetry_space_group_name_H-M   'P 1'
_cell_length_a   6.61892389
_cell_length_b   6.62820879
_cell_length_c   12.06932401
_cell_angle_alpha   89.90404846
_cell_angle_beta   90.04093013
_cell_angle_gamma   89.92370420
_symmetry_Int_Tables_number   1
_chemical_formula_structural   Ti20Si9P7
_chemical_formula_sum   'Ti20 Si9 P7'
_cell_volume   529.49932218
_cell_formula_units_Z   1
loop_
 _symmetry_equiv_pos_site_id
 _symmetry_equiv_pos_as_xyz
  1  'x, y, z'
loop_
 _atom_site_type_symbol
 _atom_site_label
 _atom_site_symmetry_multiplicity
 _atom_site_fract_x
 _atom_site_fract_y
 _atom_site_fract_z
 _atom_site_occupancy
  Ti  Ti0  1  0.994157  0.155380  0.622709  1
  Ti  Ti1  1  0.347764  0.491093  0.874512  1
  Ti  Ti2  1  0.652631  0.509038  0.373650  1
  Ti  Ti3  1  0.490705  0.347349  0.126263  1
  Ti  Ti4  1  0.506668  0.648336  0.624767  1
  Ti  Ti5  1  0.009129  0.847269  0.123854  1
  Ti  Ti6  1  0.152807  0.991131  0.375838  1
  Ti  Ti7  1  0.847847  0.010274  0.878556  1
  Ti  Ti8  1  0.002632  0.347920  0.221602  1
  Ti  Ti9  1  0.151596  0.502281  0.471564  1
  Ti  Ti10  1  0.847750  0.498254  0.971552  1
  Ti  Ti11  1  0.501218  0.152208  0.527295  1
  Ti  Ti12  1  0.497192  0.848247  0.029239  1
  Ti  Ti13  1  0.998011  0.651043  0.721206  1
  Ti  Ti14  1  0.344131  0.003485  0.779933  1
  Ti  Ti15  1  0.652166  0.997847  0.278203  1
  Ti  Ti16  1  0.173351  0.173413  0.000392  1
  Ti  Ti17  1  0.327083  0.673216  0.249957  1
  Ti  Ti18  1  0.673771  0.328991  0.750852  1
  Ti  Ti19  1  0.828249  0.825190  0.497786  1
  Si  Si20  1  0.699660  0.953380  0.686051  1
  Si  Si21  1  0.297570  0.357947  0.671518  1
  Si  Si22  1  0.140328  0.795536  0.921097  1
  Si  Si23  1  0.858803  0.203011  0.420869  1
  Si  Si24  1  0.796326  0.141124  0.079850  1
  Si  Si25  1  0.203422  0.859666  0.579691  1
  Si  Si26  1  0.703499  0.640273  0.170738  1
  Si  Si27  1  0.359409  0.296648  0.329185  1
  Si  Si28  1  0.640232  0.705904  0.827684  1
  P  P29  1  0.046119  0.299900  0.813816  1
  P  P30  1  0.199616  0.545643  0.063843  1
  P  P31  1  0.800419  0.454444  0.564110  1
  P  P32  1  0.545628  0.199256  0.936027  1
  P  P33  1  0.454679  0.800655  0.436342  1
  P  P34  1  0.954938  0.699058  0.313224  1
  P  P35  1  0.300493  0.045591  0.186221  1
