# generated using pymatgen
data_HfZr(Ni2As)4
_symmetry_space_group_name_H-M   'P 1'
_cell_length_a   7.05998086
_cell_length_b   7.05998086
_cell_length_c   3.76897300
_cell_angle_alpha   90.00000000
_cell_angle_beta   90.00000000
_cell_angle_gamma   90.18149672
_symmetry_Int_Tables_number   1
_chemical_formula_structural   HfZr(Ni2As)4
_chemical_formula_sum   'Hf1 Zr1 Ni8 As4'
_cell_volume   187.85722126
_cell_formula_units_Z   1
loop_
 _symmetry_equiv_pos_site_id
 _symmetry_equiv_pos_as_xyz
  1  'x, y, z'
loop_
 _atom_site_type_symbol
 _atom_site_label
 _atom_site_symmetry_multiplicity
 _atom_site_fract_x
 _atom_site_fract_y
 _atom_site_fract_z
 _atom_site_occupancy
  Hf  Hf0  1  0.500000  0.500000  0.000000  1
  Zr  Zr1  1  0.000000  0.000000  0.500000  1
  Ni  Ni2  1  0.590111  0.156551  0.500000  1
  Ni  Ni3  1  0.409889  0.843449  0.500000  1
  Ni  Ni4  1  0.091651  0.345569  0.000000  1
  Ni  Ni5  1  0.908349  0.654431  0.000000  1
  Ni  Ni6  1  0.156551  0.590111  0.500000  1
  Ni  Ni7  1  0.843449  0.409889  0.500000  1
  Ni  Ni8  1  0.345569  0.091651  0.000000  1
  Ni  Ni9  1  0.654431  0.908349  0.000000  1
  As  As10  1  0.716105  0.716105  0.500000  1
  As  As11  1  0.283895  0.283895  0.500000  1
  As  As12  1  0.217167  0.782833  0.000000  1
  As  As13  1  0.782833  0.217167  0.000000  1
