# generated using pymatgen
data_NdMn2SiC
_symmetry_space_group_name_H-M   'P 1'
_cell_length_a   5.68071517
_cell_length_b   5.68071481
_cell_length_c   7.09248800
_cell_angle_alpha   90.00000000
_cell_angle_beta   90.00000000
_cell_angle_gamma   140.44668704
_symmetry_Int_Tables_number   1
_chemical_formula_structural   NdMn2SiC
_chemical_formula_sum   'Nd2 Mn4 Si2 C2'
_cell_volume   145.74876729
_cell_formula_units_Z   2
loop_
 _symmetry_equiv_pos_site_id
 _symmetry_equiv_pos_as_xyz
  1  'x, y, z'
loop_
 _atom_site_type_symbol
 _atom_site_label
 _atom_site_symmetry_multiplicity
 _atom_site_fract_x
 _atom_site_fract_y
 _atom_site_fract_z
 _atom_site_occupancy
  Nd  Nd0  1  0.545793  0.454207  0.250000  1
  Nd  Nd1  1  0.454207  0.545793  0.750000  1
  Mn  Mn2  1  0.832015  0.167985  0.062509  1
  Mn  Mn3  1  0.167985  0.832015  0.937491  1
  Mn  Mn4  1  0.167985  0.832015  0.562509  1
  Mn  Mn5  1  0.832015  0.167985  0.437491  1
  Si  Si6  1  0.267025  0.732975  0.250000  1
  Si  Si7  1  0.732975  0.267025  0.750000  1
  C  C8  1  0.000000  0.000000  0.000000  1
  C  C9  1  0.000000  0.000000  0.500000  1
