# generated using pymatgen
data_Lu4CdPt11
_symmetry_space_group_name_H-M   'P 1'
_cell_length_a   4.14988600
_cell_length_b   5.77127059
_cell_length_c   11.56195122
_cell_angle_alpha   88.39214637
_cell_angle_beta   90.00000000
_cell_angle_gamma   90.00000000
_symmetry_Int_Tables_number   1
_chemical_formula_structural   Lu4CdPt11
_chemical_formula_sum   'Lu4 Cd1 Pt11'
_cell_volume   276.80103639
_cell_formula_units_Z   1
loop_
 _symmetry_equiv_pos_site_id
 _symmetry_equiv_pos_as_xyz
  1  'x, y, z'
loop_
 _atom_site_type_symbol
 _atom_site_label
 _atom_site_symmetry_multiplicity
 _atom_site_fract_x
 _atom_site_fract_y
 _atom_site_fract_z
 _atom_site_occupancy
  Lu  Lu0  1  0.500000  0.758935  0.374915  1
  Lu  Lu1  1  0.500000  0.720158  0.865168  1
  Lu  Lu2  1  0.500000  0.279842  0.134832  1
  Lu  Lu3  1  0.500000  0.241065  0.625085  1
  Cd  Cd4  1  0.000000  0.000000  0.000000  1
  Pt  Pt5  1  0.000000  0.017996  0.250609  1
  Pt  Pt6  1  0.000000  0.982004  0.749391  1
  Pt  Pt7  1  0.000000  0.500000  0.000000  1
  Pt  Pt8  1  0.000000  0.500000  0.500000  1
  Pt  Pt9  1  0.000000  0.519738  0.250165  1
  Pt  Pt10  1  0.000000  0.480262  0.749835  1
  Pt  Pt11  1  0.500000  0.257694  0.377665  1
  Pt  Pt12  1  0.500000  0.230240  0.877224  1
  Pt  Pt13  1  0.500000  0.769760  0.122776  1
  Pt  Pt14  1  0.500000  0.742306  0.622335  1
  Pt  Pt15  1  0.000000  0.000000  0.500000  1
