# generated using pymatgen
data_Er2Ga9IrRh2
_symmetry_space_group_name_H-M   'P 1'
_cell_length_a   7.55523745
_cell_length_b   7.55523874
_cell_length_c   9.48293801
_cell_angle_alpha   90.01779270
_cell_angle_beta   90.01778946
_cell_angle_gamma   119.64360029
_symmetry_Int_Tables_number   1
_chemical_formula_structural   Er2Ga9IrRh2
_chemical_formula_sum   'Er4 Ga18 Ir2 Rh4'
_cell_volume   470.45521274
_cell_formula_units_Z   2
loop_
 _symmetry_equiv_pos_site_id
 _symmetry_equiv_pos_as_xyz
  1  'x, y, z'
loop_
 _atom_site_type_symbol
 _atom_site_label
 _atom_site_symmetry_multiplicity
 _atom_site_fract_x
 _atom_site_fract_y
 _atom_site_fract_z
 _atom_site_occupancy
  Er  Er0  1  0.997702  0.669189  0.248613  1
  Er  Er1  1  0.002298  0.330811  0.751387  1
  Er  Er2  1  0.669189  0.997702  0.248613  1
  Er  Er3  1  0.330811  0.002298  0.751387  1
  Ga  Ga4  1  0.339085  0.548698  0.250662  1
  Ga  Ga5  1  0.660915  0.451302  0.749338  1
  Ga  Ga6  1  0.548698  0.339085  0.250662  1
  Ga  Ga7  1  0.451302  0.660915  0.749338  1
  Ga  Ga8  1  0.000377  0.334459  0.081576  1
  Ga  Ga9  1  0.999623  0.665541  0.918424  1
  Ga  Ga10  1  0.999708  0.664717  0.581160  1
  Ga  Ga11  1  0.335283  0.000292  0.418840  1
  Ga  Ga12  1  0.000292  0.335283  0.418840  1
  Ga  Ga13  1  0.664717  0.999708  0.581160  1
  Ga  Ga14  1  0.665541  0.999623  0.918424  1
  Ga  Ga15  1  0.334459  0.000377  0.081576  1
  Ga  Ga16  1  0.331281  0.331281  0.566617  1
  Ga  Ga17  1  0.668719  0.668719  0.433383  1
  Ga  Ga18  1  0.668830  0.668830  0.066524  1
  Ga  Ga19  1  0.331170  0.331170  0.933476  1
  Ga  Ga20  1  0.125642  0.125642  0.249916  1
  Ga  Ga21  1  0.874358  0.874358  0.750084  1
  Ir  Ir22  1  0.672091  0.327909  0.000000  1
  Ir  Ir23  1  0.327909  0.672091  0.000000  1
  Rh  Rh24  1  0.328308  0.671692  0.500000  1
  Rh  Rh25  1  0.671692  0.328308  0.500000  1
  Rh  Rh26  1  0.000000  0.000000  0.000000  1
  Rh  Rh27  1  0.000000  0.000000  0.500000  1
