# generated using pymatgen
data_Zr8Mn8Si11Ge3
_symmetry_space_group_name_H-M   'P 1'
_cell_length_a   9.70117673
_cell_length_b   9.70062124
_cell_length_c   9.69933116
_cell_angle_alpha   94.01729565
_cell_angle_beta   94.08607034
_cell_angle_gamma   149.17261436
_symmetry_Int_Tables_number   1
_chemical_formula_structural   Zr8Mn8Si11Ge3
_chemical_formula_sum   'Zr8 Mn8 Si11 Ge3'
_cell_volume   450.92568047
_cell_formula_units_Z   1
loop_
 _symmetry_equiv_pos_site_id
 _symmetry_equiv_pos_as_xyz
  1  'x, y, z'
loop_
 _atom_site_type_symbol
 _atom_site_label
 _atom_site_symmetry_multiplicity
 _atom_site_fract_x
 _atom_site_fract_y
 _atom_site_fract_z
 _atom_site_occupancy
  Zr  Zr0  1  0.142789  0.139430  0.282169  1
  Zr  Zr1  1  0.858909  0.859262  0.718218  1
  Zr  Zr2  1  0.140967  0.859208  0.000285  1
  Zr  Zr3  1  0.857280  0.139409  0.996577  1
  Zr  Zr4  1  0.299658  0.499971  0.799677  1
  Zr  Zr5  1  0.700296  0.500038  0.200310  1
  Zr  Zr6  1  0.499996  0.698314  0.198373  1
  Zr  Zr7  1  0.500057  0.299982  0.799925  1
  Mn  Mn8  1  0.602599  0.398249  0.500655  1
  Mn  Mn9  1  0.897514  0.101847  0.502294  1
  Mn  Mn10  1  0.102520  0.604798  0.204366  1
  Mn  Mn11  1  0.397398  0.898042  0.795645  1
  Mn  Mn12  1  0.599548  0.101835  0.204330  1
  Mn  Mn13  1  0.897585  0.398233  0.795611  1
  Mn  Mn14  1  0.102389  0.898055  0.500648  1
  Mn  Mn15  1  0.400448  0.604793  0.502287  1
  Si  Si16  1  0.290725  0.290705  0.581214  1
  Si  Si17  1  0.709301  0.709380  0.418888  1
  Si  Si18  1  0.290301  0.709150  0.999929  1
  Si  Si19  1  0.709539  0.290778  0.999828  1
  Si  Si20  1  0.090279  0.500514  0.590985  1
  Si  Si21  1  0.909706  0.500687  0.410343  1
  Si  Si22  1  0.499971  0.910094  0.410292  1
  Si  Si23  1  0.500230  0.090998  0.590832  1
  Si  Si24  1  0.298413  0.000384  0.298860  1
  Si  Si25  1  0.701602  0.000456  0.701859  1
  Si  Si26  1  0.999828  0.702014  0.702248  1
  Ge  Ge27  1  0.000153  0.293706  0.293685  1
  Ge  Ge28  1  0.250383  0.250216  0.999831  1
  Ge  Ge29  1  0.749616  0.749455  0.999834  1
