# generated using pymatgen
data_Ce3Th(TcC2)2
_symmetry_space_group_name_H-M   'P 1'
_cell_length_a   5.25898000
_cell_length_b   6.61447900
_cell_length_c   9.98516400
_cell_angle_alpha   90.00000000
_cell_angle_beta   90.00000000
_cell_angle_gamma   90.00000000
_symmetry_Int_Tables_number   1
_chemical_formula_structural   Ce3Th(TcC2)2
_chemical_formula_sum   'Ce6 Th2 Tc4 C8'
_cell_volume   347.33805133
_cell_formula_units_Z   2
loop_
 _symmetry_equiv_pos_site_id
 _symmetry_equiv_pos_as_xyz
  1  'x, y, z'
loop_
 _atom_site_type_symbol
 _atom_site_label
 _atom_site_symmetry_multiplicity
 _atom_site_fract_x
 _atom_site_fract_y
 _atom_site_fract_z
 _atom_site_occupancy
  Ce  Ce0  1  0.250000  0.475101  0.721034  1
  Ce  Ce1  1  0.750000  0.024899  0.221034  1
  Ce  Ce2  1  0.250000  0.310589  0.047856  1
  Ce  Ce3  1  0.750000  0.189411  0.547856  1
  Ce  Ce4  1  0.250000  0.811528  0.452071  1
  Ce  Ce5  1  0.750000  0.688472  0.952071  1
  Th  Th6  1  0.250000  0.974877  0.778704  1
  Th  Th7  1  0.750000  0.525123  0.278704  1
  Tc  Tc8  1  0.250000  0.773984  0.137302  1
  Tc  Tc9  1  0.750000  0.726016  0.637302  1
  Tc  Tc10  1  0.250000  0.273908  0.362495  1
  Tc  Tc11  1  0.750000  0.226092  0.862495  1
  C  C12  1  0.250000  0.167823  0.551349  1
  C  C13  1  0.750000  0.332177  0.051349  1
  C  C14  1  0.250000  0.668549  0.948481  1
  C  C15  1  0.750000  0.831451  0.448481  1
  C  C16  1  0.250000  0.534296  0.255358  1
  C  C17  1  0.750000  0.965704  0.755358  1
  C  C18  1  0.250000  0.033549  0.245351  1
  C  C19  1  0.750000  0.466451  0.745351  1
