# generated using pymatgen
data_HfZrI10
_symmetry_space_group_name_H-M   'P 1'
_cell_length_a   9.38294270
_cell_length_b   8.24413427
_cell_length_c   10.85726837
_cell_angle_alpha   93.59430875
_cell_angle_beta   101.70235950
_cell_angle_gamma   119.55082785
_symmetry_Int_Tables_number   1
_chemical_formula_structural   HfZrI10
_chemical_formula_sum   'Hf1 Zr1 I10'
_cell_volume   702.24520131
_cell_formula_units_Z   1
loop_
 _symmetry_equiv_pos_site_id
 _symmetry_equiv_pos_as_xyz
  1  'x, y, z'
loop_
 _atom_site_type_symbol
 _atom_site_label
 _atom_site_symmetry_multiplicity
 _atom_site_fract_x
 _atom_site_fract_y
 _atom_site_fract_z
 _atom_site_occupancy
  Hf  Hf0  1  0.139229  0.195796  0.197680  1
  Zr  Zr1  1  0.858976  0.804019  0.800585  1
  I  I2  1  0.954338  0.406996  0.104914  1
  I  I3  1  0.805040  0.835350  0.053037  1
  I  I4  1  0.255621  0.987397  0.312612  1
  I  I5  1  0.742549  0.015001  0.684584  1
  I  I6  1  0.196932  0.166654  0.949778  1
  I  I7  1  0.046666  0.590360  0.894544  1
  I  I8  1  0.429897  0.538849  0.282864  1
  I  I9  1  0.947903  0.212219  0.360359  1
  I  I10  1  0.565605  0.457413  0.718866  1
  I  I11  1  0.057243  0.789947  0.640177  1
