# generated using pymatgen
data_Tb4Dy3HoAu4
_symmetry_space_group_name_H-M   'P 1'
_cell_length_a   4.96859000
_cell_length_b   7.15417032
_cell_length_c   9.00628506
_cell_angle_alpha   90.05279738
_cell_angle_beta   90.00000000
_cell_angle_gamma   90.00000000
_symmetry_Int_Tables_number   1
_chemical_formula_structural   Tb4Dy3HoAu4
_chemical_formula_sum   'Tb4 Dy3 Ho1 Au4'
_cell_volume   320.13852567
_cell_formula_units_Z   1
loop_
 _symmetry_equiv_pos_site_id
 _symmetry_equiv_pos_as_xyz
  1  'x, y, z'
loop_
 _atom_site_type_symbol
 _atom_site_label
 _atom_site_symmetry_multiplicity
 _atom_site_fract_x
 _atom_site_fract_y
 _atom_site_fract_z
 _atom_site_occupancy
  Tb  Tb0  1  0.250000  0.487116  0.176687  1
  Tb  Tb1  1  0.750000  0.513407  0.823236  1
  Tb  Tb2  1  0.250000  0.986896  0.323117  1
  Tb  Tb3  1  0.750000  0.012939  0.676823  1
  Dy  Dy4  1  0.750000  0.648794  0.419234  1
  Dy  Dy5  1  0.250000  0.351266  0.580873  1
  Dy  Dy6  1  0.750000  0.148740  0.080499  1
  Ho  Ho7  1  0.250000  0.851305  0.919388  1
  Au  Au8  1  0.250000  0.256677  0.900884  1
  Au  Au9  1  0.750000  0.742806  0.098700  1
  Au  Au10  1  0.250000  0.757473  0.599702  1
  Au  Au11  1  0.750000  0.242582  0.400855  1
