# generated using pymatgen
data_Y7ThSiPd24
_symmetry_space_group_name_H-M   'P 1'
_cell_length_a   8.36765648
_cell_length_b   8.36765648
_cell_length_c   8.36765648
_cell_angle_alpha   89.97260756
_cell_angle_beta   89.97260756
_cell_angle_gamma   89.97260756
_symmetry_Int_Tables_number   1
_chemical_formula_structural   Y7ThSiPd24
_chemical_formula_sum   'Y7 Th1 Si1 Pd24'
_cell_volume   585.88365043
_cell_formula_units_Z   1
loop_
 _symmetry_equiv_pos_site_id
 _symmetry_equiv_pos_as_xyz
  1  'x, y, z'
loop_
 _atom_site_type_symbol
 _atom_site_label
 _atom_site_symmetry_multiplicity
 _atom_site_fract_x
 _atom_site_fract_y
 _atom_site_fract_z
 _atom_site_occupancy
  Y  Y0  1  0.746213  0.746213  0.746213  1
  Y  Y1  1  0.746315  0.746315  0.253766  1
  Y  Y2  1  0.746315  0.253766  0.746315  1
  Y  Y3  1  0.253638  0.253638  0.746677  1
  Y  Y4  1  0.253638  0.746677  0.253638  1
  Y  Y5  1  0.253766  0.746315  0.746315  1
  Y  Y6  1  0.746677  0.253638  0.253638  1
  Th  Th7  1  0.254820  0.254820  0.254820  1
  Si  Si8  1  0.999220  0.999220  0.999220  1
  Pd  Pd9  1  0.257452  0.500105  0.999966  1
  Pd  Pd10  1  0.742527  0.500103  0.999945  1
  Pd  Pd11  1  0.999966  0.257452  0.500105  1
  Pd  Pd12  1  0.500105  0.257452  0.999966  1
  Pd  Pd13  1  0.999945  0.742527  0.500103  1
  Pd  Pd14  1  0.500103  0.742527  0.999945  1
  Pd  Pd15  1  0.500105  0.999966  0.257452  1
  Pd  Pd16  1  0.257452  0.999966  0.500105  1
  Pd  Pd17  1  0.500103  0.999945  0.742527  1
  Pd  Pd18  1  0.742527  0.999945  0.500103  1
  Pd  Pd19  1  0.999966  0.500105  0.257452  1
  Pd  Pd20  1  0.999945  0.500103  0.742527  1
  Pd  Pd21  1  0.252528  0.500368  0.500368  1
  Pd  Pd22  1  0.747546  0.500045  0.500045  1
  Pd  Pd23  1  0.500368  0.252528  0.500368  1
  Pd  Pd24  1  0.500045  0.747546  0.500045  1
  Pd  Pd25  1  0.500368  0.500368  0.252528  1
  Pd  Pd26  1  0.500045  0.500045  0.747546  1
  Pd  Pd27  1  0.280460  0.999106  0.999106  1
  Pd  Pd28  1  0.719895  0.999867  0.999867  1
  Pd  Pd29  1  0.999106  0.280460  0.999106  1
  Pd  Pd30  1  0.999867  0.719895  0.999867  1
  Pd  Pd31  1  0.999106  0.999106  0.280460  1
  Pd  Pd32  1  0.999867  0.999867  0.719895  1
