# generated using pymatgen
data_Sm3Lu5Re(B8Os)3
_symmetry_space_group_name_H-M   'P 1'
_cell_length_a   3.64733600
_cell_length_b   9.11539305
_cell_length_c   11.53003123
_cell_angle_alpha   90.10061480
_cell_angle_beta   90.00000000
_cell_angle_gamma   90.00000000
_symmetry_Int_Tables_number   1
_chemical_formula_structural   Sm3Lu5Re(B8Os)3
_chemical_formula_sum   'Sm3 Lu5 Re1 B24 Os3'
_cell_volume   383.33721824
_cell_formula_units_Z   1
loop_
 _symmetry_equiv_pos_site_id
 _symmetry_equiv_pos_as_xyz
  1  'x, y, z'
loop_
 _atom_site_type_symbol
 _atom_site_label
 _atom_site_symmetry_multiplicity
 _atom_site_fract_x
 _atom_site_fract_y
 _atom_site_fract_z
 _atom_site_occupancy
  Sm  Sm0  1  0.000000  0.322018  0.414894  1
  Sm  Sm1  1  0.000000  0.680094  0.587954  1
  Sm  Sm2  1  0.000000  0.822145  0.083733  1
  Lu  Lu3  1  0.000000  0.176865  0.913129  1
  Lu  Lu4  1  0.000000  0.943995  0.371503  1
  Lu  Lu5  1  0.000000  0.055824  0.628541  1
  Lu  Lu6  1  0.000000  0.442516  0.126641  1
  Lu  Lu7  1  0.000000  0.556016  0.873053  1
  Re  Re8  1  0.000000  0.863726  0.820475  1
  B  B9  1  0.500000  0.555109  0.431805  1
  B  B10  1  0.500000  0.444451  0.569384  1
  B  B11  1  0.500000  0.055568  0.066617  1
  B  B12  1  0.500000  0.948470  0.932052  1
  B  B13  1  0.500000  0.750543  0.417885  1
  B  B14  1  0.500000  0.249488  0.582806  1
  B  B15  1  0.500000  0.249411  0.079585  1
  B  B16  1  0.500000  0.750461  0.917759  1
  B  B17  1  0.500000  0.791057  0.265819  1
  B  B18  1  0.500000  0.207635  0.735157  1
  B  B19  1  0.500000  0.291256  0.232561  1
  B  B20  1  0.500000  0.708489  0.766825  1
  B  B21  1  0.500000  0.629106  0.184578  1
  B  B22  1  0.500000  0.368112  0.816399  1
  B  B23  1  0.500000  0.130204  0.314581  1
  B  B24  1  0.500000  0.871226  0.685900  1
  B  B25  1  0.500000  0.983963  0.213172  1
  B  B26  1  0.500000  0.019941  0.787356  1
  B  B27  1  0.500000  0.483075  0.285943  1
  B  B28  1  0.500000  0.515897  0.715100  1
  B  B29  1  0.500000  0.600487  0.028163  1
  B  B30  1  0.500000  0.394261  0.971247  1
  B  B31  1  0.500000  0.101287  0.472034  1
  B  B32  1  0.500000  0.899626  0.527213  1
  Os  Os33  1  0.000000  0.638602  0.319370  1
  Os  Os34  1  0.000000  0.360170  0.681496  1
  Os  Os35  1  0.000000  0.138912  0.179265  1
