# generated using pymatgen
data_Tb5Ga5P7Ir19
_symmetry_space_group_name_H-M   'P 1'
_cell_length_a   12.95040251
_cell_length_b   12.92716724
_cell_length_c   3.97498100
_cell_angle_alpha   90.00000000
_cell_angle_beta   90.00000000
_cell_angle_gamma   119.94445868
_symmetry_Int_Tables_number   1
_chemical_formula_structural   Tb5Ga5P7Ir19
_chemical_formula_sum   'Tb5 Ga5 P7 Ir19'
_cell_volume   576.62718508
_cell_formula_units_Z   1
loop_
 _symmetry_equiv_pos_site_id
 _symmetry_equiv_pos_as_xyz
  1  'x, y, z'
loop_
 _atom_site_type_symbol
 _atom_site_label
 _atom_site_symmetry_multiplicity
 _atom_site_fract_x
 _atom_site_fract_y
 _atom_site_fract_z
 _atom_site_occupancy
  Tb  Tb0  1  0.335019  0.665993  0.500000  1
  Tb  Tb1  1  0.665105  0.333279  0.500000  1
  Tb  Tb2  1  0.003318  0.815722  0.000000  1
  Tb  Tb3  1  0.182345  0.183482  0.000000  1
  Tb  Tb4  1  0.813841  0.997528  0.000000  1
  Ga  Ga5  1  0.998548  0.637678  0.500000  1
  Ga  Ga6  1  0.360394  0.361265  0.500000  1
  Ga  Ga7  1  0.638926  0.003744  0.500000  1
  Ga  Ga8  1  0.519350  0.679441  0.000000  1
  Ga  Ga9  1  0.321983  0.836365  0.000000  1
  P  P10  1  0.166823  0.479353  0.000000  1
  P  P11  1  0.480869  0.177682  0.000000  1
  P  P12  1  0.693675  0.516742  0.000000  1
  P  P13  1  0.820095  0.304554  0.000000  1
  P  P14  1  0.996407  0.178460  0.500000  1
  P  P15  1  0.824386  0.819987  0.500000  1
  P  P16  1  0.179580  0.000761  0.500000  1
  Ir  Ir17  1  0.525769  0.875786  0.000000  1
  Ir  Ir18  1  0.130996  0.634846  0.000000  1
  Ir  Ir19  1  0.346647  0.478200  0.000000  1
  Ir  Ir20  1  0.498308  0.368907  0.000000  1
  Ir  Ir21  1  0.868222  0.499910  0.000000  1
  Ir  Ir22  1  0.630484  0.132380  0.000000  1
  Ir  Ir23  1  0.000083  0.447698  0.500000  1
  Ir  Ir24  1  0.549981  0.557539  0.500000  1
  Ir  Ir25  1  0.441632  0.995682  0.500000  1
  Ir  Ir26  1  0.995548  0.280747  0.000000  1
  Ir  Ir27  1  0.730675  0.718810  0.000000  1
  Ir  Ir28  1  0.280587  0.008209  0.000000  1
  Ir  Ir29  1  0.639294  0.809467  0.500000  1
  Ir  Ir30  1  0.192794  0.825062  0.500000  1
  Ir  Ir31  1  0.168653  0.374730  0.500000  1
  Ir  Ir32  1  0.383767  0.178677  0.500000  1
  Ir  Ir33  1  0.791450  0.611042  0.500000  1
  Ir  Ir34  1  0.823274  0.208004  0.500000  1
  Ir  Ir35  1  0.001172  0.002270  0.500000  1
