# generated using pymatgen
data_Pr6In2C
_symmetry_space_group_name_H-M   'P 1'
_cell_length_a   7.23108398
_cell_length_b   7.23108369
_cell_length_c   7.23108400
_cell_angle_alpha   60.00000773
_cell_angle_beta   60.00000908
_cell_angle_gamma   60.00001527
_symmetry_Int_Tables_number   1
_chemical_formula_structural   Pr6In2C
_chemical_formula_sum   'Pr6 In2 C1'
_cell_volume   267.35930740
_cell_formula_units_Z   1
loop_
 _symmetry_equiv_pos_site_id
 _symmetry_equiv_pos_as_xyz
  1  'x, y, z'
loop_
 _atom_site_type_symbol
 _atom_site_label
 _atom_site_symmetry_multiplicity
 _atom_site_fract_x
 _atom_site_fract_y
 _atom_site_fract_z
 _atom_site_occupancy
  Pr  Pr0  1  0.754474  0.754474  0.245525  1
  Pr  Pr1  1  0.754473  0.245526  0.245525  1
  Pr  Pr2  1  0.245526  0.754473  0.245525  1
  Pr  Pr3  1  0.245526  0.245526  0.754473  1
  Pr  Pr4  1  0.754475  0.245524  0.754475  1
  Pr  Pr5  1  0.245524  0.754475  0.754475  1
  In  In6  1  0.250000  0.250000  0.250000  1
  In  In7  1  0.749999  0.749999  0.749999  1
  C  C8  1  0.000000  0.000000  0.000000  1
