# generated using pymatgen
data_Er10Tl7Hg
_symmetry_space_group_name_H-M   'P 1'
_cell_length_a   9.16443800
_cell_length_b   9.16443876
_cell_length_c   6.79838300
_cell_angle_alpha   90.00000000
_cell_angle_beta   90.00000000
_cell_angle_gamma   119.99999725
_symmetry_Int_Tables_number   1
_chemical_formula_structural   Er10Tl7Hg
_chemical_formula_sum   'Er10 Tl7 Hg1'
_cell_volume   494.47914826
_cell_formula_units_Z   1
loop_
 _symmetry_equiv_pos_site_id
 _symmetry_equiv_pos_as_xyz
  1  'x, y, z'
loop_
 _atom_site_type_symbol
 _atom_site_label
 _atom_site_symmetry_multiplicity
 _atom_site_fract_x
 _atom_site_fract_y
 _atom_site_fract_z
 _atom_site_occupancy
  Er  Er0  1  0.333333  0.666667  0.500000  1
  Er  Er1  1  0.666667  0.333333  0.500000  1
  Er  Er2  1  0.666667  0.333333  0.000000  1
  Er  Er3  1  0.333333  0.666667  0.000000  1
  Er  Er4  1  0.285158  0.000000  0.746408  1
  Er  Er5  1  0.714842  0.000000  0.253592  1
  Er  Er6  1  0.000000  0.285158  0.746408  1
  Er  Er7  1  0.000000  0.714842  0.253592  1
  Er  Er8  1  0.714842  0.714842  0.746408  1
  Er  Er9  1  0.285158  0.285158  0.253592  1
  Tl  Tl10  1  0.000000  0.000000  0.000000  1
  Tl  Tl11  1  0.624198  0.000000  0.749298  1
  Tl  Tl12  1  0.375802  0.000000  0.250702  1
  Tl  Tl13  1  0.000000  0.624198  0.749298  1
  Tl  Tl14  1  0.000000  0.375802  0.250702  1
  Tl  Tl15  1  0.375802  0.375802  0.749298  1
  Tl  Tl16  1  0.624198  0.624198  0.250702  1
  Hg  Hg17  1  0.000000  0.000000  0.500000  1
