# generated using pymatgen
data_Dy4MgP12Ru19
_symmetry_space_group_name_H-M   'P 1'
_cell_length_a   12.46052403
_cell_length_b   12.48539596
_cell_length_c   3.98546300
_cell_angle_alpha   90.00000000
_cell_angle_beta   90.00000000
_cell_angle_gamma   120.06605040
_symmetry_Int_Tables_number   1
_chemical_formula_structural   Dy4MgP12Ru19
_chemical_formula_sum   'Dy4 Mg1 P12 Ru19'
_cell_volume   536.60980416
_cell_formula_units_Z   1
loop_
 _symmetry_equiv_pos_site_id
 _symmetry_equiv_pos_as_xyz
  1  'x, y, z'
loop_
 _atom_site_type_symbol
 _atom_site_label
 _atom_site_symmetry_multiplicity
 _atom_site_fract_x
 _atom_site_fract_y
 _atom_site_fract_z
 _atom_site_occupancy
  Dy  Dy0  1  0.816527  0.816017  0.500000  1
  Dy  Dy1  1  0.183473  0.999491  0.500000  1
  Dy  Dy2  1  0.672883  0.332714  0.000000  1
  Dy  Dy3  1  0.327117  0.659832  0.000000  1
  Mg  Mg4  1  0.000000  0.189992  0.500000  1
  P  P5  1  0.000000  0.827132  0.000000  1
  P  P6  1  0.194153  0.181259  0.000000  1
  P  P7  1  0.805847  0.987106  0.000000  1
  P  P8  1  0.698556  0.169555  0.500000  1
  P  P9  1  0.830583  0.524781  0.500000  1
  P  P10  1  0.481039  0.306598  0.500000  1
  P  P11  1  0.169417  0.694198  0.500000  1
  P  P12  1  0.518961  0.825557  0.500000  1
  P  P13  1  0.301444  0.470999  0.500000  1
  P  P14  1  0.000000  0.381091  0.000000  1
  P  P15  1  0.625338  0.626055  0.000000  1
  P  P16  1  0.374662  0.000718  0.000000  1
  Ru  Ru17  1  0.000000  0.560451  0.000000  1
  Ru  Ru18  1  0.439818  0.445913  0.000000  1
  Ru  Ru19  1  0.560182  0.006095  0.000000  1
  Ru  Ru20  1  0.000000  0.721793  0.500000  1
  Ru  Ru21  1  0.283413  0.279607  0.500000  1
  Ru  Ru22  1  0.716587  0.996196  0.500000  1
  Ru  Ru23  1  0.825306  0.182702  0.000000  1
  Ru  Ru24  1  0.815446  0.627489  0.000000  1
  Ru  Ru25  1  0.384558  0.194920  0.000000  1
  Ru  Ru26  1  0.184554  0.812042  0.000000  1
  Ru  Ru27  1  0.615442  0.810362  0.000000  1
  Ru  Ru28  1  0.174694  0.357395  0.000000  1
  Ru  Ru29  1  0.874130  0.364825  0.500000  1
  Ru  Ru30  1  0.633672  0.508482  0.500000  1
  Ru  Ru31  1  0.496551  0.126845  0.500000  1
  Ru  Ru32  1  0.366328  0.874809  0.500000  1
  Ru  Ru33  1  0.503449  0.630294  0.500000  1
  Ru  Ru34  1  0.125870  0.490696  0.500000  1
  Ru  Ru35  1  0.000000  0.015984  0.000000  1
