# generated using pymatgen
data_NaSrScF6
_symmetry_space_group_name_H-M   'P 1'
_cell_length_a   5.53853300
_cell_length_b   9.65873700
_cell_length_c   10.63097400
_cell_angle_alpha   90.00000000
_cell_angle_beta   90.00000000
_cell_angle_gamma   90.00000000
_symmetry_Int_Tables_number   1
_chemical_formula_structural   NaSrScF6
_chemical_formula_sum   'Na4 Sr4 Sc4 F24'
_cell_volume   568.70643766
_cell_formula_units_Z   4
loop_
 _symmetry_equiv_pos_site_id
 _symmetry_equiv_pos_as_xyz
  1  'x, y, z'
loop_
 _atom_site_type_symbol
 _atom_site_label
 _atom_site_symmetry_multiplicity
 _atom_site_fract_x
 _atom_site_fract_y
 _atom_site_fract_z
 _atom_site_occupancy
  Na  Na0  1  0.043743  0.648058  0.085350  1
  Na  Na1  1  0.456257  0.351942  0.585350  1
  Na  Na2  1  0.956257  0.148058  0.414650  1
  Na  Na3  1  0.543743  0.851942  0.914650  1
  Sr  Sr4  1  0.506890  0.314590  0.175781  1
  Sr  Sr5  1  0.993110  0.685410  0.675781  1
  Sr  Sr6  1  0.493110  0.814590  0.324219  1
  Sr  Sr7  1  0.006890  0.185410  0.824219  1
  Sc  Sc8  1  0.036703  0.000730  0.125829  1
  Sc  Sc9  1  0.463297  0.999270  0.625829  1
  Sc  Sc10  1  0.963297  0.500730  0.374171  1
  Sc  Sc11  1  0.536703  0.499270  0.874171  1
  F  F12  1  0.205491  0.147138  0.587962  1
  F  F13  1  0.294509  0.852862  0.087962  1
  F  F14  1  0.794509  0.647138  0.912038  1
  F  F15  1  0.705491  0.352862  0.412038  1
  F  F16  1  0.214149  0.625134  0.293675  1
  F  F17  1  0.285851  0.374866  0.793675  1
  F  F18  1  0.785851  0.125134  0.206325  1
  F  F19  1  0.714149  0.874866  0.706325  1
  F  F20  1  0.221578  0.163486  0.045979  1
  F  F21  1  0.278422  0.836514  0.545979  1
  F  F22  1  0.778422  0.663486  0.454021  1
  F  F23  1  0.721578  0.336514  0.954021  1
  F  F24  1  0.163661  0.335135  0.316968  1
  F  F25  1  0.336339  0.664865  0.816968  1
  F  F26  1  0.836339  0.835135  0.183032  1
  F  F27  1  0.663661  0.164865  0.683032  1
  F  F28  1  0.352512  0.501321  0.038851  1
  F  F29  1  0.147488  0.498679  0.538851  1
  F  F30  1  0.647488  0.001321  0.461149  1
  F  F31  1  0.852512  0.998679  0.961149  1
  F  F32  1  0.222382  0.018847  0.290253  1
  F  F33  1  0.277618  0.981153  0.790253  1
  F  F34  1  0.777618  0.518847  0.209747  1
  F  F35  1  0.722382  0.481153  0.709747  1
