# generated using pymatgen
data_TbYb2Y17(Cd3Ru)2
_symmetry_space_group_name_H-M   'P 1'
_cell_length_a   9.65778598
_cell_length_b   9.65778554
_cell_length_c   9.84904088
_cell_angle_alpha   90.06135495
_cell_angle_beta   89.93864533
_cell_angle_gamma   119.82244529
_symmetry_Int_Tables_number   1
_chemical_formula_structural   TbYb2Y17(Cd3Ru)2
_chemical_formula_sum   'Tb1 Yb2 Y17 Cd6 Ru2'
_cell_volume   796.99136924
_cell_formula_units_Z   1
loop_
 _symmetry_equiv_pos_site_id
 _symmetry_equiv_pos_as_xyz
  1  'x, y, z'
loop_
 _atom_site_type_symbol
 _atom_site_label
 _atom_site_symmetry_multiplicity
 _atom_site_fract_x
 _atom_site_fract_y
 _atom_site_fract_z
 _atom_site_occupancy
  Tb  Tb0  1  0.210732  0.789268  0.438638  1
  Yb  Yb1  1  0.000153  0.999847  0.499993  1
  Yb  Yb2  1  0.000109  0.999891  0.999897  1
  Y  Y3  1  0.210644  0.420927  0.439781  1
  Y  Y4  1  0.579073  0.789356  0.439781  1
  Y  Y5  1  0.789607  0.210393  0.560372  1
  Y  Y6  1  0.789346  0.578653  0.560576  1
  Y  Y7  1  0.421347  0.210654  0.560576  1
  Y  Y8  1  0.789562  0.210438  0.939739  1
  Y  Y9  1  0.789529  0.578934  0.939593  1
  Y  Y10  1  0.421066  0.210471  0.939593  1
  Y  Y11  1  0.210368  0.789632  0.060121  1
  Y  Y12  1  0.210652  0.421048  0.060176  1
  Y  Y13  1  0.578952  0.789348  0.060176  1
  Y  Y14  1  0.541936  0.458064  0.249793  1
  Y  Y15  1  0.541634  0.083396  0.249885  1
  Y  Y16  1  0.916604  0.458366  0.249885  1
  Y  Y17  1  0.458494  0.541506  0.750160  1
  Y  Y18  1  0.458487  0.916724  0.750151  1
  Y  Y19  1  0.083276  0.541513  0.750151  1
  Cd  Cd20  1  0.884610  0.115390  0.250127  1
  Cd  Cd21  1  0.884354  0.769187  0.249894  1
  Cd  Cd22  1  0.230813  0.115646  0.249894  1
  Cd  Cd23  1  0.115244  0.884756  0.750247  1
  Cd  Cd24  1  0.115283  0.230744  0.750025  1
  Cd  Cd25  1  0.769256  0.884717  0.750025  1
  Ru  Ru26  1  0.332331  0.667669  0.250918  1
  Ru  Ru27  1  0.666537  0.333463  0.749836  1
