# generated using pymatgen
data_Tb4Ho2Al24Os5Pd3
_symmetry_space_group_name_H-M   'P 1'
_cell_length_a   8.83286440
_cell_length_b   8.85296565
_cell_length_c   9.56599966
_cell_angle_alpha   90.11267136
_cell_angle_beta   89.71128895
_cell_angle_gamma   119.50646354
_symmetry_Int_Tables_number   1
_chemical_formula_structural   Tb4Ho2Al24Os5Pd3
_chemical_formula_sum   'Tb4 Ho2 Al24 Os5 Pd3'
_cell_volume   651.00476416
_cell_formula_units_Z   1
loop_
 _symmetry_equiv_pos_site_id
 _symmetry_equiv_pos_as_xyz
  1  'x, y, z'
loop_
 _atom_site_type_symbol
 _atom_site_label
 _atom_site_symmetry_multiplicity
 _atom_site_fract_x
 _atom_site_fract_y
 _atom_site_fract_z
 _atom_site_occupancy
  Tb  Tb0  1  0.187225  0.382303  0.250946  1
  Tb  Tb1  1  0.812775  0.617697  0.749054  1
  Tb  Tb2  1  0.614878  0.814551  0.252325  1
  Tb  Tb3  1  0.385122  0.185449  0.747675  1
  Ho  Ho4  1  0.195261  0.809009  0.251733  1
  Ho  Ho5  1  0.804739  0.190991  0.748267  1
  Al  Al6  1  0.335215  0.671483  0.028775  1
  Al  Al7  1  0.664785  0.328517  0.971225  1
  Al  Al8  1  0.669552  0.331174  0.527046  1
  Al  Al9  1  0.330448  0.668826  0.472954  1
  Al  Al10  1  0.157394  0.325298  0.575069  1
  Al  Al11  1  0.842606  0.674702  0.424931  1
  Al  Al12  1  0.673782  0.841530  0.575667  1
  Al  Al13  1  0.837149  0.676504  0.078282  1
  Al  Al14  1  0.326218  0.158470  0.424333  1
  Al  Al15  1  0.162851  0.323496  0.921718  1
  Al  Al16  1  0.163940  0.835028  0.575444  1
  Al  Al17  1  0.325426  0.158184  0.076290  1
  Al  Al18  1  0.836060  0.164972  0.424556  1
  Al  Al19  1  0.674574  0.841816  0.923710  1
  Al  Al20  1  0.831424  0.159023  0.077325  1
  Al  Al21  1  0.168576  0.840977  0.922675  1
  Al  Al22  1  0.560400  0.124540  0.249817  1
  Al  Al23  1  0.439600  0.875460  0.750183  1
  Al  Al24  1  0.874333  0.438206  0.252812  1
  Al  Al25  1  0.125667  0.561794  0.747188  1
  Al  Al26  1  0.562559  0.436753  0.249714  1
  Al  Al27  1  0.437441  0.563247  0.750286  1
  Al  Al28  1  0.999039  0.002129  0.250288  1
  Al  Al29  1  0.000961  0.997871  0.749712  1
  Os  Os30  1  0.500000  0.000000  0.000000  1
  Os  Os31  1  0.500000  0.000000  0.500000  1
  Os  Os32  1  0.000000  0.500000  0.500000  1
  Os  Os33  1  0.000000  0.000000  0.000000  1
  Os  Os34  1  0.000000  0.000000  0.500000  1
  Pd  Pd35  1  0.000000  0.500000  0.000000  1
  Pd  Pd36  1  0.500000  0.500000  0.000000  1
  Pd  Pd37  1  0.500000  0.500000  0.500000  1
