# generated using pymatgen
data_Dy2TaNb3(B2Ru5)2
_symmetry_space_group_name_H-M   'P 1'
_cell_length_a   9.57689126
_cell_length_b   9.57444800
_cell_length_c   3.08717000
_cell_angle_alpha   90.00000000
_cell_angle_beta   90.00000000
_cell_angle_gamma   90.70107482
_symmetry_Int_Tables_number   1
_chemical_formula_structural   Dy2TaNb3(B2Ru5)2
_chemical_formula_sum   'Dy2 Ta1 Nb3 B4 Ru10'
_cell_volume   283.05206894
_cell_formula_units_Z   1
loop_
 _symmetry_equiv_pos_site_id
 _symmetry_equiv_pos_as_xyz
  1  'x, y, z'
loop_
 _atom_site_type_symbol
 _atom_site_label
 _atom_site_symmetry_multiplicity
 _atom_site_fract_x
 _atom_site_fract_y
 _atom_site_fract_z
 _atom_site_occupancy
  Dy  Dy0  1  0.823658  0.676052  0.000000  1
  Dy  Dy1  1  0.176342  0.323948  0.000000  1
  Ta  Ta2  1  0.500000  0.500000  0.000000  1
  Nb  Nb3  1  0.324847  0.824453  0.000000  1
  Nb  Nb4  1  0.675153  0.175547  0.000000  1
  Nb  Nb5  1  0.000000  0.000000  0.000000  1
  B  B6  1  0.620593  0.879480  0.000000  1
  B  B7  1  0.379407  0.120520  0.000000  1
  B  B8  1  0.121235  0.621179  0.000000  1
  B  B9  1  0.878765  0.378821  0.000000  1
  Ru  Ru10  1  0.559614  0.722755  0.500000  1
  Ru  Ru11  1  0.440386  0.277245  0.500000  1
  Ru  Ru12  1  0.081578  0.784945  0.500000  1
  Ru  Ru13  1  0.918422  0.215055  0.500000  1
  Ru  Ru14  1  0.285381  0.581179  0.500000  1
  Ru  Ru15  1  0.714619  0.418821  0.500000  1
  Ru  Ru16  1  0.223134  0.059505  0.500000  1
  Ru  Ru17  1  0.776866  0.940495  0.500000  1
  Ru  Ru18  1  0.500000  0.000000  0.500000  1
  Ru  Ru19  1  0.000000  0.500000  0.500000  1
