# generated using pymatgen
data_Er(PaRh2)5
_symmetry_space_group_name_H-M   'P 1'
_cell_length_a   5.83272337
_cell_length_b   5.83272325
_cell_length_c   9.21005863
_cell_angle_alpha   89.94797613
_cell_angle_beta   89.94797481
_cell_angle_gamma   105.13466097
_symmetry_Int_Tables_number   1
_chemical_formula_structural   Er(PaRh2)5
_chemical_formula_sum   'Er1 Pa5 Rh10'
_cell_volume   302.46397371
_cell_formula_units_Z   1
loop_
 _symmetry_equiv_pos_site_id
 _symmetry_equiv_pos_as_xyz
  1  'x, y, z'
loop_
 _atom_site_type_symbol
 _atom_site_label
 _atom_site_symmetry_multiplicity
 _atom_site_fract_x
 _atom_site_fract_y
 _atom_site_fract_z
 _atom_site_occupancy
  Er  Er0  1  0.793868  0.206132  0.500000  1
  Pa  Pa1  1  0.617634  0.613479  0.746156  1
  Pa  Pa2  1  0.386521  0.382366  0.253844  1
  Pa  Pa3  1  0.204826  0.795174  0.000000  1
  Pa  Pa4  1  0.193675  0.806325  0.500000  1
  Pa  Pa5  1  0.802054  0.197946  0.000000  1
  Rh  Rh6  1  0.690520  0.688642  0.047155  1
  Rh  Rh7  1  0.684692  0.689110  0.448089  1
  Rh  Rh8  1  0.311358  0.309480  0.952845  1
  Rh  Rh9  1  0.310890  0.315308  0.551911  1
  Rh  Rh10  1  0.501345  0.032805  0.754736  1
  Rh  Rh11  1  0.489885  0.956369  0.247445  1
  Rh  Rh12  1  0.990790  0.988884  0.248091  1
  Rh  Rh13  1  0.011116  0.009210  0.751909  1
  Rh  Rh14  1  0.043631  0.510115  0.752555  1
  Rh  Rh15  1  0.967195  0.498655  0.245264  1
