# generated using pymatgen
data_Tb7Nd6Th3(HgIr)4
_symmetry_space_group_name_H-M   'P 1'
_cell_length_a   9.86062175
_cell_length_b   9.85077106
_cell_length_c   9.85077200
_cell_angle_alpha   60.00000356
_cell_angle_beta   60.03304449
_cell_angle_gamma   60.03304858
_symmetry_Int_Tables_number   1
_chemical_formula_structural   Tb7Nd6Th3(HgIr)4
_chemical_formula_sum   'Tb7 Nd6 Th3 Hg4 Ir4'
_cell_volume   676.93435549
_cell_formula_units_Z   1
loop_
 _symmetry_equiv_pos_site_id
 _symmetry_equiv_pos_as_xyz
  1  'x, y, z'
loop_
 _atom_site_type_symbol
 _atom_site_label
 _atom_site_symmetry_multiplicity
 _atom_site_fract_x
 _atom_site_fract_y
 _atom_site_fract_z
 _atom_site_occupancy
  Tb  Tb0  1  0.949652  0.350116  0.350116  1
  Tb  Tb1  1  0.812607  0.188242  0.188242  1
  Tb  Tb2  1  0.188108  0.813093  0.813093  1
  Tb  Tb3  1  0.188108  0.813093  0.185708  1
  Tb  Tb4  1  0.812607  0.188242  0.810910  1
  Tb  Tb5  1  0.188108  0.185708  0.813093  1
  Tb  Tb6  1  0.812607  0.810910  0.188242  1
  Nd  Nd7  1  0.938497  0.561451  0.561451  1
  Nd  Nd8  1  0.562324  0.938130  0.938130  1
  Nd  Nd9  1  0.562324  0.938130  0.561414  1
  Nd  Nd10  1  0.938497  0.561451  0.938601  1
  Nd  Nd11  1  0.562324  0.561414  0.938130  1
  Nd  Nd12  1  0.938497  0.938601  0.561451  1
  Th  Th13  1  0.346124  0.349316  0.349316  1
  Th  Th14  1  0.346124  0.349316  0.955245  1
  Th  Th15  1  0.346124  0.955245  0.349316  1
  Hg  Hg16  1  0.584987  0.582430  0.582430  1
  Hg  Hg17  1  0.584987  0.582430  0.250153  1
  Hg  Hg18  1  0.584987  0.250153  0.582430  1
  Hg  Hg19  1  0.248547  0.583817  0.583817  1
  Ir  Ir20  1  0.144695  0.141760  0.141760  1
  Ir  Ir21  1  0.144695  0.141760  0.571784  1
  Ir  Ir22  1  0.144695  0.571784  0.141760  1
  Ir  Ir23  1  0.569772  0.143409  0.143409  1
