# generated using pymatgen
data_Ho12Co6Ir
_symmetry_space_group_name_H-M   'P 1'
_cell_length_a   11.19510100
_cell_length_b   8.24192087
_cell_length_c   11.01894300
_cell_angle_alpha   54.81952843
_cell_angle_beta   90.00000000
_cell_angle_gamma   90.00000000
_symmetry_Int_Tables_number   1
_chemical_formula_structural   Ho12Co6Ir
_chemical_formula_sum   'Ho24 Co12 Ir2'
_cell_volume   830.99774924
_cell_formula_units_Z   2
loop_
 _symmetry_equiv_pos_site_id
 _symmetry_equiv_pos_as_xyz
  1  'x, y, z'
loop_
 _atom_site_type_symbol
 _atom_site_label
 _atom_site_symmetry_multiplicity
 _atom_site_fract_x
 _atom_site_fract_y
 _atom_site_fract_z
 _atom_site_occupancy
  Ho  Ho0  1  0.705514  0.235229  0.538635  1
  Ho  Ho1  1  0.205514  0.764771  0.961365  1
  Ho  Ho2  1  0.841068  0.502260  0.658193  1
  Ho  Ho3  1  0.341068  0.497740  0.841807  1
  Ho  Ho4  1  0.158932  0.497740  0.341807  1
  Ho  Ho5  1  0.658932  0.502260  0.158193  1
  Ho  Ho6  1  0.004009  0.842037  0.355329  1
  Ho  Ho7  1  0.504009  0.157963  0.144671  1
  Ho  Ho8  1  0.995991  0.157963  0.644671  1
  Ho  Ho9  1  0.495991  0.842037  0.855329  1
  Ho  Ho10  1  0.794486  0.235229  0.038635  1
  Ho  Ho11  1  0.294486  0.764771  0.461365  1
  Ho  Ho12  1  0.928179  0.769848  0.087523  1
  Ho  Ho13  1  0.428179  0.230152  0.412477  1
  Ho  Ho14  1  0.071821  0.230152  0.912477  1
  Ho  Ho15  1  0.571821  0.769848  0.587523  1
  Ho  Ho16  1  0.300134  0.245409  0.677101  1
  Ho  Ho17  1  0.800134  0.754591  0.822899  1
  Ho  Ho18  1  0.699866  0.754591  0.322899  1
  Ho  Ho19  1  0.199866  0.245409  0.177101  1
  Ho  Ho20  1  0.929982  0.262806  0.309835  1
  Ho  Ho21  1  0.429982  0.737194  0.190165  1
  Ho  Ho22  1  0.070018  0.737194  0.690165  1
  Ho  Ho23  1  0.570018  0.262806  0.809835  1
  Co  Co24  1  0.676672  0.908657  0.028132  1
  Co  Co25  1  0.176672  0.091343  0.471868  1
  Co  Co26  1  0.323328  0.091343  0.971868  1
  Co  Co27  1  0.823328  0.908657  0.528132  1
  Co  Co28  1  0.400909  0.493441  0.100050  1
  Co  Co29  1  0.900909  0.506559  0.399950  1
  Co  Co30  1  0.599091  0.506559  0.899950  1
  Co  Co31  1  0.099091  0.493441  0.600050  1
  Co  Co32  1  0.811764  0.098418  0.841744  1
  Co  Co33  1  0.311764  0.901582  0.658256  1
  Co  Co34  1  0.188236  0.901582  0.158256  1
  Co  Co35  1  0.688236  0.098418  0.341744  1
  Ir  Ir36  1  0.500000  0.500000  0.500000  1
  Ir  Ir37  1  0.000000  0.500000  0.000000  1
