# generated using pymatgen
data_La16Cd4Co3Os
_symmetry_space_group_name_H-M   'P 1'
_cell_length_a   10.05068907
_cell_length_b   10.00124586
_cell_length_c   10.00124600
_cell_angle_alpha   59.99999952
_cell_angle_beta   60.16259849
_cell_angle_gamma   60.16259669
_symmetry_Int_Tables_number   1
_chemical_formula_structural   La16Cd4Co3Os
_chemical_formula_sum   'La16 Cd4 Co3 Os1'
_cell_volume   712.61020893
_cell_formula_units_Z   1
loop_
 _symmetry_equiv_pos_site_id
 _symmetry_equiv_pos_as_xyz
  1  'x, y, z'
loop_
 _atom_site_type_symbol
 _atom_site_label
 _atom_site_symmetry_multiplicity
 _atom_site_fract_x
 _atom_site_fract_y
 _atom_site_fract_z
 _atom_site_occupancy
  La  La0  1  0.938320  0.944608  0.558536  1
  La  La1  1  0.560201  0.939674  0.560452  1
  La  La2  1  0.560201  0.939674  0.939674  1
  La  La3  1  0.684685  0.691525  0.311895  1
  La  La4  1  0.158574  0.152554  0.536317  1
  La  La5  1  0.310425  0.688648  0.688648  1
  La  La6  1  0.158574  0.152554  0.152554  1
  La  La7  1  0.534861  0.155046  0.155046  1
  La  La8  1  0.310425  0.688648  0.312280  1
  La  La9  1  0.310425  0.312280  0.688648  1
  La  La10  1  0.684685  0.311895  0.691525  1
  La  La11  1  0.938320  0.558536  0.558536  1
  La  La12  1  0.560201  0.560452  0.939674  1
  La  La13  1  0.158574  0.536317  0.152554  1
  La  La14  1  0.684685  0.311895  0.311895  1
  La  La15  1  0.938320  0.558536  0.944608  1
  Cd  Cd16  1  0.238296  0.920568  0.920568  1
  Cd  Cd17  1  0.919732  0.921424  0.921424  1
  Cd  Cd18  1  0.919732  0.921424  0.237418  1
  Cd  Cd19  1  0.919732  0.237418  0.921424  1
  Co  Co20  1  0.363624  0.359395  0.917585  1
  Co  Co21  1  0.363624  0.917585  0.359395  1
  Co  Co22  1  0.363624  0.359395  0.359395  1
  Os  Os23  1  0.920153  0.359949  0.359949  1
