# generated using pymatgen
data_Mn4Hg2Pd9Au
_symmetry_space_group_name_H-M   'P 1'
_cell_length_a   6.94081343
_cell_length_b   6.94081393
_cell_length_c   6.94081430
_cell_angle_alpha   107.58155567
_cell_angle_beta   108.02177159
_cell_angle_gamma   112.86484356
_symmetry_Int_Tables_number   1
_chemical_formula_structural   Mn4Hg2Pd9Au
_chemical_formula_sum   'Mn4 Hg2 Pd9 Au1'
_cell_volume   256.71532467
_cell_formula_units_Z   1
loop_
 _symmetry_equiv_pos_site_id
 _symmetry_equiv_pos_as_xyz
  1  'x, y, z'
loop_
 _atom_site_type_symbol
 _atom_site_label
 _atom_site_symmetry_multiplicity
 _atom_site_fract_x
 _atom_site_fract_y
 _atom_site_fract_z
 _atom_site_occupancy
  Mn  Mn0  1  0.246186  0.236285  0.482472  1
  Mn  Mn1  1  0.753814  0.763715  0.517528  1
  Mn  Mn2  1  0.246186  0.763715  0.009901  1
  Mn  Mn3  1  0.753814  0.236285  0.990099  1
  Hg  Hg4  1  0.000000  0.500000  0.500000  1
  Hg  Hg5  1  0.500000  0.500000  0.000000  1
  Pd  Pd6  1  0.499804  0.250825  0.248978  1
  Pd  Pd7  1  0.500196  0.749175  0.751022  1
  Pd  Pd8  1  0.001846  0.250825  0.751022  1
  Pd  Pd9  1  0.249675  0.000636  0.750961  1
  Pd  Pd10  1  0.998154  0.749175  0.248978  1
  Pd  Pd11  1  0.750325  0.999364  0.249039  1
  Pd  Pd12  1  0.249675  0.498714  0.249039  1
  Pd  Pd13  1  0.750325  0.501286  0.750961  1
  Pd  Pd14  1  0.000000  0.000000  0.000000  1
  Au  Au15  1  0.500000  0.000000  0.500000  1
