# generated using pymatgen
data_Nb12Al11Zn7(Cu2Ir)2
_symmetry_space_group_name_H-M   'P 1'
_cell_length_a   8.80109321
_cell_length_b   8.75100456
_cell_length_c   8.18207900
_cell_angle_alpha   90.00000000
_cell_angle_beta   90.00000000
_cell_angle_gamma   119.86166578
_symmetry_Int_Tables_number   1
_chemical_formula_structural   Nb12Al11Zn7(Cu2Ir)2
_chemical_formula_sum   'Nb12 Al11 Zn7 Cu4 Ir2'
_cell_volume   546.50297238
_cell_formula_units_Z   1
loop_
 _symmetry_equiv_pos_site_id
 _symmetry_equiv_pos_as_xyz
  1  'x, y, z'
loop_
 _atom_site_type_symbol
 _atom_site_label
 _atom_site_symmetry_multiplicity
 _atom_site_fract_x
 _atom_site_fract_y
 _atom_site_fract_z
 _atom_site_occupancy
  Nb  Nb0  1  0.330687  0.998600  0.068672  1
  Nb  Nb1  1  0.668358  0.999627  0.930176  1
  Nb  Nb2  1  0.999752  0.334753  0.068402  1
  Nb  Nb3  1  0.668358  0.999627  0.569824  1
  Nb  Nb4  1  0.999752  0.334753  0.431598  1
  Nb  Nb5  1  0.003019  0.667560  0.932662  1
  Nb  Nb6  1  0.330687  0.998600  0.431328  1
  Nb  Nb7  1  0.003019  0.667560  0.567338  1
  Nb  Nb8  1  0.666361  0.667683  0.067438  1
  Nb  Nb9  1  0.332654  0.330912  0.931213  1
  Nb  Nb10  1  0.332654  0.330912  0.568787  1
  Nb  Nb11  1  0.666361  0.667683  0.432562  1
  Al  Al12  1  0.158606  0.660107  0.250000  1
  Al  Al13  1  0.337144  0.666421  0.503939  1
  Al  Al14  1  0.669803  0.337150  0.507447  1
  Al  Al15  1  0.669803  0.337150  0.992553  1
  Al  Al16  1  0.337144  0.666421  0.996061  1
  Al  Al17  1  0.173659  0.996873  0.750000  1
  Al  Al18  1  0.828380  0.002913  0.250000  1
  Al  Al19  1  0.997358  0.172991  0.750000  1
  Al  Al20  1  0.998179  0.831377  0.250000  1
  Al  Al21  1  0.828738  0.822588  0.750000  1
  Al  Al22  1  0.173689  0.180139  0.250000  1
  Zn  Zn23  1  0.156348  0.495412  0.750000  1
  Zn  Zn24  1  0.834272  0.504695  0.250000  1
  Zn  Zn25  1  0.507373  0.663392  0.750000  1
  Zn  Zn26  1  0.495521  0.157492  0.750000  1
  Zn  Zn27  1  0.494313  0.337519  0.250000  1
  Zn  Zn28  1  0.504873  0.836258  0.250000  1
  Zn  Zn29  1  0.662624  0.161548  0.250000  1
  Cu  Cu30  1  0.331961  0.834567  0.750000  1
  Cu  Cu31  1  0.670335  0.504310  0.750000  1
  Cu  Cu32  1  0.331595  0.499289  0.250000  1
  Cu  Cu33  1  0.835838  0.330809  0.750000  1
  Ir  Ir34  1  0.000388  0.001157  0.500824  1
  Ir  Ir35  1  0.000388  0.001157  0.999176  1
