# generated using pymatgen
data_Dy3Si2GeOs2
_symmetry_space_group_name_H-M   'P 1'
_cell_length_a   5.75807792
_cell_length_b   5.75807714
_cell_length_c   13.84212500
_cell_angle_alpha   90.00000000
_cell_angle_beta   90.00000000
_cell_angle_gamma   137.14402037
_symmetry_Int_Tables_number   1
_chemical_formula_structural   Dy3Si2GeOs2
_chemical_formula_sum   'Dy6 Si4 Ge2 Os4'
_cell_volume   312.15299129
_cell_formula_units_Z   2
loop_
 _symmetry_equiv_pos_site_id
 _symmetry_equiv_pos_as_xyz
  1  'x, y, z'
loop_
 _atom_site_type_symbol
 _atom_site_label
 _atom_site_symmetry_multiplicity
 _atom_site_fract_x
 _atom_site_fract_y
 _atom_site_fract_z
 _atom_site_occupancy
  Dy  Dy0  1  0.575600  0.424400  0.614263  1
  Dy  Dy1  1  0.424400  0.575600  0.385737  1
  Dy  Dy2  1  0.424400  0.575600  0.114263  1
  Dy  Dy3  1  0.575600  0.424400  0.885737  1
  Dy  Dy4  1  0.141672  0.858328  0.250000  1
  Dy  Dy5  1  0.858328  0.141672  0.750000  1
  Si  Si6  1  0.882618  0.117382  0.538275  1
  Si  Si7  1  0.117382  0.882618  0.461725  1
  Si  Si8  1  0.117382  0.882618  0.038275  1
  Si  Si9  1  0.882618  0.117382  0.961725  1
  Ge  Ge10  1  0.831558  0.168442  0.250000  1
  Ge  Ge11  1  0.168442  0.831558  0.750000  1
  Os  Os12  1  0.288858  0.711142  0.920573  1
  Os  Os13  1  0.711142  0.288858  0.079427  1
  Os  Os14  1  0.711142  0.288858  0.420573  1
  Os  Os15  1  0.288858  0.711142  0.579427  1
