# generated using pymatgen
data_Na4CaP12Ir10Ru9
_symmetry_space_group_name_H-M   'P 1'
_cell_length_a   12.57395300
_cell_length_b   12.47582881
_cell_length_c   3.92555800
_cell_angle_alpha   90.00000000
_cell_angle_beta   90.00000000
_cell_angle_gamma   119.96592124
_symmetry_Int_Tables_number   1
_chemical_formula_structural   Na4CaP12Ir10Ru9
_chemical_formula_sum   'Na4 Ca1 P12 Ir10 Ru9'
_cell_volume   533.48511205
_cell_formula_units_Z   1
loop_
 _symmetry_equiv_pos_site_id
 _symmetry_equiv_pos_as_xyz
  1  'x, y, z'
loop_
 _atom_site_type_symbol
 _atom_site_label
 _atom_site_symmetry_multiplicity
 _atom_site_fract_x
 _atom_site_fract_y
 _atom_site_fract_z
 _atom_site_occupancy
  Na  Na0  1  0.666244  0.331881  0.000000  1
  Na  Na1  1  0.817474  0.000044  0.500000  1
  Na  Na2  1  0.179007  0.181453  0.500000  1
  Na  Na3  1  0.000783  0.821079  0.500000  1
  Ca  Ca4  1  0.336150  0.667799  0.000000  1
  P  P5  1  0.629031  0.998612  0.000000  1
  P  P6  1  0.367015  0.370357  0.000000  1
  P  P7  1  0.999614  0.634733  0.000000  1
  P  P8  1  0.689799  0.520008  0.500000  1
  P  P9  1  0.830560  0.307817  0.500000  1
  P  P10  1  0.316117  0.837372  0.500000  1
  P  P11  1  0.523705  0.686443  0.500000  1
  P  P12  1  0.178176  0.000003  0.000000  1
  P  P13  1  0.821690  0.819002  0.000000  1
  P  P14  1  0.993578  0.181757  0.000000  1
  P  P15  1  0.477051  0.165038  0.500000  1
  P  P16  1  0.170615  0.477681  0.500000  1
  Ir  Ir17  1  0.626110  0.808056  0.000000  1
  Ir  Ir18  1  0.182430  0.376838  0.000000  1
  Ir  Ir19  1  0.375098  0.185103  0.000000  1
  Ir  Ir20  1  0.191265  0.815621  0.000000  1
  Ir  Ir21  1  0.806805  0.621136  0.000000  1
  Ir  Ir22  1  0.872706  0.508904  0.500000  1
  Ir  Ir23  1  0.493397  0.361114  0.500000  1
  Ir  Ir24  1  0.635678  0.125415  0.500000  1
  Ir  Ir25  1  0.133188  0.639437  0.500000  1
  Ir  Ir26  1  0.998747  0.002653  0.000000  1
  Ru  Ru27  1  0.362727  0.486298  0.500000  1
  Ru  Ru28  1  0.511692  0.870736  0.500000  1
  Ru  Ru29  1  0.719900  0.717080  0.500000  1
  Ru  Ru30  1  0.999810  0.284787  0.500000  1
  Ru  Ru31  1  0.446729  0.997397  0.000000  1
  Ru  Ru32  1  0.550946  0.549093  0.000000  1
  Ru  Ru33  1  0.000900  0.453566  0.000000  1
  Ru  Ru34  1  0.814415  0.195196  0.000000  1
  Ru  Ru35  1  0.280850  0.000491  0.500000  1
