# generated using pymatgen
data_ZrSc6Al12V3Os7
_symmetry_space_group_name_H-M   'P 1'
_cell_length_a   8.80403090
_cell_length_b   8.80403014
_cell_length_c   8.82524260
_cell_angle_alpha   60.07948530
_cell_angle_beta   60.07947956
_cell_angle_gamma   60.00000574
_symmetry_Int_Tables_number   1
_chemical_formula_structural   ZrSc6Al12V3Os7
_chemical_formula_sum   'Zr1 Sc6 Al12 V3 Os7'
_cell_volume   484.27880284
_cell_formula_units_Z   1
loop_
 _symmetry_equiv_pos_site_id
 _symmetry_equiv_pos_as_xyz
  1  'x, y, z'
loop_
 _atom_site_type_symbol
 _atom_site_label
 _atom_site_symmetry_multiplicity
 _atom_site_fract_x
 _atom_site_fract_y
 _atom_site_fract_z
 _atom_site_occupancy
  Zr  Zr0  1  0.880492  0.880492  0.358521  1
  Sc  Sc1  1  0.710899  0.710899  0.282923  1
  Sc  Sc2  1  0.295278  0.710899  0.282923  1
  Sc  Sc3  1  0.710899  0.295278  0.282923  1
  Sc  Sc4  1  0.283987  0.283987  0.716077  1
  Sc  Sc5  1  0.715950  0.283987  0.716077  1
  Sc  Sc6  1  0.283987  0.715950  0.716077  1
  Al  Al7  1  0.121837  0.121837  0.634489  1
  Al  Al8  1  0.121421  0.638496  0.118664  1
  Al  Al9  1  0.638496  0.121421  0.118664  1
  Al  Al10  1  0.121421  0.121421  0.118664  1
  Al  Al11  1  0.666952  0.666952  0.999145  1
  Al  Al12  1  0.661377  0.008597  0.668650  1
  Al  Al13  1  0.008597  0.661377  0.668650  1
  Al  Al14  1  0.661377  0.661377  0.668650  1
  Al  Al15  1  0.335859  0.335859  0.992423  1
  Al  Al16  1  0.335401  0.992799  0.336398  1
  Al  Al17  1  0.992799  0.335401  0.336398  1
  Al  Al18  1  0.335401  0.335401  0.336398  1
  V  V19  1  0.879695  0.361750  0.878859  1
  V  V20  1  0.361750  0.879695  0.878859  1
  V  V21  1  0.879695  0.879695  0.878859  1
  Os  Os22  1  0.005656  0.005656  0.983031  1
  Os  Os23  1  0.997573  0.997573  0.510854  1
  Os  Os24  1  0.494000  0.997573  0.510854  1
  Os  Os25  1  0.997573  0.494000  0.510854  1
  Os  Os26  1  0.502394  0.502394  0.998372  1
  Os  Os27  1  0.996841  0.502394  0.998372  1
  Os  Os28  1  0.502394  0.996841  0.998372  1
