# generated using pymatgen
data_Pr6Nd4IrRu3
_symmetry_space_group_name_H-M   'P 1'
_cell_length_a   8.97353034
_cell_length_b   8.99993145
_cell_length_c   7.40597454
_cell_angle_alpha   83.70619284
_cell_angle_beta   83.75196021
_cell_angle_gamma   43.43850801
_symmetry_Int_Tables_number   1
_chemical_formula_structural   Pr6Nd4IrRu3
_chemical_formula_sum   'Pr6 Nd4 Ir1 Ru3'
_cell_volume   408.39663021
_cell_formula_units_Z   1
loop_
 _symmetry_equiv_pos_site_id
 _symmetry_equiv_pos_as_xyz
  1  'x, y, z'
loop_
 _atom_site_type_symbol
 _atom_site_label
 _atom_site_symmetry_multiplicity
 _atom_site_fract_x
 _atom_site_fract_y
 _atom_site_fract_z
 _atom_site_occupancy
  Pr  Pr0  1  0.015698  0.799916  0.917094  1
  Pr  Pr1  1  0.201873  0.983714  0.585276  1
  Pr  Pr2  1  0.984023  0.201221  0.086268  1
  Pr  Pr3  1  0.795505  0.020122  0.413628  1
  Pr  Pr4  1  0.359202  0.207708  0.815541  1
  Pr  Pr5  1  0.789660  0.641941  0.685406  1
  Nd  Nd6  1  0.642175  0.790096  0.186090  1
  Nd  Nd7  1  0.209492  0.356298  0.314226  1
  Nd  Nd8  1  0.571856  0.428052  0.749353  1
  Nd  Nd9  1  0.427806  0.573479  0.248370  1
  Ir  Ir10  1  0.181446  0.594857  0.573268  1
  Ru  Ru11  1  0.400313  0.822102  0.925458  1
  Ru  Ru12  1  0.823361  0.400969  0.425398  1
  Ru  Ru13  1  0.597590  0.179526  0.074626  1
