# generated using pymatgen
data_Ba12GaAs3I8
_symmetry_space_group_name_H-M   'P 1'
_cell_length_a   16.41017897
_cell_length_b   15.65525996
_cell_length_c   8.68875429
_cell_angle_alpha   79.13338739
_cell_angle_beta   69.53575657
_cell_angle_gamma   31.14596772
_symmetry_Int_Tables_number   1
_chemical_formula_structural   Ba12GaAs3I8
_chemical_formula_sum   'Ba12 Ga1 As3 I8'
_cell_volume   1053.06729052
_cell_formula_units_Z   1
loop_
 _symmetry_equiv_pos_site_id
 _symmetry_equiv_pos_as_xyz
  1  'x, y, z'
loop_
 _atom_site_type_symbol
 _atom_site_label
 _atom_site_symmetry_multiplicity
 _atom_site_fract_x
 _atom_site_fract_y
 _atom_site_fract_z
 _atom_site_occupancy
  Ba  Ba0  1  0.380187  0.939529  0.588782  1
  Ba  Ba1  1  0.588346  0.091005  0.378382  1
  Ba  Ba2  1  0.309731  0.870888  0.158248  1
  Ba  Ba3  1  0.939529  0.380187  0.091504  1
  Ba  Ba4  1  0.460943  0.038061  0.038188  1
  Ba  Ba5  1  0.870888  0.309731  0.661131  1
  Ba  Ba6  1  0.091005  0.588346  0.942268  1
  Ba  Ba7  1  0.662766  0.157892  0.872983  1
  Ba  Ba8  1  0.786724  0.213790  0.212669  1
  Ba  Ba9  1  0.213790  0.786724  0.786818  1
  Ba  Ba10  1  0.157892  0.662766  0.306357  1
  Ba  Ba11  1  0.038061  0.460943  0.462808  1
  Ga  Ga12  1  0.084027  0.084027  0.915973  1
  As  As13  1  0.913869  0.913869  0.086131  1
  As  As14  1  0.167717  0.167717  0.332283  1
  As  As15  1  0.334351  0.334351  0.165649  1
  I  I16  1  0.672699  0.672699  0.827301  1
  I  I17  1  0.747304  0.747304  0.252696  1
  I  I18  1  0.254664  0.254664  0.745336  1
  I  I19  1  0.578275  0.578275  0.421725  1
  I  I20  1  0.995513  0.995513  0.504487  1
  I  I21  1  0.828972  0.828972  0.671028  1
  I  I22  1  0.420872  0.420872  0.579128  1
  I  I23  1  0.501875  0.501875  0.998125  1
