# generated using pymatgen
data_Tb5Tm11(In3Ru)2
_symmetry_space_group_name_H-M   'P 1'
_cell_length_a   10.30875750
_cell_length_b   10.30950483
_cell_length_c   7.05378611
_cell_angle_alpha   90.05589370
_cell_angle_beta   89.94156805
_cell_angle_gamma   119.98448447
_symmetry_Int_Tables_number   1
_chemical_formula_structural   Tb5Tm11(In3Ru)2
_chemical_formula_sum   'Tb5 Tm11 In6 Ru2'
_cell_volume   649.32875851
_cell_formula_units_Z   1
loop_
 _symmetry_equiv_pos_site_id
 _symmetry_equiv_pos_as_xyz
  1  'x, y, z'
loop_
 _atom_site_type_symbol
 _atom_site_label
 _atom_site_symmetry_multiplicity
 _atom_site_fract_x
 _atom_site_fract_y
 _atom_site_fract_z
 _atom_site_occupancy
  Tb  Tb0  1  0.533790  0.067348  0.514876  1
  Tb  Tb1  1  0.932592  0.466236  0.514892  1
  Tb  Tb2  1  0.533321  0.466657  0.516025  1
  Tb  Tb3  1  0.466071  0.932129  0.015354  1
  Tb  Tb4  1  0.067972  0.533935  0.015390  1
  Tm  Tm5  1  0.465651  0.534426  0.016873  1
  Tm  Tm6  1  0.177202  0.353192  0.720083  1
  Tm  Tm7  1  0.646762  0.822839  0.720042  1
  Tm  Tm8  1  0.176509  0.823391  0.718867  1
  Tm  Tm9  1  0.822542  0.646627  0.218102  1
  Tm  Tm10  1  0.353400  0.177456  0.218102  1
  Tm  Tm11  1  0.823668  0.176394  0.218477  1
  Tm  Tm12  1  0.666174  0.333857  0.896834  1
  Tm  Tm13  1  0.333854  0.666123  0.397269  1
  Tm  Tm14  1  0.999822  0.000149  0.499595  1
  Tm  Tm15  1  0.999875  0.000076  0.999314  1
  In  In16  1  0.837359  0.674617  0.765803  1
  In  In17  1  0.325379  0.162519  0.765675  1
  In  In18  1  0.837257  0.162746  0.764432  1
  In  In19  1  0.163503  0.326172  0.264752  1
  In  In20  1  0.673837  0.836552  0.264709  1
  In  In21  1  0.162705  0.837308  0.265964  1
  Ru  Ru22  1  0.666651  0.333335  0.282548  1
  Ru  Ru23  1  0.334105  0.665912  0.784027  1
