# generated using pymatgen
data_Lu2NbOs3
_symmetry_space_group_name_H-M   'P 1'
_cell_length_a   5.48149000
_cell_length_b   5.48149072
_cell_length_c   8.55655000
_cell_angle_alpha   90.00000000
_cell_angle_beta   90.00000000
_cell_angle_gamma   119.99998358
_symmetry_Int_Tables_number   1
_chemical_formula_structural   Lu2NbOs3
_chemical_formula_sum   'Lu4 Nb2 Os6'
_cell_volume   222.65205375
_cell_formula_units_Z   2
loop_
 _symmetry_equiv_pos_site_id
 _symmetry_equiv_pos_as_xyz
  1  'x, y, z'
loop_
 _atom_site_type_symbol
 _atom_site_label
 _atom_site_symmetry_multiplicity
 _atom_site_fract_x
 _atom_site_fract_y
 _atom_site_fract_z
 _atom_site_occupancy
  Lu  Lu0  1  0.333333  0.666667  0.434845  1
  Lu  Lu1  1  0.666667  0.333333  0.565155  1
  Lu  Lu2  1  0.666667  0.333333  0.934845  1
  Lu  Lu3  1  0.333333  0.666667  0.065155  1
  Nb  Nb4  1  0.000000  0.000000  0.000000  1
  Nb  Nb5  1  0.000000  0.000000  0.500000  1
  Os  Os6  1  0.174345  0.348691  0.750000  1
  Os  Os7  1  0.174345  0.825655  0.750000  1
  Os  Os8  1  0.348691  0.174345  0.250000  1
  Os  Os9  1  0.825655  0.651309  0.250000  1
  Os  Os10  1  0.651309  0.825655  0.750000  1
  Os  Os11  1  0.825655  0.174345  0.250000  1
