# generated using pymatgen
data_SmErTh6(ReC2)4
_symmetry_space_group_name_H-M   'P 1'
_cell_length_a   5.33048800
_cell_length_b   6.68617860
_cell_length_c   10.02642571
_cell_angle_alpha   90.13207186
_cell_angle_beta   90.00000000
_cell_angle_gamma   90.00000000
_symmetry_Int_Tables_number   1
_chemical_formula_structural   SmErTh6(ReC2)4
_chemical_formula_sum   'Sm1 Er1 Th6 Re4 C8'
_cell_volume   357.34682697
_cell_formula_units_Z   1
loop_
 _symmetry_equiv_pos_site_id
 _symmetry_equiv_pos_as_xyz
  1  'x, y, z'
loop_
 _atom_site_type_symbol
 _atom_site_label
 _atom_site_symmetry_multiplicity
 _atom_site_fract_x
 _atom_site_fract_y
 _atom_site_fract_z
 _atom_site_occupancy
  Sm  Sm0  1  0.250000  0.683093  0.549709  1
  Er  Er1  1  0.750000  0.323081  0.447427  1
  Th  Th2  1  0.750000  0.473266  0.775730  1
  Th  Th3  1  0.250000  0.027942  0.285200  1
  Th  Th4  1  0.750000  0.972849  0.715048  1
  Th  Th5  1  0.250000  0.526311  0.222192  1
  Th  Th6  1  0.750000  0.810577  0.049340  1
  Th  Th7  1  0.250000  0.190494  0.951176  1
  Re  Re8  1  0.750000  0.770650  0.364554  1
  Re  Re9  1  0.250000  0.726085  0.860799  1
  Re  Re10  1  0.250000  0.228527  0.634248  1
  Re  Re11  1  0.750000  0.273236  0.140608  1
  C  C12  1  0.250000  0.964041  0.740905  1
  C  C13  1  0.750000  0.531720  0.246510  1
  C  C14  1  0.250000  0.465739  0.755403  1
  C  C15  1  0.750000  0.038407  0.262524  1
  C  C16  1  0.250000  0.325113  0.447934  1
  C  C17  1  0.750000  0.163870  0.947962  1
  C  C18  1  0.250000  0.835780  0.052543  1
  C  C19  1  0.750000  0.669219  0.550187  1
