# generated using pymatgen
data_DyYSc2(ReB6)2
_symmetry_space_group_name_H-M   'P 1'
_cell_length_a   3.58818100
_cell_length_b   9.01775801
_cell_length_c   11.40047301
_cell_angle_alpha   90.00483812
_cell_angle_beta   90.00000000
_cell_angle_gamma   90.00000000
_symmetry_Int_Tables_number   1
_chemical_formula_structural   DyYSc2(ReB6)2
_chemical_formula_sum   'Dy2 Y2 Sc4 Re4 B24'
_cell_volume   368.88907064
_cell_formula_units_Z   2
loop_
 _symmetry_equiv_pos_site_id
 _symmetry_equiv_pos_as_xyz
  1  'x, y, z'
loop_
 _atom_site_type_symbol
 _atom_site_label
 _atom_site_symmetry_multiplicity
 _atom_site_fract_x
 _atom_site_fract_y
 _atom_site_fract_z
 _atom_site_occupancy
  Dy  Dy0  1  0.000000  0.821719  0.086027  1
  Dy  Dy1  1  0.000000  0.178281  0.913973  1
  Y  Y2  1  0.000000  0.321624  0.414038  1
  Y  Y3  1  0.000000  0.678376  0.585962  1
  Sc  Sc4  1  0.000000  0.944208  0.370242  1
  Sc  Sc5  1  0.000000  0.055792  0.629758  1
  Sc  Sc6  1  0.000000  0.444136  0.129830  1
  Sc  Sc7  1  0.000000  0.555864  0.870170  1
  Re  Re8  1  0.000000  0.640924  0.318267  1
  Re  Re9  1  0.000000  0.359076  0.681733  1
  Re  Re10  1  0.000000  0.140772  0.181543  1
  Re  Re11  1  0.000000  0.859228  0.818457  1
  B  B12  1  0.500000  0.554489  0.432447  1
  B  B13  1  0.500000  0.445511  0.567553  1
  B  B14  1  0.500000  0.054434  0.067479  1
  B  B15  1  0.500000  0.945566  0.932521  1
  B  B16  1  0.500000  0.754729  0.418331  1
  B  B17  1  0.500000  0.245271  0.581669  1
  B  B18  1  0.500000  0.254714  0.081522  1
  B  B19  1  0.500000  0.745286  0.918478  1
  B  B20  1  0.500000  0.795251  0.264837  1
  B  B21  1  0.500000  0.204749  0.735163  1
  B  B22  1  0.500000  0.295251  0.235021  1
  B  B23  1  0.500000  0.704749  0.764979  1
  B  B24  1  0.500000  0.629168  0.183011  1
  B  B25  1  0.500000  0.370832  0.816989  1
  B  B26  1  0.500000  0.129009  0.316920  1
  B  B27  1  0.500000  0.870991  0.683080  1
  B  B28  1  0.500000  0.981565  0.213805  1
  B  B29  1  0.500000  0.018435  0.786195  1
  B  B30  1  0.500000  0.481688  0.286107  1
  B  B31  1  0.500000  0.518312  0.713893  1
  B  B32  1  0.500000  0.595370  0.026051  1
  B  B33  1  0.500000  0.404630  0.973949  1
  B  B34  1  0.500000  0.095282  0.473963  1
  B  B35  1  0.500000  0.904718  0.526037  1
