# generated using pymatgen
data_Tb11In9Co3Rh
_symmetry_space_group_name_H-M   'P 1'
_cell_length_a   3.67045400
_cell_length_b   13.05382305
_cell_length_c   13.03655181
_cell_angle_alpha   111.25038318
_cell_angle_beta   90.00000000
_cell_angle_gamma   90.00000000
_symmetry_Int_Tables_number   1
_chemical_formula_structural   Tb11In9Co3Rh
_chemical_formula_sum   'Tb11 In9 Co3 Rh1'
_cell_volume   582.15508015
_cell_formula_units_Z   1
loop_
 _symmetry_equiv_pos_site_id
 _symmetry_equiv_pos_as_xyz
  1  'x, y, z'
loop_
 _atom_site_type_symbol
 _atom_site_label
 _atom_site_symmetry_multiplicity
 _atom_site_fract_x
 _atom_site_fract_y
 _atom_site_fract_z
 _atom_site_occupancy
  Tb  Tb0  1  0.000000  0.918322  0.580572  1
  Tb  Tb1  1  0.000000  0.081229  0.419952  1
  Tb  Tb2  1  0.000000  0.580383  0.917071  1
  Tb  Tb3  1  0.000000  0.418846  0.077496  1
  Tb  Tb4  1  0.000000  0.159976  0.838632  1
  Tb  Tb5  1  0.000000  0.840598  0.161116  1
  Tb  Tb6  1  0.000000  0.375771  0.624863  1
  Tb  Tb7  1  0.000000  0.628078  0.378743  1
  Tb  Tb8  1  0.000000  0.685166  0.685475  1
  Tb  Tb9  1  0.000000  0.312216  0.316474  1
  Tb  Tb10  1  0.000000  0.999128  0.999752  1
  In  In11  1  0.500000  0.161250  0.631793  1
  In  In12  1  0.500000  0.839142  0.368179  1
  In  In13  1  0.500000  0.633040  0.158949  1
  In  In14  1  0.500000  0.368387  0.838176  1
  In  In15  1  0.500000  0.920141  0.778651  1
  In  In16  1  0.500000  0.079568  0.221531  1
  In  In17  1  0.500000  0.778457  0.920513  1
  In  In18  1  0.500000  0.219200  0.077379  1
  In  In19  1  0.500000  0.500022  0.501590  1
  Co  Co20  1  0.500000  0.755263  0.551052  1
  Co  Co21  1  0.500000  0.244601  0.449957  1
  Co  Co22  1  0.500000  0.550881  0.753779  1
  Rh  Rh23  1  0.500000  0.450334  0.248302  1
