# generated using pymatgen
data_NaNb6VTe12
_symmetry_space_group_name_H-M   'P 1'
_cell_length_a   6.47755900
_cell_length_b   6.47756129
_cell_length_c   15.19659700
_cell_angle_alpha   90.00000000
_cell_angle_beta   90.00000000
_cell_angle_gamma   119.99999343
_symmetry_Int_Tables_number   1
_chemical_formula_structural   NaNb6VTe12
_chemical_formula_sum   'Na1 Nb6 V1 Te12'
_cell_volume   552.20446643
_cell_formula_units_Z   1
loop_
 _symmetry_equiv_pos_site_id
 _symmetry_equiv_pos_as_xyz
  1  'x, y, z'
loop_
 _atom_site_type_symbol
 _atom_site_label
 _atom_site_symmetry_multiplicity
 _atom_site_fract_x
 _atom_site_fract_y
 _atom_site_fract_z
 _atom_site_occupancy
  Na  Na0  1  0.333333  0.666667  0.250000  1
  Nb  Nb1  1  0.000000  0.000000  0.524836  1
  Nb  Nb2  1  0.000000  0.000000  0.975164  1
  Nb  Nb3  1  0.333333  0.666667  0.975331  1
  Nb  Nb4  1  0.666667  0.333333  0.973049  1
  Nb  Nb5  1  0.666667  0.333333  0.526951  1
  Nb  Nb6  1  0.333333  0.666667  0.524669  1
  V  V7  1  0.666667  0.333333  0.750000  1
  Te  Te8  1  0.334993  0.330464  0.405437  1
  Te  Te9  1  0.669536  0.004529  0.405437  1
  Te  Te10  1  0.995471  0.665007  0.405437  1
  Te  Te11  1  0.328234  0.333586  0.643335  1
  Te  Te12  1  0.005353  0.671766  0.643335  1
  Te  Te13  1  0.666414  0.994647  0.643335  1
  Te  Te14  1  0.666414  0.671766  0.856665  1
  Te  Te15  1  0.328234  0.994647  0.856665  1
  Te  Te16  1  0.005353  0.333586  0.856665  1
  Te  Te17  1  0.669536  0.665007  0.094563  1
  Te  Te18  1  0.995471  0.330464  0.094563  1
  Te  Te19  1  0.334993  0.004529  0.094563  1
