# generated using pymatgen
data_Mn9V3Si4
_symmetry_space_group_name_H-M   'P 1'
_cell_length_a   13.29496900
_cell_length_b   13.29496897
_cell_length_c   13.29497016
_cell_angle_alpha   17.33469127
_cell_angle_beta   17.33469177
_cell_angle_gamma   17.33469516
_symmetry_Int_Tables_number   1
_chemical_formula_structural   Mn9V3Si4
_chemical_formula_sum   'Mn9 V3 Si4'
_cell_volume   182.04873074
_cell_formula_units_Z   1
loop_
 _symmetry_equiv_pos_site_id
 _symmetry_equiv_pos_as_xyz
  1  'x, y, z'
loop_
 _atom_site_type_symbol
 _atom_site_label
 _atom_site_symmetry_multiplicity
 _atom_site_fract_x
 _atom_site_fract_y
 _atom_site_fract_z
 _atom_site_occupancy
  Mn  Mn0  1  0.562270  0.562270  0.562270  1
  Mn  Mn1  1  0.812667  0.812667  0.812667  1
  Mn  Mn2  1  0.062274  0.062274  0.062274  1
  Mn  Mn3  1  0.313256  0.313256  0.313256  1
  Mn  Mn4  1  0.187333  0.187333  0.187333  1
  Mn  Mn5  1  0.437730  0.437730  0.437730  1
  Mn  Mn6  1  0.686744  0.686744  0.686744  1
  Mn  Mn7  1  0.937726  0.937726  0.937726  1
  Mn  Mn8  1  0.000000  0.000000  0.000000  1
  V  V9  1  0.251185  0.251185  0.251185  1
  V  V10  1  0.500000  0.500000  0.500000  1
  V  V11  1  0.748815  0.748815  0.748815  1
  Si  Si12  1  0.875612  0.875612  0.875612  1
  Si  Si13  1  0.124388  0.124388  0.124388  1
  Si  Si14  1  0.375031  0.375031  0.375031  1
  Si  Si15  1  0.624969  0.624969  0.624969  1
