# generated using pymatgen
data_TaNb9(B2As)2
_symmetry_space_group_name_H-M   'P 1'
_cell_length_a   7.36231321
_cell_length_b   7.36231278
_cell_length_c   7.36231349
_cell_angle_alpha   129.46540660
_cell_angle_beta   129.46540696
_cell_angle_gamma   74.26286310
_symmetry_Int_Tables_number   1
_chemical_formula_structural   TaNb9(B2As)2
_chemical_formula_sum   'Ta1 Nb9 B4 As2'
_cell_volume   231.86369951
_cell_formula_units_Z   1
loop_
 _symmetry_equiv_pos_site_id
 _symmetry_equiv_pos_as_xyz
  1  'x, y, z'
loop_
 _atom_site_type_symbol
 _atom_site_label
 _atom_site_symmetry_multiplicity
 _atom_site_fract_x
 _atom_site_fract_y
 _atom_site_fract_z
 _atom_site_occupancy
  Ta  Ta0  1  0.500000  0.500000  0.000000  1
  Nb  Nb1  1  0.529581  0.696206  0.500460  1
  Nb  Nb2  1  0.195746  0.029122  0.499540  1
  Nb  Nb3  1  0.029122  0.529581  0.833376  1
  Nb  Nb4  1  0.696206  0.195746  0.166624  1
  Nb  Nb5  1  0.470419  0.303794  0.499540  1
  Nb  Nb6  1  0.804254  0.970878  0.500460  1
  Nb  Nb7  1  0.970878  0.470419  0.166624  1
  Nb  Nb8  1  0.303794  0.804254  0.833376  1
  Nb  Nb9  1  0.000000  0.000000  0.000000  1
  B  B10  1  0.882676  0.614760  0.497437  1
  B  B11  1  0.117324  0.385240  0.502563  1
  B  B12  1  0.385240  0.882676  0.267914  1
  B  B13  1  0.614760  0.117324  0.732086  1
  As  As14  1  0.250207  0.250207  0.000000  1
  As  As15  1  0.749793  0.749793  0.000000  1
