# generated using pymatgen
data_TmLu4(In2Ir)2
_symmetry_space_group_name_H-M   'P 1'
_cell_length_a   3.52851100
_cell_length_b   7.96944100
_cell_length_c   18.09734800
_cell_angle_alpha   90.00000000
_cell_angle_beta   90.00000000
_cell_angle_gamma   90.00000000
_symmetry_Int_Tables_number   1
_chemical_formula_structural   TmLu4(In2Ir)2
_chemical_formula_sum   'Tm2 Lu8 In8 Ir4'
_cell_volume   508.90213528
_cell_formula_units_Z   2
loop_
 _symmetry_equiv_pos_site_id
 _symmetry_equiv_pos_as_xyz
  1  'x, y, z'
loop_
 _atom_site_type_symbol
 _atom_site_label
 _atom_site_symmetry_multiplicity
 _atom_site_fract_x
 _atom_site_fract_y
 _atom_site_fract_z
 _atom_site_occupancy
  Tm  Tm0  1  0.000000  0.000000  0.000000  1
  Tm  Tm1  1  0.000000  0.500000  0.500000  1
  Lu  Lu2  1  0.000000  0.116307  0.412918  1
  Lu  Lu3  1  0.000000  0.883693  0.587082  1
  Lu  Lu4  1  0.000000  0.383693  0.912918  1
  Lu  Lu5  1  0.000000  0.616307  0.087082  1
  Lu  Lu6  1  0.000000  0.244567  0.221428  1
  Lu  Lu7  1  0.000000  0.755433  0.778572  1
  Lu  Lu8  1  0.000000  0.255433  0.721428  1
  Lu  Lu9  1  0.000000  0.744567  0.278572  1
  In  In10  1  0.500000  0.425948  0.351190  1
  In  In11  1  0.500000  0.574052  0.648810  1
  In  In12  1  0.500000  0.074052  0.851190  1
  In  In13  1  0.500000  0.925948  0.148810  1
  In  In14  1  0.500000  0.293799  0.066552  1
  In  In15  1  0.500000  0.706201  0.933448  1
  In  In16  1  0.500000  0.206201  0.566552  1
  In  In17  1  0.500000  0.793799  0.433448  1
  Ir  Ir18  1  0.500000  0.023964  0.303710  1
  Ir  Ir19  1  0.500000  0.976036  0.696290  1
  Ir  Ir20  1  0.500000  0.476036  0.803710  1
  Ir  Ir21  1  0.500000  0.523964  0.196290  1
