# generated using pymatgen
data_La2Pa2Al17GaIr6
_symmetry_space_group_name_H-M   'P 1'
_cell_length_a   7.65317008
_cell_length_b   7.64217826
_cell_length_c   9.46253100
_cell_angle_alpha   90.00000000
_cell_angle_beta   90.00000000
_cell_angle_gamma   119.58572347
_symmetry_Int_Tables_number   1
_chemical_formula_structural   La2Pa2Al17GaIr6
_chemical_formula_sum   'La2 Pa2 Al17 Ga1 Ir6'
_cell_volume   481.27616577
_cell_formula_units_Z   1
loop_
 _symmetry_equiv_pos_site_id
 _symmetry_equiv_pos_as_xyz
  1  'x, y, z'
loop_
 _atom_site_type_symbol
 _atom_site_label
 _atom_site_symmetry_multiplicity
 _atom_site_fract_x
 _atom_site_fract_y
 _atom_site_fract_z
 _atom_site_occupancy
  La  La0  1  0.670491  0.994047  0.250000  1
  La  La1  1  0.330524  0.005879  0.750000  1
  Pa  Pa2  1  0.997587  0.672526  0.250000  1
  Pa  Pa3  1  0.002429  0.328433  0.750000  1
  Al  Al4  1  0.867269  0.871043  0.750000  1
  Al  Al5  1  0.002852  0.335130  0.075128  1
  Al  Al6  1  0.997108  0.665129  0.924918  1
  Al  Al7  1  0.997108  0.665129  0.575082  1
  Al  Al8  1  0.335822  0.003759  0.424435  1
  Al  Al9  1  0.002852  0.335130  0.424872  1
  Al  Al10  1  0.664391  0.996337  0.575421  1
  Al  Al11  1  0.664391  0.996337  0.924579  1
  Al  Al12  1  0.335822  0.003759  0.075565  1
  Al  Al13  1  0.334975  0.335437  0.550885  1
  Al  Al14  1  0.665013  0.664523  0.449830  1
  Al  Al15  1  0.665013  0.664523  0.050170  1
  Al  Al16  1  0.334975  0.335437  0.949115  1
  Al  Al17  1  0.336510  0.545072  0.250000  1
  Al  Al18  1  0.662864  0.455036  0.750000  1
  Al  Al19  1  0.550533  0.346158  0.250000  1
  Al  Al20  1  0.449779  0.653222  0.750000  1
  Ga  Ga21  1  0.134519  0.130809  0.250000  1
  Ir  Ir22  1  0.675643  0.331044  0.999759  1
  Ir  Ir23  1  0.323763  0.668305  0.000466  1
  Ir  Ir24  1  0.323763  0.668305  0.499534  1
  Ir  Ir25  1  0.675643  0.331044  0.500241  1
  Ir  Ir26  1  0.999180  0.999224  0.998035  1
  Ir  Ir27  1  0.999180  0.999224  0.501965  1
