# generated using pymatgen
data_Li6YHo5(WO6)4
_symmetry_space_group_name_H-M   'P 1'
_cell_length_a   10.65893460
_cell_length_b   10.66550749
_cell_length_c   10.66214730
_cell_angle_alpha   109.49192138
_cell_angle_beta   109.46698482
_cell_angle_gamma   109.45533063
_symmetry_Int_Tables_number   1
_chemical_formula_structural   Li6YHo5(WO6)4
_chemical_formula_sum   'Li12 Y2 Ho10 W8 O48'
_cell_volume   933.07164935
_cell_formula_units_Z   2
loop_
 _symmetry_equiv_pos_site_id
 _symmetry_equiv_pos_as_xyz
  1  'x, y, z'
loop_
 _atom_site_type_symbol
 _atom_site_label
 _atom_site_symmetry_multiplicity
 _atom_site_fract_x
 _atom_site_fract_y
 _atom_site_fract_z
 _atom_site_occupancy
  Li  Li0  1  0.750030  0.375280  0.125272  1
  Li  Li1  1  0.875239  0.749993  0.125272  1
  Li  Li2  1  0.125230  0.375292  0.250269  1
  Li  Li3  1  0.625039  0.874979  0.250271  1
  Li  Li4  1  0.249994  0.124951  0.374988  1
  Li  Li5  1  0.624992  0.250036  0.374987  1
  Li  Li6  1  0.374541  0.749737  0.624513  1
  Li  Li7  1  0.749973  0.874776  0.624512  1
  Li  Li8  1  0.374742  0.124997  0.749993  1
  Li  Li9  1  0.875250  0.624995  0.749991  1
  Li  Li10  1  0.249731  0.624984  0.874957  1
  Li  Li11  1  0.125226  0.249974  0.874957  1
  Y  Y12  1  0.624921  0.749779  0.875079  1
  Y  Y13  1  0.750158  0.125300  0.875080  1
  Ho  Ho14  1  0.374992  0.249994  0.124980  1
  Ho  Ho15  1  0.249988  0.874988  0.124981  1
  Ho  Ho16  1  0.875229  0.125229  0.250457  1
  Ho  Ho17  1  0.375006  0.625005  0.250011  1
  Ho  Ho18  1  0.749981  0.624998  0.374991  1
  Ho  Ho19  1  0.125008  0.749992  0.374991  1
  Ho  Ho20  1  0.875082  0.250160  0.624853  1
  Ho  Ho21  1  0.249772  0.374694  0.624854  1
  Ho  Ho22  1  0.624840  0.374839  0.749680  1
  Ho  Ho23  1  0.125019  0.875019  0.750034  1
  W  W24  1  0.000763  0.000209  0.000555  1
  W  W25  1  0.499793  0.000346  0.000555  1
  W  W26  1  0.000247  0.500558  0.000032  1
  W  W27  1  0.499785  0.499475  0.000032  1
  W  W28  1  0.000023  0.999944  0.500010  1
  W  W29  1  0.499762  0.999977  0.499412  1
  W  W30  1  0.999988  0.500066  0.500011  1
  W  W31  1  0.499649  0.499434  0.499411  1
  O  O32  1  0.202018  0.619982  0.028247  1
  O  O33  1  0.326228  0.408264  0.028246  1
  O  O34  1  0.701625  0.174212  0.083376  1
  O  O35  1  0.881751  0.909164  0.083374  1
  O  O36  1  0.619668  0.918733  0.092582  1
  O  O37  1  0.972913  0.173847  0.092582  1
  O  O38  1  0.028396  0.702193  0.119813  1
  O  O39  1  0.591420  0.417620  0.119814  1
  O  O40  1  0.202499  0.082352  0.173975  1
  O  O41  1  0.471477  0.091621  0.173974  1
  O  O42  1  0.119618  0.528089  0.201693  1
  O  O43  1  0.582074  0.673602  0.201692  1
  O  O44  1  0.326144  0.417561  0.297731  1
  O  O45  1  0.471589  0.880170  0.297732  1
  O  O46  1  0.917906  0.798228  0.326318  1
  O  O47  1  0.908409  0.528087  0.326317  1
  O  O48  1  0.582059  0.408221  0.379999  1
  O  O49  1  0.297938  0.971777  0.379996  1
  O  O50  1  0.826346  0.028050  0.408394  1
  O  O51  1  0.082050  0.380345  0.408397  1
  O  O52  1  0.091736  0.119697  0.418054  1
  O  O53  1  0.826321  0.298357  0.418055  1
  O  O54  1  0.591484  0.673481  0.471901  1
  O  O55  1  0.380418  0.798421  0.471898  1
  O  O56  1  0.619668  0.201823  0.527888  1
  O  O57  1  0.408218  0.326063  0.527885  1
  O  O58  1  0.173612  0.701726  0.582070  1
  O  O59  1  0.908457  0.880344  0.582069  1
  O  O60  1  0.917853  0.619693  0.591587  1
  O  O61  1  0.173733  0.971893  0.591586  1
  O  O62  1  0.701502  0.027526  0.618160  1
  O  O63  1  0.416658  0.590633  0.618160  1
  O  O64  1  0.082121  0.201699  0.673698  1
  O  O65  1  0.091579  0.472001  0.673699  1
  O  O66  1  0.527167  0.119701  0.700760  1
  O  O67  1  0.673594  0.581059  0.700761  1
  O  O68  1  0.880375  0.472023  0.798110  1
  O  O69  1  0.417735  0.326091  0.798109  1
  O  O70  1  0.526628  0.908432  0.826089  1
  O  O71  1  0.799458  0.917655  0.826089  1
  O  O72  1  0.972889  0.299247  0.880367  1
  O  O73  1  0.407477  0.581121  0.880367  1
  O  O74  1  0.380242  0.082366  0.908642  1
  O  O75  1  0.028401  0.826278  0.908644  1
  O  O76  1  0.298127  0.826360  0.918041  1
  O  O77  1  0.119912  0.091678  0.918042  1
  O  O78  1  0.798555  0.381719  0.972508  1
  O  O79  1  0.673956  0.590791  0.972511  1
