# generated using pymatgen
data_Er4Tm(SiHg)2
_symmetry_space_group_name_H-M   'P 1'
_cell_length_a   8.71034527
_cell_length_b   8.71034591
_cell_length_c   7.49186600
_cell_angle_alpha   90.00000000
_cell_angle_beta   90.00000000
_cell_angle_gamma   129.18273167
_symmetry_Int_Tables_number   1
_chemical_formula_structural   Er4Tm(SiHg)2
_chemical_formula_sum   'Er8 Tm2 Si4 Hg4'
_cell_volume   440.59350179
_cell_formula_units_Z   2
loop_
 _symmetry_equiv_pos_site_id
 _symmetry_equiv_pos_as_xyz
  1  'x, y, z'
loop_
 _atom_site_type_symbol
 _atom_site_label
 _atom_site_symmetry_multiplicity
 _atom_site_fract_x
 _atom_site_fract_y
 _atom_site_fract_z
 _atom_site_occupancy
  Er  Er0  1  0.553317  0.808297  0.175650  1
  Er  Er1  1  0.308297  0.053317  0.324350  1
  Er  Er2  1  0.191703  0.446683  0.824350  1
  Er  Er3  1  0.946683  0.691703  0.675650  1
  Er  Er4  1  0.691703  0.946683  0.675650  1
  Er  Er5  1  0.446683  0.191703  0.824350  1
  Er  Er6  1  0.808297  0.553317  0.175650  1
  Er  Er7  1  0.053317  0.308297  0.324350  1
  Tm  Tm8  1  0.500000  0.500000  0.500000  1
  Tm  Tm9  1  0.000000  0.000000  0.000000  1
  Si  Si10  1  0.619871  0.619871  0.877519  1
  Si  Si11  1  0.119871  0.119871  0.622481  1
  Si  Si12  1  0.880129  0.880129  0.377519  1
  Si  Si13  1  0.380129  0.380129  0.122481  1
  Hg  Hg14  1  0.283367  0.716633  0.500000  1
  Hg  Hg15  1  0.216633  0.783367  0.000000  1
  Hg  Hg16  1  0.716633  0.283367  0.500000  1
  Hg  Hg17  1  0.783367  0.216633  0.000000  1
