# generated using pymatgen
data_Lu(CuTe)3
_symmetry_space_group_name_H-M   'P 1'
_cell_length_a   6.87202700
_cell_length_b   7.54775900
_cell_length_c   12.97216500
_cell_angle_alpha   90.00000000
_cell_angle_beta   90.00000000
_cell_angle_gamma   90.00000000
_symmetry_Int_Tables_number   1
_chemical_formula_structural   Lu(CuTe)3
_chemical_formula_sum   'Lu4 Cu12 Te12'
_cell_volume   672.84549027
_cell_formula_units_Z   4
loop_
 _symmetry_equiv_pos_site_id
 _symmetry_equiv_pos_as_xyz
  1  'x, y, z'
loop_
 _atom_site_type_symbol
 _atom_site_label
 _atom_site_symmetry_multiplicity
 _atom_site_fract_x
 _atom_site_fract_y
 _atom_site_fract_z
 _atom_site_occupancy
  Lu  Lu0  1  0.243157  0.749556  0.839336  1
  Lu  Lu1  1  0.743157  0.250444  0.660664  1
  Lu  Lu2  1  0.743157  0.250444  0.339336  1
  Lu  Lu3  1  0.243157  0.749556  0.160664  1
  Cu  Cu4  1  0.363483  0.115737  0.825459  1
  Cu  Cu5  1  0.618707  0.624458  0.000000  1
  Cu  Cu6  1  0.122779  0.381628  0.173892  1
  Cu  Cu7  1  0.118707  0.375542  0.500000  1
  Cu  Cu8  1  0.870003  0.881522  0.000000  1
  Cu  Cu9  1  0.370003  0.118478  0.500000  1
  Cu  Cu10  1  0.622779  0.618372  0.673892  1
  Cu  Cu11  1  0.863483  0.884263  0.674541  1
  Cu  Cu12  1  0.122779  0.381628  0.826108  1
  Cu  Cu13  1  0.363483  0.115737  0.174541  1
  Cu  Cu14  1  0.863483  0.884263  0.325459  1
  Cu  Cu15  1  0.622779  0.618372  0.326108  1
  Te  Te16  1  0.974008  0.066271  0.836315  1
  Te  Te17  1  0.012780  0.565975  0.663742  1
  Te  Te18  1  0.974008  0.066271  0.163685  1
  Te  Te19  1  0.985526  0.050858  0.500000  1
  Te  Te20  1  0.512780  0.434025  0.836258  1
  Te  Te21  1  0.500151  0.447165  0.500000  1
  Te  Te22  1  0.000151  0.552835  0.000000  1
  Te  Te23  1  0.474008  0.933729  0.663685  1
  Te  Te24  1  0.485526  0.949142  0.000000  1
  Te  Te25  1  0.012780  0.565975  0.336258  1
  Te  Te26  1  0.512780  0.434025  0.163742  1
  Te  Te27  1  0.474008  0.933729  0.336315  1
