# generated using pymatgen
data_Ba2Ni2RhN2
_symmetry_space_group_name_H-M   'P 1'
_cell_length_a   6.44101534
_cell_length_b   6.44101466
_cell_length_c   7.41780399
_cell_angle_alpha   89.95610680
_cell_angle_beta   90.04389574
_cell_angle_gamma   109.94444685
_symmetry_Int_Tables_number   1
_chemical_formula_structural   Ba2Ni2RhN2
_chemical_formula_sum   'Ba4 Ni4 Rh2 N4'
_cell_volume   289.28281322
_cell_formula_units_Z   2
loop_
 _symmetry_equiv_pos_site_id
 _symmetry_equiv_pos_as_xyz
  1  'x, y, z'
loop_
 _atom_site_type_symbol
 _atom_site_label
 _atom_site_symmetry_multiplicity
 _atom_site_fract_x
 _atom_site_fract_y
 _atom_site_fract_z
 _atom_site_occupancy
  Ba  Ba0  1  0.668455  0.333850  0.406749  1
  Ba  Ba1  1  0.333850  0.668455  0.593251  1
  Ba  Ba2  1  0.837145  0.171517  0.906658  1
  Ba  Ba3  1  0.171517  0.837145  0.093342  1
  Ni  Ni4  1  0.834283  0.671703  0.749486  1
  Ni  Ni5  1  0.671703  0.834283  0.250514  1
  Ni  Ni6  1  0.029486  0.029486  0.500000  1
  Ni  Ni7  1  0.476498  0.476498  0.000000  1
  Rh  Rh8  1  0.179785  0.326173  0.249797  1
  Rh  Rh9  1  0.326173  0.179785  0.750203  1
  N  N10  1  0.915401  0.066109  0.278179  1
  N  N11  1  0.066109  0.915401  0.721821  1
  N  N12  1  0.590490  0.440108  0.778285  1
  N  N13  1  0.440108  0.590490  0.221715  1
