# generated using pymatgen
data_La2MnAl20RuRh2
_symmetry_space_group_name_H-M   'P 1'
_cell_length_a   6.91298300
_cell_length_b   6.91997092
_cell_length_c   9.21063458
_cell_angle_alpha   89.91559438
_cell_angle_beta   90.02577598
_cell_angle_gamma   97.04898892
_symmetry_Int_Tables_number   1
_chemical_formula_structural   La2MnAl20RuRh2
_chemical_formula_sum   'La2 Mn1 Al20 Ru1 Rh2'
_cell_volume   437.28419293
_cell_formula_units_Z   1
loop_
 _symmetry_equiv_pos_site_id
 _symmetry_equiv_pos_as_xyz
  1  'x, y, z'
loop_
 _atom_site_type_symbol
 _atom_site_label
 _atom_site_symmetry_multiplicity
 _atom_site_fract_x
 _atom_site_fract_y
 _atom_site_fract_z
 _atom_site_occupancy
  La  La0  1  0.874208  0.119376  0.752368  1
  La  La1  1  0.125792  0.880624  0.247632  1
  Mn  Mn2  1  0.500000  0.000000  0.000000  1
  Al  Al3  1  0.619292  0.376509  0.551356  1
  Al  Al4  1  0.380708  0.623491  0.448644  1
  Al  Al5  1  0.382609  0.627143  0.049827  1
  Al  Al6  1  0.617391  0.372857  0.950173  1
  Al  Al7  1  0.228650  0.225819  0.499440  1
  Al  Al8  1  0.771350  0.774181  0.500560  1
  Al  Al9  1  0.767105  0.776516  0.997589  1
  Al  Al10  1  0.232895  0.223484  0.002411  1
  Al  Al11  1  0.833569  0.158465  0.101124  1
  Al  Al12  1  0.166431  0.841535  0.898876  1
  Al  Al13  1  0.161897  0.838834  0.603158  1
  Al  Al14  1  0.838103  0.161166  0.396842  1
  Al  Al15  1  0.859674  0.590777  0.750600  1
  Al  Al16  1  0.140326  0.409223  0.249400  1
  Al  Al17  1  0.410876  0.136453  0.753329  1
  Al  Al18  1  0.589124  0.863547  0.246671  1
  Al  Al19  1  0.224917  0.481275  0.749835  1
  Al  Al20  1  0.775083  0.518725  0.250165  1
  Al  Al21  1  0.516998  0.779720  0.752861  1
  Al  Al22  1  0.483002  0.220280  0.247139  1
  Ru  Ru23  1  0.500000  0.000000  0.500000  1
  Rh  Rh24  1  0.000000  0.500000  0.500000  1
  Rh  Rh25  1  0.000000  0.500000  0.000000  1
