# generated using pymatgen
data_Tm5ThTcIr
_symmetry_space_group_name_H-M   'P 1'
_cell_length_a   6.28655900
_cell_length_b   7.26576800
_cell_length_c   9.23110500
_cell_angle_alpha   90.00000000
_cell_angle_beta   90.00000000
_cell_angle_gamma   90.00000000
_symmetry_Int_Tables_number   1
_chemical_formula_structural   Tm5ThTcIr
_chemical_formula_sum   'Tm10 Th2 Tc2 Ir2'
_cell_volume   421.64622186
_cell_formula_units_Z   2
loop_
 _symmetry_equiv_pos_site_id
 _symmetry_equiv_pos_as_xyz
  1  'x, y, z'
loop_
 _atom_site_type_symbol
 _atom_site_label
 _atom_site_symmetry_multiplicity
 _atom_site_fract_x
 _atom_site_fract_y
 _atom_site_fract_z
 _atom_site_occupancy
  Tm  Tm0  1  0.333637  0.676934  0.061665  1
  Tm  Tm1  1  0.166363  0.176934  0.438335  1
  Tm  Tm2  1  0.668552  0.323473  0.566139  1
  Tm  Tm3  1  0.831448  0.823473  0.933861  1
  Tm  Tm4  1  0.668552  0.323473  0.933861  1
  Tm  Tm5  1  0.831448  0.823473  0.566139  1
  Tm  Tm6  1  0.333637  0.676934  0.438335  1
  Tm  Tm7  1  0.166363  0.176934  0.061665  1
  Tm  Tm8  1  0.132700  0.462123  0.750000  1
  Tm  Tm9  1  0.367300  0.962123  0.750000  1
  Th  Th10  1  0.866409  0.547087  0.250000  1
  Th  Th11  1  0.633591  0.047087  0.250000  1
  Tc  Tc12  1  0.023828  0.872803  0.250000  1
  Tc  Tc13  1  0.476172  0.372803  0.250000  1
  Ir  Ir14  1  0.956002  0.117172  0.750000  1
  Ir  Ir15  1  0.543998  0.617172  0.750000  1
