# generated using pymatgen
data_Ho5Er11Cd4TcPt3
_symmetry_space_group_name_H-M   'P 1'
_cell_length_a   9.65254088
_cell_length_b   9.65115109
_cell_length_c   9.65115114
_cell_angle_alpha   59.32069666
_cell_angle_beta   59.31506687
_cell_angle_gamma   59.31507001
_symmetry_Int_Tables_number   1
_chemical_formula_structural   Ho5Er11Cd4TcPt3
_chemical_formula_sum   'Ho5 Er11 Cd4 Tc1 Pt3'
_cell_volume   625.86088979
_cell_formula_units_Z   1
loop_
 _symmetry_equiv_pos_site_id
 _symmetry_equiv_pos_as_xyz
  1  'x, y, z'
loop_
 _atom_site_type_symbol
 _atom_site_label
 _atom_site_symmetry_multiplicity
 _atom_site_fract_x
 _atom_site_fract_y
 _atom_site_fract_z
 _atom_site_occupancy
  Ho  Ho0  1  0.806263  0.188150  0.188150  1
  Ho  Ho1  1  0.815267  0.185556  0.815020  1
  Ho  Ho2  1  0.188180  0.806385  0.187900  1
  Ho  Ho3  1  0.815267  0.815020  0.185556  1
  Ho  Ho4  1  0.188180  0.187900  0.806385  1
  Er  Er5  1  0.601462  0.601555  0.601555  1
  Er  Er6  1  0.601204  0.601310  0.197148  1
  Er  Er7  1  0.601204  0.197148  0.601310  1
  Er  Er8  1  0.196803  0.601394  0.601394  1
  Er  Er9  1  0.065226  0.437991  0.437991  1
  Er  Er10  1  0.438922  0.060062  0.060062  1
  Er  Er11  1  0.437892  0.065083  0.438153  1
  Er  Er12  1  0.060083  0.439053  0.059956  1
  Er  Er13  1  0.437892  0.438153  0.065083  1
  Er  Er14  1  0.060083  0.059956  0.439053  1
  Er  Er15  1  0.185844  0.814934  0.814934  1
  Cd  Cd16  1  0.830081  0.829837  0.829837  1
  Cd  Cd17  1  0.830808  0.830770  0.504403  1
  Cd  Cd18  1  0.830808  0.504403  0.830770  1
  Cd  Cd19  1  0.504171  0.830810  0.830810  1
  Tc  Tc20  1  0.394230  0.394195  0.394195  1
  Pt  Pt21  1  0.393873  0.394088  0.822296  1
  Pt  Pt22  1  0.393873  0.822296  0.394088  1
  Pt  Pt23  1  0.822377  0.393949  0.393949  1
