# generated using pymatgen
data_Y7Er(ScBi3)2
_symmetry_space_group_name_H-M   'P 1'
_cell_length_a   8.13183100
_cell_length_b   9.42798502
_cell_length_c   11.99031802
_cell_angle_alpha   90.00709951
_cell_angle_beta   90.00000000
_cell_angle_gamma   90.00000000
_symmetry_Int_Tables_number   1
_chemical_formula_structural   Y7Er(ScBi3)2
_chemical_formula_sum   'Y14 Er2 Sc4 Bi12'
_cell_volume   919.25907699
_cell_formula_units_Z   2
loop_
 _symmetry_equiv_pos_site_id
 _symmetry_equiv_pos_as_xyz
  1  'x, y, z'
loop_
 _atom_site_type_symbol
 _atom_site_label
 _atom_site_symmetry_multiplicity
 _atom_site_fract_x
 _atom_site_fract_y
 _atom_site_fract_z
 _atom_site_occupancy
  Y  Y0  1  0.185504  0.749989  0.720492  1
  Y  Y1  1  0.685504  0.750011  0.779508  1
  Y  Y2  1  0.814538  0.249895  0.279617  1
  Y  Y3  1  0.314538  0.250105  0.220383  1
  Y  Y4  1  0.696920  0.936938  0.058868  1
  Y  Y5  1  0.196920  0.563062  0.441132  1
  Y  Y6  1  0.696937  0.563004  0.058825  1
  Y  Y7  1  0.196937  0.936996  0.441175  1
  Y  Y8  1  0.303011  0.063389  0.941159  1
  Y  Y9  1  0.803011  0.436611  0.558841  1
  Y  Y10  1  0.354283  0.750045  0.214978  1
  Y  Y11  1  0.854283  0.749955  0.285022  1
  Y  Y12  1  0.645789  0.249973  0.784946  1
  Y  Y13  1  0.145789  0.250027  0.715054  1
  Er  Er14  1  0.302777  0.436236  0.941115  1
  Er  Er15  1  0.802777  0.063764  0.558885  1
  Sc  Sc16  1  0.026122  0.749939  0.988262  1
  Sc  Sc17  1  0.526122  0.750061  0.511738  1
  Sc  Sc18  1  0.974291  0.250210  0.011682  1
  Sc  Sc19  1  0.474291  0.249790  0.488318  1
  Bi  Bi20  1  0.434872  0.003632  0.668393  1
  Bi  Bi21  1  0.934872  0.496368  0.831607  1
  Bi  Bi22  1  0.565365  0.503630  0.331500  1
  Bi  Bi23  1  0.065365  0.996370  0.168500  1
  Bi  Bi24  1  0.565434  0.996353  0.331677  1
  Bi  Bi25  1  0.065434  0.503647  0.168323  1
  Bi  Bi26  1  0.434607  0.496332  0.668529  1
  Bi  Bi27  1  0.934607  0.003668  0.831471  1
  Bi  Bi28  1  0.404411  0.749381  0.957920  1
  Bi  Bi29  1  0.904411  0.750619  0.542080  1
  Bi  Bi30  1  0.595140  0.250206  0.041882  1
  Bi  Bi31  1  0.095140  0.249794  0.458118  1
