# generated using pymatgen
data_Tb5Lu5(SiHg)4
_symmetry_space_group_name_H-M   'P 1'
_cell_length_a   8.51894950
_cell_length_b   8.95088510
_cell_length_c   7.45953797
_cell_angle_alpha   90.17081435
_cell_angle_beta   89.93733267
_cell_angle_gamma   129.40696210
_symmetry_Int_Tables_number   1
_chemical_formula_structural   Tb5Lu5(SiHg)4
_chemical_formula_sum   'Tb5 Lu5 Si4 Hg4'
_cell_volume   439.48921542
_cell_formula_units_Z   1
loop_
 _symmetry_equiv_pos_site_id
 _symmetry_equiv_pos_as_xyz
  1  'x, y, z'
loop_
 _atom_site_type_symbol
 _atom_site_label
 _atom_site_symmetry_multiplicity
 _atom_site_fract_x
 _atom_site_fract_y
 _atom_site_fract_z
 _atom_site_occupancy
  Tb  Tb0  1  0.832859  0.565001  0.177457  1
  Tb  Tb1  1  0.540576  0.789978  0.179163  1
  Tb  Tb2  1  0.168342  0.434604  0.822603  1
  Tb  Tb3  1  0.668123  0.935149  0.676293  1
  Tb  Tb4  1  0.333233  0.064297  0.323266  1
  Lu  Lu5  1  0.040095  0.283939  0.324693  1
  Lu  Lu6  1  0.956102  0.712308  0.675491  1
  Lu  Lu7  1  0.460240  0.215295  0.823628  1
  Lu  Lu8  1  0.001200  0.999713  0.999672  1
  Lu  Lu9  1  0.499664  0.498218  0.500005  1
  Si  Si10  1  0.380727  0.377881  0.122689  1
  Si  Si11  1  0.618363  0.620182  0.877182  1
  Si  Si12  1  0.119320  0.120032  0.622518  1
  Si  Si13  1  0.884153  0.879704  0.378774  1
  Hg  Hg14  1  0.755197  0.194823  0.018232  1
  Hg  Hg15  1  0.247566  0.813763  0.972778  1
  Hg  Hg16  1  0.750021  0.310972  0.522844  1
  Hg  Hg17  1  0.244219  0.684141  0.482713  1
