# generated using pymatgen
data_Ho6Al24FeRu3Pt4
_symmetry_space_group_name_H-M   'P 1'
_cell_length_a   8.83031513
_cell_length_b   8.83031471
_cell_length_c   9.47837984
_cell_angle_alpha   90.14937512
_cell_angle_beta   89.85062974
_cell_angle_gamma   119.84175298
_symmetry_Int_Tables_number   1
_chemical_formula_structural   Ho6Al24FeRu3Pt4
_chemical_formula_sum   'Ho6 Al24 Fe1 Ru3 Pt4'
_cell_volume   641.07003076
_cell_formula_units_Z   1
loop_
 _symmetry_equiv_pos_site_id
 _symmetry_equiv_pos_as_xyz
  1  'x, y, z'
loop_
 _atom_site_type_symbol
 _atom_site_label
 _atom_site_symmetry_multiplicity
 _atom_site_fract_x
 _atom_site_fract_y
 _atom_site_fract_z
 _atom_site_occupancy
  Ho  Ho0  1  0.189772  0.382901  0.252138  1
  Ho  Ho1  1  0.810228  0.617099  0.747862  1
  Ho  Ho2  1  0.617099  0.810228  0.252138  1
  Ho  Ho3  1  0.382901  0.189772  0.747862  1
  Ho  Ho4  1  0.191401  0.808599  0.251042  1
  Ho  Ho5  1  0.808599  0.191401  0.748958  1
  Al  Al6  1  0.333337  0.666663  0.033694  1
  Al  Al7  1  0.666663  0.333337  0.966306  1
  Al  Al8  1  0.669583  0.330417  0.528624  1
  Al  Al9  1  0.330417  0.669583  0.471376  1
  Al  Al10  1  0.155406  0.320345  0.573726  1
  Al  Al11  1  0.844594  0.679655  0.426274  1
  Al  Al12  1  0.679655  0.844594  0.573726  1
  Al  Al13  1  0.838425  0.677669  0.078957  1
  Al  Al14  1  0.320345  0.155406  0.426274  1
  Al  Al15  1  0.161575  0.322331  0.921043  1
  Al  Al16  1  0.161258  0.838742  0.574474  1
  Al  Al17  1  0.322331  0.161575  0.078957  1
  Al  Al18  1  0.838742  0.161258  0.425526  1
  Al  Al19  1  0.677669  0.838425  0.921043  1
  Al  Al20  1  0.838310  0.161690  0.079802  1
  Al  Al21  1  0.161690  0.838310  0.920198  1
  Al  Al22  1  0.562459  0.125623  0.254152  1
  Al  Al23  1  0.437541  0.874377  0.745848  1
  Al  Al24  1  0.874377  0.437541  0.254152  1
  Al  Al25  1  0.125623  0.562459  0.745848  1
  Al  Al26  1  0.564005  0.435995  0.250291  1
  Al  Al27  1  0.435995  0.564005  0.749709  1
  Al  Al28  1  0.998939  0.001061  0.256775  1
  Al  Al29  1  0.001061  0.998939  0.743225  1
  Fe  Fe30  1  0.000000  0.000000  0.500000  1
  Ru  Ru31  1  0.500000  0.000000  0.500000  1
  Ru  Ru32  1  0.000000  0.500000  0.500000  1
  Ru  Ru33  1  0.000000  0.000000  0.000000  1
  Pt  Pt34  1  0.500000  0.000000  0.000000  1
  Pt  Pt35  1  0.000000  0.500000  0.000000  1
  Pt  Pt36  1  0.500000  0.500000  0.000000  1
  Pt  Pt37  1  0.500000  0.500000  0.500000  1
