# generated using pymatgen
data_Zr10CdInBi4
_symmetry_space_group_name_H-M   'P 1'
_cell_length_a   5.73359930
_cell_length_b   8.58395550
_cell_length_c   8.58395551
_cell_angle_alpha   83.59606090
_cell_angle_beta   70.48997249
_cell_angle_gamma   70.48997226
_symmetry_Int_Tables_number   1
_chemical_formula_structural   Zr10CdInBi4
_chemical_formula_sum   'Zr10 Cd1 In1 Bi4'
_cell_volume   375.35439983
_cell_formula_units_Z   1
loop_
 _symmetry_equiv_pos_site_id
 _symmetry_equiv_pos_as_xyz
  1  'x, y, z'
loop_
 _atom_site_type_symbol
 _atom_site_label
 _atom_site_symmetry_multiplicity
 _atom_site_fract_x
 _atom_site_fract_y
 _atom_site_fract_z
 _atom_site_occupancy
  Zr  Zr0  1  0.250000  0.500000  0.500000  1
  Zr  Zr1  1  0.750000  0.500000  0.500000  1
  Zr  Zr2  1  0.075545  0.145544  0.702915  1
  Zr  Zr3  1  0.924005  0.854456  0.297085  1
  Zr  Zr4  1  0.778461  0.297085  0.145544  1
  Zr  Zr5  1  0.424455  0.297085  0.854456  1
  Zr  Zr6  1  0.221090  0.702915  0.854456  1
  Zr  Zr7  1  0.575995  0.702915  0.145544  1
  Zr  Zr8  1  0.721539  0.854456  0.702915  1
  Zr  Zr9  1  0.278910  0.145544  0.297085  1
  Cd  Cd10  1  0.750000  0.000000  0.000000  1
  In  In11  1  0.250000  0.000000  0.000000  1
  Bi  Bi12  1  0.165004  0.500000  0.169993  1
  Bi  Bi13  1  0.834996  0.500000  0.830007  1
  Bi  Bi14  1  0.334996  0.830007  0.500000  1
  Bi  Bi15  1  0.665004  0.169993  0.500000  1
