# generated using pymatgen
data_SrNd(Ga3Pd)2
_symmetry_space_group_name_H-M   'P 1'
_cell_length_a   6.18540393
_cell_length_b   6.18540412
_cell_length_c   5.95687500
_cell_angle_alpha   90.00000000
_cell_angle_beta   90.00000000
_cell_angle_gamma   117.08667099
_symmetry_Int_Tables_number   1
_chemical_formula_structural   SrNd(Ga3Pd)2
_chemical_formula_sum   'Sr1 Nd1 Ga6 Pd2'
_cell_volume   202.90845990
_cell_formula_units_Z   1
loop_
 _symmetry_equiv_pos_site_id
 _symmetry_equiv_pos_as_xyz
  1  'x, y, z'
loop_
 _atom_site_type_symbol
 _atom_site_label
 _atom_site_symmetry_multiplicity
 _atom_site_fract_x
 _atom_site_fract_y
 _atom_site_fract_z
 _atom_site_occupancy
  Sr  Sr0  1  0.766689  0.233311  0.250000  1
  Nd  Nd1  1  0.231120  0.768880  0.750000  1
  Ga  Ga2  1  0.664671  0.335329  0.750000  1
  Ga  Ga3  1  0.336981  0.663019  0.250000  1
  Ga  Ga4  1  0.717805  0.717652  0.996154  1
  Ga  Ga5  1  0.717805  0.717652  0.503846  1
  Ga  Ga6  1  0.282348  0.282195  0.996154  1
  Ga  Ga7  1  0.282348  0.282195  0.503846  1
  Pd  Pd8  1  0.901339  0.098661  0.750000  1
  Pd  Pd9  1  0.098893  0.901107  0.250000  1
