# generated using pymatgen
data_Lu20AlBi8Te3
_symmetry_space_group_name_H-M   'P 1'
_cell_length_a   8.02881500
_cell_length_b   9.30092400
_cell_length_c   11.69547976
_cell_angle_alpha   90.00000000
_cell_angle_beta   89.59639197
_cell_angle_gamma   90.00000000
_symmetry_Int_Tables_number   1
_chemical_formula_structural   Lu20AlBi8Te3
_chemical_formula_sum   'Lu20 Al1 Bi8 Te3'
_cell_volume   873.34293856
_cell_formula_units_Z   1
loop_
 _symmetry_equiv_pos_site_id
 _symmetry_equiv_pos_as_xyz
  1  'x, y, z'
loop_
 _atom_site_type_symbol
 _atom_site_label
 _atom_site_symmetry_multiplicity
 _atom_site_fract_x
 _atom_site_fract_y
 _atom_site_fract_z
 _atom_site_occupancy
  Lu  Lu0  1  0.034763  0.250000  0.509496  1
  Lu  Lu1  1  0.978106  0.750000  0.489879  1
  Lu  Lu2  1  0.475833  0.750000  0.011033  1
  Lu  Lu3  1  0.524977  0.250000  0.989616  1
  Lu  Lu4  1  0.355052  0.250000  0.291969  1
  Lu  Lu5  1  0.646997  0.750000  0.716901  1
  Lu  Lu6  1  0.146891  0.750000  0.783720  1
  Lu  Lu7  1  0.855481  0.250000  0.215231  1
  Lu  Lu8  1  0.188282  0.250000  0.778838  1
  Lu  Lu9  1  0.814453  0.750000  0.214845  1
  Lu  Lu10  1  0.315953  0.750000  0.283976  1
  Lu  Lu11  1  0.677901  0.250000  0.710317  1
  Lu  Lu12  1  0.190372  0.066248  0.058992  1
  Lu  Lu13  1  0.810303  0.933678  0.941934  1
  Lu  Lu14  1  0.309027  0.943664  0.558076  1
  Lu  Lu15  1  0.810303  0.566322  0.941934  1
  Lu  Lu16  1  0.684611  0.071049  0.444623  1
  Lu  Lu17  1  0.190372  0.433752  0.058992  1
  Lu  Lu18  1  0.684611  0.428951  0.444623  1
  Lu  Lu19  1  0.309027  0.556336  0.558076  1
  Al  Al20  1  0.405433  0.250000  0.541954  1
  Bi  Bi21  1  0.063647  0.001443  0.322886  1
  Bi  Bi22  1  0.932992  0.997002  0.675786  1
  Bi  Bi23  1  0.433898  0.996621  0.825365  1
  Bi  Bi24  1  0.932992  0.502998  0.675786  1
  Bi  Bi25  1  0.565933  0.003591  0.175557  1
  Bi  Bi26  1  0.063647  0.498557  0.322886  1
  Bi  Bi27  1  0.565933  0.496409  0.175557  1
  Bi  Bi28  1  0.433898  0.503379  0.825365  1
  Te  Te29  1  0.596534  0.750000  0.457608  1
  Te  Te30  1  0.096719  0.750000  0.041672  1
  Te  Te31  1  0.905064  0.250000  0.956504  1
