# generated using pymatgen
data_TbEr7(ReBr4)2
_symmetry_space_group_name_H-M   'P 1'
_cell_length_a   8.92902975
_cell_length_b   8.90969875
_cell_length_c   6.56838068
_cell_angle_alpha   89.49596656
_cell_angle_beta   89.34355803
_cell_angle_gamma   89.36022297
_symmetry_Int_Tables_number   1
_chemical_formula_structural   TbEr7(ReBr4)2
_chemical_formula_sum   'Tb1 Er7 Re2 Br8'
_cell_volume   522.46078940
_cell_formula_units_Z   1
loop_
 _symmetry_equiv_pos_site_id
 _symmetry_equiv_pos_as_xyz
  1  'x, y, z'
loop_
 _atom_site_type_symbol
 _atom_site_label
 _atom_site_symmetry_multiplicity
 _atom_site_fract_x
 _atom_site_fract_y
 _atom_site_fract_z
 _atom_site_occupancy
  Tb  Tb0  1  0.250556  0.900564  0.011330  1
  Er  Er1  1  0.752801  0.098351  0.987349  1
  Er  Er2  1  0.097600  0.752076  0.486831  1
  Er  Er3  1  0.901237  0.248300  0.512709  1
  Er  Er4  1  0.752813  0.902966  0.508141  1
  Er  Er5  1  0.246303  0.097776  0.491120  1
  Er  Er6  1  0.096292  0.247840  0.991234  1
  Er  Er7  1  0.902509  0.752696  0.008341  1
  Re  Re8  1  0.994139  0.005947  0.250486  1
  Re  Re9  1  0.004926  0.994572  0.748837  1
  Br  Br10  1  0.420353  0.816533  0.411383  1
  Br  Br11  1  0.579747  0.182948  0.591687  1
  Br  Br12  1  0.182019  0.578281  0.092022  1
  Br  Br13  1  0.816783  0.420645  0.908214  1
  Br  Br14  1  0.415615  0.193066  0.094152  1
  Br  Br15  1  0.586568  0.807140  0.906155  1
  Br  Br16  1  0.808435  0.584263  0.405638  1
  Br  Br17  1  0.191304  0.416036  0.594372  1
