# generated using pymatgen
data_Dy13Er(Tm3Pb8)2
_symmetry_space_group_name_H-M   'P 1'
_cell_length_a   8.17847535
_cell_length_b   8.25229944
_cell_length_c   15.58890612
_cell_angle_alpha   90.00520567
_cell_angle_beta   90.01298803
_cell_angle_gamma   90.04929477
_symmetry_Int_Tables_number   1
_chemical_formula_structural   Dy13Er(Tm3Pb8)2
_chemical_formula_sum   'Dy13 Er1 Tm6 Pb16'
_cell_volume   1052.11398998
_cell_formula_units_Z   1
loop_
 _symmetry_equiv_pos_site_id
 _symmetry_equiv_pos_as_xyz
  1  'x, y, z'
loop_
 _atom_site_type_symbol
 _atom_site_label
 _atom_site_symmetry_multiplicity
 _atom_site_fract_x
 _atom_site_fract_y
 _atom_site_fract_z
 _atom_site_occupancy
  Dy  Dy0  1  0.122732  0.341327  0.120650  1
  Dy  Dy1  1  0.622527  0.159112  0.121018  1
  Dy  Dy2  1  0.122246  0.341213  0.379177  1
  Dy  Dy3  1  0.377585  0.841220  0.621002  1
  Dy  Dy4  1  0.877744  0.658670  0.879122  1
  Dy  Dy5  1  0.535405  0.323631  0.900028  1
  Dy  Dy6  1  0.035720  0.176535  0.599977  1
  Dy  Dy7  1  0.464538  0.676628  0.400138  1
  Dy  Dy8  1  0.964268  0.823608  0.099994  1
  Dy  Dy9  1  0.464765  0.676473  0.099672  1
  Dy  Dy10  1  0.964419  0.823707  0.400410  1
  Dy  Dy11  1  0.535446  0.323716  0.599785  1
  Dy  Dy12  1  0.035478  0.175955  0.899795  1
  Er  Er13  1  0.291338  0.004184  0.249969  1
  Tm  Tm14  1  0.377082  0.841689  0.878593  1
  Tm  Tm15  1  0.876879  0.658481  0.621076  1
  Tm  Tm16  1  0.623037  0.158425  0.379171  1
  Tm  Tm17  1  0.208997  0.504648  0.750046  1
  Tm  Tm18  1  0.709020  0.995529  0.749839  1
  Tm  Tm19  1  0.790723  0.495625  0.250417  1
  Pb  Pb20  1  0.281374  0.032471  0.042201  1
  Pb  Pb21  1  0.780653  0.466118  0.457579  1
  Pb  Pb22  1  0.719457  0.966076  0.542616  1
  Pb  Pb23  1  0.219779  0.534567  0.956663  1
  Pb  Pb24  1  0.717468  0.966313  0.956606  1
  Pb  Pb25  1  0.217368  0.533661  0.543415  1
  Pb  Pb26  1  0.282553  0.033647  0.456870  1
  Pb  Pb27  1  0.781112  0.466808  0.043153  1
  Pb  Pb28  1  0.572162  0.626802  0.750101  1
  Pb  Pb29  1  0.071976  0.873140  0.749826  1
  Pb  Pb30  1  0.428512  0.373490  0.250550  1
  Pb  Pb31  1  0.927065  0.126157  0.250285  1
  Pb  Pb32  1  0.347734  0.153839  0.750199  1
  Pb  Pb33  1  0.847729  0.346212  0.749734  1
  Pb  Pb34  1  0.652614  0.846462  0.250260  1
  Pb  Pb35  1  0.152495  0.653858  0.250065  1
