# generated using pymatgen
data_Zn2Pt3Pb3O14
_symmetry_space_group_name_H-M   'P 1'
_cell_length_a   7.18587218
_cell_length_b   7.18587215
_cell_length_c   7.18587252
_cell_angle_alpha   61.00136545
_cell_angle_beta   61.00136076
_cell_angle_gamma   61.00137021
_symmetry_Int_Tables_number   1
_chemical_formula_structural   Zn2Pt3Pb3O14
_chemical_formula_sum   'Zn2 Pt3 Pb3 O14'
_cell_volume   268.29361687
_cell_formula_units_Z   1
loop_
 _symmetry_equiv_pos_site_id
 _symmetry_equiv_pos_as_xyz
  1  'x, y, z'
loop_
 _atom_site_type_symbol
 _atom_site_label
 _atom_site_symmetry_multiplicity
 _atom_site_fract_x
 _atom_site_fract_y
 _atom_site_fract_z
 _atom_site_occupancy
  Zn  Zn0  1  0.500000  0.500000  0.500000  1
  Zn  Zn1  1  0.000000  0.000000  0.000000  1
  Pt  Pt2  1  0.500000  0.000000  0.500000  1
  Pt  Pt3  1  0.000000  0.500000  0.500000  1
  Pt  Pt4  1  0.500000  0.500000  0.000000  1
  Pb  Pb5  1  0.000000  0.500000  0.000000  1
  Pb  Pb6  1  0.500000  0.000000  0.000000  1
  Pb  Pb7  1  0.000000  0.000000  0.500000  1
  O  O8  1  0.402755  0.402755  0.854547  1
  O  O9  1  0.854547  0.402755  0.402755  1
  O  O10  1  0.402755  0.854547  0.402755  1
  O  O11  1  0.832788  0.832788  0.403987  1
  O  O12  1  0.403987  0.832788  0.832788  1
  O  O13  1  0.832788  0.403987  0.832788  1
  O  O14  1  0.597245  0.597245  0.145453  1
  O  O15  1  0.145453  0.597245  0.597245  1
  O  O16  1  0.597245  0.145453  0.597245  1
  O  O17  1  0.167212  0.167212  0.596013  1
  O  O18  1  0.596013  0.167212  0.167212  1
  O  O19  1  0.167212  0.596013  0.167212  1
  O  O20  1  0.114585  0.114585  0.114585  1
  O  O21  1  0.885415  0.885415  0.885415  1
