# generated using pymatgen
data_LiSc4Al(B2Rh5)2
_symmetry_space_group_name_H-M   'P 1'
_cell_length_a   9.34467100
_cell_length_b   9.34467100
_cell_length_c   3.04057600
_cell_angle_alpha   90.00000000
_cell_angle_beta   90.00000000
_cell_angle_gamma   90.00000000
_symmetry_Int_Tables_number   1
_chemical_formula_structural   LiSc4Al(B2Rh5)2
_chemical_formula_sum   'Li1 Sc4 Al1 B4 Rh10'
_cell_volume   265.51184132
_cell_formula_units_Z   1
loop_
 _symmetry_equiv_pos_site_id
 _symmetry_equiv_pos_as_xyz
  1  'x, y, z'
loop_
 _atom_site_type_symbol
 _atom_site_label
 _atom_site_symmetry_multiplicity
 _atom_site_fract_x
 _atom_site_fract_y
 _atom_site_fract_z
 _atom_site_occupancy
  Li  Li0  1  0.500000  0.500000  0.000000  1
  Sc  Sc1  1  0.823433  0.325459  0.000000  1
  Sc  Sc2  1  0.325459  0.176567  0.000000  1
  Sc  Sc3  1  0.674541  0.823433  0.000000  1
  Sc  Sc4  1  0.176567  0.674541  0.000000  1
  Al  Al5  1  0.000000  0.000000  0.000000  1
  B  B6  1  0.622475  0.131604  0.000000  1
  B  B7  1  0.131604  0.377525  0.000000  1
  B  B8  1  0.868396  0.622475  0.000000  1
  B  B9  1  0.377525  0.868396  0.000000  1
  Rh  Rh10  1  0.070097  0.215520  0.500000  1
  Rh  Rh11  1  0.215520  0.929903  0.500000  1
  Rh  Rh12  1  0.784480  0.070097  0.500000  1
  Rh  Rh13  1  0.929903  0.784480  0.500000  1
  Rh  Rh14  1  0.429036  0.714545  0.500000  1
  Rh  Rh15  1  0.570964  0.285455  0.500000  1
  Rh  Rh16  1  0.714545  0.570964  0.500000  1
  Rh  Rh17  1  0.285455  0.429036  0.500000  1
  Rh  Rh18  1  0.500000  0.000000  0.500000  1
  Rh  Rh19  1  0.000000  0.500000  0.500000  1
