# generated using pymatgen
data_Sc13Al3(Pt2O)4
_symmetry_space_group_name_H-M   'P 1'
_cell_length_a   8.60257346
_cell_length_b   8.56310444
_cell_length_c   8.60257500
_cell_angle_alpha   59.84740946
_cell_angle_beta   59.99999793
_cell_angle_gamma   59.84740346
_symmetry_Int_Tables_number   1
_chemical_formula_structural   Sc13Al3(Pt2O)4
_chemical_formula_sum   'Sc13 Al3 Pt8 O4'
_cell_volume   447.06179240
_cell_formula_units_Z   1
loop_
 _symmetry_equiv_pos_site_id
 _symmetry_equiv_pos_as_xyz
  1  'x, y, z'
loop_
 _atom_site_type_symbol
 _atom_site_label
 _atom_site_symmetry_multiplicity
 _atom_site_fract_x
 _atom_site_fract_y
 _atom_site_fract_z
 _atom_site_occupancy
  Sc  Sc0  1  0.625000  0.125000  0.625000  1
  Sc  Sc1  1  0.811467  0.814218  0.187158  1
  Sc  Sc2  1  0.182663  0.189452  0.813942  1
  Sc  Sc3  1  0.813942  0.189452  0.813942  1
  Sc  Sc4  1  0.187158  0.814218  0.187158  1
  Sc  Sc5  1  0.187158  0.814218  0.811467  1
  Sc  Sc6  1  0.813942  0.189452  0.182663  1
  Sc  Sc7  1  0.438533  0.435782  0.062842  1
  Sc  Sc8  1  0.067337  0.060548  0.436058  1
  Sc  Sc9  1  0.436058  0.060548  0.436058  1
  Sc  Sc10  1  0.062842  0.435782  0.062842  1
  Sc  Sc11  1  0.062842  0.435782  0.438533  1
  Sc  Sc12  1  0.436058  0.060548  0.067337  1
  Al  Al13  1  0.125000  0.625000  0.625000  1
  Al  Al14  1  0.625000  0.625000  0.125000  1
  Al  Al15  1  0.625000  0.625000  0.625000  1
  Pt  Pt16  1  0.763651  0.418802  0.408774  1
  Pt  Pt17  1  0.414222  0.757332  0.414222  1
  Pt  Pt18  1  0.408774  0.418802  0.763651  1
  Pt  Pt19  1  0.408774  0.418802  0.408774  1
  Pt  Pt20  1  0.486349  0.831198  0.841226  1
  Pt  Pt21  1  0.835778  0.492668  0.835778  1
  Pt  Pt22  1  0.841226  0.831198  0.486349  1
  Pt  Pt23  1  0.841226  0.831198  0.841226  1
  O  O24  1  0.625000  0.125000  0.125000  1
  O  O25  1  0.125000  0.625000  0.125000  1
  O  O26  1  0.125000  0.125000  0.625000  1
  O  O27  1  0.125000  0.125000  0.125000  1
