# generated using pymatgen
data_HfSc7(Nb3Si4)4
_symmetry_space_group_name_H-M   'P 1'
_cell_length_a   6.71159025
_cell_length_b   6.90687615
_cell_length_c   13.14388630
_cell_angle_alpha   89.96664084
_cell_angle_beta   90.13214903
_cell_angle_gamma   90.10441820
_symmetry_Int_Tables_number   1
_chemical_formula_structural   HfSc7(Nb3Si4)4
_chemical_formula_sum   'Hf1 Sc7 Nb12 Si16'
_cell_volume   609.29687100
_cell_formula_units_Z   1
loop_
 _symmetry_equiv_pos_site_id
 _symmetry_equiv_pos_as_xyz
  1  'x, y, z'
loop_
 _atom_site_type_symbol
 _atom_site_label
 _atom_site_symmetry_multiplicity
 _atom_site_fract_x
 _atom_site_fract_y
 _atom_site_fract_z
 _atom_site_occupancy
  Hf  Hf0  1  0.500399  0.674720  0.596794  1
  Sc  Sc1  1  0.999771  0.824704  0.904745  1
  Sc  Sc2  1  0.499627  0.325400  0.095558  1
  Sc  Sc3  1  0.000074  0.174702  0.404681  1
  Sc  Sc4  1  0.500126  0.326070  0.404788  1
  Sc  Sc5  1  0.999632  0.174687  0.095495  1
  Sc  Sc6  1  0.500241  0.673774  0.904694  1
  Sc  Sc7  1  0.998577  0.824660  0.594927  1
  Nb  Nb8  1  0.660867  0.174617  0.624237  1
  Nb  Nb9  1  0.163268  0.325062  0.874777  1
  Nb  Nb10  1  0.337964  0.825735  0.124996  1
  Nb  Nb11  1  0.838070  0.675337  0.375467  1
  Nb  Nb12  1  0.338918  0.824339  0.375704  1
  Nb  Nb13  1  0.838462  0.675043  0.124930  1
  Nb  Nb14  1  0.661591  0.174340  0.874512  1
  Nb  Nb15  1  0.163845  0.326444  0.624385  1
  Nb  Nb16  1  0.835014  0.495897  0.749301  1
  Nb  Nb17  1  0.336194  0.004561  0.748676  1
  Nb  Nb18  1  0.164358  0.504521  0.250353  1
  Nb  Nb19  1  0.663618  0.994084  0.250382  1
  Si  Si20  1  0.669489  0.966871  0.461111  1
  Si  Si21  1  0.169008  0.532782  0.039128  1
  Si  Si22  1  0.330325  0.033218  0.961050  1
  Si  Si23  1  0.829596  0.466482  0.538722  1
  Si  Si24  1  0.330012  0.033139  0.538911  1
  Si  Si25  1  0.831016  0.466865  0.960834  1
  Si  Si26  1  0.669167  0.967101  0.039204  1
  Si  Si27  1  0.171074  0.532942  0.461217  1
  Si  Si28  1  0.458864  0.387517  0.750051  1
  Si  Si29  1  0.957931  0.114803  0.749578  1
  Si  Si30  1  0.541950  0.612774  0.249718  1
  Si  Si31  1  0.042350  0.886191  0.250078  1
  Si  Si32  1  0.702991  0.862838  0.750375  1
  Si  Si33  1  0.202273  0.638101  0.750430  1
  Si  Si34  1  0.297094  0.137629  0.250080  1
  Si  Si35  1  0.796245  0.362047  0.250110  1
