# generated using pymatgen
data_Tb2YbPr4CoI12
_symmetry_space_group_name_H-M   'P 1'
_cell_length_a   10.01731421
_cell_length_b   10.01484794
_cell_length_c   9.92480248
_cell_angle_alpha   107.20082668
_cell_angle_beta   106.79111568
_cell_angle_gamma   106.80779651
_symmetry_Int_Tables_number   1
_chemical_formula_structural   Tb2YbPr4CoI12
_chemical_formula_sum   'Tb2 Yb1 Pr4 Co1 I12'
_cell_volume   830.70231158
_cell_formula_units_Z   1
loop_
 _symmetry_equiv_pos_site_id
 _symmetry_equiv_pos_as_xyz
  1  'x, y, z'
loop_
 _atom_site_type_symbol
 _atom_site_label
 _atom_site_symmetry_multiplicity
 _atom_site_fract_x
 _atom_site_fract_y
 _atom_site_fract_z
 _atom_site_occupancy
  Tb  Tb0  1  0.901051  0.705114  0.974317  1
  Tb  Tb1  1  0.704760  0.974432  0.902500  1
  Yb  Yb2  1  0.499836  0.500138  0.500663  1
  Pr  Pr3  1  0.023306  0.093385  0.288610  1
  Pr  Pr4  1  0.097055  0.303851  0.024221  1
  Pr  Pr5  1  0.304067  0.024664  0.099536  1
  Pr  Pr6  1  0.975139  0.902820  0.709843  1
  Co  Co7  1  0.998777  0.998603  0.998778  1
  I  I8  1  0.160316  0.462540  0.386912  1
  I  I9  1  0.462122  0.383741  0.158267  1
  I  I10  1  0.384223  0.161541  0.465478  1
  I  I11  1  0.840572  0.537840  0.623483  1
  I  I12  1  0.548330  0.625642  0.848379  1
  I  I13  1  0.616074  0.843405  0.545004  1
  I  I14  1  0.678792  0.070378  0.218272  1
  I  I15  1  0.071655  0.223320  0.676608  1
  I  I16  1  0.214556  0.677489  0.069133  1
  I  I17  1  0.324936  0.927042  0.772338  1
  I  I18  1  0.925487  0.769172  0.311693  1
  I  I19  1  0.768950  0.314883  0.925966  1
