# generated using pymatgen
data_Ni8RhS8
_symmetry_space_group_name_H-M   'P 1'
_cell_length_a   7.11766277
_cell_length_b   7.11766335
_cell_length_c   7.11766300
_cell_angle_alpha   60.00000628
_cell_angle_beta   60.00000359
_cell_angle_gamma   59.99999971
_symmetry_Int_Tables_number   1
_chemical_formula_structural   Ni8RhS8
_chemical_formula_sum   'Ni8 Rh1 S8'
_cell_volume   254.97482710
_cell_formula_units_Z   1
loop_
 _symmetry_equiv_pos_site_id
 _symmetry_equiv_pos_as_xyz
  1  'x, y, z'
loop_
 _atom_site_type_symbol
 _atom_site_label
 _atom_site_symmetry_multiplicity
 _atom_site_fract_x
 _atom_site_fract_y
 _atom_site_fract_z
 _atom_site_occupancy
  Ni  Ni0  1  0.619793  0.126736  0.126736  1
  Ni  Ni1  1  0.126736  0.619793  0.126736  1
  Ni  Ni2  1  0.126736  0.126736  0.619793  1
  Ni  Ni3  1  0.126736  0.126736  0.126736  1
  Ni  Ni4  1  0.380207  0.873264  0.873264  1
  Ni  Ni5  1  0.873264  0.380207  0.873264  1
  Ni  Ni6  1  0.873264  0.873264  0.380207  1
  Ni  Ni7  1  0.873264  0.873264  0.873264  1
  Rh  Rh8  1  0.500000  0.500000  0.500000  1
  S  S9  1  0.250000  0.250000  0.250000  1
  S  S10  1  0.750000  0.750000  0.750000  1
  S  S11  1  0.742740  0.257260  0.257260  1
  S  S12  1  0.742740  0.257260  0.742740  1
  S  S13  1  0.742740  0.742740  0.257260  1
  S  S14  1  0.257260  0.742740  0.742740  1
  S  S15  1  0.257260  0.742740  0.257260  1
  S  S16  1  0.257260  0.257260  0.742740  1
