# generated using pymatgen
data_Ce2PrMg3Ir2Au
_symmetry_space_group_name_H-M   'P 1'
_cell_length_a   7.68095043
_cell_length_b   7.42967313
_cell_length_c   4.03249000
_cell_angle_alpha   90.00000000
_cell_angle_beta   90.00000000
_cell_angle_gamma   118.92359055
_symmetry_Int_Tables_number   1
_chemical_formula_structural   Ce2PrMg3Ir2Au
_chemical_formula_sum   'Ce2 Pr1 Mg3 Ir2 Au1'
_cell_volume   201.41776113
_cell_formula_units_Z   1
loop_
 _symmetry_equiv_pos_site_id
 _symmetry_equiv_pos_as_xyz
  1  'x, y, z'
loop_
 _atom_site_type_symbol
 _atom_site_label
 _atom_site_symmetry_multiplicity
 _atom_site_fract_x
 _atom_site_fract_y
 _atom_site_fract_z
 _atom_site_occupancy
  Ce  Ce0  1  0.426368  0.428470  0.000000  1
  Ce  Ce1  1  0.573632  0.002102  0.000000  1
  Pr  Pr2  1  0.000000  0.580646  0.000000  1
  Mg  Mg3  1  0.000000  0.251427  0.500000  1
  Mg  Mg4  1  0.246617  0.000784  0.500000  1
  Mg  Mg5  1  0.753383  0.754168  0.500000  1
  Ir  Ir6  1  0.357635  0.668786  0.500000  1
  Ir  Ir7  1  0.642365  0.311151  0.500000  1
  Au  Au8  1  0.000000  0.002467  0.000000  1
