# generated using pymatgen
data_TbDy2In3Ag2Ru
_symmetry_space_group_name_H-M   'P 1'
_cell_length_a   7.99131603
_cell_length_b   7.99068659
_cell_length_c   3.76438500
_cell_angle_alpha   90.00000000
_cell_angle_beta   90.00000000
_cell_angle_gamma   120.01443674
_symmetry_Int_Tables_number   1
_chemical_formula_structural   TbDy2In3Ag2Ru
_chemical_formula_sum   'Tb1 Dy2 In3 Ag2 Ru1'
_cell_volume   208.14398837
_cell_formula_units_Z   1
loop_
 _symmetry_equiv_pos_site_id
 _symmetry_equiv_pos_as_xyz
  1  'x, y, z'
loop_
 _atom_site_type_symbol
 _atom_site_label
 _atom_site_symmetry_multiplicity
 _atom_site_fract_x
 _atom_site_fract_y
 _atom_site_fract_z
 _atom_site_occupancy
  Tb  Tb0  1  0.576705  0.610747  0.000000  1
  Dy  Dy1  1  0.388707  0.965136  0.000000  1
  Dy  Dy2  1  0.034887  0.423861  0.000000  1
  In  In3  1  0.997050  0.725952  0.500000  1
  In  In4  1  0.273791  0.270689  0.500000  1
  In  In5  1  0.729172  0.003640  0.500000  1
  Ag  Ag6  1  0.000106  0.000169  0.000000  1
  Ag  Ag7  1  0.666824  0.332871  0.500000  1
  Ru  Ru8  1  0.332759  0.666936  0.500000  1
