# generated using pymatgen
data_Mn3CuMo12(PtN)4
_symmetry_space_group_name_H-M   'P 1'
_cell_length_a   6.82583407
_cell_length_b   6.82583407
_cell_length_c   6.82583407
_cell_angle_alpha   89.93687684
_cell_angle_beta   89.93687684
_cell_angle_gamma   89.93687684
_symmetry_Int_Tables_number   1
_chemical_formula_structural   Mn3CuMo12(PtN)4
_chemical_formula_sum   'Mn3 Cu1 Mo12 Pt4 N4'
_cell_volume   318.02875580
_cell_formula_units_Z   1
loop_
 _symmetry_equiv_pos_site_id
 _symmetry_equiv_pos_as_xyz
  1  'x, y, z'
loop_
 _atom_site_type_symbol
 _atom_site_label
 _atom_site_symmetry_multiplicity
 _atom_site_fract_x
 _atom_site_fract_y
 _atom_site_fract_z
 _atom_site_occupancy
  Mn  Mn0  1  0.183249  0.818221  0.316796  1
  Mn  Mn1  1  0.316796  0.183249  0.818221  1
  Mn  Mn2  1  0.818221  0.316796  0.183249  1
  Cu  Cu3  1  0.684361  0.684361  0.684361  1
  Mo  Mo4  1  0.800527  0.958367  0.374459  1
  Mo  Mo5  1  0.699844  0.042036  0.874593  1
  Mo  Mo6  1  0.199309  0.461042  0.126639  1
  Mo  Mo7  1  0.299744  0.540250  0.625007  1
  Mo  Mo8  1  0.958367  0.374459  0.800527  1
  Mo  Mo9  1  0.042036  0.874593  0.699844  1
  Mo  Mo10  1  0.461042  0.126639  0.199309  1
  Mo  Mo11  1  0.540250  0.625007  0.299744  1
  Mo  Mo12  1  0.374459  0.800527  0.958367  1
  Mo  Mo13  1  0.874593  0.699844  0.042036  1
  Mo  Mo14  1  0.126639  0.199309  0.461042  1
  Mo  Mo15  1  0.625007  0.299744  0.540250  1
  Pt  Pt16  1  0.564245  0.435033  0.935658  1
  Pt  Pt17  1  0.435033  0.935658  0.564245  1
  Pt  Pt18  1  0.935658  0.564245  0.435033  1
  Pt  Pt19  1  0.063873  0.063873  0.063873  1
  N  N20  1  0.872888  0.125305  0.625552  1
  N  N21  1  0.625552  0.872888  0.125305  1
  N  N22  1  0.125305  0.625552  0.872888  1
  N  N23  1  0.373002  0.373002  0.373002  1
