# generated using pymatgen
data_DyHo3(CuP)6
_symmetry_space_group_name_H-M   'P 1'
_cell_length_a   3.83513800
_cell_length_b   10.65512500
_cell_length_c   12.95244200
_cell_angle_alpha   90.00000000
_cell_angle_beta   90.00000000
_cell_angle_gamma   90.00000000
_symmetry_Int_Tables_number   1
_chemical_formula_structural   DyHo3(CuP)6
_chemical_formula_sum   'Dy2 Ho6 Cu12 P12'
_cell_volume   529.28696801
_cell_formula_units_Z   2
loop_
 _symmetry_equiv_pos_site_id
 _symmetry_equiv_pos_as_xyz
  1  'x, y, z'
loop_
 _atom_site_type_symbol
 _atom_site_label
 _atom_site_symmetry_multiplicity
 _atom_site_fract_x
 _atom_site_fract_y
 _atom_site_fract_z
 _atom_site_occupancy
  Dy  Dy0  1  0.250000  0.931408  0.792470  1
  Dy  Dy1  1  0.750000  0.431408  0.707530  1
  Ho  Ho2  1  0.250000  0.568726  0.292359  1
  Ho  Ho3  1  0.750000  0.068726  0.207641  1
  Ho  Ho4  1  0.250000  0.840759  0.503139  1
  Ho  Ho5  1  0.750000  0.340759  0.996861  1
  Ho  Ho6  1  0.250000  0.659103  0.003438  1
  Ho  Ho7  1  0.750000  0.159103  0.496562  1
  Cu  Cu8  1  0.250000  0.404803  0.512783  1
  Cu  Cu9  1  0.750000  0.904803  0.987217  1
  Cu  Cu10  1  0.250000  0.095226  0.013333  1
  Cu  Cu11  1  0.750000  0.595226  0.486667  1
  Cu  Cu12  1  0.250000  0.271425  0.331838  1
  Cu  Cu13  1  0.750000  0.771425  0.168162  1
  Cu  Cu14  1  0.250000  0.228780  0.831751  1
  Cu  Cu15  1  0.750000  0.728780  0.668249  1
  Cu  Cu16  1  0.250000  0.859050  0.280860  1
  Cu  Cu17  1  0.750000  0.359050  0.219140  1
  Cu  Cu18  1  0.250000  0.640907  0.780821  1
  Cu  Cu19  1  0.750000  0.140907  0.719179  1
  P  P20  1  0.250000  0.242590  0.642289  1
  P  P21  1  0.750000  0.742590  0.857711  1
  P  P22  1  0.250000  0.256898  0.142591  1
  P  P23  1  0.750000  0.756898  0.357409  1
  P  P24  1  0.250000  0.605124  0.601777  1
  P  P25  1  0.750000  0.105124  0.898223  1
  P  P26  1  0.250000  0.895163  0.102003  1
  P  P27  1  0.750000  0.395163  0.397997  1
  P  P28  1  0.250000  0.056198  0.369152  1
  P  P29  1  0.750000  0.556198  0.130848  1
  P  P30  1  0.250000  0.443840  0.869829  1
  P  P31  1  0.750000  0.943840  0.630171  1
