# generated using pymatgen
data_Tm3Al12FeIr3
_symmetry_space_group_name_H-M   'P 1'
_cell_length_a   8.75491300
_cell_length_b   8.75491146
_cell_length_c   9.41215100
_cell_angle_alpha   90.00000000
_cell_angle_beta   90.00000000
_cell_angle_gamma   120.00000959
_symmetry_Int_Tables_number   1
_chemical_formula_structural   Tm3Al12FeIr3
_chemical_formula_sum   'Tm6 Al24 Fe2 Ir6'
_cell_volume   624.77417372
_cell_formula_units_Z   2
loop_
 _symmetry_equiv_pos_site_id
 _symmetry_equiv_pos_as_xyz
  1  'x, y, z'
loop_
 _atom_site_type_symbol
 _atom_site_label
 _atom_site_symmetry_multiplicity
 _atom_site_fract_x
 _atom_site_fract_y
 _atom_site_fract_z
 _atom_site_occupancy
  Tm  Tm0  1  0.805777  0.194223  0.750000  1
  Tm  Tm1  1  0.194223  0.805777  0.250000  1
  Tm  Tm2  1  0.388445  0.194223  0.750000  1
  Tm  Tm3  1  0.611555  0.805777  0.250000  1
  Tm  Tm4  1  0.805777  0.611555  0.750000  1
  Tm  Tm5  1  0.194223  0.388445  0.250000  1
  Al  Al6  1  0.666667  0.333333  0.972084  1
  Al  Al7  1  0.333333  0.666667  0.027916  1
  Al  Al8  1  0.333333  0.666667  0.472084  1
  Al  Al9  1  0.666667  0.333333  0.527916  1
  Al  Al10  1  0.840264  0.159736  0.423766  1
  Al  Al11  1  0.159736  0.840264  0.576234  1
  Al  Al12  1  0.319473  0.159736  0.423766  1
  Al  Al13  1  0.159736  0.840264  0.923766  1
  Al  Al14  1  0.680527  0.840264  0.576234  1
  Al  Al15  1  0.840264  0.159736  0.076234  1
  Al  Al16  1  0.840264  0.680527  0.423766  1
  Al  Al17  1  0.680527  0.840264  0.923766  1
  Al  Al18  1  0.159736  0.319473  0.576234  1
  Al  Al19  1  0.319473  0.159736  0.076234  1
  Al  Al20  1  0.159736  0.319473  0.923766  1
  Al  Al21  1  0.840264  0.680527  0.076234  1
  Al  Al22  1  0.437277  0.562723  0.750000  1
  Al  Al23  1  0.562723  0.437277  0.250000  1
  Al  Al24  1  0.125444  0.562723  0.750000  1
  Al  Al25  1  0.874556  0.437277  0.250000  1
  Al  Al26  1  0.437277  0.874556  0.750000  1
  Al  Al27  1  0.562723  0.125444  0.250000  1
  Al  Al28  1  0.000000  0.000000  0.750000  1
  Al  Al29  1  0.000000  0.000000  0.250000  1
  Fe  Fe30  1  0.000000  0.000000  0.000000  1
  Fe  Fe31  1  0.000000  0.000000  0.500000  1
  Ir  Ir32  1  0.500000  0.500000  0.000000  1
  Ir  Ir33  1  0.000000  0.500000  0.000000  1
  Ir  Ir34  1  0.500000  0.500000  0.500000  1
  Ir  Ir35  1  0.500000  0.000000  0.000000  1
  Ir  Ir36  1  0.000000  0.500000  0.500000  1
  Ir  Ir37  1  0.500000  0.000000  0.500000  1
