# generated using pymatgen
data_Ta5Ti9P8
_symmetry_space_group_name_H-M   'P 1'
_cell_length_a   7.59969940
_cell_length_b   7.59969923
_cell_length_c   13.71678087
_cell_angle_alpha   75.94225195
_cell_angle_beta   75.94225251
_cell_angle_gamma   25.83327744
_symmetry_Int_Tables_number   1
_chemical_formula_structural   Ta5Ti9P8
_chemical_formula_sum   'Ta5 Ti9 P8'
_cell_volume   334.32112131
_cell_formula_units_Z   1
loop_
 _symmetry_equiv_pos_site_id
 _symmetry_equiv_pos_as_xyz
  1  'x, y, z'
loop_
 _atom_site_type_symbol
 _atom_site_label
 _atom_site_symmetry_multiplicity
 _atom_site_fract_x
 _atom_site_fract_y
 _atom_site_fract_z
 _atom_site_occupancy
  Ta  Ta0  1  0.999323  0.999323  0.001003  1
  Ta  Ta1  1  0.499755  0.499755  0.499294  1
  Ta  Ta2  1  0.427801  0.427801  0.174313  1
  Ta  Ta3  1  0.571530  0.571530  0.828218  1
  Ta  Ta4  1  0.197489  0.197489  0.689023  1
  Ti  Ti5  1  0.802296  0.802296  0.309896  1
  Ti  Ti6  1  0.207998  0.207998  0.205632  1
  Ti  Ti7  1  0.792645  0.792645  0.794998  1
  Ti  Ti8  1  0.339285  0.339285  0.969787  1
  Ti  Ti9  1  0.660540  0.660540  0.031278  1
  Ti  Ti10  1  0.003405  0.003405  0.336034  1
  Ti  Ti11  1  0.996246  0.996246  0.664362  1
  Ti  Ti12  1  0.176977  0.176977  0.457851  1
  Ti  Ti13  1  0.824076  0.824076  0.540191  1
  P  P14  1  0.180138  0.180138  0.891723  1
  P  P15  1  0.820016  0.820016  0.110791  1
  P  P16  1  0.373341  0.373341  0.393849  1
  P  P17  1  0.625487  0.625487  0.600564  1
  P  P18  1  0.370925  0.370925  0.660787  1
  P  P19  1  0.631156  0.631156  0.338871  1
  P  P20  1  0.064308  0.064308  0.153587  1
  P  P21  1  0.935263  0.935263  0.847948  1
