# generated using pymatgen
data_Sc3Zn3(B2Rh5)2
_symmetry_space_group_name_H-M   'P 1'
_cell_length_a   9.38507282
_cell_length_b   9.38507282
_cell_length_c   3.01270600
_cell_angle_alpha   90.00000000
_cell_angle_beta   90.00000000
_cell_angle_gamma   90.78250712
_symmetry_Int_Tables_number   1
_chemical_formula_structural   Sc3Zn3(B2Rh5)2
_chemical_formula_sum   'Sc3 Zn3 B4 Rh10'
_cell_volume   265.33316730
_cell_formula_units_Z   1
loop_
 _symmetry_equiv_pos_site_id
 _symmetry_equiv_pos_as_xyz
  1  'x, y, z'
loop_
 _atom_site_type_symbol
 _atom_site_label
 _atom_site_symmetry_multiplicity
 _atom_site_fract_x
 _atom_site_fract_y
 _atom_site_fract_z
 _atom_site_occupancy
  Sc  Sc0  1  0.324605  0.177918  0.000000  1
  Sc  Sc1  1  0.677918  0.824605  0.000000  1
  Sc  Sc2  1  0.171774  0.671774  0.000000  1
  Zn  Zn3  1  0.820083  0.320083  0.000000  1
  Zn  Zn4  1  0.001724  0.998741  0.000000  1
  Zn  Zn5  1  0.498741  0.501724  0.000000  1
  B  B6  1  0.630283  0.130283  0.000000  1
  B  B7  1  0.126084  0.373510  0.000000  1
  B  B8  1  0.873510  0.626084  0.000000  1
  B  B9  1  0.373884  0.873884  0.000000  1
  Rh  Rh10  1  0.071264  0.216065  0.500000  1
  Rh  Rh11  1  0.217938  0.928107  0.500000  1
  Rh  Rh12  1  0.786076  0.073410  0.500000  1
  Rh  Rh13  1  0.931745  0.781409  0.500000  1
  Rh  Rh14  1  0.428107  0.717938  0.500000  1
  Rh  Rh15  1  0.573410  0.286076  0.500000  1
  Rh  Rh16  1  0.716065  0.571264  0.500000  1
  Rh  Rh17  1  0.281409  0.431745  0.500000  1
  Rh  Rh18  1  0.501480  0.001480  0.500000  1
  Rh  Rh19  1  0.993899  0.493899  0.500000  1
