# generated using pymatgen
data_Dy5Y5Si5Te
_symmetry_space_group_name_H-M   'P 1'
_cell_length_a   8.55041500
_cell_length_b   8.60322582
_cell_length_c   6.38389200
_cell_angle_alpha   90.00000000
_cell_angle_beta   90.00000000
_cell_angle_gamma   119.81640044
_symmetry_Int_Tables_number   1
_chemical_formula_structural   Dy5Y5Si5Te
_chemical_formula_sum   'Dy5 Y5 Si5 Te1'
_cell_volume   407.44142843
_cell_formula_units_Z   1
loop_
 _symmetry_equiv_pos_site_id
 _symmetry_equiv_pos_as_xyz
  1  'x, y, z'
loop_
 _atom_site_type_symbol
 _atom_site_label
 _atom_site_symmetry_multiplicity
 _atom_site_fract_x
 _atom_site_fract_y
 _atom_site_fract_z
 _atom_site_occupancy
  Dy  Dy0  1  0.241752  0.255485  0.750000  1
  Dy  Dy1  1  0.675679  0.345223  0.003237  1
  Dy  Dy2  1  0.330506  0.654625  0.496702  1
  Dy  Dy3  1  0.330506  0.654625  0.003298  1
  Dy  Dy4  1  0.675679  0.345223  0.496763  1
  Y  Y5  1  0.986576  0.744873  0.750000  1
  Y  Y6  1  0.998891  0.244800  0.250000  1
  Y  Y7  1  0.753973  0.755265  0.250000  1
  Y  Y8  1  0.765558  0.000101  0.750000  1
  Y  Y9  1  0.242451  0.000143  0.250000  1
  Si  Si10  1  0.392646  0.389766  0.250000  1
  Si  Si11  1  0.002770  0.610202  0.250000  1
  Si  Si12  1  0.999053  0.394185  0.750000  1
  Si  Si13  1  0.604636  0.605523  0.750000  1
  Si  Si14  1  0.606903  0.999924  0.250000  1
  Te  Te15  1  0.392419  0.000036  0.750000  1
