# generated using pymatgen
data_La7NdSe8
_symmetry_space_group_name_H-M   'P 1'
_cell_length_a   8.66109832
_cell_length_b   8.66109803
_cell_length_c   8.66109800
_cell_angle_alpha   59.22894915
_cell_angle_beta   59.22895026
_cell_angle_gamma   59.22894704
_symmetry_Int_Tables_number   1
_chemical_formula_structural   La7NdSe8
_chemical_formula_sum   'La7 Nd1 Se8'
_cell_volume   451.34433653
_cell_formula_units_Z   1
loop_
 _symmetry_equiv_pos_site_id
 _symmetry_equiv_pos_as_xyz
  1  'x, y, z'
loop_
 _atom_site_type_symbol
 _atom_site_label
 _atom_site_symmetry_multiplicity
 _atom_site_fract_x
 _atom_site_fract_y
 _atom_site_fract_z
 _atom_site_occupancy
  La  La0  1  0.125000  0.625000  0.125000  1
  La  La1  1  0.125000  0.125000  0.625000  1
  La  La2  1  0.625000  0.125000  0.125000  1
  La  La3  1  0.625000  0.125000  0.625000  1
  La  La4  1  0.625000  0.625000  0.625000  1
  La  La5  1  0.125000  0.625000  0.625000  1
  La  La6  1  0.625000  0.625000  0.125000  1
  Nd  Nd7  1  0.125000  0.125000  0.125000  1
  Se  Se8  1  0.373542  0.876364  0.373542  1
  Se  Se9  1  0.876458  0.373636  0.876458  1
  Se  Se10  1  0.876458  0.876458  0.373636  1
  Se  Se11  1  0.875018  0.875018  0.875018  1
  Se  Se12  1  0.876364  0.373542  0.373542  1
  Se  Se13  1  0.373542  0.373542  0.876364  1
  Se  Se14  1  0.374982  0.374982  0.374982  1
  Se  Se15  1  0.373636  0.876458  0.876458  1
