# generated using pymatgen
data_Sr3Sm(Si3Pd5)4
_symmetry_space_group_name_H-M   'P 1'
_cell_length_a   4.07640700
_cell_length_b   19.99314512
_cell_length_c   7.33995869
_cell_angle_alpha   89.80012788
_cell_angle_beta   90.00000000
_cell_angle_gamma   90.00000000
_symmetry_Int_Tables_number   1
_chemical_formula_structural   Sr3Sm(Si3Pd5)4
_chemical_formula_sum   'Sr3 Sm1 Si12 Pd20'
_cell_volume   598.20443758
_cell_formula_units_Z   1
loop_
 _symmetry_equiv_pos_site_id
 _symmetry_equiv_pos_as_xyz
  1  'x, y, z'
loop_
 _atom_site_type_symbol
 _atom_site_label
 _atom_site_symmetry_multiplicity
 _atom_site_fract_x
 _atom_site_fract_y
 _atom_site_fract_z
 _atom_site_occupancy
  Sr  Sr0  1  0.750000  0.642756  0.122554  1
  Sr  Sr1  1  0.250000  0.356362  0.877373  1
  Sr  Sr2  1  0.250000  0.858036  0.624038  1
  Sm  Sm3  1  0.750000  0.143920  0.376369  1
  Si  Si4  1  0.750000  0.736950  0.628117  1
  Si  Si5  1  0.250000  0.260409  0.370986  1
  Si  Si6  1  0.250000  0.763581  0.128424  1
  Si  Si7  1  0.750000  0.236079  0.872765  1
  Si  Si8  1  0.750000  0.925297  0.343823  1
  Si  Si9  1  0.250000  0.076057  0.648902  1
  Si  Si10  1  0.250000  0.574491  0.844441  1
  Si  Si11  1  0.750000  0.424466  0.156523  1
  Si  Si12  1  0.750000  0.917903  0.915716  1
  Si  Si13  1  0.250000  0.084647  0.095588  1
  Si  Si14  1  0.250000  0.583400  0.414585  1
  Si  Si15  1  0.750000  0.415269  0.583459  1
  Pd  Pd16  1  0.750000  0.799615  0.324312  1
  Pd  Pd17  1  0.250000  0.198721  0.671376  1
  Pd  Pd18  1  0.250000  0.700422  0.824615  1
  Pd  Pd19  1  0.750000  0.298693  0.177130  1
  Pd  Pd20  1  0.750000  0.994164  0.625810  1
  Pd  Pd21  1  0.250000  0.008081  0.372889  1
  Pd  Pd22  1  0.250000  0.505431  0.127425  1
  Pd  Pd23  1  0.750000  0.494040  0.872702  1
  Pd  Pd24  1  0.750000  0.512750  0.378996  1
  Pd  Pd25  1  0.250000  0.486559  0.620347  1
  Pd  Pd26  1  0.250000  0.989838  0.879259  1
  Pd  Pd27  1  0.750000  0.014155  0.122737  1
  Pd  Pd28  1  0.750000  0.796800  0.932786  1
  Pd  Pd29  1  0.250000  0.203288  0.068837  1
  Pd  Pd30  1  0.250000  0.703894  0.433664  1
  Pd  Pd31  1  0.750000  0.295013  0.568216  1
  Pd  Pd32  1  0.750000  0.616167  0.641501  1
  Pd  Pd33  1  0.250000  0.382477  0.358148  1
  Pd  Pd34  1  0.250000  0.884732  0.142019  1
  Pd  Pd35  1  0.750000  0.115535  0.853571  1
