# generated using pymatgen
data_Ho7Er(LuPt4)2
_symmetry_space_group_name_H-M   'P 1'
_cell_length_a   7.42658800
_cell_length_b   7.52523234
_cell_length_c   14.61732025
_cell_angle_alpha   90.03465071
_cell_angle_beta   90.00000000
_cell_angle_gamma   90.00000000
_symmetry_Int_Tables_number   1
_chemical_formula_structural   Ho7Er(LuPt4)2
_chemical_formula_sum   'Ho14 Er2 Lu4 Pt16'
_cell_volume   816.91510720
_cell_formula_units_Z   2
loop_
 _symmetry_equiv_pos_site_id
 _symmetry_equiv_pos_as_xyz
  1  'x, y, z'
loop_
 _atom_site_type_symbol
 _atom_site_label
 _atom_site_symmetry_multiplicity
 _atom_site_fract_x
 _atom_site_fract_y
 _atom_site_fract_z
 _atom_site_occupancy
  Ho  Ho0  1  0.343080  0.831864  0.122482  1
  Ho  Ho1  1  0.843080  0.668136  0.377518  1
  Ho  Ho2  1  0.343221  0.832057  0.377451  1
  Ho  Ho3  1  0.843221  0.667943  0.122549  1
  Ho  Ho4  1  0.656827  0.168053  0.877287  1
  Ho  Ho5  1  0.156827  0.331947  0.622713  1
  Ho  Ho6  1  0.501843  0.679757  0.593248  1
  Ho  Ho7  1  0.001843  0.820243  0.906752  1
  Ho  Ho8  1  0.498495  0.320423  0.093051  1
  Ho  Ho9  1  0.998495  0.179577  0.406949  1
  Ho  Ho10  1  0.498499  0.320208  0.407234  1
  Ho  Ho11  1  0.998499  0.179792  0.092766  1
  Ho  Ho12  1  0.501307  0.679095  0.906602  1
  Ho  Ho13  1  0.001307  0.820905  0.593398  1
  Er  Er14  1  0.656691  0.167893  0.623070  1
  Er  Er15  1  0.156691  0.332107  0.876930  1
  Lu  Lu16  1  0.818863  0.511600  0.749994  1
  Lu  Lu17  1  0.318863  0.988400  0.750006  1
  Lu  Lu18  1  0.181236  0.487862  0.250031  1
  Lu  Lu19  1  0.681236  0.012138  0.249969  1
  Pt  Pt20  1  0.683717  0.968657  0.458399  1
  Pt  Pt21  1  0.183717  0.531343  0.041601  1
  Pt  Pt22  1  0.315626  0.033158  0.957623  1
  Pt  Pt23  1  0.815626  0.466842  0.542377  1
  Pt  Pt24  1  0.317222  0.032241  0.542425  1
  Pt  Pt25  1  0.817222  0.467759  0.957575  1
  Pt  Pt26  1  0.683447  0.968022  0.042118  1
  Pt  Pt27  1  0.183447  0.531978  0.457882  1
  Pt  Pt28  1  0.454731  0.387371  0.750015  1
  Pt  Pt29  1  0.954731  0.112629  0.749985  1
  Pt  Pt30  1  0.545045  0.611850  0.249980  1
  Pt  Pt31  1  0.045045  0.888150  0.250020  1
  Pt  Pt32  1  0.682089  0.855730  0.749725  1
  Pt  Pt33  1  0.182089  0.644270  0.750275  1
  Pt  Pt34  1  0.318061  0.144740  0.250035  1
  Pt  Pt35  1  0.818061  0.355260  0.249965  1
