# generated using pymatgen
data_Ho4MgZr3Ir4
_symmetry_space_group_name_H-M   'P 1'
_cell_length_a   4.47110300
_cell_length_b   7.08932657
_cell_length_c   8.34298656
_cell_angle_alpha   86.35339140
_cell_angle_beta   90.00000000
_cell_angle_gamma   90.00000000
_symmetry_Int_Tables_number   1
_chemical_formula_structural   Ho4MgZr3Ir4
_chemical_formula_sum   'Ho4 Mg1 Zr3 Ir4'
_cell_volume   263.91313305
_cell_formula_units_Z   1
loop_
 _symmetry_equiv_pos_site_id
 _symmetry_equiv_pos_as_xyz
  1  'x, y, z'
loop_
 _atom_site_type_symbol
 _atom_site_label
 _atom_site_symmetry_multiplicity
 _atom_site_fract_x
 _atom_site_fract_y
 _atom_site_fract_z
 _atom_site_occupancy
  Ho  Ho0  1  0.250000  0.510664  0.167506  1
  Ho  Ho1  1  0.750000  0.473945  0.836492  1
  Ho  Ho2  1  0.750000  0.978626  0.678498  1
  Ho  Ho3  1  0.250000  0.031080  0.316265  1
  Mg  Mg4  1  0.250000  0.147446  0.927995  1
  Zr  Zr5  1  0.250000  0.640220  0.571754  1
  Zr  Zr6  1  0.750000  0.364910  0.430007  1
  Zr  Zr7  1  0.750000  0.858359  0.064597  1
  Ir  Ir8  1  0.250000  0.758671  0.887101  1
  Ir  Ir9  1  0.750000  0.231334  0.125774  1
  Ir  Ir10  1  0.750000  0.741725  0.398968  1
  Ir  Ir11  1  0.250000  0.263021  0.595042  1
