# generated using pymatgen
data_NpNb3(SiRu5)2
_symmetry_space_group_name_H-M   'P 1'
_cell_length_a   4.04316400
_cell_length_b   5.49017167
_cell_length_c   10.76671651
_cell_angle_alpha   89.32287370
_cell_angle_beta   90.00000000
_cell_angle_gamma   90.00000000
_symmetry_Int_Tables_number   1
_chemical_formula_structural   NpNb3(SiRu5)2
_chemical_formula_sum   'Np1 Nb3 Si2 Ru10'
_cell_volume   238.97927075
_cell_formula_units_Z   1
loop_
 _symmetry_equiv_pos_site_id
 _symmetry_equiv_pos_as_xyz
  1  'x, y, z'
loop_
 _atom_site_type_symbol
 _atom_site_label
 _atom_site_symmetry_multiplicity
 _atom_site_fract_x
 _atom_site_fract_y
 _atom_site_fract_z
 _atom_site_occupancy
  Np  Np0  1  0.500000  0.823531  0.359758  1
  Nb  Nb1  1  0.500000  0.174703  0.644973  1
  Nb  Nb2  1  0.500000  0.327483  0.135289  1
  Nb  Nb3  1  0.500000  0.675057  0.859374  1
  Si  Si4  1  0.000000  0.483848  0.510024  1
  Si  Si5  1  0.000000  0.999557  0.994882  1
  Ru  Ru6  1  0.000000  0.502285  0.998144  1
  Ru  Ru7  1  0.000000  0.999879  0.500119  1
  Ru  Ru8  1  0.000000  0.577044  0.250424  1
  Ru  Ru9  1  0.000000  0.425142  0.749135  1
  Ru  Ru10  1  0.000000  0.077868  0.246173  1
  Ru  Ru11  1  0.000000  0.923933  0.752142  1
  Ru  Ru12  1  0.500000  0.826498  0.105212  1
  Ru  Ru13  1  0.500000  0.180181  0.894512  1
  Ru  Ru14  1  0.500000  0.322172  0.394396  1
  Ru  Ru15  1  0.500000  0.680820  0.605443  1
