# generated using pymatgen
data_Rb6Sc2IrRhBr18
_symmetry_space_group_name_H-M   'P 1'
_cell_length_a   7.65311000
_cell_length_b   7.65311028
_cell_length_c   19.19348300
_cell_angle_alpha   90.00000000
_cell_angle_beta   90.00000000
_cell_angle_gamma   119.99999879
_symmetry_Int_Tables_number   1
_chemical_formula_structural   Rb6Sc2IrRhBr18
_chemical_formula_sum   'Rb6 Sc2 Ir1 Rh1 Br18'
_cell_volume   973.55469688
_cell_formula_units_Z   1
loop_
 _symmetry_equiv_pos_site_id
 _symmetry_equiv_pos_as_xyz
  1  'x, y, z'
loop_
 _atom_site_type_symbol
 _atom_site_label
 _atom_site_symmetry_multiplicity
 _atom_site_fract_x
 _atom_site_fract_y
 _atom_site_fract_z
 _atom_site_occupancy
  Rb  Rb0  1  0.333333  0.666667  0.065317  1
  Rb  Rb1  1  0.666667  0.333333  0.934489  1
  Rb  Rb2  1  0.666667  0.333333  0.566631  1
  Rb  Rb3  1  0.333333  0.666667  0.433569  1
  Rb  Rb4  1  0.000000  0.000000  0.254312  1
  Rb  Rb5  1  0.000000  0.000000  0.745619  1
  Sc  Sc6  1  0.666667  0.333333  0.162108  1
  Sc  Sc7  1  0.333333  0.666667  0.838925  1
  Ir  Ir8  1  0.666667  0.333333  0.332458  1
  Rh  Rh9  1  0.333333  0.666667  0.666350  1
  Br  Br10  1  0.179138  0.358276  0.592448  1
  Br  Br11  1  0.820788  0.641576  0.407025  1
  Br  Br12  1  0.641724  0.820862  0.592448  1
  Br  Br13  1  0.830713  0.661425  0.090281  1
  Br  Br14  1  0.358424  0.179212  0.407025  1
  Br  Br15  1  0.168994  0.337989  0.909921  1
  Br  Br16  1  0.179138  0.820862  0.592448  1
  Br  Br17  1  0.338575  0.169287  0.090281  1
  Br  Br18  1  0.820788  0.179212  0.407025  1
  Br  Br19  1  0.662011  0.831006  0.909921  1
  Br  Br20  1  0.830713  0.169287  0.090281  1
  Br  Br21  1  0.168994  0.831006  0.909921  1
  Br  Br22  1  0.509006  0.018011  0.256106  1
  Br  Br23  1  0.490150  0.980300  0.744293  1
  Br  Br24  1  0.981989  0.490994  0.256106  1
  Br  Br25  1  0.019700  0.509850  0.744293  1
  Br  Br26  1  0.509006  0.490994  0.256106  1
  Br  Br27  1  0.490150  0.509850  0.744293  1
