# generated using pymatgen
data_Ta2V3Os
_symmetry_space_group_name_H-M   'P 1'
_cell_length_a   5.08964346
_cell_length_b   5.08964300
_cell_length_c   5.08964369
_cell_angle_alpha   59.60417958
_cell_angle_beta   59.60418822
_cell_angle_gamma   59.60417787
_symmetry_Int_Tables_number   1
_chemical_formula_structural   Ta2V3Os
_chemical_formula_sum   'Ta2 V3 Os1'
_cell_volume   92.38944510
_cell_formula_units_Z   1
loop_
 _symmetry_equiv_pos_site_id
 _symmetry_equiv_pos_as_xyz
  1  'x, y, z'
loop_
 _atom_site_type_symbol
 _atom_site_label
 _atom_site_symmetry_multiplicity
 _atom_site_fract_x
 _atom_site_fract_y
 _atom_site_fract_z
 _atom_site_occupancy
  Ta  Ta0  1  0.625833  0.625833  0.625833  1
  Ta  Ta1  1  0.374167  0.374167  0.374167  1
  V  V2  1  0.000000  0.500000  0.000000  1
  V  V3  1  0.500000  0.000000  0.000000  1
  V  V4  1  0.000000  0.000000  0.500000  1
  Os  Os5  1  0.000000  0.000000  0.000000  1
