# generated using pymatgen
data_DyCd(CuPd)2
_symmetry_space_group_name_H-M   'P 1'
_cell_length_a   5.52781346
_cell_length_b   5.27159389
_cell_length_c   5.27159400
_cell_angle_alpha   58.18746588
_cell_angle_beta   58.37872967
_cell_angle_gamma   58.37873598
_symmetry_Int_Tables_number   1
_chemical_formula_structural   DyCd(CuPd)2
_chemical_formula_sum   'Dy1 Cd1 Cu2 Pd2'
_cell_volume   104.43096418
_cell_formula_units_Z   1
loop_
 _symmetry_equiv_pos_site_id
 _symmetry_equiv_pos_as_xyz
  1  'x, y, z'
loop_
 _atom_site_type_symbol
 _atom_site_label
 _atom_site_symmetry_multiplicity
 _atom_site_fract_x
 _atom_site_fract_y
 _atom_site_fract_z
 _atom_site_occupancy
  Dy  Dy0  1  0.997919  0.002081  0.002081  1
  Cd  Cd1  1  0.741317  0.758683  0.758683  1
  Cu  Cu2  1  0.378400  0.872060  0.371141  1
  Cu  Cu3  1  0.378400  0.371141  0.872060  1
  Pd  Pd4  1  0.377098  0.373018  0.373018  1
  Pd  Pd5  1  0.876866  0.373018  0.373018  1
