# generated using pymatgen
data_YbMn2(Sb6Os)2
_symmetry_space_group_name_H-M   'P 1'
_cell_length_a   8.15748817
_cell_length_b   8.15748688
_cell_length_c   8.16157833
_cell_angle_alpha   109.40082704
_cell_angle_beta   109.47515815
_cell_angle_gamma   109.51741132
_symmetry_Int_Tables_number   1
_chemical_formula_structural   YbMn2(Sb6Os)2
_chemical_formula_sum   'Yb1 Mn2 Sb12 Os2'
_cell_volume   418.18969242
_cell_formula_units_Z   1
loop_
 _symmetry_equiv_pos_site_id
 _symmetry_equiv_pos_as_xyz
  1  'x, y, z'
loop_
 _atom_site_type_symbol
 _atom_site_label
 _atom_site_symmetry_multiplicity
 _atom_site_fract_x
 _atom_site_fract_y
 _atom_site_fract_z
 _atom_site_occupancy
  Yb  Yb0  1  0.000000  0.000000  0.000000  1
  Mn  Mn1  1  0.500000  0.000000  0.000000  1
  Mn  Mn2  1  0.000000  0.500000  0.000000  1
  Sb  Sb3  1  0.842985  0.662742  0.505726  1
  Sb  Sb4  1  0.157015  0.337258  0.494274  1
  Sb  Sb5  1  0.155995  0.660821  0.816817  1
  Sb  Sb6  1  0.844005  0.339179  0.183183  1
  Sb  Sb7  1  0.663748  0.505732  0.844114  1
  Sb  Sb8  1  0.336252  0.494268  0.155886  1
  Sb  Sb9  1  0.661618  0.819635  0.155886  1
  Sb  Sb10  1  0.338382  0.180365  0.844114  1
  Sb  Sb11  1  0.505266  0.843486  0.662103  1
  Sb  Sb12  1  0.494734  0.156514  0.337897  1
  Sb  Sb13  1  0.181382  0.843162  0.337897  1
  Sb  Sb14  1  0.818618  0.156838  0.662103  1
  Os  Os15  1  0.500000  0.500000  0.500000  1
  Os  Os16  1  0.000000  0.000000  0.500000  1
