# generated using pymatgen
data_Eu4InPb11
_symmetry_space_group_name_H-M   'P 1'
_cell_length_a   12.17053952
_cell_length_b   12.14158052
_cell_length_c   12.14158000
_cell_angle_alpha   33.07246115
_cell_angle_beta   33.12245646
_cell_angle_gamma   33.12246144
_symmetry_Int_Tables_number   1
_chemical_formula_structural   Eu4InPb11
_chemical_formula_sum   'Eu4 In1 Pb11'
_cell_volume   476.39171848
_cell_formula_units_Z   1
loop_
 _symmetry_equiv_pos_site_id
 _symmetry_equiv_pos_as_xyz
  1  'x, y, z'
loop_
 _atom_site_type_symbol
 _atom_site_label
 _atom_site_symmetry_multiplicity
 _atom_site_fract_x
 _atom_site_fract_y
 _atom_site_fract_z
 _atom_site_occupancy
  Eu  Eu0  1  0.874961  0.872733  0.872733  1
  Eu  Eu1  1  0.127592  0.124786  0.124786  1
  Eu  Eu2  1  0.704436  0.708922  0.708922  1
  Eu  Eu3  1  0.291455  0.294915  0.294915  1
  In  In4  1  0.707315  0.209383  0.209383  1
  Pb  Pb5  1  0.288128  0.793129  0.793129  1
  Pb  Pb6  1  0.790176  0.796556  0.290332  1
  Pb  Pb7  1  0.868679  0.379056  0.379056  1
  Pb  Pb8  1  0.381233  0.376918  0.868088  1
  Pb  Pb9  1  0.381233  0.868088  0.376918  1
  Pb  Pb10  1  0.622882  0.131297  0.616395  1
  Pb  Pb11  1  0.136018  0.618480  0.618480  1
  Pb  Pb12  1  0.622882  0.616395  0.131297  1
  Pb  Pb13  1  0.790176  0.290332  0.796556  1
  Pb  Pb14  1  0.206418  0.711132  0.207876  1
  Pb  Pb15  1  0.206418  0.207876  0.711132  1
