# generated using pymatgen
data_CeHo3(B2Ir5)2
_symmetry_space_group_name_H-M   'P 1'
_cell_length_a   10.99924797
_cell_length_b   10.99924825
_cell_length_c   10.99924913
_cell_angle_alpha   28.83872696
_cell_angle_beta   28.83872427
_cell_angle_gamma   28.83872940
_symmetry_Int_Tables_number   1
_chemical_formula_structural   CeHo3(B2Ir5)2
_chemical_formula_sum   'Ce1 Ho3 B4 Ir10'
_cell_volume   273.77825752
_cell_formula_units_Z   1
loop_
 _symmetry_equiv_pos_site_id
 _symmetry_equiv_pos_as_xyz
  1  'x, y, z'
loop_
 _atom_site_type_symbol
 _atom_site_label
 _atom_site_symmetry_multiplicity
 _atom_site_fract_x
 _atom_site_fract_y
 _atom_site_fract_z
 _atom_site_occupancy
  Ce  Ce0  1  0.152215  0.152215  0.152215  1
  Ho  Ho1  1  0.950121  0.950121  0.950121  1
  Ho  Ho2  1  0.848058  0.848058  0.848058  1
  Ho  Ho3  1  0.049734  0.049734  0.049734  1
  B  B4  1  0.617671  0.617671  0.617671  1
  B  B5  1  0.716156  0.716156  0.716156  1
  B  B6  1  0.382507  0.382507  0.382507  1
  B  B7  1  0.283756  0.283756  0.283756  1
  Ir  Ir8  1  0.406059  0.899506  0.406059  1
  Ir  Ir9  1  0.899506  0.406059  0.406059  1
  Ir  Ir10  1  0.499906  0.499906  0.000145  1
  Ir  Ir11  1  0.499906  0.000145  0.499906  1
  Ir  Ir12  1  0.000145  0.499906  0.499906  1
  Ir  Ir13  1  0.500274  0.500274  0.500274  1
  Ir  Ir14  1  0.594137  0.099654  0.594137  1
  Ir  Ir15  1  0.594137  0.594137  0.099654  1
  Ir  Ir16  1  0.099654  0.594137  0.594137  1
  Ir  Ir17  1  0.406059  0.406059  0.899506  1
