# generated using pymatgen
data_Tb16HoTm3Sn16
_symmetry_space_group_name_H-M   'P 1'
_cell_length_a   8.03117101
_cell_length_b   8.19266801
_cell_length_c   15.49778600
_cell_angle_alpha   90.00000000
_cell_angle_beta   90.00000000
_cell_angle_gamma   90.00430140
_symmetry_Int_Tables_number   1
_chemical_formula_structural   Tb16HoTm3Sn16
_chemical_formula_sum   'Tb16 Ho1 Tm3 Sn16'
_cell_volume   1019.70344827
_cell_formula_units_Z   1
loop_
 _symmetry_equiv_pos_site_id
 _symmetry_equiv_pos_as_xyz
  1  'x, y, z'
loop_
 _atom_site_type_symbol
 _atom_site_label
 _atom_site_symmetry_multiplicity
 _atom_site_fract_x
 _atom_site_fract_y
 _atom_site_fract_z
 _atom_site_occupancy
  Tb  Tb0  1  0.366943  0.837186  0.877963  1
  Tb  Tb1  1  0.866862  0.662879  0.622037  1
  Tb  Tb2  1  0.633082  0.162853  0.377957  1
  Tb  Tb3  1  0.133083  0.337156  0.122049  1
  Tb  Tb4  1  0.633082  0.162853  0.122043  1
  Tb  Tb5  1  0.133083  0.337156  0.377951  1
  Tb  Tb6  1  0.366943  0.837186  0.622037  1
  Tb  Tb7  1  0.866862  0.662879  0.877963  1
  Tb  Tb8  1  0.519871  0.320441  0.902635  1
  Tb  Tb9  1  0.019829  0.179528  0.597369  1
  Tb  Tb10  1  0.480148  0.679542  0.402623  1
  Tb  Tb11  1  0.980158  0.820453  0.097372  1
  Tb  Tb12  1  0.480148  0.679542  0.097377  1
  Tb  Tb13  1  0.980158  0.820453  0.402628  1
  Tb  Tb14  1  0.519871  0.320441  0.597365  1
  Tb  Tb15  1  0.019829  0.179528  0.902631  1
  Ho  Ho16  1  0.198276  0.502628  0.750000  1
  Tm  Tm17  1  0.698332  0.997353  0.750000  1
  Tm  Tm18  1  0.801676  0.497363  0.250000  1
  Tm  Tm19  1  0.301677  0.002628  0.250000  1
  Sn  Sn20  1  0.293092  0.035850  0.042577  1
  Sn  Sn21  1  0.793088  0.464155  0.457424  1
  Sn  Sn22  1  0.706908  0.964143  0.542569  1
  Sn  Sn23  1  0.206909  0.535854  0.957483  1
  Sn  Sn24  1  0.706908  0.964143  0.957431  1
  Sn  Sn25  1  0.206909  0.535854  0.542517  1
  Sn  Sn26  1  0.293092  0.035850  0.457423  1
  Sn  Sn27  1  0.793088  0.464155  0.042576  1
  Sn  Sn28  1  0.563965  0.618271  0.750000  1
  Sn  Sn29  1  0.063802  0.881819  0.750000  1
  Sn  Sn30  1  0.436198  0.381755  0.250000  1
  Sn  Sn31  1  0.936179  0.118237  0.250000  1
  Sn  Sn32  1  0.328880  0.148254  0.750000  1
  Sn  Sn33  1  0.828825  0.351583  0.750000  1
  Sn  Sn34  1  0.671134  0.851619  0.250000  1
  Sn  Sn35  1  0.171112  0.648410  0.250000  1
