# generated using pymatgen
data_LaCe(GaIr)2
_symmetry_space_group_name_H-M   'P 1'
_cell_length_a   4.40271800
_cell_length_b   7.01503690
_cell_length_c   7.97201413
_cell_angle_alpha   89.89713943
_cell_angle_beta   90.00000000
_cell_angle_gamma   90.00000000
_symmetry_Int_Tables_number   1
_chemical_formula_structural   LaCe(GaIr)2
_chemical_formula_sum   'La2 Ce2 Ga4 Ir4'
_cell_volume   246.21708702
_cell_formula_units_Z   2
loop_
 _symmetry_equiv_pos_site_id
 _symmetry_equiv_pos_as_xyz
  1  'x, y, z'
loop_
 _atom_site_type_symbol
 _atom_site_label
 _atom_site_symmetry_multiplicity
 _atom_site_fract_x
 _atom_site_fract_y
 _atom_site_fract_z
 _atom_site_occupancy
  La  La0  1  0.250000  0.532173  0.189677  1
  La  La1  1  0.750000  0.467827  0.810323  1
  Ce  Ce2  1  0.750000  0.967623  0.687731  1
  Ce  Ce3  1  0.250000  0.032377  0.312269  1
  Ga  Ga4  1  0.250000  0.651399  0.567497  1
  Ga  Ga5  1  0.750000  0.348601  0.432503  1
  Ga  Ga6  1  0.750000  0.854168  0.067581  1
  Ga  Ga7  1  0.250000  0.145832  0.932419  1
  Ir  Ir8  1  0.250000  0.774571  0.881846  1
  Ir  Ir9  1  0.750000  0.225429  0.118154  1
  Ir  Ir10  1  0.750000  0.744626  0.395746  1
  Ir  Ir11  1  0.250000  0.255374  0.604254  1
