# generated using pymatgen
data_Dy19Lu(Sn5Pb3)2
_symmetry_space_group_name_H-M   'P 1'
_cell_length_a   8.07569107
_cell_length_b   8.20801395
_cell_length_c   15.53092127
_cell_angle_alpha   90.04638683
_cell_angle_beta   90.00086868
_cell_angle_gamma   89.95646807
_symmetry_Int_Tables_number   1
_chemical_formula_structural   Dy19Lu(Sn5Pb3)2
_chemical_formula_sum   'Dy19 Lu1 Sn10 Pb6'
_cell_volume   1029.47246154
_cell_formula_units_Z   1
loop_
 _symmetry_equiv_pos_site_id
 _symmetry_equiv_pos_as_xyz
  1  'x, y, z'
loop_
 _atom_site_type_symbol
 _atom_site_label
 _atom_site_symmetry_multiplicity
 _atom_site_fract_x
 _atom_site_fract_y
 _atom_site_fract_z
 _atom_site_occupancy
  Dy  Dy0  1  0.367255  0.837917  0.875705  1
  Dy  Dy1  1  0.867902  0.661670  0.624183  1
  Dy  Dy2  1  0.630195  0.161848  0.376280  1
  Dy  Dy3  1  0.130264  0.338125  0.123149  1
  Dy  Dy4  1  0.633031  0.164335  0.123467  1
  Dy  Dy5  1  0.133075  0.335661  0.377088  1
  Dy  Dy6  1  0.367015  0.839164  0.623441  1
  Dy  Dy7  1  0.867649  0.660441  0.876681  1
  Dy  Dy8  1  0.523427  0.322609  0.900998  1
  Dy  Dy9  1  0.023907  0.178071  0.599061  1
  Dy  Dy10  1  0.477394  0.680817  0.400779  1
  Dy  Dy11  1  0.977258  0.819140  0.099630  1
  Dy  Dy12  1  0.480501  0.677064  0.099050  1
  Dy  Dy13  1  0.980333  0.822876  0.400555  1
  Dy  Dy14  1  0.520714  0.320461  0.599376  1
  Dy  Dy15  1  0.021270  0.180281  0.900560  1
  Dy  Dy16  1  0.698665  0.997769  0.749948  1
  Dy  Dy17  1  0.800873  0.497075  0.248770  1
  Dy  Dy18  1  0.300872  0.002705  0.251229  1
  Lu  Lu19  1  0.199060  0.503143  0.750007  1
  Sn  Sn20  1  0.291965  0.036292  0.458534  1
  Sn  Sn21  1  0.791765  0.463345  0.041480  1
  Sn  Sn22  1  0.563066  0.618152  0.749865  1
  Sn  Sn23  1  0.064892  0.880233  0.750143  1
  Sn  Sn24  1  0.434300  0.381307  0.250085  1
  Sn  Sn25  1  0.934872  0.118881  0.249929  1
  Sn  Sn26  1  0.330279  0.150810  0.750217  1
  Sn  Sn27  1  0.831458  0.351895  0.749839  1
  Sn  Sn28  1  0.669640  0.851607  0.249984  1
  Sn  Sn29  1  0.170073  0.647422  0.250005  1
  Pb  Pb30  1  0.291531  0.036656  0.041186  1
  Pb  Pb31  1  0.791303  0.462886  0.458796  1
  Pb  Pb32  1  0.708575  0.962892  0.541220  1
  Pb  Pb33  1  0.208440  0.536808  0.957814  1
  Pb  Pb34  1  0.708664  0.963036  0.958629  1
  Pb  Pb35  1  0.208518  0.536610  0.542315  1
