# generated using pymatgen
data_CaPr7NdRh6
_symmetry_space_group_name_H-M   'P 1'
_cell_length_a   7.65456121
_cell_length_b   7.65455954
_cell_length_c   7.65455882
_cell_angle_alpha   71.19984189
_cell_angle_beta   71.19983776
_cell_angle_gamma   71.19984114
_symmetry_Int_Tables_number   1
_chemical_formula_structural   CaPr7NdRh6
_chemical_formula_sum   'Ca1 Pr7 Nd1 Rh6'
_cell_volume   389.79855853
_cell_formula_units_Z   1
loop_
 _symmetry_equiv_pos_site_id
 _symmetry_equiv_pos_as_xyz
  1  'x, y, z'
loop_
 _atom_site_type_symbol
 _atom_site_label
 _atom_site_symmetry_multiplicity
 _atom_site_fract_x
 _atom_site_fract_y
 _atom_site_fract_z
 _atom_site_occupancy
  Ca  Ca0  1  0.999765  0.999765  0.999765  1
  Pr  Pr1  1  0.200746  0.200746  0.200746  1
  Pr  Pr2  1  0.160207  0.388671  0.667753  1
  Pr  Pr3  1  0.667753  0.160207  0.388671  1
  Pr  Pr4  1  0.388671  0.667753  0.160207  1
  Pr  Pr5  1  0.839293  0.612160  0.332164  1
  Pr  Pr6  1  0.332164  0.839293  0.612160  1
  Pr  Pr7  1  0.612160  0.332164  0.839293  1
  Nd  Nd8  1  0.799543  0.799543  0.799543  1
  Rh  Rh9  1  0.955442  0.167408  0.583569  1
  Rh  Rh10  1  0.583569  0.955442  0.167408  1
  Rh  Rh11  1  0.167408  0.583569  0.955442  1
  Rh  Rh12  1  0.043385  0.831888  0.418007  1
  Rh  Rh13  1  0.418007  0.043385  0.831888  1
  Rh  Rh14  1  0.831888  0.418007  0.043385  1
