# generated using pymatgen
data_Zr6GaFeTe
_symmetry_space_group_name_H-M   'P 1'
_cell_length_a   7.81631500
_cell_length_b   7.81631544
_cell_length_c   3.51245500
_cell_angle_alpha   90.00000000
_cell_angle_beta   90.00000000
_cell_angle_gamma   120.00001082
_symmetry_Int_Tables_number   1
_chemical_formula_structural   Zr6GaFeTe
_chemical_formula_sum   'Zr6 Ga1 Fe1 Te1'
_cell_volume   185.84269060
_cell_formula_units_Z   1
loop_
 _symmetry_equiv_pos_site_id
 _symmetry_equiv_pos_as_xyz
  1  'x, y, z'
loop_
 _atom_site_type_symbol
 _atom_site_label
 _atom_site_symmetry_multiplicity
 _atom_site_fract_x
 _atom_site_fract_y
 _atom_site_fract_z
 _atom_site_occupancy
  Zr  Zr0  1  0.247065  0.006079  0.500000  1
  Zr  Zr1  1  0.993921  0.240986  0.500000  1
  Zr  Zr2  1  0.759014  0.752935  0.500000  1
  Zr  Zr3  1  0.599891  0.006861  0.000000  1
  Zr  Zr4  1  0.993139  0.593031  0.000000  1
  Zr  Zr5  1  0.406969  0.400109  0.000000  1
  Ga  Ga6  1  0.666667  0.333333  0.500000  1
  Fe  Fe7  1  0.000000  0.000000  0.000000  1
  Te  Te8  1  0.333333  0.666667  0.500000  1
