# generated using pymatgen
data_Dy3YB16MoW3
_symmetry_space_group_name_H-M   'P 1'
_cell_length_a   3.62624400
_cell_length_b   6.04246601
_cell_length_c   11.67460802
_cell_angle_alpha   89.99942102
_cell_angle_beta   90.00000000
_cell_angle_gamma   90.00000000
_symmetry_Int_Tables_number   1
_chemical_formula_structural   Dy3YB16MoW3
_chemical_formula_sum   'Dy3 Y1 B16 Mo1 W3'
_cell_volume   255.80766136
_cell_formula_units_Z   1
loop_
 _symmetry_equiv_pos_site_id
 _symmetry_equiv_pos_as_xyz
  1  'x, y, z'
loop_
 _atom_site_type_symbol
 _atom_site_label
 _atom_site_symmetry_multiplicity
 _atom_site_fract_x
 _atom_site_fract_y
 _atom_site_fract_z
 _atom_site_occupancy
  Dy  Dy0  1  0.000000  0.873091  0.850250  1
  Dy  Dy1  1  0.000000  0.627025  0.350326  1
  Dy  Dy2  1  0.000000  0.372954  0.649906  1
  Y  Y3  1  0.000000  0.127207  0.149607  1
  B  B4  1  0.500000  0.476435  0.193452  1
  B  B5  1  0.500000  0.523073  0.806666  1
  B  B6  1  0.500000  0.976498  0.306708  1
  B  B7  1  0.500000  0.023622  0.693429  1
  B  B8  1  0.500000  0.287379  0.313728  1
  B  B9  1  0.500000  0.712622  0.686449  1
  B  B10  1  0.500000  0.787197  0.186437  1
  B  B11  1  0.500000  0.213243  0.813939  1
  B  B12  1  0.500000  0.366497  0.468073  1
  B  B13  1  0.500000  0.633486  0.531953  1
  B  B14  1  0.500000  0.866795  0.031709  1
  B  B15  1  0.500000  0.133617  0.967838  1
  B  B16  1  0.500000  0.385973  0.047237  1
  B  B17  1  0.500000  0.613669  0.952374  1
  B  B18  1  0.500000  0.886116  0.452584  1
  B  B19  1  0.500000  0.113896  0.547454  1
  Mo  Mo20  1  0.000000  0.369508  0.915951  1
  W  W21  1  0.000000  0.130901  0.415529  1
  W  W22  1  0.000000  0.869010  0.584451  1
  W  W23  1  0.000000  0.630186  0.083949  1
