# generated using pymatgen
data_KUCl4O
_symmetry_space_group_name_H-M   'P 1'
_cell_length_a   7.37232464
_cell_length_b   7.37232461
_cell_length_c   7.67802996
_cell_angle_alpha   106.87158464
_cell_angle_beta   106.87158407
_cell_angle_gamma   32.66438912
_symmetry_Int_Tables_number   1
_chemical_formula_structural   KUCl4O
_chemical_formula_sum   'K1 U1 Cl4 O1'
_cell_volume   214.68209771
_cell_formula_units_Z   1
loop_
 _symmetry_equiv_pos_site_id
 _symmetry_equiv_pos_as_xyz
  1  'x, y, z'
loop_
 _atom_site_type_symbol
 _atom_site_label
 _atom_site_symmetry_multiplicity
 _atom_site_fract_x
 _atom_site_fract_y
 _atom_site_fract_z
 _atom_site_occupancy
  K  K0  1  0.997277  0.002723  0.000000  1
  U  U1  1  0.501097  0.498902  0.500000  1
  Cl  Cl2  1  0.368340  0.368715  0.181797  1
  Cl  Cl3  1  0.629440  0.629962  0.324959  1
  Cl  Cl4  1  0.370038  0.370559  0.675042  1
  Cl  Cl5  1  0.631285  0.631660  0.818203  1
  O  O6  1  0.001832  0.998168  0.500000  1
