# generated using pymatgen
data_RbSmTe3O8
_symmetry_space_group_name_H-M   'P 1'
_cell_length_a   6.16974374
_cell_length_b   7.86193400
_cell_length_c   11.74770284
_cell_angle_alpha   101.17569652
_cell_angle_beta   89.35092756
_cell_angle_gamma   108.55326470
_symmetry_Int_Tables_number   1
_chemical_formula_structural   RbSmTe3O8
_chemical_formula_sum   'Rb2 Sm2 Te6 O16'
_cell_volume   529.19922576
_cell_formula_units_Z   2
loop_
 _symmetry_equiv_pos_site_id
 _symmetry_equiv_pos_as_xyz
  1  'x, y, z'
loop_
 _atom_site_type_symbol
 _atom_site_label
 _atom_site_symmetry_multiplicity
 _atom_site_fract_x
 _atom_site_fract_y
 _atom_site_fract_z
 _atom_site_occupancy
  Rb  Rb0  1  0.843767  0.122137  0.170213  1
  Rb  Rb1  1  0.156233  0.877863  0.829787  1
  Sm  Sm2  1  0.500000  0.500000  0.000000  1
  Sm  Sm3  1  0.000000  0.500000  0.500000  1
  Te  Te4  1  0.212692  0.995107  0.420146  1
  Te  Te5  1  0.787308  0.004893  0.579854  1
  Te  Te6  1  0.074567  0.691435  0.153006  1
  Te  Te7  1  0.925433  0.308565  0.846994  1
  Te  Te8  1  0.511450  0.520475  0.335629  1
  Te  Te9  1  0.488550  0.479525  0.664371  1
  O  O10  1  0.186245  0.749324  0.419845  1
  O  O11  1  0.813755  0.250676  0.580155  1
  O  O12  1  0.227326  0.939715  0.236550  1
  O  O13  1  0.772674  0.060285  0.763450  1
  O  O14  1  0.893503  0.968969  0.399347  1
  O  O15  1  0.106497  0.031031  0.600653  1
  O  O16  1  0.266812  0.692141  0.026986  1
  O  O17  1  0.733188  0.307859  0.973014  1
  O  O18  1  0.832215  0.738932  0.082993  1
  O  O19  1  0.167785  0.261068  0.917007  1
  O  O20  1  0.396533  0.434354  0.179512  1
  O  O21  1  0.603467  0.565646  0.820488  1
  O  O22  1  0.262333  0.368441  0.405283  1
  O  O23  1  0.737667  0.631559  0.594717  1
  O  O24  1  0.728265  0.397039  0.339760  1
  O  O25  1  0.271735  0.602961  0.660240  1
