# generated using pymatgen
data_ThZn2Cu3Rh
_symmetry_space_group_name_H-M   'P 1'
_cell_length_a   5.11255600
_cell_length_b   8.21010400
_cell_length_c   10.58186700
_cell_angle_alpha   90.00000000
_cell_angle_beta   90.00000000
_cell_angle_gamma   90.00000000
_symmetry_Int_Tables_number   1
_chemical_formula_structural   ThZn2Cu3Rh
_chemical_formula_sum   'Th4 Zn8 Cu12 Rh4'
_cell_volume   444.16980882
_cell_formula_units_Z   4
loop_
 _symmetry_equiv_pos_site_id
 _symmetry_equiv_pos_as_xyz
  1  'x, y, z'
loop_
 _atom_site_type_symbol
 _atom_site_label
 _atom_site_symmetry_multiplicity
 _atom_site_fract_x
 _atom_site_fract_y
 _atom_site_fract_z
 _atom_site_occupancy
  Th  Th0  1  0.250000  0.267533  0.562388  1
  Th  Th1  1  0.750000  0.732467  0.437612  1
  Th  Th2  1  0.250000  0.767533  0.937612  1
  Th  Th3  1  0.750000  0.232467  0.062388  1
  Zn  Zn4  1  0.750000  0.350535  0.356710  1
  Zn  Zn5  1  0.250000  0.649465  0.643290  1
  Zn  Zn6  1  0.750000  0.850535  0.143290  1
  Zn  Zn7  1  0.250000  0.149465  0.856710  1
  Zn  Zn8  1  0.750000  0.685865  0.752139  1
  Zn  Zn9  1  0.250000  0.314135  0.247861  1
  Zn  Zn10  1  0.750000  0.185865  0.747861  1
  Zn  Zn11  1  0.250000  0.814135  0.252139  1
  Cu  Cu12  1  0.507008  0.563296  0.188316  1
  Cu  Cu13  1  0.007008  0.436704  0.811684  1
  Cu  Cu14  1  0.992992  0.063296  0.311684  1
  Cu  Cu15  1  0.492992  0.936704  0.688316  1
  Cu  Cu16  1  0.750000  0.589767  0.985473  1
  Cu  Cu17  1  0.250000  0.410233  0.014527  1
  Cu  Cu18  1  0.750000  0.089767  0.514527  1
  Cu  Cu19  1  0.250000  0.910233  0.485473  1
  Cu  Cu20  1  0.507008  0.063296  0.311684  1
  Cu  Cu21  1  0.007008  0.936704  0.688316  1
  Cu  Cu22  1  0.992992  0.563296  0.188316  1
  Cu  Cu23  1  0.492992  0.436704  0.811684  1
  Rh  Rh24  1  0.750000  0.942944  0.908783  1
  Rh  Rh25  1  0.250000  0.057056  0.091217  1
  Rh  Rh26  1  0.750000  0.442944  0.591217  1
  Rh  Rh27  1  0.250000  0.557056  0.408783  1
