# generated using pymatgen
data_Pr4SmNb3(Co4P3)4
_symmetry_space_group_name_H-M   'P 1'
_cell_length_a   12.32912608
_cell_length_b   12.32912675
_cell_length_c   3.75412700
_cell_angle_alpha   90.00000000
_cell_angle_beta   90.00000000
_cell_angle_gamma   119.95198554
_symmetry_Int_Tables_number   1
_chemical_formula_structural   Pr4SmNb3(Co4P3)4
_chemical_formula_sum   'Pr4 Sm1 Nb3 Co16 P12'
_cell_volume   494.44059777
_cell_formula_units_Z   1
loop_
 _symmetry_equiv_pos_site_id
 _symmetry_equiv_pos_as_xyz
  1  'x, y, z'
loop_
 _atom_site_type_symbol
 _atom_site_label
 _atom_site_symmetry_multiplicity
 _atom_site_fract_x
 _atom_site_fract_y
 _atom_site_fract_z
 _atom_site_occupancy
  Pr  Pr0  1  0.816044  0.000288  0.500000  1
  Pr  Pr1  1  0.000288  0.816044  0.500000  1
  Pr  Pr2  1  0.333198  0.666721  0.000000  1
  Pr  Pr3  1  0.666721  0.333198  0.000000  1
  Sm  Sm4  1  0.184949  0.184949  0.500000  1
  Nb  Nb5  1  0.441955  0.000444  0.000000  1
  Nb  Nb6  1  0.000444  0.441955  0.000000  1
  Nb  Nb7  1  0.556828  0.556828  0.000000  1
  Co  Co8  1  0.280801  0.001492  0.500000  1
  Co  Co9  1  0.001492  0.280801  0.500000  1
  Co  Co10  1  0.718682  0.718682  0.500000  1
  Co  Co11  1  0.624625  0.801323  0.000000  1
  Co  Co12  1  0.198428  0.823893  0.000000  1
  Co  Co13  1  0.177365  0.374057  0.000000  1
  Co  Co14  1  0.374057  0.177365  0.000000  1
  Co  Co15  1  0.801323  0.624625  0.000000  1
  Co  Co16  1  0.823893  0.198428  0.000000  1
  Co  Co17  1  0.520186  0.875187  0.500000  1
  Co  Co18  1  0.124601  0.645229  0.500000  1
  Co  Co19  1  0.354179  0.478556  0.500000  1
  Co  Co20  1  0.478556  0.354179  0.500000  1
  Co  Co21  1  0.875187  0.520186  0.500000  1
  Co  Co22  1  0.645229  0.124601  0.500000  1
  Co  Co23  1  0.001056  0.001056  0.000000  1
  P  P24  1  0.181861  0.002245  0.000000  1
  P  P25  1  0.002245  0.181861  0.000000  1
  P  P26  1  0.818147  0.818147  0.000000  1
  P  P27  1  0.524143  0.689905  0.500000  1
  P  P28  1  0.309383  0.834772  0.500000  1
  P  P29  1  0.166035  0.475575  0.500000  1
  P  P30  1  0.475575  0.166035  0.500000  1
  P  P31  1  0.689905  0.524143  0.500000  1
  P  P32  1  0.834772  0.309383  0.500000  1
  P  P33  1  0.638899  0.999945  0.000000  1
  P  P34  1  0.999945  0.638899  0.000000  1
  P  P35  1  0.359002  0.359002  0.000000  1
