# generated using pymatgen
data_Tb7Ho5B3CCl12
_symmetry_space_group_name_H-M   'P 1'
_cell_length_a   9.38534304
_cell_length_b   9.38580193
_cell_length_c   9.39248844
_cell_angle_alpha   109.27363043
_cell_angle_beta   109.33193781
_cell_angle_gamma   109.38013614
_symmetry_Int_Tables_number   1
_chemical_formula_structural   Tb7Ho5B3CCl12
_chemical_formula_sum   'Tb7 Ho5 B3 C1 Cl12'
_cell_volume   640.25468560
_cell_formula_units_Z   1
loop_
 _symmetry_equiv_pos_site_id
 _symmetry_equiv_pos_as_xyz
  1  'x, y, z'
loop_
 _atom_site_type_symbol
 _atom_site_label
 _atom_site_symmetry_multiplicity
 _atom_site_fract_x
 _atom_site_fract_y
 _atom_site_fract_z
 _atom_site_occupancy
  Tb  Tb0  1  0.033049  0.264979  0.019687  1
  Tb  Tb1  1  0.019674  0.033433  0.264989  1
  Tb  Tb2  1  0.486041  0.750419  0.015209  1
  Tb  Tb3  1  0.480482  0.235194  0.466900  1
  Tb  Tb4  1  0.014931  0.485711  0.750202  1
  Tb  Tb5  1  0.265121  0.019942  0.033581  1
  Tb  Tb6  1  0.235931  0.263793  0.750004  1
  Ho  Ho7  1  0.464317  0.479447  0.234361  1
  Ho  Ho8  1  0.750130  0.234813  0.265466  1
  Ho  Ho9  1  0.750391  0.016291  0.484211  1
  Ho  Ho10  1  0.233773  0.464096  0.479079  1
  Ho  Ho11  1  0.265583  0.750385  0.235106  1
  B  B12  1  0.499917  0.001190  0.250812  1
  B  B13  1  0.000417  0.250124  0.498520  1
  B  B14  1  0.250732  0.499941  0.002355  1
  C  C15  1  0.251608  0.252923  0.251642  1
  Cl  Cl16  1  0.250589  0.755561  0.741762  1
  Cl  Cl17  1  0.511633  0.507106  0.752029  1
  Cl  Cl18  1  0.988263  0.745694  0.996142  1
  Cl  Cl19  1  0.742794  0.247436  0.754841  1
  Cl  Cl20  1  0.991500  0.986669  0.744370  1
  Cl  Cl21  1  0.249725  0.991459  0.504373  1
  Cl  Cl22  1  0.752066  0.511509  0.501599  1
  Cl  Cl23  1  0.509476  0.253482  0.998877  1
  Cl  Cl24  1  0.755646  0.743710  0.253112  1
  Cl  Cl25  1  0.745725  0.996163  0.988500  1
  Cl  Cl26  1  0.996430  0.506994  0.252727  1
  Cl  Cl27  1  0.504056  0.751538  0.509544  1
