# generated using pymatgen
data_YNp3(B6Mo)2
_symmetry_space_group_name_H-M   'P 1'
_cell_length_a   3.65535800
_cell_length_b   9.30362202
_cell_length_c   11.36134303
_cell_angle_alpha   89.99187573
_cell_angle_beta   90.00000000
_cell_angle_gamma   90.00000000
_symmetry_Int_Tables_number   1
_chemical_formula_structural   YNp3(B6Mo)2
_chemical_formula_sum   'Y2 Np6 B24 Mo4'
_cell_volume   386.37733595
_cell_formula_units_Z   2
loop_
 _symmetry_equiv_pos_site_id
 _symmetry_equiv_pos_as_xyz
  1  'x, y, z'
loop_
 _atom_site_type_symbol
 _atom_site_label
 _atom_site_symmetry_multiplicity
 _atom_site_fract_x
 _atom_site_fract_y
 _atom_site_fract_z
 _atom_site_occupancy
  Y  Y0  1  0.000000  0.338128  0.407777  1
  Y  Y1  1  0.000000  0.661872  0.592223  1
  Np  Np2  1  0.000000  0.838372  0.092999  1
  Np  Np3  1  0.000000  0.161628  0.907001  1
  Np  Np4  1  0.000000  0.958792  0.399995  1
  Np  Np5  1  0.000000  0.041208  0.600005  1
  Np  Np6  1  0.000000  0.458697  0.099840  1
  Np  Np7  1  0.000000  0.541303  0.900160  1
  B  B8  1  0.500000  0.552341  0.431506  1
  B  B9  1  0.500000  0.447659  0.568494  1
  B  B10  1  0.500000  0.051369  0.067556  1
  B  B11  1  0.500000  0.948631  0.932444  1
  B  B12  1  0.500000  0.745658  0.423610  1
  B  B13  1  0.500000  0.254342  0.576390  1
  B  B14  1  0.500000  0.245132  0.075790  1
  B  B15  1  0.500000  0.754868  0.924210  1
  B  B16  1  0.500000  0.806702  0.273863  1
  B  B17  1  0.500000  0.193298  0.726137  1
  B  B18  1  0.500000  0.305570  0.224594  1
  B  B19  1  0.500000  0.694430  0.775406  1
  B  B20  1  0.500000  0.645695  0.186672  1
  B  B21  1  0.500000  0.354305  0.813328  1
  B  B22  1  0.500000  0.144472  0.312605  1
  B  B23  1  0.500000  0.855528  0.687395  1
  B  B24  1  0.500000  0.987385  0.220994  1
  B  B25  1  0.500000  0.012615  0.779006  1
  B  B26  1  0.500000  0.488756  0.278712  1
  B  B27  1  0.500000  0.511244  0.721288  1
  B  B28  1  0.500000  0.641673  0.039166  1
  B  B29  1  0.500000  0.358327  0.960834  1
  B  B30  1  0.500000  0.138383  0.461455  1
  B  B31  1  0.500000  0.861617  0.538545  1
  Mo  Mo32  1  0.000000  0.649686  0.315747  1
  Mo  Mo33  1  0.000000  0.350314  0.684253  1
  Mo  Mo34  1  0.000000  0.144794  0.178734  1
  Mo  Mo35  1  0.000000  0.855206  0.821266  1
