# generated using pymatgen
data_Ho3Er2InGa2
_symmetry_space_group_name_H-M   'P 1'
_cell_length_a   7.67621029
_cell_length_b   7.67788000
_cell_length_c   14.22407500
_cell_angle_alpha   89.92061445
_cell_angle_beta   90.09826454
_cell_angle_gamma   89.93721287
_symmetry_Int_Tables_number   1
_chemical_formula_structural   Ho3Er2InGa2
_chemical_formula_sum   'Ho12 Er8 In4 Ga8'
_cell_volume   838.32207031
_cell_formula_units_Z   4
loop_
 _symmetry_equiv_pos_site_id
 _symmetry_equiv_pos_as_xyz
  1  'x, y, z'
loop_
 _atom_site_type_symbol
 _atom_site_label
 _atom_site_symmetry_multiplicity
 _atom_site_fract_x
 _atom_site_fract_y
 _atom_site_fract_z
 _atom_site_occupancy
  Ho  Ho0  1  0.328548  0.337934  0.605892  1
  Ho  Ho1  1  0.328653  0.661951  0.106080  1
  Ho  Ho2  1  0.171309  0.162046  0.394197  1
  Ho  Ho3  1  0.828297  0.161995  0.893961  1
  Ho  Ho4  1  0.661885  0.328132  0.393918  1
  Ho  Ho5  1  0.338138  0.327741  0.893787  1
  Ho  Ho6  1  0.161880  0.828592  0.606023  1
  Ho  Ho7  1  0.838339  0.828264  0.106275  1
  Ho  Ho8  1  0.338517  0.671051  0.393763  1
  Ho  Ho9  1  0.661761  0.671457  0.893649  1
  Ho  Ho10  1  0.838122  0.171895  0.606240  1
  Ho  Ho11  1  0.161540  0.171555  0.106291  1
  Er  Er12  1  0.000185  0.500633  0.756967  1
  Er  Er13  1  0.999704  0.500106  0.257239  1
  Er  Er14  1  0.499925  0.999899  0.242976  1
  Er  Er15  1  0.500267  0.999842  0.742746  1
  Er  Er16  1  0.671219  0.661686  0.606634  1
  Er  Er17  1  0.671471  0.338561  0.106720  1
  Er  Er18  1  0.829053  0.838558  0.393245  1
  Er  Er19  1  0.171417  0.838440  0.893232  1
  In  In20  1  0.998378  0.501648  0.496715  1
  In  In21  1  0.999931  0.500215  0.996383  1
  In  In22  1  0.501724  0.998285  0.503392  1
  In  In23  1  0.499638  0.999474  0.003670  1
  Ga  Ga24  1  0.874973  0.874776  0.750068  1
  Ga  Ga25  1  0.874468  0.125255  0.250267  1
  Ga  Ga26  1  0.625502  0.625186  0.249922  1
  Ga  Ga27  1  0.374902  0.625320  0.749762  1
  Ga  Ga28  1  0.125277  0.125039  0.750020  1
  Ga  Ga29  1  0.124873  0.874689  0.250339  1
  Ga  Ga30  1  0.374996  0.374619  0.249905  1
  Ga  Ga31  1  0.625104  0.375158  0.749725  1
