# generated using pymatgen
data_Ba6Co(SbO6)2
_symmetry_space_group_name_H-M   'P 1'
_cell_length_a   9.35000627
_cell_length_b   9.35000682
_cell_length_c   7.30879325
_cell_angle_alpha   67.54582799
_cell_angle_beta   67.54582553
_cell_angle_gamma   36.93457769
_symmetry_Int_Tables_number   1
_chemical_formula_structural   Ba6Co(SbO6)2
_chemical_formula_sum   'Ba6 Co1 Sb2 O12'
_cell_volume   351.44421255
_cell_formula_units_Z   1
loop_
 _symmetry_equiv_pos_site_id
 _symmetry_equiv_pos_as_xyz
  1  'x, y, z'
loop_
 _atom_site_type_symbol
 _atom_site_label
 _atom_site_symmetry_multiplicity
 _atom_site_fract_x
 _atom_site_fract_y
 _atom_site_fract_z
 _atom_site_occupancy
  Ba  Ba0  1  0.205215  0.205215  0.710005  1
  Ba  Ba1  1  0.889697  0.889697  0.707361  1
  Ba  Ba2  1  0.547625  0.547625  0.717278  1
  Ba  Ba3  1  0.794785  0.794785  0.289995  1
  Ba  Ba4  1  0.452375  0.452375  0.282722  1
  Ba  Ba5  1  0.110303  0.110303  0.292639  1
  Co  Co6  1  0.000000  0.000000  0.000000  1
  Sb  Sb7  1  0.667120  0.667120  0.001108  1
  Sb  Sb8  1  0.332880  0.332880  0.998892  1
  O  O9  1  0.279432  0.279432  0.300942  1
  O  O10  1  0.947255  0.947255  0.314725  1
  O  O11  1  0.620427  0.620427  0.302523  1
  O  O12  1  0.720568  0.720568  0.699058  1
  O  O13  1  0.379573  0.379573  0.697477  1
  O  O14  1  0.052745  0.052745  0.685275  1
  O  O15  1  0.000000  0.500000  0.000000  1
  O  O16  1  0.650151  0.173736  0.000824  1
  O  O17  1  0.349849  0.826264  0.999176  1
  O  O18  1  0.500000  0.000000  0.000000  1
  O  O19  1  0.173736  0.650151  0.000824  1
  O  O20  1  0.826264  0.349849  0.999176  1
