# generated using pymatgen
data_Dy3ErLu2(Co3P2)6
_symmetry_space_group_name_H-M   'P 1'
_cell_length_a   3.67675900
_cell_length_b   10.47399100
_cell_length_c   12.12116400
_cell_angle_alpha   90.00089762
_cell_angle_beta   90.00000000
_cell_angle_gamma   90.00000000
_symmetry_Int_Tables_number   1
_chemical_formula_structural   Dy3ErLu2(Co3P2)6
_chemical_formula_sum   'Dy3 Er1 Lu2 Co18 P12'
_cell_volume   466.79015499
_cell_formula_units_Z   1
loop_
 _symmetry_equiv_pos_site_id
 _symmetry_equiv_pos_as_xyz
  1  'x, y, z'
loop_
 _atom_site_type_symbol
 _atom_site_label
 _atom_site_symmetry_multiplicity
 _atom_site_fract_x
 _atom_site_fract_y
 _atom_site_fract_z
 _atom_site_occupancy
  Dy  Dy0  1  0.750000  0.249992  0.477883  1
  Dy  Dy1  1  0.250000  0.750002  0.523095  1
  Dy  Dy2  1  0.750000  0.067663  0.205722  1
  Er  Er3  1  0.750000  0.432549  0.205720  1
  Lu  Lu4  1  0.250000  0.931759  0.793936  1
  Lu  Lu5  1  0.250000  0.568235  0.793880  1
  Co  Co6  1  0.250000  0.250040  0.840891  1
  Co  Co7  1  0.750000  0.749943  0.158977  1
  Co  Co8  1  0.250000  0.250642  0.296205  1
  Co  Co9  1  0.750000  0.749950  0.704372  1
  Co  Co10  1  0.750000  0.250267  0.012607  1
  Co  Co11  1  0.250000  0.749729  0.984758  1
  Co  Co12  1  0.250000  0.417550  0.004597  1
  Co  Co13  1  0.250000  0.082712  0.004268  1
  Co  Co14  1  0.750000  0.583570  0.993648  1
  Co  Co15  1  0.750000  0.916174  0.993362  1
  Co  Co16  1  0.250000  0.452873  0.570485  1
  Co  Co17  1  0.250000  0.047190  0.570721  1
  Co  Co18  1  0.750000  0.547434  0.431064  1
  Co  Co19  1  0.750000  0.952445  0.431455  1
  Co  Co20  1  0.250000  0.870587  0.290667  1
  Co  Co21  1  0.250000  0.628729  0.290324  1
  Co  Co22  1  0.750000  0.128169  0.710505  1
  Co  Co23  1  0.750000  0.371816  0.710431  1
  P  P24  1  0.250000  0.250573  0.116672  1
  P  P25  1  0.750000  0.749903  0.881264  1
  P  P26  1  0.250000  0.249981  0.656156  1
  P  P27  1  0.750000  0.750027  0.344377  1
  P  P28  1  0.250000  0.439475  0.383866  1
  P  P29  1  0.250000  0.060591  0.384555  1
  P  P30  1  0.750000  0.561051  0.617748  1
  P  P31  1  0.750000  0.938890  0.617895  1
  P  P32  1  0.250000  0.901992  0.106836  1
  P  P33  1  0.250000  0.597438  0.107224  1
  P  P34  1  0.750000  0.095775  0.891980  1
  P  P35  1  0.750000  0.404284  0.891857  1
