# generated using pymatgen
data_Pr8CuSi12PdAu2
_symmetry_space_group_name_H-M   'P 1'
_cell_length_a   8.27384000
_cell_length_b   8.27384082
_cell_length_c   8.70484000
_cell_angle_alpha   90.00000000
_cell_angle_beta   90.00000000
_cell_angle_gamma   120.00000471
_symmetry_Int_Tables_number   1
_chemical_formula_structural   Pr8CuSi12PdAu2
_chemical_formula_sum   'Pr8 Cu1 Si12 Pd1 Au2'
_cell_volume   516.06651850
_cell_formula_units_Z   1
loop_
 _symmetry_equiv_pos_site_id
 _symmetry_equiv_pos_as_xyz
  1  'x, y, z'
loop_
 _atom_site_type_symbol
 _atom_site_label
 _atom_site_symmetry_multiplicity
 _atom_site_fract_x
 _atom_site_fract_y
 _atom_site_fract_z
 _atom_site_occupancy
  Pr  Pr0  1  0.501825  0.498175  0.750555  1
  Pr  Pr1  1  0.502067  0.497933  0.249484  1
  Pr  Pr2  1  0.996349  0.498175  0.750555  1
  Pr  Pr3  1  0.995865  0.497933  0.249484  1
  Pr  Pr4  1  0.501825  0.003651  0.750555  1
  Pr  Pr5  1  0.502067  0.004135  0.249484  1
  Pr  Pr6  1  0.000000  0.000000  0.749963  1
  Pr  Pr7  1  0.000000  0.000000  0.250020  1
  Cu  Cu8  1  0.666667  0.333333  0.999160  1
  Si  Si9  1  0.829998  0.170002  0.000703  1
  Si  Si10  1  0.162896  0.837104  0.999165  1
  Si  Si11  1  0.340004  0.170002  0.000703  1
  Si  Si12  1  0.162781  0.837219  0.499634  1
  Si  Si13  1  0.674207  0.837104  0.999165  1
  Si  Si14  1  0.832815  0.167185  0.500464  1
  Si  Si15  1  0.829998  0.659996  0.000703  1
  Si  Si16  1  0.674439  0.837219  0.499634  1
  Si  Si17  1  0.162896  0.325793  0.999165  1
  Si  Si18  1  0.334369  0.167185  0.500464  1
  Si  Si19  1  0.162781  0.325561  0.499634  1
  Si  Si20  1  0.832815  0.665631  0.500464  1
  Pd  Pd21  1  0.666667  0.333333  0.500242  1
  Au  Au22  1  0.333333  0.666667  0.000962  1
  Au  Au23  1  0.333333  0.666667  0.499634  1
