# generated using pymatgen
data_Ho4Er4Sc12Si15Pt
_symmetry_space_group_name_H-M   'P 1'
_cell_length_a   7.06590274
_cell_length_b   7.41923942
_cell_length_c   13.95233401
_cell_angle_alpha   89.99915266
_cell_angle_beta   89.99555636
_cell_angle_gamma   90.19534304
_symmetry_Int_Tables_number   1
_chemical_formula_structural   Ho4Er4Sc12Si15Pt
_chemical_formula_sum   'Ho4 Er4 Sc12 Si15 Pt1'
_cell_volume   731.42766097
_cell_formula_units_Z   1
loop_
 _symmetry_equiv_pos_site_id
 _symmetry_equiv_pos_as_xyz
  1  'x, y, z'
loop_
 _atom_site_type_symbol
 _atom_site_label
 _atom_site_symmetry_multiplicity
 _atom_site_fract_x
 _atom_site_fract_y
 _atom_site_fract_z
 _atom_site_occupancy
  Ho  Ho0  1  0.511010  0.323112  0.096417  1
  Ho  Ho1  1  0.011394  0.178356  0.403957  1
  Ho  Ho2  1  0.511023  0.323195  0.403260  1
  Ho  Ho3  1  0.489135  0.676219  0.594956  1
  Er  Er4  1  0.011540  0.178849  0.096290  1
  Er  Er5  1  0.990355  0.821531  0.905584  1
  Er  Er6  1  0.488966  0.676637  0.905052  1
  Er  Er7  1  0.990289  0.821657  0.594771  1
  Sc  Sc8  1  0.158925  0.503716  0.750015  1
  Sc  Sc9  1  0.838145  0.497627  0.250001  1
  Sc  Sc10  1  0.339283  0.005680  0.249786  1
  Sc  Sc11  1  0.665989  0.998010  0.749965  1
  Sc  Sc12  1  0.323494  0.173791  0.625340  1
  Sc  Sc13  1  0.671802  0.826203  0.373420  1
  Sc  Sc14  1  0.170537  0.677716  0.373689  1
  Sc  Sc15  1  0.671546  0.826070  0.126258  1
  Sc  Sc16  1  0.831075  0.323297  0.625548  1
  Sc  Sc17  1  0.323341  0.173642  0.874693  1
  Sc  Sc18  1  0.831224  0.323137  0.874823  1
  Sc  Sc19  1  0.170515  0.677506  0.126051  1
  Si  Si20  1  0.969910  0.887007  0.249786  1
  Si  Si21  1  0.468478  0.615211  0.249858  1
  Si  Si22  1  0.531243  0.387429  0.750261  1
  Si  Si23  1  0.288235  0.866516  0.750235  1
  Si  Si24  1  0.714035  0.131639  0.249730  1
  Si  Si25  1  0.212225  0.371185  0.249788  1
  Si  Si26  1  0.780371  0.626260  0.750414  1
  Si  Si27  1  0.159312  0.466962  0.538085  1
  Si  Si28  1  0.841094  0.536165  0.460843  1
  Si  Si29  1  0.344487  0.965612  0.460632  1
  Si  Si30  1  0.841141  0.535730  0.039315  1
  Si  Si31  1  0.659039  0.033390  0.538790  1
  Si  Si32  1  0.160006  0.466670  0.961955  1
  Si  Si33  1  0.658782  0.033009  0.961109  1
  Si  Si34  1  0.343829  0.965578  0.039302  1
  Pt  Pt35  1  0.028224  0.105683  0.750021  1
