# generated using pymatgen
data_Ac8Tb9Tm3Pb16
_symmetry_space_group_name_H-M   'P 1'
_cell_length_a   8.50192900
_cell_length_b   8.57522073
_cell_length_c   16.26226400
_cell_angle_alpha   90.00000000
_cell_angle_beta   90.00000000
_cell_angle_gamma   89.97638071
_symmetry_Int_Tables_number   1
_chemical_formula_structural   Ac8Tb9Tm3Pb16
_chemical_formula_sum   'Ac8 Tb9 Tm3 Pb16'
_cell_volume   1185.61518159
_cell_formula_units_Z   1
loop_
 _symmetry_equiv_pos_site_id
 _symmetry_equiv_pos_as_xyz
  1  'x, y, z'
loop_
 _atom_site_type_symbol
 _atom_site_label
 _atom_site_symmetry_multiplicity
 _atom_site_fract_x
 _atom_site_fract_y
 _atom_site_fract_z
 _atom_site_occupancy
  Ac  Ac0  1  0.520001  0.323134  0.903925  1
  Ac  Ac1  1  0.019801  0.176521  0.595729  1
  Ac  Ac2  1  0.480142  0.676580  0.404042  1
  Ac  Ac3  1  0.980110  0.823293  0.095828  1
  Ac  Ac4  1  0.480142  0.676580  0.095958  1
  Ac  Ac5  1  0.980110  0.823293  0.404172  1
  Ac  Ac6  1  0.520001  0.323134  0.596075  1
  Ac  Ac7  1  0.019801  0.176521  0.904271  1
  Tb  Tb8  1  0.360106  0.843675  0.876646  1
  Tb  Tb9  1  0.859392  0.656451  0.623229  1
  Tb  Tb10  1  0.640127  0.156615  0.376412  1
  Tb  Tb11  1  0.140230  0.344026  0.123566  1
  Tb  Tb12  1  0.640127  0.156615  0.123588  1
  Tb  Tb13  1  0.140230  0.344026  0.376434  1
  Tb  Tb14  1  0.360106  0.843675  0.623354  1
  Tb  Tb15  1  0.859392  0.656451  0.876771  1
  Tb  Tb16  1  0.194966  0.504744  0.750000  1
  Tm  Tm17  1  0.694827  0.994508  0.750000  1
  Tm  Tm18  1  0.804966  0.494596  0.250000  1
  Tm  Tm19  1  0.305093  0.005490  0.250000  1
  Pb  Pb20  1  0.304963  0.045913  0.046387  1
  Pb  Pb21  1  0.804546  0.454153  0.453530  1
  Pb  Pb22  1  0.695078  0.954306  0.546055  1
  Pb  Pb23  1  0.195314  0.545810  0.954275  1
  Pb  Pb24  1  0.695078  0.954306  0.953945  1
  Pb  Pb25  1  0.195314  0.545810  0.545725  1
  Pb  Pb26  1  0.304963  0.045913  0.453613  1
  Pb  Pb27  1  0.804546  0.454153  0.046470  1
  Pb  Pb28  1  0.555195  0.635180  0.750000  1
  Pb  Pb29  1  0.053155  0.865879  0.750000  1
  Pb  Pb30  1  0.446143  0.365273  0.250000  1
  Pb  Pb31  1  0.946364  0.134501  0.250000  1
  Pb  Pb32  1  0.331140  0.145444  0.750000  1
  Pb  Pb33  1  0.830729  0.353150  0.750000  1
  Pb  Pb34  1  0.668875  0.853265  0.250000  1
  Pb  Pb35  1  0.168923  0.647015  0.250000  1
