# generated using pymatgen
data_EuCdHgPd3
_symmetry_space_group_name_H-M   'P 1'
_cell_length_a   5.67717545
_cell_length_b   5.67717519
_cell_length_c   5.45830762
_cell_angle_alpha   58.66446219
_cell_angle_beta   58.66445937
_cell_angle_gamma   59.99999974
_symmetry_Int_Tables_number   1
_chemical_formula_structural   EuCdHgPd3
_chemical_formula_sum   'Eu1 Cd1 Hg1 Pd3'
_cell_volume   121.82575884
_cell_formula_units_Z   1
loop_
 _symmetry_equiv_pos_site_id
 _symmetry_equiv_pos_as_xyz
  1  'x, y, z'
loop_
 _atom_site_type_symbol
 _atom_site_label
 _atom_site_symmetry_multiplicity
 _atom_site_fract_x
 _atom_site_fract_y
 _atom_site_fract_z
 _atom_site_occupancy
  Eu  Eu0  1  0.503590  0.503590  0.489230  1
  Cd  Cd1  1  0.123319  0.123319  0.630044  1
  Hg  Hg2  1  0.752824  0.752824  0.741527  1
  Pd  Pd3  1  0.122825  0.624617  0.129734  1
  Pd  Pd4  1  0.122825  0.122825  0.129734  1
  Pd  Pd5  1  0.624617  0.122825  0.129734  1
