# generated using pymatgen
data_Sr4Nd4Ta3Mn4SbO24
_symmetry_space_group_name_H-M   'P 1'
_cell_length_a   8.16157596
_cell_length_b   8.16163928
_cell_length_c   9.86032600
_cell_angle_alpha   66.55241179
_cell_angle_beta   66.55267047
_cell_angle_gamma   91.93489068
_symmetry_Int_Tables_number   1
_chemical_formula_structural   Sr4Nd4Ta3Mn4SbO24
_chemical_formula_sum   'Sr4 Nd4 Ta3 Mn4 Sb1 O24'
_cell_volume   538.23002564
_cell_formula_units_Z   1
loop_
 _symmetry_equiv_pos_site_id
 _symmetry_equiv_pos_as_xyz
  1  'x, y, z'
loop_
 _atom_site_type_symbol
 _atom_site_label
 _atom_site_symmetry_multiplicity
 _atom_site_fract_x
 _atom_site_fract_y
 _atom_site_fract_z
 _atom_site_occupancy
  Sr  Sr0  1  0.398738  0.858567  0.251556  1
  Sr  Sr1  1  0.898934  0.359274  0.251223  1
  Sr  Sr2  1  0.108122  0.148229  0.751746  1
  Sr  Sr3  1  0.608196  0.648548  0.750497  1
  Nd  Nd4  1  0.085663  0.646284  0.752492  1
  Nd  Nd5  1  0.582800  0.143537  0.754733  1
  Nd  Nd6  1  0.394731  0.334871  0.253963  1
  Nd  Nd7  1  0.894843  0.834513  0.255245  1
  Ta  Ta8  1  0.251691  0.746834  0.000431  1
  Ta  Ta9  1  0.497117  0.501812  0.500077  1
  Ta  Ta10  1  0.996987  0.002245  0.500218  1
  Mn  Mn11  1  0.501492  0.994234  0.501631  1
  Mn  Mn12  1  0.744763  0.751997  0.001616  1
  Mn  Mn13  1  0.002695  0.495924  0.500948  1
  Mn  Mn14  1  0.245216  0.251483  0.001489  1
  Sb  Sb15  1  0.752331  0.247636  0.999916  1
  O  O16  1  0.261420  0.993247  0.448608  1
  O  O17  1  0.762083  0.493404  0.448338  1
  O  O18  1  0.742727  0.513201  0.946834  1
  O  O19  1  0.244768  0.012245  0.947358  1
  O  O20  1  0.238438  0.531772  0.554539  1
  O  O21  1  0.737725  0.031135  0.555220  1
  O  O22  1  0.781605  0.986359  0.055091  1
  O  O23  1  0.280110  0.487540  0.055264  1
  O  O24  1  0.578608  0.763984  0.448954  1
  O  O25  1  0.078266  0.264705  0.448850  1
  O  O26  1  0.016237  0.329191  0.947354  1
  O  O27  1  0.514388  0.827663  0.948050  1
  O  O28  1  0.942535  0.741528  0.539945  1
  O  O29  1  0.442843  0.240633  0.540290  1
  O  O30  1  0.489239  0.189661  0.042242  1
  O  O31  1  0.990590  0.693690  0.041002  1
  O  O32  1  0.938198  0.900081  0.738836  1
  O  O33  1  0.437526  0.400998  0.738731  1
  O  O34  1  0.151573  0.688752  0.238448  1
  O  O35  1  0.651700  0.189852  0.239895  1
  O  O36  1  0.548430  0.579038  0.262223  1
  O  O37  1  0.049127  0.078608  0.262182  1
  O  O38  1  0.328382  0.798487  0.762164  1
  O  O39  1  0.829161  0.298232  0.761807  1
