# generated using pymatgen
data_CsMoF5
_symmetry_space_group_name_H-M   'P 1'
_cell_length_a   6.00114600
_cell_length_b   8.47112600
_cell_length_c   11.29635400
_cell_angle_alpha   90.00000000
_cell_angle_beta   90.00000000
_cell_angle_gamma   90.00000000
_symmetry_Int_Tables_number   1
_chemical_formula_structural   CsMoF5
_chemical_formula_sum   'Cs4 Mo4 F20'
_cell_volume   574.26669244
_cell_formula_units_Z   4
loop_
 _symmetry_equiv_pos_site_id
 _symmetry_equiv_pos_as_xyz
  1  'x, y, z'
loop_
 _atom_site_type_symbol
 _atom_site_label
 _atom_site_symmetry_multiplicity
 _atom_site_fract_x
 _atom_site_fract_y
 _atom_site_fract_z
 _atom_site_occupancy
  Cs  Cs0  1  0.500000  0.887684  0.977265  1
  Cs  Cs1  1  0.500000  0.112316  0.477265  1
  Cs  Cs2  1  0.000000  0.368234  0.123054  1
  Cs  Cs3  1  0.000000  0.631766  0.623054  1
  Mo  Mo4  1  0.000000  0.881258  0.242928  1
  Mo  Mo5  1  0.500000  0.577445  0.338475  1
  Mo  Mo6  1  0.500000  0.422555  0.838475  1
  Mo  Mo7  1  0.000000  0.118742  0.742928  1
  F  F8  1  0.272307  0.549367  0.919530  1
  F  F9  1  0.749761  0.704092  0.244719  1
  F  F10  1  0.227636  0.048024  0.233772  1
  F  F11  1  0.749761  0.295908  0.744719  1
  F  F12  1  0.500000  0.245192  0.948580  1
  F  F13  1  0.772364  0.951976  0.733772  1
  F  F14  1  0.500000  0.557264  0.697418  1
  F  F15  1  0.227636  0.951976  0.733772  1
  F  F16  1  0.000000  0.838302  0.072789  1
  F  F17  1  0.772364  0.048024  0.233772  1
  F  F18  1  0.500000  0.442736  0.197418  1
  F  F19  1  0.727693  0.450633  0.419530  1
  F  F20  1  0.250239  0.704092  0.244719  1
  F  F21  1  0.000000  0.859946  0.414960  1
  F  F22  1  0.000000  0.161698  0.572789  1
  F  F23  1  0.250239  0.295908  0.744719  1
  F  F24  1  0.000000  0.140054  0.914960  1
  F  F25  1  0.272307  0.450633  0.419530  1
  F  F26  1  0.500000  0.754808  0.448580  1
  F  F27  1  0.727693  0.549367  0.919530  1
