# generated using pymatgen
data_Hf5Sc3(Co4Si7)2
_symmetry_space_group_name_H-M   'P 1'
_cell_length_a   9.47896394
_cell_length_b   9.47896462
_cell_length_c   9.48836964
_cell_angle_alpha   94.07396984
_cell_angle_beta   94.07397130
_cell_angle_gamma   149.06715600
_symmetry_Int_Tables_number   1
_chemical_formula_structural   Hf5Sc3(Co4Si7)2
_chemical_formula_sum   'Hf5 Sc3 Co8 Si14'
_cell_volume   422.39461287
_cell_formula_units_Z   1
loop_
 _symmetry_equiv_pos_site_id
 _symmetry_equiv_pos_as_xyz
  1  'x, y, z'
loop_
 _atom_site_type_symbol
 _atom_site_label
 _atom_site_symmetry_multiplicity
 _atom_site_fract_x
 _atom_site_fract_y
 _atom_site_fract_z
 _atom_site_occupancy
  Hf  Hf0  1  0.862067  0.137933  0.000000  1
  Hf  Hf1  1  0.303432  0.499969  0.803401  1
  Hf  Hf2  1  0.696661  0.500335  0.196996  1
  Hf  Hf3  1  0.500031  0.696568  0.196599  1
  Hf  Hf4  1  0.499665  0.303339  0.803004  1
  Sc  Sc5  1  0.138835  0.138684  0.277520  1
  Sc  Sc6  1  0.861316  0.861165  0.722480  1
  Sc  Sc7  1  0.138331  0.861669  0.000000  1
  Co  Co8  1  0.101953  0.601552  0.204186  1
  Co  Co9  1  0.398448  0.898047  0.795814  1
  Co  Co10  1  0.897579  0.102421  0.500000  1
  Co  Co11  1  0.602327  0.397673  0.500000  1
  Co  Co12  1  0.602635  0.102234  0.204186  1
  Co  Co13  1  0.897766  0.397365  0.795814  1
  Co  Co14  1  0.102327  0.897673  0.500000  1
  Co  Co15  1  0.397579  0.602421  0.500000  1
  Si  Si16  1  0.289704  0.289554  0.579258  1
  Si  Si17  1  0.710446  0.710296  0.420742  1
  Si  Si18  1  0.289605  0.710395  0.000000  1
  Si  Si19  1  0.710105  0.289895  0.000000  1
  Si  Si20  1  0.091667  0.500230  0.591897  1
  Si  Si21  1  0.908382  0.500141  0.408523  1
  Si  Si22  1  0.499770  0.908333  0.408103  1
  Si  Si23  1  0.499859  0.091618  0.591477  1
  Si  Si24  1  0.251459  0.252134  0.000000  1
  Si  Si25  1  0.747866  0.748541  0.000000  1
  Si  Si26  1  0.300687  0.000104  0.300791  1
  Si  Si27  1  0.699333  0.999730  0.699063  1
  Si  Si28  1  0.999896  0.699313  0.699209  1
  Si  Si29  1  0.000270  0.300667  0.300937  1
