# generated using pymatgen
data_CePaP7Ru12
_symmetry_space_group_name_H-M   'P 1'
_cell_length_a   9.44813500
_cell_length_b   9.44813481
_cell_length_c   3.94888500
_cell_angle_alpha   90.00000000
_cell_angle_beta   90.00000000
_cell_angle_gamma   119.99999716
_symmetry_Int_Tables_number   1
_chemical_formula_structural   CePaP7Ru12
_chemical_formula_sum   'Ce1 Pa1 P7 Ru12'
_cell_volume   305.27926120
_cell_formula_units_Z   1
loop_
 _symmetry_equiv_pos_site_id
 _symmetry_equiv_pos_as_xyz
  1  'x, y, z'
loop_
 _atom_site_type_symbol
 _atom_site_label
 _atom_site_symmetry_multiplicity
 _atom_site_fract_x
 _atom_site_fract_y
 _atom_site_fract_z
 _atom_site_occupancy
  Ce  Ce0  1  0.333333  0.666667  0.000000  1
  Pa  Pa1  1  0.666667  0.333333  0.500000  1
  P  P2  1  0.601663  0.716394  0.500000  1
  P  P3  1  0.000000  0.000000  0.000000  1
  P  P4  1  0.283606  0.885269  0.500000  1
  P  P5  1  0.114731  0.398337  0.500000  1
  P  P6  1  0.891632  0.582188  0.000000  1
  P  P7  1  0.417812  0.309443  0.000000  1
  P  P8  1  0.690557  0.108368  0.000000  1
  Ru  Ru9  1  0.559120  0.951526  0.500000  1
  Ru  Ru10  1  0.392407  0.440880  0.500000  1
  Ru  Ru11  1  0.910279  0.123838  0.500000  1
  Ru  Ru12  1  0.213559  0.089721  0.500000  1
  Ru  Ru13  1  0.876162  0.786441  0.500000  1
  Ru  Ru14  1  0.726552  0.886406  0.000000  1
  Ru  Ru15  1  0.113594  0.840146  0.000000  1
  Ru  Ru16  1  0.159854  0.273448  0.000000  1
  Ru  Ru17  1  0.430995  0.073711  0.000000  1
  Ru  Ru18  1  0.926289  0.357285  0.000000  1
  Ru  Ru19  1  0.642715  0.569005  0.000000  1
  Ru  Ru20  1  0.048474  0.607593  0.500000  1
