# generated using pymatgen
data_Er4ZrSc3Pt4
_symmetry_space_group_name_H-M   'P 1'
_cell_length_a   4.63106700
_cell_length_b   6.98731787
_cell_length_c   8.31124183
_cell_angle_alpha   90.61863093
_cell_angle_beta   90.00000000
_cell_angle_gamma   90.00000000
_symmetry_Int_Tables_number   1
_chemical_formula_structural   Er4ZrSc3Pt4
_chemical_formula_sum   'Er4 Zr1 Sc3 Pt4'
_cell_volume   268.92561398
_cell_formula_units_Z   1
loop_
 _symmetry_equiv_pos_site_id
 _symmetry_equiv_pos_as_xyz
  1  'x, y, z'
loop_
 _atom_site_type_symbol
 _atom_site_label
 _atom_site_symmetry_multiplicity
 _atom_site_fract_x
 _atom_site_fract_y
 _atom_site_fract_z
 _atom_site_occupancy
  Er  Er0  1  0.250000  0.015954  0.677693  1
  Er  Er1  1  0.250000  0.516943  0.824947  1
  Er  Er2  1  0.750000  0.981501  0.321884  1
  Er  Er3  1  0.750000  0.482131  0.174701  1
  Zr  Zr4  1  0.750000  0.358947  0.573389  1
  Sc  Sc5  1  0.250000  0.142764  0.074504  1
  Sc  Sc6  1  0.250000  0.643260  0.423957  1
  Sc  Sc7  1  0.750000  0.858582  0.927350  1
  Pt  Pt8  1  0.250000  0.256638  0.405862  1
  Pt  Pt9  1  0.250000  0.755569  0.099679  1
  Pt  Pt10  1  0.750000  0.743592  0.596995  1
  Pt  Pt11  1  0.750000  0.244119  0.899039  1
