# generated using pymatgen
data_HfTa(NiH3)2
_symmetry_space_group_name_H-M   'P 1'
_cell_length_a   5.34973559
_cell_length_b   5.34973409
_cell_length_c   4.23480900
_cell_angle_alpha   90.00000000
_cell_angle_beta   90.00000000
_cell_angle_gamma   37.65370535
_symmetry_Int_Tables_number   1
_chemical_formula_structural   HfTa(NiH3)2
_chemical_formula_sum   'Hf1 Ta1 Ni2 H6'
_cell_volume   74.03883989
_cell_formula_units_Z   1
loop_
 _symmetry_equiv_pos_site_id
 _symmetry_equiv_pos_as_xyz
  1  'x, y, z'
loop_
 _atom_site_type_symbol
 _atom_site_label
 _atom_site_symmetry_multiplicity
 _atom_site_fract_x
 _atom_site_fract_y
 _atom_site_fract_z
 _atom_site_occupancy
  Hf  Hf0  1  0.639729  0.639729  0.750001  1
  Ta  Ta1  1  0.361749  0.361749  0.250000  1
  Ni  Ni2  1  0.067536  0.067536  0.250000  1
  Ni  Ni3  1  0.928068  0.928068  0.750001  1
  H  H4  1  0.812272  0.812272  0.022875  1
  H  H5  1  0.565798  0.565798  0.250000  1
  H  H6  1  0.812272  0.812272  0.477129  1
  H  H7  1  0.194217  0.194217  0.501142  1
  H  H8  1  0.424148  0.424148  0.750001  1
  H  H9  1  0.194217  0.194217  0.998858  1
