# generated using pymatgen
data_K3Ba(AsPt)4
_symmetry_space_group_name_H-M   'P 1'
_cell_length_a   6.78898746
_cell_length_b   6.78898746
_cell_length_c   6.78898746
_cell_angle_alpha   90.46104383
_cell_angle_beta   89.53895617
_cell_angle_gamma   90.46104383
_symmetry_Int_Tables_number   1
_chemical_formula_structural   K3Ba(AsPt)4
_chemical_formula_sum   'K3 Ba1 As4 Pt4'
_cell_volume   312.87658416
_cell_formula_units_Z   1
loop_
 _symmetry_equiv_pos_site_id
 _symmetry_equiv_pos_as_xyz
  1  'x, y, z'
loop_
 _atom_site_type_symbol
 _atom_site_label
 _atom_site_symmetry_multiplicity
 _atom_site_fract_x
 _atom_site_fract_y
 _atom_site_fract_z
 _atom_site_occupancy
  K  K0  1  0.618160  0.371290  0.875966  1
  K  K1  1  0.375966  0.881840  0.628710  1
  K  K2  1  0.128710  0.124034  0.118160  1
  Ba  Ba3  1  0.876320  0.623680  0.376320  1
  As  As4  1  0.158806  0.341194  0.658806  1
  As  As5  1  0.662129  0.162488  0.340535  1
  As  As6  1  0.337512  0.659465  0.162129  1
  As  As7  1  0.840535  0.837871  0.837512  1
  Pt  Pt8  1  0.601838  0.898162  0.101838  1
  Pt  Pt9  1  0.098540  0.600534  0.902019  1
  Pt  Pt10  1  0.402019  0.401460  0.399466  1
  Pt  Pt11  1  0.899466  0.097981  0.598540  1
