# generated using pymatgen
data_Hf18FeCuRe7W
_symmetry_space_group_name_H-M   'P 1'
_cell_length_a   8.47977701
_cell_length_b   8.61589376
_cell_length_c   8.61608203
_cell_angle_alpha   120.00636878
_cell_angle_beta   90.00473209
_cell_angle_gamma   90.00090806
_symmetry_Int_Tables_number   1
_chemical_formula_structural   Hf18FeCuRe7W
_chemical_formula_sum   'Hf18 Fe1 Cu1 Re7 W1'
_cell_volume   545.12656492
_cell_formula_units_Z   1
loop_
 _symmetry_equiv_pos_site_id
 _symmetry_equiv_pos_as_xyz
  1  'x, y, z'
loop_
 _atom_site_type_symbol
 _atom_site_label
 _atom_site_symmetry_multiplicity
 _atom_site_fract_x
 _atom_site_fract_y
 _atom_site_fract_z
 _atom_site_occupancy
  Hf  Hf0  1  0.554032  0.803768  0.607536  1
  Hf  Hf1  1  0.554041  0.803761  0.196235  1
  Hf  Hf2  1  0.554029  0.392468  0.196238  1
  Hf  Hf3  1  0.441714  0.201505  0.403013  1
  Hf  Hf4  1  0.441702  0.201512  0.798490  1
  Hf  Hf5  1  0.441714  0.596981  0.798489  1
  Hf  Hf6  1  0.058914  0.200848  0.401679  1
  Hf  Hf7  1  0.058929  0.200857  0.799146  1
  Hf  Hf8  1  0.058918  0.598312  0.799151  1
  Hf  Hf9  1  0.945707  0.805322  0.610648  1
  Hf  Hf10  1  0.945701  0.805313  0.194686  1
  Hf  Hf11  1  0.945709  0.389357  0.194680  1
  Hf  Hf12  1  0.750519  0.458727  0.917483  1
  Hf  Hf13  1  0.750511  0.458737  0.541263  1
  Hf  Hf14  1  0.750523  0.082517  0.541274  1
  Hf  Hf15  1  0.249300  0.540654  0.081292  1
  Hf  Hf16  1  0.249300  0.540649  0.459355  1
  Hf  Hf17  1  0.249298  0.918705  0.459344  1
  Fe  Fe18  1  0.249331  0.333345  0.666649  1
  Cu  Cu19  1  0.751302  0.666664  0.333351  1
  Re  Re20  1  0.749318  0.111376  0.222769  1
  Re  Re21  1  0.749324  0.111381  0.888624  1
  Re  Re22  1  0.749307  0.777231  0.888623  1
  Re  Re23  1  0.250524  0.889426  0.778833  1
  Re  Re24  1  0.250524  0.889416  0.110580  1
  Re  Re25  1  0.250523  0.221166  0.110575  1
  Re  Re26  1  0.999005  0.000001  0.999999  1
  W  W27  1  0.500280  0.999997  0.999999  1
