# generated using pymatgen
data_Eu2Co12GeP6
_symmetry_space_group_name_H-M   'P 1'
_cell_length_a   9.12213400
_cell_length_b   9.12213232
_cell_length_c   3.57576400
_cell_angle_alpha   90.00000000
_cell_angle_beta   90.00000000
_cell_angle_gamma   119.99999157
_symmetry_Int_Tables_number   1
_chemical_formula_structural   Eu2Co12GeP6
_chemical_formula_sum   'Eu2 Co12 Ge1 P6'
_cell_volume   257.68689443
_cell_formula_units_Z   1
loop_
 _symmetry_equiv_pos_site_id
 _symmetry_equiv_pos_as_xyz
  1  'x, y, z'
loop_
 _atom_site_type_symbol
 _atom_site_label
 _atom_site_symmetry_multiplicity
 _atom_site_fract_x
 _atom_site_fract_y
 _atom_site_fract_z
 _atom_site_occupancy
  Eu  Eu0  1  0.000000  0.000000  0.000000  1
  Eu  Eu1  1  0.333333  0.666667  0.500000  1
  Co  Co2  1  0.101080  0.391243  0.000000  1
  Co  Co3  1  0.608757  0.709834  0.000000  1
  Co  Co4  1  0.290166  0.898920  0.000000  1
  Co  Co5  1  0.052580  0.768584  0.500000  1
  Co  Co6  1  0.231416  0.283995  0.500000  1
  Co  Co7  1  0.716005  0.947420  0.500000  1
  Co  Co8  1  0.825290  0.617837  0.000000  1
  Co  Co9  1  0.382163  0.207453  0.000000  1
  Co  Co10  1  0.792547  0.174710  0.000000  1
  Co  Co11  1  0.913138  0.443493  0.500000  1
  Co  Co12  1  0.556507  0.469645  0.500000  1
  Co  Co13  1  0.530355  0.086862  0.500000  1
  Ge  Ge14  1  0.666667  0.333333  0.000000  1
  P  P15  1  0.774115  0.733066  0.500000  1
  P  P16  1  0.266934  0.041049  0.500000  1
  P  P17  1  0.958951  0.225885  0.500000  1
  P  P18  1  0.069136  0.625577  0.000000  1
  P  P19  1  0.374423  0.443560  0.000000  1
  P  P20  1  0.556440  0.930864  0.000000  1
