# generated using pymatgen
data_Er6AlIn5Au6
_symmetry_space_group_name_H-M   'P 1'
_cell_length_a   7.71736861
_cell_length_b   7.66894945
_cell_length_c   7.87964825
_cell_angle_alpha   89.99999736
_cell_angle_beta   89.92536737
_cell_angle_gamma   119.79268251
_symmetry_Int_Tables_number   1
_chemical_formula_structural   Er6AlIn5Au6
_chemical_formula_sum   'Er6 Al1 In5 Au6'
_cell_volume   404.71153030
_cell_formula_units_Z   1
loop_
 _symmetry_equiv_pos_site_id
 _symmetry_equiv_pos_as_xyz
  1  'x, y, z'
loop_
 _atom_site_type_symbol
 _atom_site_label
 _atom_site_symmetry_multiplicity
 _atom_site_fract_x
 _atom_site_fract_y
 _atom_site_fract_z
 _atom_site_occupancy
  Er  Er0  1  0.592707  0.990607  0.750836  1
  Er  Er1  1  0.010319  0.600348  0.747419  1
  Er  Er2  1  0.397452  0.407867  0.748617  1
  Er  Er3  1  0.989681  0.590029  0.252581  1
  Er  Er4  1  0.602548  0.010415  0.251383  1
  Er  Er5  1  0.407293  0.397901  0.249164  1
  Al  Al6  1  0.000000  0.258460  0.500000  1
  In  In7  1  0.743872  0.742521  0.999726  1
  In  In8  1  0.256128  0.998649  0.000274  1
  In  In9  1  0.000000  0.264375  0.000000  1
  In  In10  1  0.731845  0.733411  0.499741  1
  In  In11  1  0.268155  0.001567  0.500259  1
  Au  Au12  1  0.000167  0.012944  0.739618  1
  Au  Au13  1  0.999833  0.012777  0.260382  1
  Au  Au14  1  0.664488  0.332278  0.981573  1
  Au  Au15  1  0.681079  0.329569  0.516597  1
  Au  Au16  1  0.318921  0.648491  0.483403  1
  Au  Au17  1  0.335512  0.667791  0.018427  1
