# generated using pymatgen
data_LiTb2Ni11P7
_symmetry_space_group_name_H-M   'P 1'
_cell_length_a   9.09980000
_cell_length_b   9.12714902
_cell_length_c   3.69477800
_cell_angle_alpha   90.00000000
_cell_angle_beta   90.00000000
_cell_angle_gamma   120.23204368
_symmetry_Int_Tables_number   1
_chemical_formula_structural   LiTb2Ni11P7
_chemical_formula_sum   'Li1 Tb2 Ni11 P7'
_cell_volume   265.13418946
_cell_formula_units_Z   1
loop_
 _symmetry_equiv_pos_site_id
 _symmetry_equiv_pos_as_xyz
  1  'x, y, z'
loop_
 _atom_site_type_symbol
 _atom_site_label
 _atom_site_symmetry_multiplicity
 _atom_site_fract_x
 _atom_site_fract_y
 _atom_site_fract_z
 _atom_site_occupancy
  Li  Li0  1  0.882529  0.445083  0.500000  1
  Tb  Tb1  1  0.998916  0.002300  0.000000  1
  Tb  Tb2  1  0.332433  0.666137  0.500000  1
  Ni  Ni3  1  0.298966  0.394183  0.000000  1
  Ni  Ni4  1  0.098141  0.706212  0.000000  1
  Ni  Ni5  1  0.544872  0.430860  0.500000  1
  Ni  Ni6  1  0.386828  0.176316  0.000000  1
  Ni  Ni7  1  0.789437  0.608832  0.000000  1
  Ni  Ni8  1  0.816721  0.211275  0.000000  1
  Ni  Ni9  1  0.236455  0.949596  0.500000  1
  Ni  Ni10  1  0.051313  0.284206  0.500000  1
  Ni  Ni11  1  0.716533  0.766880  0.500000  1
  Ni  Ni12  1  0.572128  0.121623  0.500000  1
  Ni  Ni13  1  0.606498  0.897984  0.000000  1
  P  P14  1  0.658854  0.329977  0.000000  1
  P  P15  1  0.078263  0.443232  0.000000  1
  P  P16  1  0.262693  0.222160  0.500000  1
  P  P17  1  0.776320  0.042798  0.500000  1
  P  P18  1  0.962114  0.744580  0.500000  1
  P  P19  1  0.556702  0.628997  0.000000  1
  P  P20  1  0.373284  0.926771  0.000000  1
