# generated using pymatgen
data_YEr3B12IrRh
_symmetry_space_group_name_H-M   'P 1'
_cell_length_a   3.63301700
_cell_length_b   9.14688382
_cell_length_c   11.48248177
_cell_angle_alpha   90.07594845
_cell_angle_beta   90.00000000
_cell_angle_gamma   90.00000000
_symmetry_Int_Tables_number   1
_chemical_formula_structural   YEr3B12IrRh
_chemical_formula_sum   'Y2 Er6 B24 Ir2 Rh2'
_cell_volume   381.57154104
_cell_formula_units_Z   2
loop_
 _symmetry_equiv_pos_site_id
 _symmetry_equiv_pos_as_xyz
  1  'x, y, z'
loop_
 _atom_site_type_symbol
 _atom_site_label
 _atom_site_symmetry_multiplicity
 _atom_site_fract_x
 _atom_site_fract_y
 _atom_site_fract_z
 _atom_site_occupancy
  Y  Y0  1  0.500000  0.322988  0.413837  1
  Y  Y1  1  0.500000  0.677012  0.586163  1
  Er  Er2  1  0.500000  0.178584  0.912986  1
  Er  Er3  1  0.500000  0.821416  0.087014  1
  Er  Er4  1  0.500000  0.445444  0.126342  1
  Er  Er5  1  0.500000  0.554556  0.873658  1
  Er  Er6  1  0.500000  0.056304  0.626365  1
  Er  Er7  1  0.500000  0.943696  0.373635  1
  B  B8  1  0.000000  0.109104  0.470192  1
  B  B9  1  0.000000  0.890896  0.529808  1
  B  B10  1  0.000000  0.389202  0.969976  1
  B  B11  1  0.000000  0.610798  0.030024  1
  B  B12  1  0.000000  0.132426  0.315627  1
  B  B13  1  0.000000  0.867574  0.684373  1
  B  B14  1  0.000000  0.366291  0.816395  1
  B  B15  1  0.000000  0.633709  0.183605  1
  B  B16  1  0.000000  0.053836  0.065638  1
  B  B17  1  0.000000  0.946164  0.934362  1
  B  B18  1  0.000000  0.446163  0.565826  1
  B  B19  1  0.000000  0.553837  0.434174  1
  B  B20  1  0.000000  0.483283  0.286362  1
  B  B21  1  0.000000  0.516717  0.713638  1
  B  B22  1  0.000000  0.017619  0.786918  1
  B  B23  1  0.000000  0.982381  0.213082  1
  B  B24  1  0.000000  0.249857  0.079022  1
  B  B25  1  0.000000  0.750143  0.920978  1
  B  B26  1  0.000000  0.250300  0.579928  1
  B  B27  1  0.000000  0.749700  0.420072  1
  B  B28  1  0.000000  0.294237  0.234555  1
  B  B29  1  0.000000  0.705763  0.765445  1
  B  B30  1  0.000000  0.205315  0.736042  1
  B  B31  1  0.000000  0.794685  0.263958  1
  Ir  Ir32  1  0.500000  0.138631  0.177521  1
  Ir  Ir33  1  0.500000  0.861369  0.822479  1
  Rh  Rh34  1  0.500000  0.359539  0.680450  1
  Rh  Rh35  1  0.500000  0.640461  0.319550  1
