# generated using pymatgen
data_LiAcNiAs2
_symmetry_space_group_name_H-M   'P 1'
_cell_length_a   4.40236200
_cell_length_b   4.40236200
_cell_length_c   10.22072700
_cell_angle_alpha   90.00000000
_cell_angle_beta   90.00000000
_cell_angle_gamma   90.00000000
_symmetry_Int_Tables_number   1
_chemical_formula_structural   LiAcNiAs2
_chemical_formula_sum   'Li2 Ac2 Ni2 As4'
_cell_volume   198.08577569
_cell_formula_units_Z   2
loop_
 _symmetry_equiv_pos_site_id
 _symmetry_equiv_pos_as_xyz
  1  'x, y, z'
loop_
 _atom_site_type_symbol
 _atom_site_label
 _atom_site_symmetry_multiplicity
 _atom_site_fract_x
 _atom_site_fract_y
 _atom_site_fract_z
 _atom_site_occupancy
  Li  Li0  1  0.000000  0.000000  0.500000  1
  Li  Li1  1  0.500000  0.500000  0.500000  1
  Ac  Ac2  1  0.000000  0.500000  0.765395  1
  Ac  Ac3  1  0.500000  0.000000  0.234605  1
  Ni  Ni4  1  0.000000  0.500000  0.101647  1
  Ni  Ni5  1  0.500000  0.000000  0.898353  1
  As  As6  1  0.000000  0.500000  0.348217  1
  As  As7  1  0.000000  0.000000  0.000000  1
  As  As8  1  0.500000  0.000000  0.651783  1
  As  As9  1  0.500000  0.500000  0.000000  1
