# generated using pymatgen
data_Na2Nb6Fe3Co13P12
_symmetry_space_group_name_H-M   'P 1'
_cell_length_a   12.00165400
_cell_length_b   12.00165378
_cell_length_c   3.60665300
_cell_angle_alpha   90.00000000
_cell_angle_beta   90.00000000
_cell_angle_gamma   120.00000060
_symmetry_Int_Tables_number   1
_chemical_formula_structural   Na2Nb6Fe3Co13P12
_chemical_formula_sum   'Na2 Nb6 Fe3 Co13 P12'
_cell_volume   449.90123563
_cell_formula_units_Z   1
loop_
 _symmetry_equiv_pos_site_id
 _symmetry_equiv_pos_as_xyz
  1  'x, y, z'
loop_
 _atom_site_type_symbol
 _atom_site_label
 _atom_site_symmetry_multiplicity
 _atom_site_fract_x
 _atom_site_fract_y
 _atom_site_fract_z
 _atom_site_occupancy
  Na  Na0  1  0.333333  0.666667  0.000000  1
  Na  Na1  1  0.666667  0.333333  0.000000  1
  Nb  Nb2  1  0.821006  0.000000  0.500000  1
  Nb  Nb3  1  0.000000  0.821006  0.500000  1
  Nb  Nb4  1  0.178994  0.178994  0.500000  1
  Nb  Nb5  1  0.442192  0.000000  0.000000  1
  Nb  Nb6  1  0.000000  0.442192  0.000000  1
  Nb  Nb7  1  0.557808  0.557808  0.000000  1
  Fe  Fe8  1  0.275822  0.000000  0.500000  1
  Fe  Fe9  1  0.000000  0.275822  0.500000  1
  Fe  Fe10  1  0.724178  0.724178  0.500000  1
  Co  Co11  1  0.634556  0.809498  0.000000  1
  Co  Co12  1  0.190502  0.825058  0.000000  1
  Co  Co13  1  0.174942  0.365444  0.000000  1
  Co  Co14  1  0.365444  0.174942  0.000000  1
  Co  Co15  1  0.809498  0.634556  0.000000  1
  Co  Co16  1  0.825058  0.190502  0.000000  1
  Co  Co17  1  0.525233  0.877449  0.500000  1
  Co  Co18  1  0.122551  0.647784  0.500000  1
  Co  Co19  1  0.352216  0.474767  0.500000  1
  Co  Co20  1  0.474767  0.352216  0.500000  1
  Co  Co21  1  0.877449  0.525233  0.500000  1
  Co  Co22  1  0.647784  0.122551  0.500000  1
  Co  Co23  1  0.000000  0.000000  0.000000  1
  P  P24  1  0.173289  0.000000  0.000000  1
  P  P25  1  0.000000  0.173289  0.000000  1
  P  P26  1  0.826711  0.826711  0.000000  1
  P  P27  1  0.519170  0.689963  0.500000  1
  P  P28  1  0.310037  0.829208  0.500000  1
  P  P29  1  0.170792  0.480830  0.500000  1
  P  P30  1  0.480830  0.170792  0.500000  1
  P  P31  1  0.689963  0.519170  0.500000  1
  P  P32  1  0.829208  0.310037  0.500000  1
  P  P33  1  0.650227  0.000000  0.000000  1
  P  P34  1  0.000000  0.650227  0.000000  1
  P  P35  1  0.349773  0.349773  0.000000  1
