# generated using pymatgen
data_Hf4V6GaSi7
_symmetry_space_group_name_H-M   'P 1'
_cell_length_a   6.47278287
_cell_length_b   6.61025669
_cell_length_c   12.61379293
_cell_angle_alpha   90.06049300
_cell_angle_beta   89.93213757
_cell_angle_gamma   90.05464500
_symmetry_Int_Tables_number   1
_chemical_formula_structural   Hf4V6GaSi7
_chemical_formula_sum   'Hf8 V12 Ga2 Si14'
_cell_volume   539.70235967
_cell_formula_units_Z   2
loop_
 _symmetry_equiv_pos_site_id
 _symmetry_equiv_pos_as_xyz
  1  'x, y, z'
loop_
 _atom_site_type_symbol
 _atom_site_label
 _atom_site_symmetry_multiplicity
 _atom_site_fract_x
 _atom_site_fract_y
 _atom_site_fract_z
 _atom_site_occupancy
  Hf  Hf0  1  0.994417  0.171061  0.093710  1
  Hf  Hf1  1  0.005583  0.828939  0.906290  1
  Hf  Hf2  1  0.505634  0.670729  0.906233  1
  Hf  Hf3  1  0.007052  0.835514  0.595797  1
  Hf  Hf4  1  0.494366  0.329271  0.093767  1
  Hf  Hf5  1  0.992948  0.164486  0.404203  1
  Hf  Hf6  1  0.494490  0.325240  0.402895  1
  Hf  Hf7  1  0.505510  0.674760  0.597105  1
  V  V8  1  0.163579  0.493347  0.754343  1
  V  V9  1  0.836421  0.506653  0.245657  1
  V  V10  1  0.335711  0.993541  0.249648  1
  V  V11  1  0.664289  0.006459  0.750352  1
  V  V12  1  0.340076  0.160809  0.627295  1
  V  V13  1  0.659924  0.839191  0.372705  1
  V  V14  1  0.168430  0.674206  0.371569  1
  V  V15  1  0.662830  0.833353  0.123583  1
  V  V16  1  0.831570  0.325794  0.628431  1
  V  V17  1  0.337170  0.166647  0.876417  1
  V  V18  1  0.835015  0.332617  0.876364  1
  V  V19  1  0.164985  0.667383  0.123636  1
  Ga  Ga20  1  0.171724  0.457367  0.541426  1
  Ga  Ga21  1  0.828276  0.542633  0.458574  1
  Si  Si22  1  0.037908  0.126595  0.751163  1
  Si  Si23  1  0.962092  0.873405  0.248837  1
  Si  Si24  1  0.464810  0.625148  0.249073  1
  Si  Si25  1  0.535190  0.374852  0.750927  1
  Si  Si26  1  0.301720  0.865258  0.751622  1
  Si  Si27  1  0.698280  0.134742  0.248378  1
  Si  Si28  1  0.196223  0.367174  0.250570  1
  Si  Si29  1  0.803777  0.632826  0.749430  1
  Si  Si30  1  0.330900  0.957509  0.460637  1
  Si  Si31  1  0.831667  0.543202  0.040223  1
  Si  Si32  1  0.669100  0.042491  0.539363  1
  Si  Si33  1  0.168333  0.456798  0.959777  1
  Si  Si34  1  0.668534  0.042524  0.959210  1
  Si  Si35  1  0.331466  0.957476  0.040790  1
