# generated using pymatgen
data_Dy10Y6MgCo4Hg3
_symmetry_space_group_name_H-M   'P 1'
_cell_length_a   9.49694512
_cell_length_b   9.49647934
_cell_length_c   9.49648100
_cell_angle_alpha   59.99999770
_cell_angle_beta   60.00162010
_cell_angle_gamma   60.00161897
_symmetry_Int_Tables_number   1
_chemical_formula_structural   Dy10Y6MgCo4Hg3
_chemical_formula_sum   'Dy10 Y6 Mg1 Co4 Hg3'
_cell_volume   605.62652119
_cell_formula_units_Z   1
loop_
 _symmetry_equiv_pos_site_id
 _symmetry_equiv_pos_as_xyz
  1  'x, y, z'
loop_
 _atom_site_type_symbol
 _atom_site_label
 _atom_site_symmetry_multiplicity
 _atom_site_fract_x
 _atom_site_fract_y
 _atom_site_fract_z
 _atom_site_occupancy
  Dy  Dy0  1  0.347590  0.345558  0.345558  1
  Dy  Dy1  1  0.347590  0.345558  0.961295  1
  Dy  Dy2  1  0.347590  0.961295  0.345558  1
  Dy  Dy3  1  0.952244  0.349252  0.349252  1
  Dy  Dy4  1  0.810433  0.189104  0.189104  1
  Dy  Dy5  1  0.185236  0.813789  0.813789  1
  Dy  Dy6  1  0.185236  0.813789  0.187186  1
  Dy  Dy7  1  0.810433  0.189104  0.811361  1
  Dy  Dy8  1  0.185236  0.187186  0.813789  1
  Dy  Dy9  1  0.810433  0.811361  0.189104  1
  Y  Y10  1  0.937086  0.562252  0.562252  1
  Y  Y11  1  0.561399  0.937870  0.937870  1
  Y  Y12  1  0.561399  0.937870  0.562860  1
  Y  Y13  1  0.937086  0.562252  0.938410  1
  Y  Y14  1  0.561399  0.562860  0.937870  1
  Y  Y15  1  0.937086  0.938410  0.562252  1
  Mg  Mg16  1  0.286313  0.571229  0.571229  1
  Co  Co17  1  0.138856  0.142301  0.142301  1
  Co  Co18  1  0.138856  0.142301  0.576542  1
  Co  Co19  1  0.138856  0.576542  0.142301  1
  Co  Co20  1  0.576105  0.141298  0.141298  1
  Hg  Hg21  1  0.581179  0.585206  0.585206  1
  Hg  Hg22  1  0.581179  0.585206  0.248410  1
  Hg  Hg23  1  0.581179  0.248410  0.585206  1
