# generated using pymatgen
data_Zr4URe3Tc4
_symmetry_space_group_name_H-M   'P 1'
_cell_length_a   5.24039150
_cell_length_b   5.24039123
_cell_length_c   8.86751300
_cell_angle_alpha   90.00000000
_cell_angle_beta   90.00000000
_cell_angle_gamma   117.63638647
_symmetry_Int_Tables_number   1
_chemical_formula_structural   Zr4URe3Tc4
_chemical_formula_sum   'Zr4 U1 Re3 Tc4'
_cell_volume   215.73394191
_cell_formula_units_Z   1
loop_
 _symmetry_equiv_pos_site_id
 _symmetry_equiv_pos_as_xyz
  1  'x, y, z'
loop_
 _atom_site_type_symbol
 _atom_site_label
 _atom_site_symmetry_multiplicity
 _atom_site_fract_x
 _atom_site_fract_y
 _atom_site_fract_z
 _atom_site_occupancy
  Zr  Zr0  1  0.328169  0.671831  0.449300  1
  Zr  Zr1  1  0.663062  0.336938  0.569866  1
  Zr  Zr2  1  0.663062  0.336938  0.930134  1
  Zr  Zr3  1  0.328169  0.671831  0.050700  1
  U  U4  1  0.848598  0.151402  0.250000  1
  Re  Re5  1  0.162696  0.837304  0.750000  1
  Re  Re6  1  0.167382  0.348512  0.750000  1
  Re  Re7  1  0.651488  0.832618  0.750000  1
  Tc  Tc8  1  0.990244  0.009756  0.498090  1
  Tc  Tc9  1  0.990244  0.009756  0.001910  1
  Tc  Tc10  1  0.837529  0.630641  0.250000  1
  Tc  Tc11  1  0.369359  0.162471  0.250000  1
