# generated using pymatgen
data_Th2Sn2IrRh
_symmetry_space_group_name_H-M   'P 1'
_cell_length_a   7.57712400
_cell_length_b   7.57712461
_cell_length_c   8.28264100
_cell_angle_alpha   90.00000000
_cell_angle_beta   90.00000000
_cell_angle_gamma   120.00000606
_symmetry_Int_Tables_number   1
_chemical_formula_structural   Th2Sn2IrRh
_chemical_formula_sum   'Th6 Sn6 Ir3 Rh3'
_cell_volume   411.82078979
_cell_formula_units_Z   3
loop_
 _symmetry_equiv_pos_site_id
 _symmetry_equiv_pos_as_xyz
  1  'x, y, z'
loop_
 _atom_site_type_symbol
 _atom_site_label
 _atom_site_symmetry_multiplicity
 _atom_site_fract_x
 _atom_site_fract_y
 _atom_site_fract_z
 _atom_site_occupancy
  Th  Th0  1  0.586008  0.999406  0.750450  1
  Th  Th1  1  0.413398  0.413992  0.750450  1
  Th  Th2  1  0.000594  0.586602  0.750450  1
  Th  Th3  1  0.587899  0.003407  0.249361  1
  Th  Th4  1  0.415508  0.412101  0.249361  1
  Th  Th5  1  0.996593  0.584492  0.249361  1
  Sn  Sn6  1  0.249870  0.999326  0.000329  1
  Sn  Sn7  1  0.748704  0.750657  0.500263  1
  Sn  Sn8  1  0.001953  0.251296  0.500263  1
  Sn  Sn9  1  0.000674  0.250546  0.000329  1
  Sn  Sn10  1  0.749454  0.750130  0.000329  1
  Sn  Sn11  1  0.249343  0.998047  0.500263  1
  Ir  Ir12  1  0.666667  0.333333  0.997213  1
  Ir  Ir13  1  0.666667  0.333333  0.502716  1
  Ir  Ir14  1  0.333333  0.666667  0.001235  1
  Rh  Rh15  1  0.333333  0.666667  0.497165  1
  Rh  Rh16  1  0.000000  0.000000  0.750907  1
  Rh  Rh17  1  0.000000  0.000000  0.249556  1
