# generated using pymatgen
data_TbLu15In4OsRh3
_symmetry_space_group_name_H-M   'P 1'
_cell_length_a   9.46190380
_cell_length_b   9.49758509
_cell_length_c   9.47687384
_cell_angle_alpha   59.98611884
_cell_angle_beta   60.05224396
_cell_angle_gamma   60.12419782
_symmetry_Int_Tables_number   1
_chemical_formula_structural   TbLu15In4OsRh3
_chemical_formula_sum   'Tb1 Lu15 In4 Os1 Rh3'
_cell_volume   602.93931903
_cell_formula_units_Z   1
loop_
 _symmetry_equiv_pos_site_id
 _symmetry_equiv_pos_as_xyz
  1  'x, y, z'
loop_
 _atom_site_type_symbol
 _atom_site_label
 _atom_site_symmetry_multiplicity
 _atom_site_fract_x
 _atom_site_fract_y
 _atom_site_fract_z
 _atom_site_occupancy
  Tb  Tb0  1  0.064325  0.432836  0.438513  1
  Lu  Lu1  1  0.807533  0.810205  0.191556  1
  Lu  Lu2  1  0.807891  0.192919  0.810149  1
  Lu  Lu3  1  0.189042  0.192919  0.810149  1
  Lu  Lu4  1  0.649636  0.047734  0.652995  1
  Lu  Lu5  1  0.060801  0.057758  0.439906  1
  Lu  Lu6  1  0.451299  0.437579  0.054941  1
  Lu  Lu7  1  0.654928  0.649126  0.649773  1
  Lu  Lu8  1  0.807550  0.193166  0.191735  1
  Lu  Lu9  1  0.191969  0.807462  0.808600  1
  Lu  Lu10  1  0.046171  0.649126  0.649773  1
  Lu  Lu11  1  0.436004  0.063596  0.064395  1
  Lu  Lu12  1  0.441535  0.057758  0.439906  1
  Lu  Lu13  1  0.056181  0.437579  0.054941  1
  Lu  Lu14  1  0.649840  0.653684  0.046636  1
  Lu  Lu15  1  0.190706  0.810205  0.191556  1
  In  In16  1  0.417392  0.416850  0.417033  1
  In  In17  1  0.416201  0.415373  0.752223  1
  In  In18  1  0.416780  0.750138  0.416299  1
  In  In19  1  0.748723  0.416850  0.417033  1
  Os  Os20  1  0.855832  0.424619  0.863718  1
  Rh  Rh21  1  0.860879  0.859667  0.857864  1
  Rh  Rh22  1  0.857191  0.863179  0.422440  1
  Rh  Rh23  1  0.421591  0.859667  0.857864  1
