# generated using pymatgen
data_Er8ReTcBr8
_symmetry_space_group_name_H-M   'P 1'
_cell_length_a   8.89856941
_cell_length_b   8.89856965
_cell_length_c   6.57542080
_cell_angle_alpha   89.42844183
_cell_angle_beta   89.42844033
_cell_angle_gamma   89.33544974
_symmetry_Int_Tables_number   1
_chemical_formula_structural   Er8ReTcBr8
_chemical_formula_sum   'Er8 Re1 Tc1 Br8'
_cell_volume   520.58543112
_cell_formula_units_Z   1
loop_
 _symmetry_equiv_pos_site_id
 _symmetry_equiv_pos_as_xyz
  1  'x, y, z'
loop_
 _atom_site_type_symbol
 _atom_site_label
 _atom_site_symmetry_multiplicity
 _atom_site_fract_x
 _atom_site_fract_y
 _atom_site_fract_z
 _atom_site_occupancy
  Er  Er0  1  0.247955  0.901508  0.012701  1
  Er  Er1  1  0.751523  0.098817  0.988162  1
  Er  Er2  1  0.098492  0.752045  0.487299  1
  Er  Er3  1  0.901183  0.248477  0.511838  1
  Er  Er4  1  0.752539  0.902909  0.507978  1
  Er  Er5  1  0.247191  0.096937  0.491105  1
  Er  Er6  1  0.097091  0.247461  0.992022  1
  Er  Er7  1  0.903063  0.752809  0.008895  1
  Re  Re8  1  0.994169  0.005831  0.250000  1
  Tc  Tc9  1  0.006128  0.993872  0.750000  1
  Br  Br10  1  0.421311  0.816790  0.406072  1
  Br  Br11  1  0.579108  0.183305  0.593769  1
  Br  Br12  1  0.183210  0.578689  0.093928  1
  Br  Br13  1  0.816695  0.420892  0.906231  1
  Br  Br14  1  0.416769  0.192501  0.096378  1
  Br  Br15  1  0.583764  0.807688  0.903956  1
  Br  Br16  1  0.807499  0.583231  0.403622  1
  Br  Br17  1  0.192312  0.416236  0.596044  1
