# generated using pymatgen
data_Eu5CrMoO12
_symmetry_space_group_name_H-M   'P 1'
_cell_length_a   7.01389693
_cell_length_b   7.01389579
_cell_length_c   7.55349839
_cell_angle_alpha   74.17968987
_cell_angle_beta   74.17969454
_cell_angle_gamma   50.22037483
_symmetry_Int_Tables_number   1
_chemical_formula_structural   Eu5CrMoO12
_chemical_formula_sum   'Eu5 Cr1 Mo1 O12'
_cell_volume   272.32245352
_cell_formula_units_Z   1
loop_
 _symmetry_equiv_pos_site_id
 _symmetry_equiv_pos_as_xyz
  1  'x, y, z'
loop_
 _atom_site_type_symbol
 _atom_site_label
 _atom_site_symmetry_multiplicity
 _atom_site_fract_x
 _atom_site_fract_y
 _atom_site_fract_z
 _atom_site_occupancy
  Eu  Eu0  1  0.316672  0.295142  0.358037  1
  Eu  Eu1  1  0.704858  0.683328  0.641963  1
  Eu  Eu2  1  0.311702  0.307393  0.832308  1
  Eu  Eu3  1  0.692607  0.688298  0.167692  1
  Eu  Eu4  1  0.002345  0.997655  0.500000  1
  Cr  Cr5  1  0.738947  0.261053  0.000000  1
  Mo  Mo6  1  0.224963  0.775037  0.000000  1
  O  O7  1  0.898832  0.424339  0.919559  1
  O  O8  1  0.419723  0.895985  0.919703  1
  O  O9  1  0.104015  0.580277  0.080297  1
  O  O10  1  0.575661  0.101168  0.080441  1
  O  O11  1  0.102308  0.592188  0.573151  1
  O  O12  1  0.603766  0.089950  0.575809  1
  O  O13  1  0.910050  0.396234  0.424191  1
  O  O14  1  0.407812  0.897692  0.426849  1
  O  O15  1  0.005047  0.995376  0.821488  1
  O  O16  1  0.004624  0.994953  0.178512  1
  O  O17  1  0.487964  0.511897  0.823952  1
  O  O18  1  0.488103  0.512036  0.176048  1
