# generated using pymatgen
data_Ta6Be9Co6(Si3Ni)2
_symmetry_space_group_name_H-M   'P 1'
_cell_length_a   7.68333006
_cell_length_b   7.69141748
_cell_length_c   7.73861600
_cell_angle_alpha   59.79679717
_cell_angle_beta   59.76168561
_cell_angle_gamma   59.97573232
_symmetry_Int_Tables_number   1
_chemical_formula_structural   Ta6Be9Co6(Si3Ni)2
_chemical_formula_sum   'Ta6 Be9 Co6 Si6 Ni2'
_cell_volume   322.23127341
_cell_formula_units_Z   1
loop_
 _symmetry_equiv_pos_site_id
 _symmetry_equiv_pos_as_xyz
  1  'x, y, z'
loop_
 _atom_site_type_symbol
 _atom_site_label
 _atom_site_symmetry_multiplicity
 _atom_site_fract_x
 _atom_site_fract_y
 _atom_site_fract_z
 _atom_site_occupancy
  Ta  Ta0  1  0.707213  0.294589  0.297969  1
  Ta  Ta1  1  0.292787  0.705411  0.702031  1
  Ta  Ta2  1  0.292787  0.705411  0.299771  1
  Ta  Ta3  1  0.707213  0.294589  0.700229  1
  Ta  Ta4  1  0.305431  0.309741  0.692414  1
  Ta  Ta5  1  0.694569  0.690259  0.307586  1
  Be  Be6  1  0.325119  0.327873  0.328775  1
  Be  Be7  1  0.674881  0.672127  0.671225  1
  Be  Be8  1  0.325119  0.327873  0.018231  1
  Be  Be9  1  0.314147  0.016849  0.334501  1
  Be  Be10  1  0.674881  0.672127  0.981769  1
  Be  Be11  1  0.685853  0.983151  0.665499  1
  Be  Be12  1  0.019809  0.315769  0.332210  1
  Be  Be13  1  0.980191  0.684231  0.667790  1
  Be  Be14  1  0.000000  0.000000  0.500000  1
  Co  Co15  1  0.123373  0.123030  0.122501  1
  Co  Co16  1  0.876627  0.876971  0.877499  1
  Co  Co17  1  0.123373  0.123030  0.631096  1
  Co  Co18  1  0.123041  0.629382  0.123787  1
  Co  Co19  1  0.876627  0.876971  0.368904  1
  Co  Co20  1  0.876959  0.370618  0.876212  1
  Si  Si21  1  0.500000  0.000000  0.000000  1
  Si  Si22  1  0.000000  0.500000  0.500000  1
  Si  Si23  1  0.000000  0.500000  0.000000  1
  Si  Si24  1  0.500000  0.000000  0.500000  1
  Si  Si25  1  0.500000  0.500000  0.000000  1
  Si  Si26  1  0.000000  0.000000  0.000000  1
  Ni  Ni27  1  0.628450  0.122188  0.124681  1
  Ni  Ni28  1  0.371550  0.877812  0.875319  1
