# generated using pymatgen
data_TbHo7(Sc3Sn4)4
_symmetry_space_group_name_H-M   'P 1'
_cell_length_a   7.67834803
_cell_length_b   7.95316001
_cell_length_c   14.82557505
_cell_angle_alpha   90.00327411
_cell_angle_beta   89.99137009
_cell_angle_gamma   90.00410535
_symmetry_Int_Tables_number   1
_chemical_formula_structural   TbHo7(Sc3Sn4)4
_chemical_formula_sum   'Tb1 Ho7 Sc12 Sn16'
_cell_volume   905.35531148
_cell_formula_units_Z   1
loop_
 _symmetry_equiv_pos_site_id
 _symmetry_equiv_pos_as_xyz
  1  'x, y, z'
loop_
 _atom_site_type_symbol
 _atom_site_label
 _atom_site_symmetry_multiplicity
 _atom_site_fract_x
 _atom_site_fract_y
 _atom_site_fract_z
 _atom_site_occupancy
  Tb  Tb0  1  0.995434  0.176989  0.094070  1
  Ho  Ho1  1  0.004541  0.822796  0.905765  1
  Ho  Ho2  1  0.504611  0.677193  0.905795  1
  Ho  Ho3  1  0.004606  0.822836  0.594182  1
  Ho  Ho4  1  0.495385  0.322874  0.094173  1
  Ho  Ho5  1  0.995391  0.177155  0.405749  1
  Ho  Ho6  1  0.495415  0.322836  0.405861  1
  Ho  Ho7  1  0.504577  0.677189  0.594175  1
  Sc  Sc8  1  0.164269  0.496720  0.749992  1
  Sc  Sc9  1  0.835678  0.503351  0.250050  1
  Sc  Sc10  1  0.335808  0.996647  0.250040  1
  Sc  Sc11  1  0.664255  0.003270  0.750010  1
  Sc  Sc12  1  0.335666  0.161934  0.627231  1
  Sc  Sc13  1  0.664316  0.838088  0.372798  1
  Sc  Sc14  1  0.164332  0.661959  0.372807  1
  Sc  Sc15  1  0.664234  0.837977  0.127233  1
  Sc  Sc16  1  0.835676  0.338048  0.627237  1
  Sc  Sc17  1  0.335709  0.161907  0.872753  1
  Sc  Sc18  1  0.835587  0.338140  0.872743  1
  Sc  Sc19  1  0.164351  0.661963  0.127222  1
  Sn  Sn20  1  0.026847  0.123964  0.749988  1
  Sn  Sn21  1  0.973169  0.875844  0.250041  1
  Sn  Sn22  1  0.473144  0.623948  0.249999  1
  Sn  Sn23  1  0.526812  0.376064  0.749984  1
  Sn  Sn24  1  0.306596  0.849608  0.750003  1
  Sn  Sn25  1  0.693143  0.150337  0.250116  1
  Sn  Sn26  1  0.193734  0.349849  0.250220  1
  Sn  Sn27  1  0.806608  0.650395  0.750012  1
  Sn  Sn28  1  0.180705  0.458163  0.542341  1
  Sn  Sn29  1  0.819294  0.541824  0.457685  1
  Sn  Sn30  1  0.319243  0.958199  0.457656  1
  Sn  Sn31  1  0.819151  0.542057  0.042270  1
  Sn  Sn32  1  0.680713  0.041823  0.542357  1
  Sn  Sn33  1  0.180832  0.458361  0.957607  1
  Sn  Sn34  1  0.680398  0.041728  0.957559  1
  Sn  Sn35  1  0.319772  0.957963  0.042278  1
