# generated using pymatgen
data_Sc3In2Ni3Sn
_symmetry_space_group_name_H-M   'P 1'
_cell_length_a   7.31370564
_cell_length_b   7.31370632
_cell_length_c   3.45589800
_cell_angle_alpha   90.00000000
_cell_angle_beta   90.00000000
_cell_angle_gamma   119.80450561
_symmetry_Int_Tables_number   1
_chemical_formula_structural   Sc3In2Ni3Sn
_chemical_formula_sum   'Sc3 In2 Ni3 Sn1'
_cell_volume   160.40529704
_cell_formula_units_Z   1
loop_
 _symmetry_equiv_pos_site_id
 _symmetry_equiv_pos_as_xyz
  1  'x, y, z'
loop_
 _atom_site_type_symbol
 _atom_site_label
 _atom_site_symmetry_multiplicity
 _atom_site_fract_x
 _atom_site_fract_y
 _atom_site_fract_z
 _atom_site_occupancy
  Sc  Sc0  1  0.597449  0.001220  0.000000  1
  Sc  Sc1  1  0.001220  0.597449  0.000000  1
  Sc  Sc2  1  0.398623  0.398623  0.000000  1
  In  In3  1  0.270780  0.001305  0.500000  1
  In  In4  1  0.001305  0.270780  0.500000  1
  Ni  Ni5  1  0.993247  0.993247  0.000000  1
  Ni  Ni6  1  0.337855  0.667241  0.500000  1
  Ni  Ni7  1  0.667241  0.337855  0.500000  1
  Sn  Sn8  1  0.732280  0.732280  0.500000  1
