# generated using pymatgen
data_Ho12TlInGaFe2
_symmetry_space_group_name_H-M   'P 1'
_cell_length_a   8.38304577
_cell_length_b   8.38304594
_cell_length_c   8.38304579
_cell_angle_alpha   110.01551239
_cell_angle_beta   109.71297259
_cell_angle_gamma   108.68814771
_symmetry_Int_Tables_number   1
_chemical_formula_structural   Ho12TlInGaFe2
_chemical_formula_sum   'Ho12 Tl1 In1 Ga1 Fe2'
_cell_volume   453.43998363
_cell_formula_units_Z   1
loop_
 _symmetry_equiv_pos_site_id
 _symmetry_equiv_pos_as_xyz
  1  'x, y, z'
loop_
 _atom_site_type_symbol
 _atom_site_label
 _atom_site_symmetry_multiplicity
 _atom_site_fract_x
 _atom_site_fract_y
 _atom_site_fract_z
 _atom_site_occupancy
  Ho  Ho0  1  0.444495  0.201415  0.243080  1
  Ho  Ho1  1  0.555505  0.798585  0.756920  1
  Ho  Ho2  1  0.958333  0.201415  0.756920  1
  Ho  Ho3  1  0.202302  0.958700  0.756400  1
  Ho  Ho4  1  0.041667  0.798585  0.243080  1
  Ho  Ho5  1  0.797698  0.041300  0.243600  1
  Ho  Ho6  1  0.202302  0.445902  0.243600  1
  Ho  Ho7  1  0.797698  0.554098  0.756400  1
  Ho  Ho8  1  0.306714  0.305521  0.612235  1
  Ho  Ho9  1  0.693286  0.694479  0.387765  1
  Ho  Ho10  1  0.306714  0.694479  0.001193  1
  Ho  Ho11  1  0.693286  0.305521  0.998807  1
  Tl  Tl12  1  0.000000  0.500000  0.500000  1
  In  In13  1  0.500000  0.000000  0.500000  1
  Ga  Ga14  1  0.000000  0.000000  0.000000  1
  Fe  Fe15  1  0.387381  0.387381  0.000000  1
  Fe  Fe16  1  0.612619  0.612619  0.000000  1
