# generated using pymatgen
data_Nd(Eu2Ir)2
_symmetry_space_group_name_H-M   'P 1'
_cell_length_a   6.68793111
_cell_length_b   7.52394017
_cell_length_c   8.79926200
_cell_angle_alpha   96.74331831
_cell_angle_beta   112.33541627
_cell_angle_gamma   90.00000137
_symmetry_Int_Tables_number   1
_chemical_formula_structural   Nd(Eu2Ir)2
_chemical_formula_sum   'Nd2 Eu8 Ir4'
_cell_volume   406.24262177
_cell_formula_units_Z   2
loop_
 _symmetry_equiv_pos_site_id
 _symmetry_equiv_pos_as_xyz
  1  'x, y, z'
loop_
 _atom_site_type_symbol
 _atom_site_label
 _atom_site_symmetry_multiplicity
 _atom_site_fract_x
 _atom_site_fract_y
 _atom_site_fract_z
 _atom_site_occupancy
  Nd  Nd0  1  0.432349  0.750000  0.000000  1
  Nd  Nd1  1  0.567651  0.250000  0.000000  1
  Eu  Eu2  1  0.982876  0.918512  0.179910  1
  Eu  Eu3  1  0.802967  0.581488  0.820090  1
  Eu  Eu4  1  0.017124  0.081488  0.820090  1
  Eu  Eu5  1  0.197033  0.418512  0.179910  1
  Eu  Eu6  1  0.640390  0.817419  0.436142  1
  Eu  Eu7  1  0.204249  0.682581  0.563858  1
  Eu  Eu8  1  0.359610  0.182581  0.563858  1
  Eu  Eu9  1  0.795751  0.317419  0.436142  1
  Ir  Ir10  1  0.810884  0.576351  0.214039  1
  Ir  Ir11  1  0.596846  0.923649  0.785961  1
  Ir  Ir12  1  0.189116  0.423649  0.785961  1
  Ir  Ir13  1  0.403154  0.076351  0.214039  1
