# generated using pymatgen
data_CaLuAlSe4
_symmetry_space_group_name_H-M   'P 1'
_cell_length_a   14.52693500
_cell_length_b   8.28519200
_cell_length_c   6.57946800
_cell_angle_alpha   90.00000000
_cell_angle_beta   90.00000000
_cell_angle_gamma   90.00000000
_symmetry_Int_Tables_number   1
_chemical_formula_structural   CaLuAlSe4
_chemical_formula_sum   'Ca4 Lu4 Al4 Se16'
_cell_volume   791.89454166
_cell_formula_units_Z   4
loop_
 _symmetry_equiv_pos_site_id
 _symmetry_equiv_pos_as_xyz
  1  'x, y, z'
loop_
 _atom_site_type_symbol
 _atom_site_label
 _atom_site_symmetry_multiplicity
 _atom_site_fract_x
 _atom_site_fract_y
 _atom_site_fract_z
 _atom_site_occupancy
  Ca  Ca0  1  0.737428  0.750001  0.007915  1
  Ca  Ca1  1  0.237428  0.750001  0.492085  1
  Ca  Ca2  1  0.762572  0.250000  0.507915  1
  Ca  Ca3  1  0.262572  0.250000  0.992084  1
  Lu  Lu4  1  0.000000  0.000000  0.000000  1
  Lu  Lu5  1  0.000000  0.499999  0.000000  1
  Lu  Lu6  1  0.500000  0.000000  0.500000  1
  Lu  Lu7  1  0.500000  0.499999  0.500000  1
  Al  Al8  1  0.581621  0.250000  0.100405  1
  Al  Al9  1  0.081621  0.250000  0.399595  1
  Al  Al10  1  0.918379  0.750001  0.600406  1
  Al  Al11  1  0.418379  0.750001  0.899595  1
  Se  Se12  1  0.916185  0.750001  0.235339  1
  Se  Se13  1  0.156007  0.018634  0.249942  1
  Se  Se14  1  0.156007  0.481366  0.249942  1
  Se  Se15  1  0.929266  0.250000  0.244061  1
  Se  Se16  1  0.429266  0.250000  0.255939  1
  Se  Se17  1  0.656007  0.018634  0.250058  1
  Se  Se18  1  0.656007  0.481366  0.250058  1
  Se  Se19  1  0.416184  0.750001  0.264660  1
  Se  Se20  1  0.583815  0.250000  0.735339  1
  Se  Se21  1  0.343993  0.518635  0.749942  1
  Se  Se22  1  0.343993  0.981365  0.749942  1
  Se  Se23  1  0.570734  0.750001  0.744060  1
  Se  Se24  1  0.070734  0.750001  0.755939  1
  Se  Se25  1  0.843993  0.518635  0.750057  1
  Se  Se26  1  0.843993  0.981365  0.750057  1
  Se  Se27  1  0.083816  0.250000  0.764660  1
