# generated using pymatgen
data_CeSmHgPt2
_symmetry_space_group_name_H-M   'P 1'
_cell_length_a   7.85204200
_cell_length_b   7.88534200
_cell_length_c   3.74971200
_cell_angle_alpha   90.00000000
_cell_angle_beta   90.00000000
_cell_angle_gamma   90.00000000
_symmetry_Int_Tables_number   1
_chemical_formula_structural   CeSmHgPt2
_chemical_formula_sum   'Ce2 Sm2 Hg2 Pt4'
_cell_volume   232.16730531
_cell_formula_units_Z   2
loop_
 _symmetry_equiv_pos_site_id
 _symmetry_equiv_pos_as_xyz
  1  'x, y, z'
loop_
 _atom_site_type_symbol
 _atom_site_label
 _atom_site_symmetry_multiplicity
 _atom_site_fract_x
 _atom_site_fract_y
 _atom_site_fract_z
 _atom_site_occupancy
  Ce  Ce0  1  0.830138  0.671296  0.500000  1
  Ce  Ce1  1  0.669862  0.171296  0.500000  1
  Sm  Sm2  1  0.170744  0.328102  0.500000  1
  Sm  Sm3  1  0.329256  0.828102  0.500000  1
  Hg  Hg4  1  0.496468  0.502863  0.000000  1
  Hg  Hg5  1  0.003532  0.002863  0.000000  1
  Pt  Pt6  1  0.638517  0.869701  0.000000  1
  Pt  Pt7  1  0.119185  0.628039  0.000000  1
  Pt  Pt8  1  0.861483  0.369701  0.000000  1
  Pt  Pt9  1  0.380815  0.128039  0.000000  1
