# generated using pymatgen
data_Er12TlInFe2Ir
_symmetry_space_group_name_H-M   'P 1'
_cell_length_a   8.32423143
_cell_length_b   8.32423135
_cell_length_c   8.32423191
_cell_angle_alpha   108.38181756
_cell_angle_beta   108.87209912
_cell_angle_gamma   111.17362960
_symmetry_Int_Tables_number   1
_chemical_formula_structural   Er12TlInFe2Ir
_chemical_formula_sum   'Er12 Tl1 In1 Fe2 Ir1'
_cell_volume   443.72535251
_cell_formula_units_Z   1
loop_
 _symmetry_equiv_pos_site_id
 _symmetry_equiv_pos_as_xyz
  1  'x, y, z'
loop_
 _atom_site_type_symbol
 _atom_site_label
 _atom_site_symmetry_multiplicity
 _atom_site_fract_x
 _atom_site_fract_y
 _atom_site_fract_z
 _atom_site_occupancy
  Er  Er0  1  0.307809  0.309755  0.617561  1
  Er  Er1  1  0.692191  0.690245  0.382439  1
  Er  Er2  1  0.307809  0.690245  0.998054  1
  Er  Er3  1  0.692191  0.309755  0.001946  1
  Er  Er4  1  0.432703  0.193168  0.239534  1
  Er  Er5  1  0.567297  0.806832  0.760466  1
  Er  Er6  1  0.953634  0.193168  0.760466  1
  Er  Er7  1  0.191884  0.954281  0.762397  1
  Er  Er8  1  0.046366  0.806832  0.239534  1
  Er  Er9  1  0.808116  0.045719  0.237603  1
  Er  Er10  1  0.191884  0.429488  0.237603  1
  Er  Er11  1  0.808116  0.570512  0.762397  1
  Tl  Tl12  1  0.500000  0.000000  0.500000  1
  In  In13  1  0.000000  0.500000  0.500000  1
  Fe  Fe14  1  0.385476  0.385476  0.000000  1
  Fe  Fe15  1  0.614524  0.614524  0.000000  1
  Ir  Ir16  1  0.000000  0.000000  0.000000  1
