# generated using pymatgen
data_Sr3Er(BO3)3
_symmetry_space_group_name_H-M   'P 1'
_cell_length_a   7.89768280
_cell_length_b   7.89768278
_cell_length_c   7.89768305
_cell_angle_alpha   105.03077878
_cell_angle_beta   105.03077994
_cell_angle_gamma   105.03078299
_symmetry_Int_Tables_number   1
_chemical_formula_structural   Sr3Er(BO3)3
_chemical_formula_sum   'Sr6 Er2 B6 O18'
_cell_volume   430.38802801
_cell_formula_units_Z   2
loop_
 _symmetry_equiv_pos_site_id
 _symmetry_equiv_pos_as_xyz
  1  'x, y, z'
loop_
 _atom_site_type_symbol
 _atom_site_label
 _atom_site_symmetry_multiplicity
 _atom_site_fract_x
 _atom_site_fract_y
 _atom_site_fract_z
 _atom_site_occupancy
  Sr  Sr0  1  0.359891  0.735238  0.859849  1
  Sr  Sr1  1  0.859849  0.359891  0.735238  1
  Sr  Sr2  1  0.735238  0.859849  0.359891  1
  Sr  Sr3  1  0.640109  0.264762  0.140151  1
  Sr  Sr4  1  0.140151  0.640109  0.264762  1
  Sr  Sr5  1  0.264762  0.140151  0.640109  1
  Er  Er6  1  0.500000  0.500000  0.500000  1
  Er  Er7  1  0.000000  0.000000  0.000000  1
  B  B8  1  0.708003  0.611858  0.958834  1
  B  B9  1  0.958834  0.708003  0.611858  1
  B  B10  1  0.611858  0.958834  0.708003  1
  B  B11  1  0.041166  0.291997  0.388142  1
  B  B12  1  0.388142  0.041166  0.291997  1
  B  B13  1  0.291997  0.388142  0.041166  1
  O  O14  1  0.045501  0.811379  0.522420  1
  O  O15  1  0.522420  0.045501  0.811379  1
  O  O16  1  0.444980  0.492589  0.207175  1
  O  O17  1  0.492589  0.207175  0.444980  1
  O  O18  1  0.207175  0.444980  0.492589  1
  O  O19  1  0.792825  0.555020  0.507411  1
  O  O20  1  0.555020  0.507411  0.792825  1
  O  O21  1  0.507411  0.792825  0.555020  1
  O  O22  1  0.250475  0.195340  0.968961  1
  O  O23  1  0.195340  0.968961  0.250475  1
  O  O24  1  0.968961  0.250475  0.195340  1
  O  O25  1  0.749525  0.804660  0.031039  1
  O  O26  1  0.804660  0.031039  0.749525  1
  O  O27  1  0.031039  0.749525  0.804660  1
  O  O28  1  0.188621  0.477580  0.954499  1
  O  O29  1  0.477580  0.954499  0.188621  1
  O  O30  1  0.954499  0.188621  0.477580  1
  O  O31  1  0.811379  0.522420  0.045501  1
