# generated using pymatgen
data_Ba4LaNd(AlSe5)2
_symmetry_space_group_name_H-M   'P 1'
_cell_length_a   7.43870405
_cell_length_b   8.98596126
_cell_length_c   9.69472318
_cell_angle_alpha   103.81445338
_cell_angle_beta   102.60086096
_cell_angle_gamma   107.83175705
_symmetry_Int_Tables_number   1
_chemical_formula_structural   Ba4LaNd(AlSe5)2
_chemical_formula_sum   'Ba4 La1 Nd1 Al2 Se10'
_cell_volume   568.54203150
_cell_formula_units_Z   1
loop_
 _symmetry_equiv_pos_site_id
 _symmetry_equiv_pos_as_xyz
  1  'x, y, z'
loop_
 _atom_site_type_symbol
 _atom_site_label
 _atom_site_symmetry_multiplicity
 _atom_site_fract_x
 _atom_site_fract_y
 _atom_site_fract_z
 _atom_site_occupancy
  Ba  Ba0  1  0.633885  0.978553  0.295957  1
  Ba  Ba1  1  0.366893  0.022278  0.704521  1
  Ba  Ba2  1  0.337929  0.507619  0.701973  1
  Ba  Ba3  1  0.660614  0.491023  0.297072  1
  La  La4  1  0.996936  0.732136  0.997287  1
  Nd  Nd5  1  0.002941  0.269199  0.002677  1
  Al  Al6  1  0.806149  0.872551  0.687820  1
  Al  Al7  1  0.193831  0.128558  0.311935  1
  Se  Se8  1  0.987583  0.690734  0.677060  1
  Se  Se9  1  0.011289  0.308748  0.319230  1
  Se  Se10  1  0.984615  0.144665  0.686153  1
  Se  Se11  1  0.016460  0.857762  0.317964  1
  Se  Se12  1  0.703966  0.905353  0.915402  1
  Se  Se13  1  0.295886  0.098090  0.084716  1
  Se  Se14  1  0.696679  0.403668  0.945646  1
  Se  Se15  1  0.304288  0.588829  0.054554  1
  Se  Se16  1  0.496241  0.743042  0.495396  1
  Se  Se17  1  0.503817  0.257191  0.504638  1
