# generated using pymatgen
data_Ta4FeSi
_symmetry_space_group_name_H-M   'P 1'
_cell_length_a   5.04937053
_cell_length_b   5.04937110
_cell_length_c   5.04937158
_cell_angle_alpha   104.29825202
_cell_angle_beta   104.29825903
_cell_angle_gamma   120.40181217
_symmetry_Int_Tables_number   1
_chemical_formula_structural   Ta4FeSi
_chemical_formula_sum   'Ta4 Fe1 Si1'
_cell_volume   96.35540067
_cell_formula_units_Z   1
loop_
 _symmetry_equiv_pos_site_id
 _symmetry_equiv_pos_as_xyz
  1  'x, y, z'
loop_
 _atom_site_type_symbol
 _atom_site_label
 _atom_site_symmetry_multiplicity
 _atom_site_fract_x
 _atom_site_fract_y
 _atom_site_fract_z
 _atom_site_occupancy
  Ta  Ta0  1  0.661894  0.161894  0.823789  1
  Ta  Ta1  1  0.338106  0.838106  0.176211  1
  Ta  Ta2  1  0.838106  0.661894  0.500000  1
  Ta  Ta3  1  0.161894  0.338106  0.500000  1
  Fe  Fe4  1  0.750000  0.750000  0.000000  1
  Si  Si5  1  0.250000  0.250000  0.000000  1
