# generated using pymatgen
data_Pr8Zr11Si16Pd
_symmetry_space_group_name_H-M   'P 1'
_cell_length_a   7.21222087
_cell_length_b   7.47385630
_cell_length_c   14.18981700
_cell_angle_alpha   90.00000000
_cell_angle_beta   90.00000000
_cell_angle_gamma   90.30547198
_symmetry_Int_Tables_number   1
_chemical_formula_structural   Pr8Zr11Si16Pd
_chemical_formula_sum   'Pr8 Zr11 Si16 Pd1'
_cell_volume   764.86428825
_cell_formula_units_Z   1
loop_
 _symmetry_equiv_pos_site_id
 _symmetry_equiv_pos_as_xyz
  1  'x, y, z'
loop_
 _atom_site_type_symbol
 _atom_site_label
 _atom_site_symmetry_multiplicity
 _atom_site_fract_x
 _atom_site_fract_y
 _atom_site_fract_z
 _atom_site_occupancy
  Pr  Pr0  1  0.014461  0.172558  0.403552  1
  Pr  Pr1  1  0.513247  0.327738  0.401684  1
  Pr  Pr2  1  0.488716  0.677667  0.899553  1
  Pr  Pr3  1  0.488716  0.677667  0.600447  1
  Pr  Pr4  1  0.979875  0.827909  0.601757  1
  Pr  Pr5  1  0.979875  0.827909  0.898243  1
  Pr  Pr6  1  0.513247  0.327738  0.098316  1
  Pr  Pr7  1  0.014461  0.172558  0.096448  1
  Zr  Zr8  1  0.336210  0.175317  0.625496  1
  Zr  Zr9  1  0.671317  0.821358  0.374931  1
  Zr  Zr10  1  0.170793  0.677335  0.375791  1
  Zr  Zr11  1  0.825913  0.316090  0.874362  1
  Zr  Zr12  1  0.825913  0.316090  0.625638  1
  Zr  Zr13  1  0.841606  0.505450  0.250000  1
  Zr  Zr14  1  0.342294  0.993154  0.250000  1
  Zr  Zr15  1  0.336210  0.175317  0.874504  1
  Zr  Zr16  1  0.170793  0.677335  0.124209  1
  Zr  Zr17  1  0.671317  0.821358  0.125069  1
  Zr  Zr18  1  0.156646  0.494777  0.750000  1
  Si  Si19  1  0.285726  0.888130  0.750000  1
  Si  Si20  1  0.464988  0.625825  0.250000  1
  Si  Si21  1  0.035866  0.126928  0.750000  1
  Si  Si22  1  0.533548  0.381329  0.750000  1
  Si  Si23  1  0.151590  0.465028  0.543830  1
  Si  Si24  1  0.966795  0.873864  0.250000  1
  Si  Si25  1  0.717022  0.115854  0.250000  1
  Si  Si26  1  0.848997  0.534390  0.040264  1
  Si  Si27  1  0.348168  0.963993  0.040743  1
  Si  Si28  1  0.151590  0.465028  0.956170  1
  Si  Si29  1  0.652888  0.038860  0.534530  1
  Si  Si30  1  0.348168  0.963993  0.459257  1
  Si  Si31  1  0.848997  0.534390  0.459736  1
  Si  Si32  1  0.786694  0.601668  0.750000  1
  Si  Si33  1  0.214465  0.384970  0.250000  1
  Si  Si34  1  0.652888  0.038860  0.965470  1
  Pd  Pd35  1  0.650001  0.011560  0.750000  1
