# generated using pymatgen
data_Pa4Be2Ge4Os7
_symmetry_space_group_name_H-M   'P 1'
_cell_length_a   7.18450557
_cell_length_b   7.19372557
_cell_length_c   7.19372542
_cell_angle_alpha   109.80449014
_cell_angle_beta   109.33061037
_cell_angle_gamma   109.33059431
_symmetry_Int_Tables_number   1
_chemical_formula_structural   Pa4Be2Ge4Os7
_chemical_formula_sum   'Pa4 Be2 Ge4 Os7'
_cell_volume   286.01979062
_cell_formula_units_Z   1
loop_
 _symmetry_equiv_pos_site_id
 _symmetry_equiv_pos_as_xyz
  1  'x, y, z'
loop_
 _atom_site_type_symbol
 _atom_site_label
 _atom_site_symmetry_multiplicity
 _atom_site_fract_x
 _atom_site_fract_y
 _atom_site_fract_z
 _atom_site_occupancy
  Pa  Pa0  1  0.000000  0.991203  0.462212  1
  Pa  Pa1  1  0.000000  0.537788  0.008797  1
  Pa  Pa2  1  0.500000  0.991609  0.008391  1
  Pa  Pa3  1  0.500000  0.491609  0.508391  1
  Be  Be4  1  0.663932  0.669198  0.994734  1
  Be  Be5  1  0.336068  0.005266  0.330802  1
  Ge  Ge6  1  0.000000  0.316089  0.304562  1
  Ge  Ge7  1  0.296374  0.301358  0.995016  1
  Ge  Ge8  1  0.703626  0.004984  0.698642  1
  Ge  Ge9  1  0.000000  0.695438  0.683911  1
  Os  Os10  1  0.748744  0.249322  0.499422  1
  Os  Os11  1  0.742684  0.501091  0.241593  1
  Os  Os12  1  0.500000  0.251215  0.748785  1
  Os  Os13  1  0.251256  0.500578  0.750678  1
  Os  Os14  1  0.257316  0.758407  0.498909  1
  Os  Os15  1  0.500000  0.751215  0.248785  1
  Os  Os16  1  0.000000  0.983629  0.016371  1
