# generated using pymatgen
data_Hf9TaGe6C
_symmetry_space_group_name_H-M   'P 1'
_cell_length_a   7.93808300
_cell_length_b   7.93808315
_cell_length_c   5.56447400
_cell_angle_alpha   90.00000000
_cell_angle_beta   90.00000000
_cell_angle_gamma   119.99999520
_symmetry_Int_Tables_number   1
_chemical_formula_structural   Hf9TaGe6C
_chemical_formula_sum   'Hf9 Ta1 Ge6 C1'
_cell_volume   303.65892460
_cell_formula_units_Z   1
loop_
 _symmetry_equiv_pos_site_id
 _symmetry_equiv_pos_as_xyz
  1  'x, y, z'
loop_
 _atom_site_type_symbol
 _atom_site_label
 _atom_site_symmetry_multiplicity
 _atom_site_fract_x
 _atom_site_fract_y
 _atom_site_fract_z
 _atom_site_occupancy
  Hf  Hf0  1  0.000779  0.759913  0.259760  1
  Hf  Hf1  1  0.240087  0.240867  0.259760  1
  Hf  Hf2  1  0.759133  0.999221  0.259760  1
  Hf  Hf3  1  0.000779  0.240867  0.740240  1
  Hf  Hf4  1  0.759133  0.759913  0.740240  1
  Hf  Hf5  1  0.240087  0.999221  0.740240  1
  Hf  Hf6  1  0.333333  0.666667  0.000000  1
  Hf  Hf7  1  0.666667  0.333333  0.000000  1
  Hf  Hf8  1  0.666667  0.333333  0.500000  1
  Ta  Ta9  1  0.333333  0.666667  0.500000  1
  Ge  Ge10  1  0.001431  0.398867  0.250041  1
  Ge  Ge11  1  0.601133  0.602564  0.250041  1
  Ge  Ge12  1  0.397436  0.998569  0.250041  1
  Ge  Ge13  1  0.001431  0.602564  0.749959  1
  Ge  Ge14  1  0.397436  0.398867  0.749959  1
  Ge  Ge15  1  0.601133  0.998569  0.749959  1
  C  C16  1  0.000000  0.000000  0.500000  1
