# generated using pymatgen
data_Ho3ZrZn2Ir3
_symmetry_space_group_name_H-M   'P 1'
_cell_length_a   7.18222419
_cell_length_b   7.18222380
_cell_length_c   4.09903000
_cell_angle_alpha   90.00000000
_cell_angle_beta   90.00000000
_cell_angle_gamma   120.78290814
_symmetry_Int_Tables_number   1
_chemical_formula_structural   Ho3ZrZn2Ir3
_chemical_formula_sum   'Ho3 Zr1 Zn2 Ir3'
_cell_volume   181.65572087
_cell_formula_units_Z   1
loop_
 _symmetry_equiv_pos_site_id
 _symmetry_equiv_pos_as_xyz
  1  'x, y, z'
loop_
 _atom_site_type_symbol
 _atom_site_label
 _atom_site_symmetry_multiplicity
 _atom_site_fract_x
 _atom_site_fract_y
 _atom_site_fract_z
 _atom_site_occupancy
  Ho  Ho0  1  0.386969  0.386969  0.500000  1
  Ho  Ho1  1  0.582572  0.014940  0.500000  1
  Ho  Ho2  1  0.014940  0.582572  0.500000  1
  Zr  Zr3  1  0.760362  0.760362  0.000000  1
  Zn  Zn4  1  0.248753  0.998516  0.000000  1
  Zn  Zn5  1  0.998516  0.248753  0.000000  1
  Ir  Ir6  1  0.672340  0.344979  0.000000  1
  Ir  Ir7  1  0.344979  0.672340  0.000000  1
  Ir  Ir8  1  0.990568  0.990568  0.500000  1
