# generated using pymatgen
data_Zr10SbPb6
_symmetry_space_group_name_H-M   'P 1'
_cell_length_a   6.02544000
_cell_length_b   8.80996875
_cell_length_c   8.80992200
_cell_angle_alpha   120.00018528
_cell_angle_beta   89.99982228
_cell_angle_gamma   90.00035166
_symmetry_Int_Tables_number   1
_chemical_formula_structural   Zr10SbPb6
_chemical_formula_sum   'Zr10 Sb1 Pb6'
_cell_volume   405.00932111
_cell_formula_units_Z   1
loop_
 _symmetry_equiv_pos_site_id
 _symmetry_equiv_pos_as_xyz
  1  'x, y, z'
loop_
 _atom_site_type_symbol
 _atom_site_label
 _atom_site_symmetry_multiplicity
 _atom_site_fract_x
 _atom_site_fract_y
 _atom_site_fract_z
 _atom_site_occupancy
  Zr  Zr0  1  0.499998  0.333331  0.666668  1
  Zr  Zr1  1  0.499998  0.666663  0.333332  1
  Zr  Zr2  1  0.999999  0.666662  0.333327  1
  Zr  Zr3  1  0.999999  0.333336  0.666673  1
  Zr  Zr4  1  0.770351  0.265628  0.000000  1
  Zr  Zr5  1  0.770354  0.734365  0.734367  1
  Zr  Zr6  1  0.770354  0.999997  0.265633  1
  Zr  Zr7  1  0.229643  0.734367  0.000000  1
  Zr  Zr8  1  0.229651  0.265637  0.265628  1
  Zr  Zr9  1  0.229651  0.000009  0.734372  1
  Sb  Sb10  1  0.500000  0.000020  0.000000  1
  Pb  Pb11  1  0.743824  0.611486  0.000000  1
  Pb  Pb12  1  0.743834  0.388511  0.388508  1
  Pb  Pb13  1  0.743834  0.000002  0.611492  1
  Pb  Pb14  1  0.256172  0.388498  0.000000  1
  Pb  Pb15  1  0.256169  0.611486  0.611479  1
  Pb  Pb16  1  0.256169  0.000006  0.388521  1
