# generated using pymatgen
data_Cr7Co8Si4Mo5N4
_symmetry_space_group_name_H-M   'P 1'
_cell_length_a   7.60375356
_cell_length_b   7.57799786
_cell_length_c   7.60819017
_cell_angle_alpha   60.22757534
_cell_angle_beta   60.04696361
_cell_angle_gamma   60.13088195
_symmetry_Int_Tables_number   1
_chemical_formula_structural   Cr7Co8Si4Mo5N4
_chemical_formula_sum   'Cr7 Co8 Si4 Mo5 N4'
_cell_volume   310.93829660
_cell_formula_units_Z   1
loop_
 _symmetry_equiv_pos_site_id
 _symmetry_equiv_pos_as_xyz
  1  'x, y, z'
loop_
 _atom_site_type_symbol
 _atom_site_label
 _atom_site_symmetry_multiplicity
 _atom_site_fract_x
 _atom_site_fract_y
 _atom_site_fract_z
 _atom_site_occupancy
  Cr  Cr0  1  0.696922  0.308686  0.690836  1
  Cr  Cr1  1  0.559794  0.548589  0.946256  1
  Cr  Cr2  1  0.560786  0.946048  0.553713  1
  Cr  Cr3  1  0.940638  0.951121  0.553092  1
  Cr  Cr4  1  0.939073  0.555533  0.561448  1
  Cr  Cr5  1  0.941917  0.552315  0.946534  1
  Cr  Cr6  1  0.698067  0.302666  0.302948  1
  Co  Co7  1  0.251487  0.915144  0.914199  1
  Co  Co8  1  0.915801  0.250740  0.916262  1
  Co  Co9  1  0.917822  0.916284  0.915084  1
  Co  Co10  1  0.915338  0.915854  0.252577  1
  Co  Co11  1  0.995994  0.332595  0.336877  1
  Co  Co12  1  0.337908  0.332927  0.997242  1
  Co  Co13  1  0.332961  0.000418  0.334282  1
  Co  Co14  1  0.335395  0.332311  0.333388  1
  Si  Si15  1  0.624342  0.128658  0.125748  1
  Si  Si16  1  0.120863  0.129340  0.622713  1
  Si  Si17  1  0.124984  0.621182  0.127399  1
  Si  Si18  1  0.120015  0.129155  0.127719  1
  Mo  Mo19  1  0.301912  0.693928  0.305828  1
  Mo  Mo20  1  0.304131  0.308235  0.691967  1
  Mo  Mo21  1  0.303675  0.695927  0.697433  1
  Mo  Mo22  1  0.696723  0.690093  0.309490  1
  Mo  Mo23  1  0.560108  0.944575  0.938671  1
  N  N24  1  0.633274  0.623096  0.636388  1
  N  N25  1  0.097492  0.636346  0.633433  1
  N  N26  1  0.637655  0.128320  0.609911  1
  N  N27  1  0.634922  0.609912  0.118565  1
