# generated using pymatgen
data_YbSc2Al3Ge2Ir
_symmetry_space_group_name_H-M   'P 1'
_cell_length_a   6.75168600
_cell_length_b   6.80564156
_cell_length_c   4.15305300
_cell_angle_alpha   90.00000000
_cell_angle_beta   90.00000000
_cell_angle_gamma   119.73808648
_symmetry_Int_Tables_number   1
_chemical_formula_structural   YbSc2Al3Ge2Ir
_chemical_formula_sum   'Yb1 Sc2 Al3 Ge2 Ir1'
_cell_volume   165.69887891
_cell_formula_units_Z   1
loop_
 _symmetry_equiv_pos_site_id
 _symmetry_equiv_pos_as_xyz
  1  'x, y, z'
loop_
 _atom_site_type_symbol
 _atom_site_label
 _atom_site_symmetry_multiplicity
 _atom_site_fract_x
 _atom_site_fract_y
 _atom_site_fract_z
 _atom_site_occupancy
  Yb  Yb0  1  0.422947  0.000000  0.000000  1
  Sc  Sc1  1  0.003487  0.415639  0.000000  1
  Sc  Sc2  1  0.587848  0.584360  0.000000  1
  Al  Al3  1  0.766536  0.000000  0.500000  1
  Al  Al4  1  0.231910  0.235501  0.500000  1
  Al  Al5  1  0.996411  0.764499  0.500000  1
  Ge  Ge6  1  0.673844  0.342633  0.500000  1
  Ge  Ge7  1  0.331212  0.657368  0.500000  1
  Ir  Ir8  1  0.985805  0.000000  0.000000  1
