# generated using pymatgen
data_Tb5Ho15Pt16
_symmetry_space_group_name_H-M   'P 1'
_cell_length_a   7.43773372
_cell_length_b   7.55627285
_cell_length_c   14.82263390
_cell_angle_alpha   90.05265832
_cell_angle_beta   89.95134678
_cell_angle_gamma   89.98679019
_symmetry_Int_Tables_number   1
_chemical_formula_structural   Tb5Ho15Pt16
_chemical_formula_sum   'Tb5 Ho15 Pt16'
_cell_volume   833.05425710
_cell_formula_units_Z   1
loop_
 _symmetry_equiv_pos_site_id
 _symmetry_equiv_pos_as_xyz
  1  'x, y, z'
loop_
 _atom_site_type_symbol
 _atom_site_label
 _atom_site_symmetry_multiplicity
 _atom_site_fract_x
 _atom_site_fract_y
 _atom_site_fract_z
 _atom_site_occupancy
  Tb  Tb0  1  0.019705  0.173842  0.403873  1
  Tb  Tb1  1  0.519280  0.326794  0.404420  1
  Tb  Tb2  1  0.020228  0.173275  0.095646  1
  Tb  Tb3  1  0.479969  0.673369  0.904298  1
  Tb  Tb4  1  0.980251  0.825790  0.595936  1
  Ho  Ho5  1  0.636491  0.169188  0.621321  1
  Ho  Ho6  1  0.136094  0.330991  0.878756  1
  Ho  Ho7  1  0.364014  0.831109  0.121024  1
  Ho  Ho8  1  0.863382  0.668953  0.378786  1
  Ho  Ho9  1  0.364366  0.830179  0.379152  1
  Ho  Ho10  1  0.864479  0.669465  0.120340  1
  Ho  Ho11  1  0.635596  0.169446  0.879271  1
  Ho  Ho12  1  0.136626  0.330903  0.620994  1
  Ho  Ho13  1  0.480351  0.674194  0.596530  1
  Ho  Ho14  1  0.979535  0.826249  0.903062  1
  Ho  Ho15  1  0.520596  0.326262  0.096663  1
  Ho  Ho16  1  0.798387  0.511219  0.749966  1
  Ho  Ho17  1  0.298467  0.988741  0.750060  1
  Ho  Ho18  1  0.201553  0.488832  0.249697  1
  Ho  Ho19  1  0.701453  0.011304  0.249816  1
  Pt  Pt20  1  0.696887  0.973722  0.457396  1
  Pt  Pt21  1  0.199640  0.524638  0.043111  1
  Pt  Pt22  1  0.300638  0.024372  0.956493  1
  Pt  Pt23  1  0.801317  0.475165  0.543356  1
  Pt  Pt24  1  0.304031  0.024738  0.543519  1
  Pt  Pt25  1  0.803252  0.474576  0.956995  1
  Pt  Pt26  1  0.696977  0.974692  0.042644  1
  Pt  Pt27  1  0.196649  0.527505  0.458086  1
  Pt  Pt28  1  0.429866  0.383506  0.749736  1
  Pt  Pt29  1  0.929839  0.116819  0.750416  1
  Pt  Pt30  1  0.569916  0.616931  0.249541  1
  Pt  Pt31  1  0.070169  0.882715  0.250012  1
  Pt  Pt32  1  0.660814  0.858953  0.749741  1
  Pt  Pt33  1  0.160689  0.641077  0.750314  1
  Pt  Pt34  1  0.339664  0.141126  0.249513  1
  Pt  Pt35  1  0.838829  0.359359  0.249516  1
