# generated using pymatgen
data_Hf11Zr7Cr2(CoRe3)2
_symmetry_space_group_name_H-M   'P 1'
_cell_length_a   8.61841401
_cell_length_b   8.61841304
_cell_length_c   8.35030257
_cell_angle_alpha   89.96343525
_cell_angle_beta   90.03656511
_cell_angle_gamma   120.04164371
_symmetry_Int_Tables_number   1
_chemical_formula_structural   Hf11Zr7Cr2(CoRe3)2
_chemical_formula_sum   'Hf11 Zr7 Cr2 Co2 Re6'
_cell_volume   536.91431974
_cell_formula_units_Z   1
loop_
 _symmetry_equiv_pos_site_id
 _symmetry_equiv_pos_as_xyz
  1  'x, y, z'
loop_
 _atom_site_type_symbol
 _atom_site_label
 _atom_site_symmetry_multiplicity
 _atom_site_fract_x
 _atom_site_fract_y
 _atom_site_fract_z
 _atom_site_occupancy
  Hf  Hf0  1  0.197146  0.393850  0.441051  1
  Hf  Hf1  1  0.606150  0.802854  0.441051  1
  Hf  Hf2  1  0.801924  0.198076  0.558382  1
  Hf  Hf3  1  0.801894  0.604519  0.559137  1
  Hf  Hf4  1  0.395481  0.198106  0.559137  1
  Hf  Hf5  1  0.802590  0.197410  0.941072  1
  Hf  Hf6  1  0.802086  0.605106  0.941165  1
  Hf  Hf7  1  0.394894  0.197914  0.941165  1
  Hf  Hf8  1  0.197152  0.802848  0.058342  1
  Hf  Hf9  1  0.197708  0.395165  0.058788  1
  Hf  Hf10  1  0.604835  0.802292  0.058788  1
  Zr  Zr11  1  0.199342  0.800658  0.442878  1
  Zr  Zr12  1  0.541463  0.458537  0.250126  1
  Zr  Zr13  1  0.542009  0.083428  0.248699  1
  Zr  Zr14  1  0.916572  0.457991  0.248699  1
  Zr  Zr15  1  0.458236  0.541764  0.749361  1
  Zr  Zr16  1  0.459399  0.917552  0.751424  1
  Zr  Zr17  1  0.082448  0.540601  0.751424  1
  Cr  Cr18  1  0.999745  0.000255  0.500212  1
  Cr  Cr19  1  0.999973  0.000027  0.999883  1
  Co  Co20  1  0.333993  0.666007  0.248991  1
  Co  Co21  1  0.666616  0.333384  0.750251  1
  Re  Re22  1  0.892360  0.107640  0.249972  1
  Re  Re23  1  0.892201  0.785170  0.249787  1
  Re  Re24  1  0.214830  0.107799  0.249787  1
  Re  Re25  1  0.106917  0.893083  0.750726  1
  Re  Re26  1  0.107384  0.215348  0.749850  1
  Re  Re27  1  0.784652  0.892616  0.749850  1
