# generated using pymatgen
data_Sm3Er(B4Mo)4
_symmetry_space_group_name_H-M   'P 1'
_cell_length_a   3.66019900
_cell_length_b   6.06563804
_cell_length_c   11.72973393
_cell_angle_alpha   89.90610773
_cell_angle_beta   90.00000000
_cell_angle_gamma   90.00000000
_symmetry_Int_Tables_number   1
_chemical_formula_structural   Sm3Er(B4Mo)4
_chemical_formula_sum   'Sm3 Er1 B16 Mo4'
_cell_volume   260.41666124
_cell_formula_units_Z   1
loop_
 _symmetry_equiv_pos_site_id
 _symmetry_equiv_pos_as_xyz
  1  'x, y, z'
loop_
 _atom_site_type_symbol
 _atom_site_label
 _atom_site_symmetry_multiplicity
 _atom_site_fract_x
 _atom_site_fract_y
 _atom_site_fract_z
 _atom_site_occupancy
  Sm  Sm0  1  0.000000  0.626406  0.349912  1
  Sm  Sm1  1  0.000000  0.373618  0.650633  1
  Sm  Sm2  1  0.000000  0.126342  0.149843  1
  Er  Er3  1  0.000000  0.873526  0.850207  1
  B  B4  1  0.500000  0.784528  0.184912  1
  B  B5  1  0.500000  0.212430  0.814862  1
  B  B6  1  0.500000  0.284525  0.314487  1
  B  B7  1  0.500000  0.716002  0.687151  1
  B  B8  1  0.500000  0.865761  0.030359  1
  B  B9  1  0.500000  0.133729  0.966807  1
  B  B10  1  0.500000  0.365047  0.468291  1
  B  B11  1  0.500000  0.635229  0.532646  1
  B  B12  1  0.500000  0.887075  0.453702  1
  B  B13  1  0.500000  0.112260  0.547489  1
  B  B14  1  0.500000  0.387761  0.045775  1
  B  B15  1  0.500000  0.615159  0.951684  1
  B  B16  1  0.500000  0.975971  0.307859  1
  B  B17  1  0.500000  0.022349  0.694184  1
  B  B18  1  0.500000  0.476068  0.191731  1
  B  B19  1  0.500000  0.525874  0.807615  1
  Mo  Mo20  1  0.000000  0.629229  0.082054  1
  Mo  Mo21  1  0.000000  0.371399  0.916047  1
  Mo  Mo22  1  0.000000  0.128472  0.417279  1
  Mo  Mo23  1  0.000000  0.871237  0.584471  1
