# generated using pymatgen
data_Sr6Tb2CrRhO12
_symmetry_space_group_name_H-M   'P 1'
_cell_length_a   6.87235196
_cell_length_b   6.87235264
_cell_length_c   6.87235082
_cell_angle_alpha   92.11009591
_cell_angle_beta   92.11009849
_cell_angle_gamma   92.11010434
_symmetry_Int_Tables_number   1
_chemical_formula_structural   Sr6Tb2CrRhO12
_chemical_formula_sum   'Sr6 Tb2 Cr1 Rh1 O12'
_cell_volume   323.89886091
_cell_formula_units_Z   1
loop_
 _symmetry_equiv_pos_site_id
 _symmetry_equiv_pos_as_xyz
  1  'x, y, z'
loop_
 _atom_site_type_symbol
 _atom_site_label
 _atom_site_symmetry_multiplicity
 _atom_site_fract_x
 _atom_site_fract_y
 _atom_site_fract_z
 _atom_site_occupancy
  Sr  Sr0  1  0.750601  0.382581  0.118848  1
  Sr  Sr1  1  0.617418  0.881152  0.249399  1
  Sr  Sr2  1  0.118847  0.750601  0.382581  1
  Sr  Sr3  1  0.881153  0.249399  0.617419  1
  Sr  Sr4  1  0.382582  0.118847  0.750601  1
  Sr  Sr5  1  0.249399  0.617419  0.881152  1
  Tb  Tb6  1  0.250822  0.250822  0.250822  1
  Tb  Tb7  1  0.749178  0.749178  0.749178  1
  Cr  Cr8  1  0.000000  0.000000  0.000000  1
  Rh  Rh9  1  0.500001  0.500000  0.500001  1
  O  O10  1  0.911767  0.714674  0.043924  1
  O  O11  1  0.285326  0.956077  0.088233  1
  O  O12  1  0.410646  0.545216  0.207785  1
  O  O13  1  0.956076  0.088233  0.285326  1
  O  O14  1  0.545216  0.207785  0.410646  1
  O  O15  1  0.792215  0.589353  0.454784  1
  O  O16  1  0.207785  0.410647  0.545216  1
  O  O17  1  0.454784  0.792214  0.589354  1
  O  O18  1  0.043924  0.911767  0.714674  1
  O  O19  1  0.589354  0.454783  0.792215  1
  O  O20  1  0.714675  0.043923  0.911767  1
  O  O21  1  0.088233  0.285326  0.956076  1
