# generated using pymatgen
data_Y6TiAl23Os3Ru5
_symmetry_space_group_name_H-M   'P 1'
_cell_length_a   8.84463808
_cell_length_b   8.85796814
_cell_length_c   9.59325208
_cell_angle_alpha   89.91878585
_cell_angle_beta   90.15988103
_cell_angle_gamma   120.22781595
_symmetry_Int_Tables_number   1
_chemical_formula_structural   Y6TiAl23Os3Ru5
_chemical_formula_sum   'Y6 Ti1 Al23 Os3 Ru5'
_cell_volume   649.39272078
_cell_formula_units_Z   1
loop_
 _symmetry_equiv_pos_site_id
 _symmetry_equiv_pos_as_xyz
  1  'x, y, z'
loop_
 _atom_site_type_symbol
 _atom_site_label
 _atom_site_symmetry_multiplicity
 _atom_site_fract_x
 _atom_site_fract_y
 _atom_site_fract_z
 _atom_site_occupancy
  Y  Y0  1  0.194514  0.385298  0.250297  1
  Y  Y1  1  0.805415  0.615019  0.748960  1
  Y  Y2  1  0.613558  0.805986  0.250463  1
  Y  Y3  1  0.386142  0.194379  0.748151  1
  Y  Y4  1  0.193031  0.809982  0.252324  1
  Y  Y5  1  0.806205  0.191229  0.749208  1
  Ti  Ti6  1  0.331851  0.667061  0.994695  1
  Al  Al7  1  0.667234  0.333192  0.982495  1
  Al  Al8  1  0.667552  0.333730  0.518097  1
  Al  Al9  1  0.332724  0.666192  0.481437  1
  Al  Al10  1  0.162042  0.324454  0.576090  1
  Al  Al11  1  0.836798  0.673826  0.423392  1
  Al  Al12  1  0.674910  0.837433  0.574964  1
  Al  Al13  1  0.837301  0.674326  0.078791  1
  Al  Al14  1  0.327070  0.163473  0.424177  1
  Al  Al15  1  0.159877  0.318945  0.923976  1
  Al  Al16  1  0.162613  0.836963  0.575515  1
  Al  Al17  1  0.326191  0.163155  0.078384  1
  Al  Al18  1  0.837626  0.162328  0.423983  1
  Al  Al19  1  0.680384  0.839633  0.924624  1
  Al  Al20  1  0.837901  0.162552  0.078823  1
  Al  Al21  1  0.158401  0.841597  0.924441  1
  Al  Al22  1  0.562300  0.123909  0.251507  1
  Al  Al23  1  0.438849  0.879597  0.750715  1
  Al  Al24  1  0.878537  0.439175  0.251954  1
  Al  Al25  1  0.118297  0.559636  0.749853  1
  Al  Al26  1  0.562381  0.438207  0.251418  1
  Al  Al27  1  0.439111  0.560041  0.750310  1
  Al  Al28  1  0.998756  0.001148  0.249761  1
  Al  Al29  1  0.999345  0.000404  0.749651  1
  Os  Os30  1  0.500160  0.998912  0.501906  1
  Os  Os31  1  0.498981  0.500913  0.000616  1
  Os  Os32  1  0.499482  0.500559  0.502422  1
  Ru  Ru33  1  0.497973  0.995383  0.002754  1
  Ru  Ru34  1  0.004608  0.502005  0.002548  1
  Ru  Ru35  1  0.001166  0.499805  0.501711  1
  Ru  Ru36  1  0.999848  0.000231  0.001241  1
  Ru  Ru37  1  0.000863  0.999324  0.498344  1
