# generated using pymatgen
data_Yb3Cu(Ir2O7)2
_symmetry_space_group_name_H-M   'P 1'
_cell_length_a   7.23161436
_cell_length_b   7.23161370
_cell_length_c   7.08644777
_cell_angle_alpha   59.32002080
_cell_angle_beta   59.32002312
_cell_angle_gamma   60.00000416
_symmetry_Int_Tables_number   1
_chemical_formula_structural   Yb3Cu(Ir2O7)2
_chemical_formula_sum   'Yb3 Cu1 Ir4 O14'
_cell_volume   259.32426122
_cell_formula_units_Z   1
loop_
 _symmetry_equiv_pos_site_id
 _symmetry_equiv_pos_as_xyz
  1  'x, y, z'
loop_
 _atom_site_type_symbol
 _atom_site_label
 _atom_site_symmetry_multiplicity
 _atom_site_fract_x
 _atom_site_fract_y
 _atom_site_fract_z
 _atom_site_occupancy
  Yb  Yb0  1  0.625000  0.125000  0.125000  1
  Yb  Yb1  1  0.125000  0.625000  0.125000  1
  Yb  Yb2  1  0.125000  0.125000  0.125000  1
  Cu  Cu3  1  0.125000  0.125000  0.625000  1
  Ir  Ir4  1  0.125000  0.625000  0.625000  1
  Ir  Ir5  1  0.625000  0.125000  0.625000  1
  Ir  Ir6  1  0.625000  0.625000  0.125000  1
  Ir  Ir7  1  0.625000  0.625000  0.625000  1
  O  O8  1  0.709160  0.709160  0.289132  1
  O  O9  1  0.301600  0.301600  0.694764  1
  O  O10  1  0.702037  0.301600  0.694764  1
  O  O11  1  0.292548  0.709160  0.289132  1
  O  O12  1  0.301600  0.702037  0.694764  1
  O  O13  1  0.709160  0.292548  0.289132  1
  O  O14  1  0.540840  0.540840  0.960868  1
  O  O15  1  0.948400  0.948400  0.555236  1
  O  O16  1  0.547963  0.948400  0.555236  1
  O  O17  1  0.957452  0.540840  0.960868  1
  O  O18  1  0.948400  0.547963  0.555236  1
  O  O19  1  0.540840  0.957452  0.960868  1
  O  O20  1  0.233403  0.233403  0.299791  1
  O  O21  1  0.016597  0.016597  0.950209  1
