# generated using pymatgen
data_BaLa2PdS5
_symmetry_space_group_name_H-M   'P 1'
_cell_length_a   7.97329800
_cell_length_b   7.97329800
_cell_length_c   7.03868700
_cell_angle_alpha   90.00000000
_cell_angle_beta   90.00000000
_cell_angle_gamma   90.00000000
_symmetry_Int_Tables_number   1
_chemical_formula_structural   BaLa2PdS5
_chemical_formula_sum   'Ba2 La4 Pd2 S10'
_cell_volume   447.47383424
_cell_formula_units_Z   2
loop_
 _symmetry_equiv_pos_site_id
 _symmetry_equiv_pos_as_xyz
  1  'x, y, z'
loop_
 _atom_site_type_symbol
 _atom_site_label
 _atom_site_symmetry_multiplicity
 _atom_site_fract_x
 _atom_site_fract_y
 _atom_site_fract_z
 _atom_site_occupancy
  Ba  Ba0  1  0.000000  0.000000  0.000000  1
  Ba  Ba1  1  0.500000  0.500000  0.000000  1
  La  La2  1  0.334783  0.165217  0.499999  1
  La  La3  1  0.834783  0.334783  0.499999  1
  La  La4  1  0.165217  0.665217  0.499999  1
  La  La5  1  0.665217  0.834783  0.499999  1
  Pd  Pd6  1  0.500000  0.000000  0.000000  1
  Pd  Pd7  1  0.000000  0.500000  0.000000  1
  S  S8  1  0.642329  0.142329  0.239945  1
  S  S9  1  0.142329  0.357671  0.239945  1
  S  S10  1  0.857671  0.642329  0.239945  1
  S  S11  1  0.357671  0.857671  0.239945  1
  S  S12  1  0.000000  0.000000  0.499999  1
  S  S13  1  0.500000  0.500000  0.499999  1
  S  S14  1  0.642329  0.142329  0.760056  1
  S  S15  1  0.142329  0.357671  0.760056  1
  S  S16  1  0.857671  0.642329  0.760056  1
  S  S17  1  0.357671  0.857671  0.760056  1
