# generated using pymatgen
data_Zr10AlCuSn5Bi
_symmetry_space_group_name_H-M   'P 1'
_cell_length_a   8.75105483
_cell_length_b   8.75105573
_cell_length_c   5.89171764
_cell_angle_alpha   89.97328103
_cell_angle_beta   89.97328570
_cell_angle_gamma   119.95798526
_symmetry_Int_Tables_number   1
_chemical_formula_structural   Zr10AlCuSn5Bi
_chemical_formula_sum   'Zr10 Al1 Cu1 Sn5 Bi1'
_cell_volume   390.91013775
_cell_formula_units_Z   1
loop_
 _symmetry_equiv_pos_site_id
 _symmetry_equiv_pos_as_xyz
  1  'x, y, z'
loop_
 _atom_site_type_symbol
 _atom_site_label
 _atom_site_symmetry_multiplicity
 _atom_site_fract_x
 _atom_site_fract_y
 _atom_site_fract_z
 _atom_site_occupancy
  Zr  Zr0  1  0.733023  0.000263  0.247066  1
  Zr  Zr1  1  0.000263  0.733023  0.247066  1
  Zr  Zr2  1  0.265691  0.265691  0.248005  1
  Zr  Zr3  1  0.265116  0.996143  0.752517  1
  Zr  Zr4  1  0.996143  0.265116  0.752517  1
  Zr  Zr5  1  0.735776  0.735776  0.753075  1
  Zr  Zr6  1  0.332928  0.668503  0.498461  1
  Zr  Zr7  1  0.668503  0.332928  0.498461  1
  Zr  Zr8  1  0.668795  0.332952  0.001648  1
  Zr  Zr9  1  0.332952  0.668795  0.001648  1
  Al  Al10  1  0.999499  0.999499  0.499121  1
  Cu  Cu11  1  0.999659  0.999659  0.000807  1
  Sn  Sn12  1  0.385676  0.000362  0.250847  1
  Sn  Sn13  1  0.000362  0.385676  0.250847  1
  Sn  Sn14  1  0.615821  0.615821  0.251203  1
  Sn  Sn15  1  0.614084  0.999738  0.748936  1
  Sn  Sn16  1  0.999738  0.614084  0.748936  1
  Bi  Bi17  1  0.385972  0.385972  0.748838  1
