# generated using pymatgen
data_LaLu4(MnB3)2
_symmetry_space_group_name_H-M   'P 1'
_cell_length_a   5.38545489
_cell_length_b   5.38545485
_cell_length_c   8.22070587
_cell_angle_alpha   70.87960613
_cell_angle_beta   70.87961012
_cell_angle_gamma   60.00002190
_symmetry_Int_Tables_number   1
_chemical_formula_structural   LaLu4(MnB3)2
_chemical_formula_sum   'La1 Lu4 Mn2 B6'
_cell_volume   191.14410905
_cell_formula_units_Z   1
loop_
 _symmetry_equiv_pos_site_id
 _symmetry_equiv_pos_as_xyz
  1  'x, y, z'
loop_
 _atom_site_type_symbol
 _atom_site_label
 _atom_site_symmetry_multiplicity
 _atom_site_fract_x
 _atom_site_fract_y
 _atom_site_fract_z
 _atom_site_occupancy
  La  La0  1  0.000000  0.000000  0.000000  1
  Lu  Lu1  1  0.248514  0.248514  0.254456  1
  Lu  Lu2  1  0.751486  0.751486  0.745544  1
  Lu  Lu3  1  0.418445  0.418445  0.744667  1
  Lu  Lu4  1  0.581555  0.581555  0.255333  1
  Mn  Mn5  1  0.113437  0.113437  0.659687  1
  Mn  Mn6  1  0.886563  0.886563  0.340313  1
  B  B7  1  0.167268  0.832732  0.500000  1
  B  B8  1  0.832732  0.500000  0.500000  1
  B  B9  1  0.500000  0.167268  0.500000  1
  B  B10  1  0.167268  0.500000  0.500000  1
  B  B11  1  0.500000  0.832732  0.500000  1
  B  B12  1  0.832732  0.167268  0.500000  1
