# generated using pymatgen
data_TbHo15Al4(NiRu)2
_symmetry_space_group_name_H-M   'P 1'
_cell_length_a   9.44338535
_cell_length_b   9.44338456
_cell_length_c   9.48529300
_cell_angle_alpha   59.85307726
_cell_angle_beta   59.85308004
_cell_angle_gamma   59.82378544
_symmetry_Int_Tables_number   1
_chemical_formula_structural   TbHo15Al4(NiRu)2
_chemical_formula_sum   'Tb1 Ho15 Al4 Ni2 Ru2'
_cell_volume   595.99687880
_cell_formula_units_Z   1
loop_
 _symmetry_equiv_pos_site_id
 _symmetry_equiv_pos_as_xyz
  1  'x, y, z'
loop_
 _atom_site_type_symbol
 _atom_site_label
 _atom_site_symmetry_multiplicity
 _atom_site_fract_x
 _atom_site_fract_y
 _atom_site_fract_z
 _atom_site_occupancy
  Tb  Tb0  1  0.939242  0.939242  0.560758  1
  Ho  Ho1  1  0.351912  0.351912  0.349029  1
  Ho  Ho2  1  0.351912  0.351912  0.947147  1
  Ho  Ho3  1  0.355028  0.945768  0.349602  1
  Ho  Ho4  1  0.945768  0.355028  0.349602  1
  Ho  Ho5  1  0.806206  0.191877  0.194621  1
  Ho  Ho6  1  0.191877  0.806206  0.807296  1
  Ho  Ho7  1  0.191877  0.806206  0.194621  1
  Ho  Ho8  1  0.806206  0.191877  0.807296  1
  Ho  Ho9  1  0.194325  0.194325  0.805675  1
  Ho  Ho10  1  0.806466  0.806466  0.193534  1
  Ho  Ho11  1  0.937110  0.559516  0.565768  1
  Ho  Ho12  1  0.559516  0.937110  0.937606  1
  Ho  Ho13  1  0.559516  0.937110  0.565768  1
  Ho  Ho14  1  0.937110  0.559516  0.937606  1
  Ho  Ho15  1  0.565388  0.565388  0.934612  1
  Al  Al16  1  0.576600  0.576600  0.577999  1
  Al  Al17  1  0.576600  0.576600  0.268800  1
  Al  Al18  1  0.575801  0.268728  0.577735  1
  Al  Al19  1  0.268728  0.575801  0.577735  1
  Ni  Ni20  1  0.141677  0.575987  0.141168  1
  Ni  Ni21  1  0.575987  0.141677  0.141168  1
  Ru  Ru22  1  0.142572  0.142572  0.141759  1
  Ru  Ru23  1  0.142572  0.142572  0.573097  1
