# generated using pymatgen
data_Tb3Dy3Ru2
_symmetry_space_group_name_H-M   'P 1'
_cell_length_a   6.32266406
_cell_length_b   7.31641600
_cell_length_c   9.22513409
_cell_angle_alpha   90.00000000
_cell_angle_beta   90.01639938
_cell_angle_gamma   90.00000000
_symmetry_Int_Tables_number   1
_chemical_formula_structural   Tb3Dy3Ru2
_chemical_formula_sum   'Tb6 Dy6 Ru4'
_cell_volume   426.74767948
_cell_formula_units_Z   2
loop_
 _symmetry_equiv_pos_site_id
 _symmetry_equiv_pos_as_xyz
  1  'x, y, z'
loop_
 _atom_site_type_symbol
 _atom_site_label
 _atom_site_symmetry_multiplicity
 _atom_site_fract_x
 _atom_site_fract_y
 _atom_site_fract_z
 _atom_site_occupancy
  Tb  Tb0  1  0.330004  0.677066  0.064798  1
  Tb  Tb1  1  0.169996  0.177066  0.435202  1
  Tb  Tb2  1  0.864649  0.540295  0.250013  1
  Tb  Tb3  1  0.635351  0.040295  0.249987  1
  Tb  Tb4  1  0.135261  0.459683  0.749992  1
  Tb  Tb5  1  0.364739  0.959683  0.750008  1
  Dy  Dy6  1  0.669997  0.322990  0.564870  1
  Dy  Dy7  1  0.830003  0.822990  0.935130  1
  Dy  Dy8  1  0.670021  0.322947  0.935133  1
  Dy  Dy9  1  0.829979  0.822947  0.564867  1
  Dy  Dy10  1  0.330033  0.677016  0.435203  1
  Dy  Dy11  1  0.169967  0.177016  0.064797  1
  Ru  Ru12  1  0.040051  0.885505  0.250003  1
  Ru  Ru13  1  0.459949  0.385505  0.249997  1
  Ru  Ru14  1  0.959864  0.114499  0.750049  1
  Ru  Ru15  1  0.540136  0.614499  0.749951  1
