# generated using pymatgen
data_Sc8Ti7Si16W5
_symmetry_space_group_name_H-M   'P 1'
_cell_length_a   6.61105729
_cell_length_b   6.77764580
_cell_length_c   12.89322465
_cell_angle_alpha   89.97194871
_cell_angle_beta   90.10363936
_cell_angle_gamma   89.95184369
_symmetry_Int_Tables_number   1
_chemical_formula_structural   Sc8Ti7Si16W5
_chemical_formula_sum   'Sc8 Ti7 Si16 W5'
_cell_volume   577.71071614
_cell_formula_units_Z   1
loop_
 _symmetry_equiv_pos_site_id
 _symmetry_equiv_pos_as_xyz
  1  'x, y, z'
loop_
 _atom_site_type_symbol
 _atom_site_label
 _atom_site_symmetry_multiplicity
 _atom_site_fract_x
 _atom_site_fract_y
 _atom_site_fract_z
 _atom_site_occupancy
  Sc  Sc0  1  0.497655  0.671204  0.594901  1
  Sc  Sc1  1  0.001645  0.827058  0.903438  1
  Sc  Sc2  1  0.499156  0.326130  0.096123  1
  Sc  Sc3  1  0.000193  0.173966  0.406775  1
  Sc  Sc4  1  0.500305  0.326684  0.404794  1
  Sc  Sc5  1  0.998681  0.172738  0.095612  1
  Sc  Sc6  1  0.500118  0.672379  0.904451  1
  Sc  Sc7  1  0.000348  0.825590  0.594746  1
  Ti  Ti8  1  0.663514  0.172905  0.625741  1
  Ti  Ti9  1  0.167711  0.328484  0.873340  1
  Ti  Ti10  1  0.333132  0.828164  0.126259  1
  Ti  Ti11  1  0.834426  0.672423  0.374351  1
  Ti  Ti12  1  0.334039  0.827120  0.374442  1
  Ti  Ti13  1  0.833216  0.671811  0.126352  1
  Ti  Ti14  1  0.667195  0.171517  0.872397  1
  Si  Si15  1  0.666559  0.965408  0.459025  1
  Si  Si16  1  0.165824  0.535279  0.041079  1
  Si  Si17  1  0.334116  0.035645  0.958438  1
  Si  Si18  1  0.834736  0.465428  0.541461  1
  Si  Si19  1  0.330624  0.035720  0.540929  1
  Si  Si20  1  0.834809  0.464486  0.958304  1
  Si  Si21  1  0.665014  0.964488  0.041336  1
  Si  Si22  1  0.168114  0.537263  0.459913  1
  Si  Si23  1  0.464281  0.384948  0.750561  1
  Si  Si24  1  0.964411  0.116166  0.749208  1
  Si  Si25  1  0.536204  0.615729  0.250231  1
  Si  Si26  1  0.036040  0.883961  0.250528  1
  Si  Si27  1  0.703625  0.861480  0.748851  1
  Si  Si28  1  0.203226  0.638838  0.750349  1
  Si  Si29  1  0.295565  0.138234  0.250746  1
  Si  Si30  1  0.796890  0.360983  0.250119  1
  W  W31  1  0.167792  0.329795  0.626005  1
  W  W32  1  0.838616  0.491576  0.749278  1
  W  W33  1  0.339310  0.007989  0.749480  1
  W  W34  1  0.161890  0.506552  0.250295  1
  W  W35  1  0.661022  0.991861  0.250144  1
