# generated using pymatgen
data_Tb5P12Ir9Ru10
_symmetry_space_group_name_H-M   'P 1'
_cell_length_a   12.62118412
_cell_length_b   12.58385997
_cell_length_c   3.96910600
_cell_angle_alpha   90.00000000
_cell_angle_beta   90.00000000
_cell_angle_gamma   119.82201291
_symmetry_Int_Tables_number   1
_chemical_formula_structural   Tb5P12Ir9Ru10
_chemical_formula_sum   'Tb5 P12 Ir9 Ru10'
_cell_volume   546.90693653
_cell_formula_units_Z   1
loop_
 _symmetry_equiv_pos_site_id
 _symmetry_equiv_pos_as_xyz
  1  'x, y, z'
loop_
 _atom_site_type_symbol
 _atom_site_label
 _atom_site_symmetry_multiplicity
 _atom_site_fract_x
 _atom_site_fract_y
 _atom_site_fract_z
 _atom_site_occupancy
  Tb  Tb0  1  0.667529  0.332478  0.000000  1
  Tb  Tb1  1  0.333330  0.666621  0.000000  1
  Tb  Tb2  1  0.812602  0.000947  0.500000  1
  Tb  Tb3  1  0.185411  0.187470  0.500000  1
  Tb  Tb4  1  0.000207  0.813692  0.500000  1
  P  P5  1  0.631408  0.997531  0.000000  1
  P  P6  1  0.365037  0.371127  0.000000  1
  P  P7  1  0.006218  0.634996  0.000000  1
  P  P8  1  0.689674  0.519482  0.500000  1
  P  P9  1  0.829702  0.306556  0.500000  1
  P  P10  1  0.312972  0.830222  0.500000  1
  P  P11  1  0.517259  0.686906  0.500000  1
  P  P12  1  0.181234  0.001540  0.000000  1
  P  P13  1  0.818643  0.818785  0.000000  1
  P  P14  1  0.996440  0.181544  0.000000  1
  P  P15  1  0.479954  0.167975  0.500000  1
  P  P16  1  0.170073  0.483183  0.500000  1
  Ir  Ir17  1  0.623872  0.803914  0.000000  1
  Ir  Ir18  1  0.180694  0.376540  0.000000  1
  Ir  Ir19  1  0.374785  0.184654  0.000000  1
  Ir  Ir20  1  0.195918  0.820984  0.000000  1
  Ir  Ir21  1  0.809808  0.625051  0.000000  1
  Ir  Ir22  1  0.868835  0.505288  0.500000  1
  Ir  Ir23  1  0.493784  0.361470  0.500000  1
  Ir  Ir24  1  0.636450  0.127925  0.500000  1
  Ir  Ir25  1  0.999441  0.000192  0.000000  1
  Ru  Ru26  1  0.127170  0.639855  0.500000  1
  Ru  Ru27  1  0.361608  0.488114  0.500000  1
  Ru  Ru28  1  0.510614  0.871059  0.500000  1
  Ru  Ru29  1  0.714702  0.713123  0.500000  1
  Ru  Ru30  1  0.000823  0.286440  0.500000  1
  Ru  Ru31  1  0.450687  0.001416  0.000000  1
  Ru  Ru32  1  0.551442  0.547279  0.000000  1
  Ru  Ru33  1  0.998882  0.450075  0.000000  1
  Ru  Ru34  1  0.816405  0.193772  0.000000  1
  Ru  Ru35  1  0.286386  0.001793  0.500000  1
