# generated using pymatgen
data_Nd4Cu(Sb4Au)2
_symmetry_space_group_name_H-M   'P 1'
_cell_length_a   11.29843469
_cell_length_b   11.29843518
_cell_length_c   11.29843505
_cell_angle_alpha   148.08162217
_cell_angle_beta   148.08161366
_cell_angle_gamma   45.76489705
_symmetry_Int_Tables_number   1
_chemical_formula_structural   Nd4Cu(Sb4Au)2
_chemical_formula_sum   'Nd4 Cu1 Sb8 Au2'
_cell_volume   401.82211076
_cell_formula_units_Z   1
loop_
 _symmetry_equiv_pos_site_id
 _symmetry_equiv_pos_as_xyz
  1  'x, y, z'
loop_
 _atom_site_type_symbol
 _atom_site_label
 _atom_site_symmetry_multiplicity
 _atom_site_fract_x
 _atom_site_fract_y
 _atom_site_fract_z
 _atom_site_occupancy
  Nd  Nd0  1  0.628580  0.628580  0.503743  1
  Nd  Nd1  1  0.124836  0.124836  0.496257  1
  Nd  Nd2  1  0.371420  0.875164  0.000000  1
  Nd  Nd3  1  0.875164  0.371420  0.000000  1
  Cu  Cu4  1  0.000000  0.000000  0.000000  1
  Sb  Sb5  1  0.333183  0.333183  0.502111  1
  Sb  Sb6  1  0.831072  0.831072  0.497889  1
  Sb  Sb7  1  0.666817  0.168928  0.000000  1
  Sb  Sb8  1  0.168928  0.666817  0.000000  1
  Sb  Sb9  1  0.250136  0.250136  0.000000  1
  Sb  Sb10  1  0.749864  0.749864  0.000000  1
  Sb  Sb11  1  0.750000  0.250000  0.500000  1
  Sb  Sb12  1  0.250000  0.750000  0.500000  1
  Au  Au13  1  0.000000  0.500000  0.500000  1
  Au  Au14  1  0.500000  0.000000  0.500000  1
