# generated using pymatgen
data_Sc6Zn22BPd
_symmetry_space_group_name_H-M   'P 1'
_cell_length_a   8.74190082
_cell_length_b   8.74190018
_cell_length_c   8.74190100
_cell_angle_alpha   60.00000826
_cell_angle_beta   60.00001067
_cell_angle_gamma   60.00000252
_symmetry_Int_Tables_number   1
_chemical_formula_structural   Sc6Zn22BPd
_chemical_formula_sum   'Sc6 Zn22 B1 Pd1'
_cell_volume   472.39215279
_cell_formula_units_Z   1
loop_
 _symmetry_equiv_pos_site_id
 _symmetry_equiv_pos_as_xyz
  1  'x, y, z'
loop_
 _atom_site_type_symbol
 _atom_site_label
 _atom_site_symmetry_multiplicity
 _atom_site_fract_x
 _atom_site_fract_y
 _atom_site_fract_z
 _atom_site_occupancy
  Sc  Sc0  1  0.693411  0.306589  0.306589  1
  Sc  Sc1  1  0.306589  0.693411  0.693411  1
  Sc  Sc2  1  0.306589  0.693411  0.306589  1
  Sc  Sc3  1  0.693411  0.306589  0.693411  1
  Sc  Sc4  1  0.306589  0.306589  0.693411  1
  Sc  Sc5  1  0.693411  0.693411  0.306589  1
  Zn  Zn6  1  0.120459  0.120459  0.120459  1
  Zn  Zn7  1  0.879541  0.879541  0.879541  1
  Zn  Zn8  1  0.120459  0.120459  0.638623  1
  Zn  Zn9  1  0.120459  0.638623  0.120459  1
  Zn  Zn10  1  0.879541  0.879541  0.361377  1
  Zn  Zn11  1  0.879541  0.361377  0.879541  1
  Zn  Zn12  1  0.638623  0.120459  0.120459  1
  Zn  Zn13  1  0.361377  0.879541  0.879541  1
  Zn  Zn14  1  0.500000  0.000000  0.000000  1
  Zn  Zn15  1  0.000000  0.500000  0.500000  1
  Zn  Zn16  1  0.000000  0.500000  0.000000  1
  Zn  Zn17  1  0.500000  0.000000  0.500000  1
  Zn  Zn18  1  0.000000  0.000000  0.500000  1
  Zn  Zn19  1  0.500000  0.500000  0.000000  1
  Zn  Zn20  1  0.331357  0.331357  0.331357  1
  Zn  Zn21  1  0.668643  0.668643  0.668643  1
  Zn  Zn22  1  0.331357  0.331357  0.005927  1
  Zn  Zn23  1  0.331357  0.005927  0.331357  1
  Zn  Zn24  1  0.668643  0.668643  0.994073  1
  Zn  Zn25  1  0.668643  0.994073  0.668643  1
  Zn  Zn26  1  0.005927  0.331357  0.331357  1
  Zn  Zn27  1  0.994073  0.668643  0.668643  1
  B  B28  1  0.500000  0.500000  0.500000  1
  Pd  Pd29  1  0.000000  0.000000  0.000000  1
