# generated using pymatgen
data_Ca2Ce(NdRh)6
_symmetry_space_group_name_H-M   'P 1'
_cell_length_a   7.61409236
_cell_length_b   7.61409244
_cell_length_c   7.61409344
_cell_angle_alpha   70.49619334
_cell_angle_beta   70.49620339
_cell_angle_gamma   70.49618617
_symmetry_Int_Tables_number   1
_chemical_formula_structural   Ca2Ce(NdRh)6
_chemical_formula_sum   'Ca2 Ce1 Nd6 Rh6'
_cell_volume   379.73258097
_cell_formula_units_Z   1
loop_
 _symmetry_equiv_pos_site_id
 _symmetry_equiv_pos_as_xyz
  1  'x, y, z'
loop_
 _atom_site_type_symbol
 _atom_site_label
 _atom_site_symmetry_multiplicity
 _atom_site_fract_x
 _atom_site_fract_y
 _atom_site_fract_z
 _atom_site_occupancy
  Ca  Ca0  1  0.995532  0.995532  0.995532  1
  Ca  Ca1  1  0.799203  0.799203  0.799203  1
  Ce  Ce2  1  0.194273  0.194273  0.194273  1
  Nd  Nd3  1  0.155342  0.395470  0.667373  1
  Nd  Nd4  1  0.667373  0.155342  0.395470  1
  Nd  Nd5  1  0.395470  0.667373  0.155342  1
  Nd  Nd6  1  0.843047  0.609248  0.331606  1
  Nd  Nd7  1  0.331606  0.843047  0.609248  1
  Nd  Nd8  1  0.609248  0.331606  0.843047  1
  Rh  Rh9  1  0.964854  0.186045  0.556058  1
  Rh  Rh10  1  0.556058  0.964854  0.186045  1
  Rh  Rh11  1  0.186045  0.556058  0.964854  1
  Rh  Rh12  1  0.055606  0.839966  0.406376  1
  Rh  Rh13  1  0.406376  0.055606  0.839966  1
  Rh  Rh14  1  0.839966  0.406376  0.055606  1
