# generated using pymatgen
data_Dy3Tm2(In2Ni)2
_symmetry_space_group_name_H-M   'P 1'
_cell_length_a   17.87842500
_cell_length_b   7.98910600
_cell_length_c   3.59099300
_cell_angle_alpha   90.00000000
_cell_angle_beta   90.00000000
_cell_angle_gamma   90.00000000
_symmetry_Int_Tables_number   1
_chemical_formula_structural   Dy3Tm2(In2Ni)2
_chemical_formula_sum   'Dy6 Tm4 In8 Ni4'
_cell_volume   512.91098326
_cell_formula_units_Z   2
loop_
 _symmetry_equiv_pos_site_id
 _symmetry_equiv_pos_as_xyz
  1  'x, y, z'
loop_
 _atom_site_type_symbol
 _atom_site_label
 _atom_site_symmetry_multiplicity
 _atom_site_fract_x
 _atom_site_fract_y
 _atom_site_fract_z
 _atom_site_occupancy
  Dy  Dy0  1  0.000000  0.000000  0.000000  1
  Dy  Dy1  1  0.500000  0.500000  0.000000  1
  Dy  Dy2  1  0.220997  0.248207  0.000000  1
  Dy  Dy3  1  0.779003  0.751793  0.000000  1
  Dy  Dy4  1  0.720997  0.251793  0.000000  1
  Dy  Dy5  1  0.279003  0.748206  0.000000  1
  Tm  Tm6  1  0.411027  0.118499  0.000000  1
  Tm  Tm7  1  0.588972  0.881500  0.000000  1
  Tm  Tm8  1  0.911028  0.381501  0.000000  1
  Tm  Tm9  1  0.088972  0.618499  0.000000  1
  In  In10  1  0.567355  0.201323  0.500002  1
  In  In11  1  0.432645  0.798676  0.500002  1
  In  In12  1  0.067355  0.298677  0.500002  1
  In  In13  1  0.932645  0.701323  0.500002  1
  In  In14  1  0.848138  0.072465  0.500002  1
  In  In15  1  0.151862  0.927535  0.500002  1
  In  In16  1  0.348138  0.427535  0.500002  1
  In  In17  1  0.651862  0.572466  0.500002  1
  Ni  Ni18  1  0.305042  0.027368  0.500002  1
  Ni  Ni19  1  0.694957  0.972631  0.500002  1
  Ni  Ni20  1  0.805042  0.472632  0.500002  1
  Ni  Ni21  1  0.194958  0.527369  0.500002  1
