# generated using pymatgen
data_Ti4BeNbSn3
_symmetry_space_group_name_H-M   'P 1'
_cell_length_a   8.17249100
_cell_length_b   8.19288473
_cell_length_c   5.46783000
_cell_angle_alpha   90.00000000
_cell_angle_beta   90.00000000
_cell_angle_gamma   119.91768798
_symmetry_Int_Tables_number   1
_chemical_formula_structural   Ti4BeNbSn3
_chemical_formula_sum   'Ti8 Be2 Nb2 Sn6'
_cell_volume   317.31934623
_cell_formula_units_Z   2
loop_
 _symmetry_equiv_pos_site_id
 _symmetry_equiv_pos_as_xyz
  1  'x, y, z'
loop_
 _atom_site_type_symbol
 _atom_site_label
 _atom_site_symmetry_multiplicity
 _atom_site_fract_x
 _atom_site_fract_y
 _atom_site_fract_z
 _atom_site_occupancy
  Ti  Ti0  1  0.000998  0.251720  0.750000  1
  Ti  Ti1  1  0.999002  0.748280  0.250000  1
  Ti  Ti2  1  0.749278  0.748280  0.750000  1
  Ti  Ti3  1  0.250722  0.251720  0.250000  1
  Ti  Ti4  1  0.334179  0.668358  0.500000  1
  Ti  Ti5  1  0.665821  0.331642  0.500000  1
  Ti  Ti6  1  0.665821  0.331642  0.000000  1
  Ti  Ti7  1  0.334179  0.668358  0.000000  1
  Be  Be8  1  0.000000  0.000000  0.500000  1
  Be  Be9  1  0.000000  0.000000  0.000000  1
  Nb  Nb10  1  0.248691  0.000000  0.750000  1
  Nb  Nb11  1  0.751309  0.000000  0.250000  1
  Sn  Sn12  1  0.611240  0.000000  0.750000  1
  Sn  Sn13  1  0.388760  0.000000  0.250000  1
  Sn  Sn14  1  0.996320  0.605389  0.750000  1
  Sn  Sn15  1  0.003680  0.394611  0.250000  1
  Sn  Sn16  1  0.390931  0.394611  0.750000  1
  Sn  Sn17  1  0.609069  0.605389  0.250000  1
