# generated using pymatgen
data_Y2B4Ir4Os
_symmetry_space_group_name_H-M   'P 1'
_cell_length_a   7.52370156
_cell_length_b   6.37431983
_cell_length_c   5.58929138
_cell_angle_alpha   77.61685943
_cell_angle_beta   55.85424585
_cell_angle_gamma   46.50659078
_symmetry_Int_Tables_number   1
_chemical_formula_structural   Y2B4Ir4Os
_chemical_formula_sum   'Y2 B4 Ir4 Os1'
_cell_volume   154.20232636
_cell_formula_units_Z   1
loop_
 _symmetry_equiv_pos_site_id
 _symmetry_equiv_pos_as_xyz
  1  'x, y, z'
loop_
 _atom_site_type_symbol
 _atom_site_label
 _atom_site_symmetry_multiplicity
 _atom_site_fract_x
 _atom_site_fract_y
 _atom_site_fract_z
 _atom_site_occupancy
  Y  Y0  1  0.860025  0.859760  0.140026  1
  Y  Y1  1  0.139833  0.140002  0.860224  1
  B  B2  1  0.471114  0.796013  0.215448  1
  B  B3  1  0.215985  0.516890  0.470753  1
  B  B4  1  0.795952  0.471198  0.517450  1
  B  B5  1  0.516967  0.215939  0.796291  1
  Ir  Ir6  1  0.500322  0.500355  0.999676  1
  Ir  Ir7  1  0.999661  0.999770  0.500291  1
  Ir  Ir8  1  0.500022  0.500025  0.499954  1
  Ir  Ir9  1  0.750190  0.750152  0.749909  1
  Os  Os10  1  0.249936  0.249894  0.249974  1
