# generated using pymatgen
data_Tb8Dy4InCo4Os
_symmetry_space_group_name_H-M   'P 1'
_cell_length_a   8.32005914
_cell_length_b   8.32005908
_cell_length_c   8.32005999
_cell_angle_alpha   111.46980668
_cell_angle_beta   110.44964428
_cell_angle_gamma   106.53524841
_symmetry_Int_Tables_number   1
_chemical_formula_structural   Tb8Dy4InCo4Os
_chemical_formula_sum   'Tb8 Dy4 In1 Co4 Os1'
_cell_volume   442.45636430
_cell_formula_units_Z   1
loop_
 _symmetry_equiv_pos_site_id
 _symmetry_equiv_pos_as_xyz
  1  'x, y, z'
loop_
 _atom_site_type_symbol
 _atom_site_label
 _atom_site_symmetry_multiplicity
 _atom_site_fract_x
 _atom_site_fract_y
 _atom_site_fract_z
 _atom_site_occupancy
  Tb  Tb0  1  0.413473  0.220085  0.193389  1
  Tb  Tb1  1  0.586527  0.779915  0.806611  1
  Tb  Tb2  1  0.026698  0.220085  0.806611  1
  Tb  Tb3  1  0.973302  0.779915  0.193389  1
  Tb  Tb4  1  0.181290  0.281361  0.462650  1
  Tb  Tb5  1  0.818710  0.718639  0.537350  1
  Tb  Tb6  1  0.181290  0.718639  0.899928  1
  Tb  Tb7  1  0.818710  0.281361  0.100072  1
  Dy  Dy8  1  0.315591  0.622036  0.306445  1
  Dy  Dy9  1  0.684409  0.377964  0.693555  1
  Dy  Dy10  1  0.315591  0.009145  0.693555  1
  Dy  Dy11  1  0.684409  0.990855  0.306445  1
  In  In12  1  0.500000  0.500000  0.000000  1
  Co  Co13  1  0.376185  0.000000  0.376185  1
  Co  Co14  1  0.623815  0.000000  0.623815  1
  Co  Co15  1  0.111476  0.611476  0.500000  1
  Co  Co16  1  0.888524  0.388524  0.500000  1
  Os  Os17  1  0.000000  0.000000  0.000000  1
