# generated using pymatgen
data_HfSc17(Re4P)2
_symmetry_space_group_name_H-M   'P 1'
_cell_length_a   8.62847107
_cell_length_b   8.64380550
_cell_length_c   8.58430047
_cell_angle_alpha   89.99999916
_cell_angle_beta   89.91157490
_cell_angle_gamma   120.05881217
_symmetry_Int_Tables_number   1
_chemical_formula_structural   HfSc17(Re4P)2
_chemical_formula_sum   'Hf1 Sc17 Re8 P2'
_cell_volume   554.13553841
_cell_formula_units_Z   1
loop_
 _symmetry_equiv_pos_site_id
 _symmetry_equiv_pos_as_xyz
  1  'x, y, z'
loop_
 _atom_site_type_symbol
 _atom_site_label
 _atom_site_symmetry_multiplicity
 _atom_site_fract_x
 _atom_site_fract_y
 _atom_site_fract_z
 _atom_site_occupancy
  Hf  Hf0  1  0.608644  0.804322  0.047154  1
  Sc  Sc1  1  0.197322  0.802296  0.451082  1
  Sc  Sc2  1  0.197322  0.395025  0.451082  1
  Sc  Sc3  1  0.605166  0.802583  0.450000  1
  Sc  Sc4  1  0.802651  0.197529  0.549353  1
  Sc  Sc5  1  0.802651  0.605123  0.549353  1
  Sc  Sc6  1  0.394351  0.197176  0.549698  1
  Sc  Sc7  1  0.803038  0.198043  0.950756  1
  Sc  Sc8  1  0.803038  0.604995  0.950756  1
  Sc  Sc9  1  0.393848  0.196924  0.950502  1
  Sc  Sc10  1  0.197989  0.802190  0.048907  1
  Sc  Sc11  1  0.197989  0.395798  0.048907  1
  Sc  Sc12  1  0.538576  0.462099  0.249815  1
  Sc  Sc13  1  0.538576  0.076477  0.249815  1
  Sc  Sc14  1  0.922878  0.461439  0.250266  1
  Sc  Sc15  1  0.461558  0.539431  0.751342  1
  Sc  Sc16  1  0.461558  0.922127  0.751342  1
  Sc  Sc17  1  0.077685  0.538842  0.750251  1
  Re  Re18  1  0.890651  0.106778  0.249374  1
  Re  Re19  1  0.890651  0.783872  0.249374  1
  Re  Re20  1  0.213903  0.106951  0.250026  1
  Re  Re21  1  0.107070  0.892422  0.749902  1
  Re  Re22  1  0.107070  0.214649  0.749902  1
  Re  Re23  1  0.782775  0.891388  0.752077  1
  Re  Re24  1  0.999277  0.999639  0.499849  1
  Re  Re25  1  0.002004  0.001002  0.999809  1
  P  P26  1  0.335395  0.667698  0.249204  1
  P  P27  1  0.666364  0.333182  0.750102  1
