# generated using pymatgen
data_Ti8IrPd3O2
_symmetry_space_group_name_H-M   'P 1'
_cell_length_a   8.27313701
_cell_length_b   8.28872368
_cell_length_c   8.28872435
_cell_angle_alpha   60.28792516
_cell_angle_beta   60.06218564
_cell_angle_gamma   60.06218769
_symmetry_Int_Tables_number   1
_chemical_formula_structural   Ti8IrPd3O2
_chemical_formula_sum   'Ti16 Ir2 Pd6 O4'
_cell_volume   403.15871869
_cell_formula_units_Z   2
loop_
 _symmetry_equiv_pos_site_id
 _symmetry_equiv_pos_as_xyz
  1  'x, y, z'
loop_
 _atom_site_type_symbol
 _atom_site_label
 _atom_site_symmetry_multiplicity
 _atom_site_fract_x
 _atom_site_fract_y
 _atom_site_fract_z
 _atom_site_occupancy
  Ti  Ti0  1  0.320518  0.679318  0.319792  1
  Ti  Ti1  1  0.929809  0.572377  0.930214  1
  Ti  Ti2  1  0.680372  0.319792  0.679318  1
  Ti  Ti3  1  0.677125  0.322875  0.322875  1
  Ti  Ti4  1  0.317098  0.682902  0.682902  1
  Ti  Ti5  1  0.625887  0.123065  0.123065  1
  Ti  Ti6  1  0.929809  0.930214  0.572377  1
  Ti  Ti7  1  0.680372  0.679318  0.319792  1
  Ti  Ti8  1  0.122326  0.631966  0.123382  1
  Ti  Ti9  1  0.122326  0.123382  0.631966  1
  Ti  Ti10  1  0.320518  0.319792  0.679318  1
  Ti  Ti11  1  0.127982  0.123065  0.123065  1
  Ti  Ti12  1  0.567600  0.572377  0.930214  1
  Ti  Ti13  1  0.569278  0.930722  0.930722  1
  Ti  Ti14  1  0.927757  0.572243  0.572243  1
  Ti  Ti15  1  0.567600  0.930214  0.572377  1
  Ir  Ir16  1  0.283174  0.904785  0.904785  1
  Ir  Ir17  1  0.907257  0.904785  0.904785  1
  Pd  Pd18  1  0.909639  0.914878  0.265845  1
  Pd  Pd19  1  0.338837  0.980675  0.341650  1
  Pd  Pd20  1  0.337844  0.338231  0.338231  1
  Pd  Pd21  1  0.985692  0.338231  0.338231  1
  Pd  Pd22  1  0.338837  0.341650  0.980675  1
  Pd  Pd23  1  0.909639  0.265845  0.914878  1
  O  O24  1  0.625569  0.623560  0.623560  1
  O  O25  1  0.127312  0.623560  0.623560  1
  O  O26  1  0.624912  0.623462  0.126715  1
  O  O27  1  0.624912  0.126715  0.623462  1
