# generated using pymatgen
data_Ta2Nb3B2P
_symmetry_space_group_name_H-M   'P 1'
_cell_length_a   7.26966583
_cell_length_b   7.26966588
_cell_length_c   7.26275757
_cell_angle_alpha   129.36293151
_cell_angle_beta   129.36293883
_cell_angle_gamma   74.43097730
_symmetry_Int_Tables_number   1
_chemical_formula_structural   Ta2Nb3B2P
_chemical_formula_sum   'Ta4 Nb6 B4 P2'
_cell_volume   223.60467890
_cell_formula_units_Z   2
loop_
 _symmetry_equiv_pos_site_id
 _symmetry_equiv_pos_as_xyz
  1  'x, y, z'
loop_
 _atom_site_type_symbol
 _atom_site_label
 _atom_site_symmetry_multiplicity
 _atom_site_fract_x
 _atom_site_fract_y
 _atom_site_fract_z
 _atom_site_occupancy
  Ta  Ta0  1  0.000000  0.000000  0.000000  1
  Ta  Ta1  1  0.500000  0.500000  0.000000  1
  Ta  Ta2  1  0.807595  0.307595  0.834921  1
  Ta  Ta3  1  0.192405  0.692405  0.165079  1
  Nb  Nb4  1  0.472197  0.972197  0.163325  1
  Nb  Nb5  1  0.308442  0.472486  0.499554  1
  Nb  Nb6  1  0.027514  0.191558  0.500446  1
  Nb  Nb7  1  0.527803  0.027803  0.836675  1
  Nb  Nb8  1  0.691558  0.527514  0.500446  1
  Nb  Nb9  1  0.972486  0.808442  0.499554  1
  B  B10  1  0.115212  0.615212  0.731430  1
  B  B11  1  0.884788  0.384788  0.268570  1
  B  B12  1  0.614334  0.885666  0.500000  1
  B  B13  1  0.385666  0.114334  0.500000  1
  P  P14  1  0.249159  0.250841  0.000000  1
  P  P15  1  0.750841  0.749159  0.000000  1
