# generated using pymatgen
data_La2NdGd2HoTa2O14
_symmetry_space_group_name_H-M   'P 1'
_cell_length_a   6.59748015
_cell_length_b   6.61293678
_cell_length_c   7.69950231
_cell_angle_alpha   89.98609714
_cell_angle_beta   89.99296654
_cell_angle_gamma   109.13606462
_symmetry_Int_Tables_number   1
_chemical_formula_structural   La2NdGd2HoTa2O14
_chemical_formula_sum   'La2 Nd1 Gd2 Ho1 Ta2 O14'
_cell_volume   317.35742686
_cell_formula_units_Z   1
loop_
 _symmetry_equiv_pos_site_id
 _symmetry_equiv_pos_as_xyz
  1  'x, y, z'
loop_
 _atom_site_type_symbol
 _atom_site_label
 _atom_site_symmetry_multiplicity
 _atom_site_fract_x
 _atom_site_fract_y
 _atom_site_fract_z
 _atom_site_occupancy
  La  La0  1  0.499401  0.498292  0.498164  1
  La  La1  1  0.493726  0.492159  0.001683  1
  Nd  Nd2  1  0.535708  0.998749  0.751148  1
  Gd  Gd3  1  0.999613  0.531948  0.248802  1
  Gd  Gd4  1  0.999108  0.469335  0.748720  1
  Ho  Ho5  1  0.465883  0.998706  0.251285  1
  Ta  Ta6  1  0.999741  0.000041  0.497820  1
  Ta  Ta7  1  0.999375  0.999796  0.002314  1
  O  O8  1  0.940753  0.055580  0.749997  1
  O  O9  1  0.062727  0.939648  0.250036  1
  O  O10  1  0.356981  0.645932  0.249714  1
  O  O11  1  0.641333  0.364960  0.749900  1
  O  O12  1  0.361953  0.627173  0.749933  1
  O  O13  1  0.631822  0.358974  0.250296  1
  O  O14  1  0.319819  0.070186  0.977442  1
  O  O15  1  0.685732  0.936659  0.461398  1
  O  O16  1  0.317665  0.066878  0.525022  1
  O  O17  1  0.688220  0.940410  0.041278  1
  O  O18  1  0.066255  0.316149  0.468443  1
  O  O19  1  0.934149  0.686209  0.967769  1
  O  O20  1  0.931461  0.683936  0.529796  1
  O  O21  1  0.068574  0.318279  0.029039  1
