# generated using pymatgen
data_La11Cu4Si5Ge
_symmetry_space_group_name_H-M   'P 1'
_cell_length_a   4.35943672
_cell_length_b   9.50247519
_cell_length_c   14.17853538
_cell_angle_alpha   104.97071305
_cell_angle_beta   89.94958631
_cell_angle_gamma   103.15074610
_symmetry_Int_Tables_number   1
_chemical_formula_structural   La11Cu4Si5Ge
_chemical_formula_sum   'La11 Cu4 Si5 Ge1'
_cell_volume   551.48828611
_cell_formula_units_Z   1
loop_
 _symmetry_equiv_pos_site_id
 _symmetry_equiv_pos_as_xyz
  1  'x, y, z'
loop_
 _atom_site_type_symbol
 _atom_site_label
 _atom_site_symmetry_multiplicity
 _atom_site_fract_x
 _atom_site_fract_y
 _atom_site_fract_z
 _atom_site_occupancy
  La  La0  1  0.903370  0.801196  0.218770  1
  La  La1  1  0.861593  0.721620  0.653996  1
  La  La2  1  0.223416  0.441750  0.102980  1
  La  La3  1  0.551653  0.102045  0.132427  1
  La  La4  1  0.339611  0.678765  0.395044  1
  La  La5  1  0.448839  0.897772  0.870199  1
  La  La6  1  0.000162  0.000589  0.498889  1
  La  La7  1  0.137602  0.276145  0.346746  1
  La  La8  1  0.776776  0.557952  0.898796  1
  La  La9  1  0.660716  0.321525  0.605113  1
  La  La10  1  0.098025  0.200305  0.783226  1
  Cu  Cu11  1  0.751238  0.502599  0.452869  1
  Cu  Cu12  1  0.936242  0.876127  0.023937  1
  Cu  Cu13  1  0.064051  0.123407  0.977851  1
  Cu  Cu14  1  0.249115  0.497503  0.547612  1
  Si  Si15  1  0.628656  0.252091  0.952453  1
  Si  Si16  1  0.264424  0.529728  0.734857  1
  Si  Si17  1  0.735710  0.469818  0.266348  1
  Si  Si18  1  0.371724  0.747517  0.049133  1
  Si  Si19  1  0.513364  0.025471  0.346999  1
  Ge  Ge20  1  0.486308  0.973124  0.653277  1
