# generated using pymatgen
data_Cs6Hf4CuAgTe20
_symmetry_space_group_name_H-M   'P 1'
_cell_length_a   10.21600267
_cell_length_b   11.31182234
_cell_length_c   11.50890999
_cell_angle_alpha   89.35342594
_cell_angle_beta   89.67177079
_cell_angle_gamma   77.91037502
_symmetry_Int_Tables_number   1
_chemical_formula_structural   Cs6Hf4CuAgTe20
_chemical_formula_sum   'Cs6 Hf4 Cu1 Ag1 Te20'
_cell_volume   1300.40005736
_cell_formula_units_Z   1
loop_
 _symmetry_equiv_pos_site_id
 _symmetry_equiv_pos_as_xyz
  1  'x, y, z'
loop_
 _atom_site_type_symbol
 _atom_site_label
 _atom_site_symmetry_multiplicity
 _atom_site_fract_x
 _atom_site_fract_y
 _atom_site_fract_z
 _atom_site_occupancy
  Cs  Cs0  1  0.883636  0.889483  0.258811  1
  Cs  Cs1  1  0.118862  0.105990  0.740961  1
  Cs  Cs2  1  0.443739  0.766926  0.387667  1
  Cs  Cs3  1  0.556191  0.233462  0.612547  1
  Cs  Cs4  1  0.300319  0.626990  0.896656  1
  Cs  Cs5  1  0.699428  0.372177  0.106232  1
  Hf  Hf6  1  0.107529  0.376945  0.364750  1
  Hf  Hf7  1  0.892173  0.624067  0.634662  1
  Hf  Hf8  1  0.309950  0.159432  0.142449  1
  Hf  Hf9  1  0.692020  0.842127  0.856444  1
  Cu  Cu10  1  0.078687  0.623514  0.443647  1
  Ag  Ag11  1  0.910846  0.360785  0.564383  1
  Te  Te12  1  0.844291  0.563480  0.396771  1
  Te  Te13  1  0.160291  0.444406  0.599949  1
  Te  Te14  1  0.931030  0.199117  0.389083  1
  Te  Te15  1  0.070548  0.793095  0.593589  1
  Te  Te16  1  0.192244  0.586355  0.242664  1
  Te  Te17  1  0.800453  0.420054  0.776219  1
  Te  Te18  1  0.216619  0.117351  0.387413  1
  Te  Te19  1  0.785427  0.882785  0.609103  1
  Te  Te20  1  0.080069  0.362002  0.110621  1
  Te  Te21  1  0.921041  0.639182  0.888900  1
  Te  Te22  1  0.390222  0.355924  0.291626  1
  Te  Te23  1  0.609014  0.647580  0.709896  1
  Te  Te24  1  0.046685  0.122910  0.066336  1
  Te  Te25  1  0.955081  0.879416  0.931344  1
  Te  Te26  1  0.526079  0.090825  0.304801  1
  Te  Te27  1  0.475941  0.912229  0.693935  1
  Te  Te28  1  0.332375  0.914600  0.069162  1
  Te  Te29  1  0.668624  0.086253  0.930964  1
  Te  Te30  1  0.409811  0.245457  0.931655  1
  Te  Te31  1  0.590775  0.755079  0.066762  1
