# generated using pymatgen
data_CeH5Pd
_symmetry_space_group_name_H-M   'P 1'
_cell_length_a   4.66395200
_cell_length_b   4.43906200
_cell_length_c   12.33608200
_cell_angle_alpha   90.00000000
_cell_angle_beta   90.00000000
_cell_angle_gamma   90.00000000
_symmetry_Int_Tables_number   1
_chemical_formula_structural   CeH5Pd
_chemical_formula_sum   'Ce4 H20 Pd4'
_cell_volume   255.40096303
_cell_formula_units_Z   4
loop_
 _symmetry_equiv_pos_site_id
 _symmetry_equiv_pos_as_xyz
  1  'x, y, z'
loop_
 _atom_site_type_symbol
 _atom_site_label
 _atom_site_symmetry_multiplicity
 _atom_site_fract_x
 _atom_site_fract_y
 _atom_site_fract_z
 _atom_site_occupancy
  Ce  Ce0  1  0.308753  0.250324  0.655402  1
  Ce  Ce1  1  0.808753  0.249676  0.344598  1
  Ce  Ce2  1  0.191247  0.749676  0.155402  1
  Ce  Ce3  1  0.691247  0.750324  0.844598  1
  H  H4  1  0.562031  0.501332  0.502397  1
  H  H5  1  0.062031  0.998668  0.497603  1
  H  H6  1  0.937969  0.498668  0.002397  1
  H  H7  1  0.437969  0.001332  0.997603  1
  H  H8  1  0.174198  0.987997  0.827158  1
  H  H9  1  0.674198  0.512003  0.172842  1
  H  H10  1  0.325802  0.012003  0.327158  1
  H  H11  1  0.825802  0.487997  0.672842  1
  H  H12  1  0.175508  0.513856  0.827449  1
  H  H13  1  0.675508  0.986144  0.172551  1
  H  H14  1  0.324492  0.486144  0.327449  1
  H  H15  1  0.824492  0.013856  0.672551  1
  H  H16  1  0.625674  0.250352  0.790961  1
  H  H17  1  0.125674  0.249648  0.209039  1
  H  H18  1  0.874326  0.749648  0.290961  1
  H  H19  1  0.374326  0.750352  0.709039  1
  H  H20  1  0.938293  0.001367  0.002378  1
  H  H21  1  0.438293  0.498633  0.997622  1
  H  H22  1  0.561707  0.998633  0.502378  1
  H  H23  1  0.061707  0.501367  0.497622  1
  Pd  Pd24  1  0.182131  0.250467  0.929664  1
  Pd  Pd25  1  0.682131  0.249533  0.070336  1
  Pd  Pd26  1  0.317869  0.749533  0.429664  1
  Pd  Pd27  1  0.817869  0.750467  0.570336  1
