# generated using pymatgen
data_Pr4Co4P12Ru9Rh7
_symmetry_space_group_name_H-M   'P 1'
_cell_length_a   3.89740100
_cell_length_b   10.86987514
_cell_length_c   12.37103172
_cell_angle_alpha   90.14971941
_cell_angle_beta   90.00000000
_cell_angle_gamma   90.00000000
_symmetry_Int_Tables_number   1
_chemical_formula_structural   Pr4Co4P12Ru9Rh7
_chemical_formula_sum   'Pr4 Co4 P12 Ru9 Rh7'
_cell_volume   524.08784254
_cell_formula_units_Z   1
loop_
 _symmetry_equiv_pos_site_id
 _symmetry_equiv_pos_as_xyz
  1  'x, y, z'
loop_
 _atom_site_type_symbol
 _atom_site_label
 _atom_site_symmetry_multiplicity
 _atom_site_fract_x
 _atom_site_fract_y
 _atom_site_fract_z
 _atom_site_occupancy
  Pr  Pr0  1  0.250000  0.586111  0.705444  1
  Pr  Pr1  1  0.250000  0.914300  0.205073  1
  Pr  Pr2  1  0.750000  0.413296  0.293927  1
  Pr  Pr3  1  0.750000  0.086412  0.794695  1
  Co  Co4  1  0.250000  0.463771  0.935777  1
  Co  Co5  1  0.250000  0.035840  0.436056  1
  Co  Co6  1  0.750000  0.536493  0.064551  1
  Co  Co7  1  0.750000  0.964211  0.565439  1
  P  P8  1  0.250000  0.420707  0.106762  1
  P  P9  1  0.250000  0.075700  0.606413  1
  P  P10  1  0.750000  0.575508  0.894003  1
  P  P11  1  0.750000  0.924181  0.394420  1
  P  P12  1  0.250000  0.273216  0.877636  1
  P  P13  1  0.250000  0.226033  0.375252  1
  P  P14  1  0.750000  0.726911  0.120985  1
  P  P15  1  0.750000  0.773258  0.621567  1
  P  P16  1  0.250000  0.597965  0.396063  1
  P  P17  1  0.250000  0.901778  0.897016  1
  P  P18  1  0.750000  0.401298  0.602653  1
  P  P19  1  0.750000  0.103741  0.105675  1
  Ru  Ru20  1  0.250000  0.711768  0.987398  1
  Ru  Ru21  1  0.250000  0.788227  0.486478  1
  Ru  Ru22  1  0.750000  0.291428  0.013126  1
  Ru  Ru23  1  0.750000  0.209891  0.514788  1
  Ru  Ru24  1  0.250000  0.402925  0.490934  1
  Ru  Ru25  1  0.250000  0.097208  0.990267  1
  Ru  Ru26  1  0.750000  0.596161  0.508266  1
  Ru  Ru27  1  0.750000  0.905292  0.009364  1
  Ru  Ru28  1  0.250000  0.226634  0.179338  1
  Rh  Rh29  1  0.250000  0.270411  0.679915  1
  Rh  Rh30  1  0.750000  0.770473  0.820211  1
  Rh  Rh31  1  0.750000  0.730114  0.319308  1
  Rh  Rh32  1  0.250000  0.888119  0.700648  1
  Rh  Rh33  1  0.250000  0.611122  0.200231  1
  Rh  Rh34  1  0.750000  0.110995  0.301232  1
  Rh  Rh35  1  0.750000  0.388501  0.799090  1
