# generated using pymatgen
data_Nd3Th(NiP)8
_symmetry_space_group_name_H-M   'P 1'
_cell_length_a   3.91768800
_cell_length_b   8.26671606
_cell_length_c   9.83431607
_cell_angle_alpha   90.01372585
_cell_angle_beta   90.00000000
_cell_angle_gamma   90.00000000
_symmetry_Int_Tables_number   1
_chemical_formula_structural   Nd3Th(NiP)8
_chemical_formula_sum   'Nd3 Th1 Ni8 P8'
_cell_volume   318.49822553
_cell_formula_units_Z   1
loop_
 _symmetry_equiv_pos_site_id
 _symmetry_equiv_pos_as_xyz
  1  'x, y, z'
loop_
 _atom_site_type_symbol
 _atom_site_label
 _atom_site_symmetry_multiplicity
 _atom_site_fract_x
 _atom_site_fract_y
 _atom_site_fract_z
 _atom_site_occupancy
  Nd  Nd0  1  0.250000  0.258716  0.668208  1
  Nd  Nd1  1  0.750000  0.741068  0.332036  1
  Nd  Nd2  1  0.250000  0.759086  0.831112  1
  Th  Th3  1  0.750000  0.238532  0.169516  1
  Ni  Ni4  1  0.750000  0.086383  0.452772  1
  Ni  Ni5  1  0.250000  0.913241  0.545572  1
  Ni  Ni6  1  0.750000  0.585724  0.047492  1
  Ni  Ni7  1  0.250000  0.414797  0.953558  1
  Ni  Ni8  1  0.250000  0.950325  0.125231  1
  Ni  Ni9  1  0.750000  0.046363  0.874712  1
  Ni  Ni10  1  0.250000  0.453905  0.375585  1
  Ni  Ni11  1  0.750000  0.546051  0.624803  1
  P  P12  1  0.250000  0.142559  0.950992  1
  P  P13  1  0.750000  0.860276  0.049258  1
  P  P14  1  0.250000  0.641529  0.548976  1
  P  P15  1  0.750000  0.358722  0.450430  1
  P  P16  1  0.250000  0.529664  0.160707  1
  P  P17  1  0.750000  0.470218  0.840102  1
  P  P18  1  0.250000  0.032801  0.339689  1
  P  P19  1  0.750000  0.970041  0.659247  1
