# generated using pymatgen
data_Nd3Eu(Pd2O5)2
_symmetry_space_group_name_H-M   'P 1'
_cell_length_a   6.59805493
_cell_length_b   6.58405801
_cell_length_c   5.59184600
_cell_angle_alpha   90.00000000
_cell_angle_beta   90.00000000
_cell_angle_gamma   90.07557251
_symmetry_Int_Tables_number   1
_chemical_formula_structural   Nd3Eu(Pd2O5)2
_chemical_formula_sum   'Nd3 Eu1 Pd4 O10'
_cell_volume   242.92063073
_cell_formula_units_Z   1
loop_
 _symmetry_equiv_pos_site_id
 _symmetry_equiv_pos_as_xyz
  1  'x, y, z'
loop_
 _atom_site_type_symbol
 _atom_site_label
 _atom_site_symmetry_multiplicity
 _atom_site_fract_x
 _atom_site_fract_y
 _atom_site_fract_z
 _atom_site_occupancy
  Nd  Nd0  1  0.893982  0.737695  0.000000  1
  Nd  Nd1  1  0.261062  0.893897  0.500000  1
  Nd  Nd2  1  0.740951  0.108554  0.500000  1
  Eu  Eu3  1  0.107429  0.255342  0.000000  1
  Pd  Pd4  1  0.595296  0.304400  0.000000  1
  Pd  Pd5  1  0.403654  0.694907  0.000000  1
  Pd  Pd6  1  0.303708  0.403599  0.500000  1
  Pd  Pd7  1  0.695368  0.595785  0.500000  1
  O  O8  1  0.399991  0.193694  0.257154  1
  O  O9  1  0.598477  0.806504  0.741867  1
  O  O10  1  0.598477  0.806504  0.258133  1
  O  O11  1  0.193092  0.597856  0.758564  1
  O  O12  1  0.399991  0.193694  0.742846  1
  O  O13  1  0.806436  0.401522  0.240886  1
  O  O14  1  0.806436  0.401522  0.759114  1
  O  O15  1  0.193092  0.597856  0.241436  1
  O  O16  1  0.001279  0.003334  0.248566  1
  O  O17  1  0.001279  0.003334  0.751434  1
