# generated using pymatgen
data_NaNbVPS10
_symmetry_space_group_name_H-M   'P 1'
_cell_length_a   13.70729601
_cell_length_b   13.71735680
_cell_length_c   12.75335136
_cell_angle_alpha   89.55692263
_cell_angle_beta   89.89388120
_cell_angle_gamma   35.42912610
_symmetry_Int_Tables_number   1
_chemical_formula_structural   NaNbVPS10
_chemical_formula_sum   'Na4 Nb4 V4 P4 S40'
_cell_volume   1390.01880716
_cell_formula_units_Z   4
loop_
 _symmetry_equiv_pos_site_id
 _symmetry_equiv_pos_as_xyz
  1  'x, y, z'
loop_
 _atom_site_type_symbol
 _atom_site_label
 _atom_site_symmetry_multiplicity
 _atom_site_fract_x
 _atom_site_fract_y
 _atom_site_fract_z
 _atom_site_occupancy
  Na  Na0  1  0.948616  0.937124  0.118677  1
  Na  Na1  1  0.062900  0.054131  0.379321  1
  Na  Na2  1  0.938908  0.945385  0.621609  1
  Na  Na3  1  0.050205  0.064978  0.882573  1
  Nb  Nb4  1  0.700851  0.576192  0.778230  1
  Nb  Nb5  1  0.420463  0.302584  0.012172  1
  Nb  Nb6  1  0.303680  0.417953  0.515978  1
  Nb  Nb7  1  0.296501  0.424796  0.222976  1
  V  V8  1  0.579078  0.698886  0.277119  1
  V  V9  1  0.584119  0.694505  0.987635  1
  V  V10  1  0.421076  0.299425  0.722992  1
  V  V11  1  0.693966  0.585810  0.482203  1
  P  P12  1  0.971331  0.234501  0.625329  1
  P  P13  1  0.237006  0.968585  0.128573  1
  P  P14  1  0.769894  0.024930  0.868236  1
  P  P15  1  0.021818  0.773189  0.371325  1
  S  S16  1  0.003991  0.289329  0.491554  1
  S  S17  1  0.354591  0.237670  0.864146  1
  S  S18  1  0.442379  0.706644  0.133166  1
  S  S19  1  0.243269  0.343337  0.371069  1
  S  S20  1  0.399655  0.183808  0.141876  1
  S  S21  1  0.985732  0.721979  0.506022  1
  S  S22  1  0.724275  0.985606  0.004729  1
  S  S23  1  0.708513  0.438696  0.625627  1
  S  S24  1  0.824242  0.585109  0.913207  1
  S  S25  1  0.683043  0.467041  0.351910  1
  S  S26  1  0.636905  0.765540  0.132132  1
  S  S27  1  0.460555  0.690332  0.411490  1
  S  S28  1  0.313347  0.547253  0.082353  1
  S  S29  1  0.107655  0.000133  0.623031  1
  S  S30  1  0.015909  0.273630  0.762213  1
  S  S31  1  0.814115  0.592475  0.354952  1
  S  S32  1  0.785050  0.525674  0.134942  1
  S  S33  1  0.595851  0.815012  0.862052  1
  S  S34  1  0.979254  0.728395  0.237356  1
  S  S35  1  0.719138  0.987722  0.735606  1
  S  S36  1  0.568972  0.286564  0.862959  1
  S  S37  1  0.210068  0.477780  0.861143  1
  S  S38  1  0.414882  0.173765  0.601723  1
  S  S39  1  0.546234  0.307969  0.594730  1
  S  S40  1  0.761295  0.645390  0.624895  1
  S  S41  1  0.282687  0.007722  0.263709  1
  S  S42  1  0.284403  0.573727  0.369499  1
  S  S43  1  0.170914  0.415381  0.089784  1
  S  S44  1  0.183821  0.403525  0.646902  1
  S  S45  1  0.004716  0.888788  0.868573  1
  S  S46  1  0.324650  0.531678  0.657740  1
  S  S47  1  0.001517  0.105883  0.126263  1
  S  S48  1  0.461801  0.682564  0.860639  1
  S  S49  1  0.483720  0.202001  0.369040  1
  S  S50  1  0.585923  0.821252  0.400501  1
  S  S51  1  0.520340  0.791834  0.626342  1
  S  S52  1  0.536886  0.325630  0.151047  1
  S  S53  1  0.886116  0.007187  0.371790  1
  S  S54  1  0.287231  0.003599  0.993145  1
  S  S55  1  0.685944  0.459405  0.925194  1
