# generated using pymatgen
data_Gd8Sn(IO8)3
_symmetry_space_group_name_H-M   'P 1'
_cell_length_a   5.46142048
_cell_length_b   7.72024202
_cell_length_c   11.63553200
_cell_angle_alpha   76.35822215
_cell_angle_beta   89.57608617
_cell_angle_gamma   90.21555974
_symmetry_Int_Tables_number   1
_chemical_formula_structural   Gd8Sn(IO8)3
_chemical_formula_sum   'Gd8 Sn1 I3 O24'
_cell_volume   476.73388339
_cell_formula_units_Z   1
loop_
 _symmetry_equiv_pos_site_id
 _symmetry_equiv_pos_as_xyz
  1  'x, y, z'
loop_
 _atom_site_type_symbol
 _atom_site_label
 _atom_site_symmetry_multiplicity
 _atom_site_fract_x
 _atom_site_fract_y
 _atom_site_fract_z
 _atom_site_occupancy
  Gd  Gd0  1  0.186218  0.799871  0.068399  1
  Gd  Gd1  1  0.257330  0.978871  0.754005  1
  Gd  Gd2  1  0.745374  0.011233  0.253762  1
  Gd  Gd3  1  0.315881  0.506018  0.757330  1
  Gd  Gd4  1  0.196358  0.220694  0.423007  1
  Gd  Gd5  1  0.696282  0.504058  0.242105  1
  Gd  Gd6  1  0.805307  0.201344  0.923940  1
  Gd  Gd7  1  0.803175  0.780291  0.585762  1
  Sn  Sn8  1  0.746058  0.715593  0.890736  1
  I  I9  1  0.255156  0.732842  0.382610  1
  I  I10  1  0.747323  0.270069  0.616575  1
  I  I11  1  0.256264  0.279972  0.112576  1
  O  O12  1  0.858882  0.366350  0.461336  1
  O  O13  1  0.459947  0.860633  0.927562  1
  O  O14  1  0.856290  0.633298  0.064935  1
  O  O15  1  0.019332  0.299664  0.714897  1
  O  O16  1  0.971116  0.286696  0.243830  1
  O  O17  1  0.149538  0.358669  0.951636  1
  O  O18  1  0.629800  0.470556  0.883172  1
  O  O19  1  0.527343  0.147344  0.072878  1
  O  O20  1  0.144074  0.638202  0.536316  1
  O  O21  1  0.020275  0.709496  0.762283  1
  O  O22  1  0.467255  0.222229  0.274117  1
  O  O23  1  0.073563  0.946118  0.393543  1
  O  O24  1  0.476782  0.158726  0.562695  1
  O  O25  1  0.978499  0.708288  0.286079  1
  O  O26  1  0.936725  0.061213  0.603125  1
  O  O27  1  0.571268  0.187564  0.763304  1
  O  O28  1  0.519263  0.776088  0.719221  1
  O  O29  1  0.027257  0.060396  0.105557  1
  O  O30  1  0.617701  0.493850  0.613688  1
  O  O31  1  0.377642  0.512345  0.107161  1
  O  O32  1  0.428643  0.812461  0.232251  1
  O  O33  1  0.374736  0.507623  0.379024  1
  O  O34  1  0.535525  0.838791  0.433183  1
  O  O35  1  0.967818  0.942541  0.897403  1
