# generated using pymatgen
data_CsBa2F15
_symmetry_space_group_name_H-M   'P 1'
_cell_length_a   9.03921705
_cell_length_b   5.90522600
_cell_length_c   12.30171600
_cell_angle_alpha   90.00000000
_cell_angle_beta   89.84743025
_cell_angle_gamma   90.00000000
_symmetry_Int_Tables_number   1
_chemical_formula_structural   CsBa2F15
_chemical_formula_sum   'Cs2 Ba4 F30'
_cell_volume   656.64628984
_cell_formula_units_Z   2
loop_
 _symmetry_equiv_pos_site_id
 _symmetry_equiv_pos_as_xyz
  1  'x, y, z'
loop_
 _atom_site_type_symbol
 _atom_site_label
 _atom_site_symmetry_multiplicity
 _atom_site_fract_x
 _atom_site_fract_y
 _atom_site_fract_z
 _atom_site_occupancy
  Cs  Cs0  1  0.249992  0.438679  0.249997  1
  Cs  Cs1  1  0.750006  0.561326  0.750003  1
  Ba  Ba2  1  0.742165  0.004341  0.053410  1
  Ba  Ba3  1  0.757852  0.004363  0.446558  1
  Ba  Ba4  1  0.242147  0.995635  0.553445  1
  Ba  Ba5  1  0.257837  0.995657  0.946587  1
  F  F6  1  0.999999  0.500004  0.000000  1
  F  F7  1  0.500000  0.500004  0.000001  1
  F  F8  1  0.191794  0.508255  0.997983  1
  F  F9  1  0.472082  0.242574  0.064137  1
  F  F10  1  0.044595  0.037459  0.099601  1
  F  F11  1  0.409379  0.843231  0.138128  1
  F  F12  1  0.072494  0.939604  0.234369  1
  F  F13  1  0.750000  0.205533  0.250015  1
  F  F14  1  0.750003  0.498600  0.249994  1
  F  F15  1  0.750005  0.786679  0.250012  1
  F  F16  1  0.427508  0.939554  0.265585  1
  F  F17  1  0.090609  0.843217  0.361876  1
  F  F18  1  0.455410  0.037449  0.400373  1
  F  F19  1  0.027910  0.242574  0.435868  1
  F  F20  1  0.308206  0.508239  0.502020  1
  F  F21  1  0.000001  0.500006  0.500001  1
  F  F22  1  0.499999  0.500004  0.500000  1
  F  F23  1  0.691794  0.491770  0.497981  1
  F  F24  1  0.972092  0.757434  0.564133  1
  F  F25  1  0.544589  0.962562  0.599629  1
  F  F26  1  0.909386  0.156796  0.638121  1
  F  F27  1  0.572491  0.060445  0.734412  1
  F  F28  1  0.250002  0.213276  0.749987  1
  F  F29  1  0.249998  0.501388  0.750004  1
  F  F30  1  0.249997  0.794448  0.749982  1
  F  F31  1  0.927504  0.060396  0.765631  1
  F  F32  1  0.590621  0.156777  0.861876  1
  F  F33  1  0.955406  0.962542  0.900396  1
  F  F34  1  0.527917  0.757432  0.935866  1
  F  F35  1  0.808207  0.491754  0.002017  1
