# generated using pymatgen
data_Yb12NiRu3
_symmetry_space_group_name_H-M   'P 1'
_cell_length_a   6.19641267
_cell_length_b   7.59522953
_cell_length_c   9.22187600
_cell_angle_alpha   90.00000000
_cell_angle_beta   90.00000000
_cell_angle_gamma   89.86052005
_symmetry_Int_Tables_number   1
_chemical_formula_structural   Yb12NiRu3
_chemical_formula_sum   'Yb12 Ni1 Ru3'
_cell_volume   434.00949171
_cell_formula_units_Z   1
loop_
 _symmetry_equiv_pos_site_id
 _symmetry_equiv_pos_as_xyz
  1  'x, y, z'
loop_
 _atom_site_type_symbol
 _atom_site_label
 _atom_site_symmetry_multiplicity
 _atom_site_fract_x
 _atom_site_fract_y
 _atom_site_fract_z
 _atom_site_occupancy
  Yb  Yb0  1  0.340788  0.667863  0.070421  1
  Yb  Yb1  1  0.155964  0.167441  0.432375  1
  Yb  Yb2  1  0.655226  0.331302  0.564123  1
  Yb  Yb3  1  0.845820  0.835779  0.936243  1
  Yb  Yb4  1  0.655226  0.331302  0.935877  1
  Yb  Yb5  1  0.845820  0.835779  0.563757  1
  Yb  Yb6  1  0.340788  0.667863  0.429579  1
  Yb  Yb7  1  0.155964  0.167441  0.067625  1
  Yb  Yb8  1  0.869463  0.538646  0.250000  1
  Yb  Yb9  1  0.629654  0.038282  0.250000  1
  Yb  Yb10  1  0.136924  0.455763  0.750000  1
  Yb  Yb11  1  0.365460  0.960085  0.750000  1
  Ni  Ni12  1  0.549163  0.624626  0.750000  1
  Ru  Ru13  1  0.045843  0.873776  0.250000  1
  Ru  Ru14  1  0.455596  0.377490  0.250000  1
  Ru  Ru15  1  0.952302  0.126562  0.750000  1
