# generated using pymatgen
data_Tb2Dy6Sc12Si15As
_symmetry_space_group_name_H-M   'P 1'
_cell_length_a   7.15302102
_cell_length_b   7.37799606
_cell_length_c   13.96961863
_cell_angle_alpha   90.09606477
_cell_angle_beta   88.96583003
_cell_angle_gamma   90.18806370
_symmetry_Int_Tables_number   1
_chemical_formula_structural   Tb2Dy6Sc12Si15As
_chemical_formula_sum   'Tb2 Dy6 Sc12 Si15 As1'
_cell_volume   737.12105052
_cell_formula_units_Z   1
loop_
 _symmetry_equiv_pos_site_id
 _symmetry_equiv_pos_as_xyz
  1  'x, y, z'
loop_
 _atom_site_type_symbol
 _atom_site_label
 _atom_site_symmetry_multiplicity
 _atom_site_fract_x
 _atom_site_fract_y
 _atom_site_fract_z
 _atom_site_occupancy
  Tb  Tb0  1  0.012556  0.175804  0.097226  1
  Tb  Tb1  1  0.988012  0.824724  0.902481  1
  Dy  Dy2  1  0.488047  0.675510  0.902507  1
  Dy  Dy3  1  0.992044  0.822057  0.595968  1
  Dy  Dy4  1  0.512480  0.324989  0.097531  1
  Dy  Dy5  1  0.006465  0.177968  0.403722  1
  Dy  Dy6  1  0.505379  0.321853  0.402238  1
  Dy  Dy7  1  0.499283  0.676878  0.597452  1
  Sc  Sc8  1  0.164169  0.500969  0.749728  1
  Sc  Sc9  1  0.835638  0.498819  0.253005  1
  Sc  Sc10  1  0.335837  0.000916  0.251215  1
  Sc  Sc11  1  0.664287  0.999001  0.749169  1
  Sc  Sc12  1  0.339321  0.171319  0.626635  1
  Sc  Sc13  1  0.661735  0.827171  0.373815  1
  Sc  Sc14  1  0.158988  0.672617  0.377110  1
  Sc  Sc15  1  0.668603  0.823396  0.125561  1
  Sc  Sc16  1  0.837915  0.328455  0.622629  1
  Sc  Sc17  1  0.331044  0.176046  0.873996  1
  Sc  Sc18  1  0.831669  0.323517  0.874522  1
  Sc  Sc19  1  0.168459  0.676581  0.125037  1
  Si  Si20  1  0.035375  0.117564  0.749048  1
  Si  Si21  1  0.963875  0.883088  0.249928  1
  Si  Si22  1  0.460388  0.617248  0.249063  1
  Si  Si23  1  0.538202  0.382813  0.750649  1
  Si  Si24  1  0.288628  0.871299  0.749855  1
  Si  Si25  1  0.712735  0.126885  0.249597  1
  Si  Si26  1  0.211496  0.374623  0.250099  1
  Si  Si27  1  0.790359  0.626469  0.749982  1
  Si  Si28  1  0.813709  0.539873  0.457325  1
  Si  Si29  1  0.333695  0.962725  0.460956  1
  Si  Si30  1  0.843509  0.535249  0.039340  1
  Si  Si31  1  0.666197  0.037239  0.540088  1
  Si  Si32  1  0.156246  0.465302  0.960042  1
  Si  Si33  1  0.655075  0.035013  0.959704  1
  Si  Si34  1  0.344923  0.965670  0.039874  1
  As  As35  1  0.183655  0.460352  0.542906  1
