# generated using pymatgen
data_Rb5ZrSb3
_symmetry_space_group_name_H-M   'P 1'
_cell_length_a   9.28302100
_cell_length_b   10.06396538
_cell_length_c   19.52622100
_cell_angle_alpha   60.07484276
_cell_angle_beta   90.00000000
_cell_angle_gamma   90.00000000
_symmetry_Int_Tables_number   1
_chemical_formula_structural   Rb5ZrSb3
_chemical_formula_sum   'Rb20 Zr4 Sb12'
_cell_volume   1581.00897355
_cell_formula_units_Z   4
loop_
 _symmetry_equiv_pos_site_id
 _symmetry_equiv_pos_as_xyz
  1  'x, y, z'
loop_
 _atom_site_type_symbol
 _atom_site_label
 _atom_site_symmetry_multiplicity
 _atom_site_fract_x
 _atom_site_fract_y
 _atom_site_fract_z
 _atom_site_occupancy
  Rb  Rb0  1  0.171962  0.155620  0.260858  1
  Rb  Rb1  1  0.671962  0.844380  0.239142  1
  Rb  Rb2  1  0.828038  0.844380  0.739142  1
  Rb  Rb3  1  0.328038  0.155620  0.760858  1
  Rb  Rb4  1  0.167765  0.839822  0.579591  1
  Rb  Rb5  1  0.667765  0.160178  0.920409  1
  Rb  Rb6  1  0.832235  0.160178  0.420409  1
  Rb  Rb7  1  0.332235  0.839822  0.079591  1
  Rb  Rb8  1  0.003273  0.908264  0.908392  1
  Rb  Rb9  1  0.503273  0.091736  0.591608  1
  Rb  Rb10  1  0.996727  0.091736  0.091608  1
  Rb  Rb11  1  0.496727  0.908264  0.408392  1
  Rb  Rb12  1  0.512893  0.733087  0.922512  1
  Rb  Rb13  1  0.012893  0.266913  0.577488  1
  Rb  Rb14  1  0.487107  0.266913  0.077488  1
  Rb  Rb15  1  0.987107  0.733087  0.422512  1
  Rb  Rb16  1  0.986989  0.457991  0.744528  1
  Rb  Rb17  1  0.486989  0.542009  0.755472  1
  Rb  Rb18  1  0.013011  0.542009  0.255472  1
  Rb  Rb19  1  0.513011  0.457991  0.244528  1
  Zr  Zr20  1  0.367590  0.506284  0.419316  1
  Zr  Zr21  1  0.867590  0.493716  0.080684  1
  Zr  Zr22  1  0.632410  0.493716  0.580684  1
  Zr  Zr23  1  0.132410  0.506284  0.919316  1
  Sb  Sb24  1  0.252741  0.242844  0.922335  1
  Sb  Sb25  1  0.752741  0.757156  0.577665  1
  Sb  Sb26  1  0.747259  0.757156  0.077665  1
  Sb  Sb27  1  0.247259  0.242844  0.422335  1
  Sb  Sb28  1  0.179061  0.513617  0.063960  1
  Sb  Sb29  1  0.679061  0.486383  0.436040  1
  Sb  Sb30  1  0.820939  0.486383  0.936040  1
  Sb  Sb31  1  0.320939  0.513617  0.563960  1
  Sb  Sb32  1  0.284293  0.782249  0.281126  1
  Sb  Sb33  1  0.784293  0.217751  0.218874  1
  Sb  Sb34  1  0.715707  0.217751  0.718874  1
  Sb  Sb35  1  0.215707  0.782249  0.781126  1
