# generated using pymatgen
data_CdHg2(PO3)4
_symmetry_space_group_name_H-M   'P 1'
_cell_length_a   5.38101224
_cell_length_b   7.53143870
_cell_length_c   10.34084400
_cell_angle_alpha   108.92516098
_cell_angle_beta   109.99061155
_cell_angle_gamma   113.41077917
_symmetry_Int_Tables_number   1
_chemical_formula_structural   CdHg2(PO3)4
_chemical_formula_sum   'Cd1 Hg2 P4 O12'
_cell_volume   305.66017323
_cell_formula_units_Z   1
loop_
 _symmetry_equiv_pos_site_id
 _symmetry_equiv_pos_as_xyz
  1  'x, y, z'
loop_
 _atom_site_type_symbol
 _atom_site_label
 _atom_site_symmetry_multiplicity
 _atom_site_fract_x
 _atom_site_fract_y
 _atom_site_fract_z
 _atom_site_occupancy
  Cd  Cd0  1  0.000000  0.000000  0.000000  1
  Hg  Hg1  1  0.560497  0.657103  0.468067  1
  Hg  Hg2  1  0.439503  0.342897  0.531933  1
  P  P3  1  0.325471  0.824097  0.235104  1
  P  P4  1  0.742161  0.357399  0.092441  1
  P  P5  1  0.257839  0.642601  0.907559  1
  P  P6  1  0.674529  0.175903  0.764896  1
  O  O7  1  0.613508  0.895613  0.389557  1
  O  O8  1  0.342751  0.689940  0.086630  1
  O  O9  1  0.703649  0.986140  0.764372  1
  O  O10  1  0.002376  0.632324  0.206674  1
  O  O11  1  0.104545  0.758196  0.860424  1
  O  O12  1  0.543260  0.676606  0.898894  1
  O  O13  1  0.456740  0.323394  0.101106  1
  O  O14  1  0.895455  0.241804  0.139576  1
  O  O15  1  0.997624  0.367676  0.793326  1
  O  O16  1  0.296351  0.013860  0.235628  1
  O  O17  1  0.657249  0.310060  0.913370  1
  O  O18  1  0.386492  0.104387  0.610443  1
