# generated using pymatgen
data_Na4CaRuO6
_symmetry_space_group_name_H-M   'P 1'
_cell_length_a   5.70874946
_cell_length_b   5.71057324
_cell_length_c   5.74007079
_cell_angle_alpha   99.65401003
_cell_angle_beta   99.70331176
_cell_angle_gamma   120.02836855
_symmetry_Int_Tables_number   1
_chemical_formula_structural   Na4CaRuO6
_chemical_formula_sum   'Na4 Ca1 Ru1 O6'
_cell_volume   152.56944660
_cell_formula_units_Z   1
loop_
 _symmetry_equiv_pos_site_id
 _symmetry_equiv_pos_as_xyz
  1  'x, y, z'
loop_
 _atom_site_type_symbol
 _atom_site_label
 _atom_site_symmetry_multiplicity
 _atom_site_fract_x
 _atom_site_fract_y
 _atom_site_fract_z
 _atom_site_occupancy
  Na  Na0  1  0.498855  0.501216  0.000026  1
  Na  Na1  1  0.006772  0.993081  0.499957  1
  Na  Na2  1  0.660504  0.339619  0.500082  1
  Na  Na3  1  0.336225  0.663883  0.499975  1
  Ca  Ca4  1  0.834018  0.165883  0.000025  1
  Ru  Ru5  1  0.166900  0.833095  0.999969  1
  O  O6  1  0.956600  0.616161  0.205247  1
  O  O7  1  0.523840  0.911948  0.214877  1
  O  O8  1  0.229307  0.184617  0.214147  1
  O  O9  1  0.815147  0.770781  0.785755  1
  O  O10  1  0.088088  0.476382  0.785270  1
  O  O11  1  0.383746  0.043338  0.794671  1
