# generated using pymatgen
data_Nd4Fe3(Cu2H11)2
_symmetry_space_group_name_H-M   'P 1'
_cell_length_a   6.46590300
_cell_length_b   6.46590300
_cell_length_c   6.46590300
_cell_angle_alpha   90.00000000
_cell_angle_beta   90.00000000
_cell_angle_gamma   90.00000000
_symmetry_Int_Tables_number   1
_chemical_formula_structural   Nd4Fe3(Cu2H11)2
_chemical_formula_sum   'Nd4 Fe3 Cu4 H22'
_cell_volume   270.32583641
_cell_formula_units_Z   1
loop_
 _symmetry_equiv_pos_site_id
 _symmetry_equiv_pos_as_xyz
  1  'x, y, z'
loop_
 _atom_site_type_symbol
 _atom_site_label
 _atom_site_symmetry_multiplicity
 _atom_site_fract_x
 _atom_site_fract_y
 _atom_site_fract_z
 _atom_site_occupancy
  Nd  Nd0  1  0.281520  0.281520  0.718480  1
  Nd  Nd1  1  0.281520  0.718480  0.281520  1
  Nd  Nd2  1  0.718480  0.281520  0.281520  1
  Nd  Nd3  1  0.718480  0.718480  0.718480  1
  Fe  Fe4  1  0.000000  0.000000  0.500000  1
  Fe  Fe5  1  0.000000  0.500000  0.000000  1
  Fe  Fe6  1  0.500000  0.000000  0.000000  1
  Cu  Cu7  1  0.785594  0.785594  0.214406  1
  Cu  Cu8  1  0.785594  0.214406  0.785594  1
  Cu  Cu9  1  0.214406  0.785594  0.785594  1
  Cu  Cu10  1  0.214406  0.214406  0.214406  1
  H  H11  1  0.000000  0.500000  0.242689  1
  H  H12  1  0.500000  0.757311  0.000000  1
  H  H13  1  0.757311  0.000000  0.500000  1
  H  H14  1  0.000000  0.757311  0.500000  1
  H  H15  1  0.500000  0.000000  0.242689  1
  H  H16  1  0.757311  0.500000  0.000000  1
  H  H17  1  0.000000  0.500000  0.757311  1
  H  H18  1  0.500000  0.242689  0.000000  1
  H  H19  1  0.000000  0.242689  0.500000  1
  H  H20  1  0.500000  0.000000  0.757311  1
  H  H21  1  0.242689  0.000000  0.500000  1
  H  H22  1  0.242689  0.500000  0.000000  1
  H  H23  1  0.000000  0.000000  0.251766  1
  H  H24  1  0.000000  0.748234  0.000000  1
  H  H25  1  0.748234  0.000000  0.000000  1
  H  H26  1  0.000000  0.000000  0.748234  1
  H  H27  1  0.000000  0.251766  0.000000  1
  H  H28  1  0.251766  0.000000  0.000000  1
  H  H29  1  0.634254  0.634254  0.365746  1
  H  H30  1  0.634254  0.365746  0.634254  1
  H  H31  1  0.365746  0.634254  0.634254  1
  H  H32  1  0.365746  0.365746  0.365746  1
