# generated using pymatgen
data_Pr3TmO6
_symmetry_space_group_name_H-M   'P 1'
_cell_length_a   6.99166430
_cell_length_b   6.99166436
_cell_length_c   6.99166418
_cell_angle_alpha   92.09981246
_cell_angle_beta   92.09980354
_cell_angle_gamma   92.09978725
_symmetry_Int_Tables_number   1
_chemical_formula_structural   Pr3TmO6
_chemical_formula_sum   'Pr6 Tm2 O12'
_cell_volume   341.07031163
_cell_formula_units_Z   2
loop_
 _symmetry_equiv_pos_site_id
 _symmetry_equiv_pos_as_xyz
  1  'x, y, z'
loop_
 _atom_site_type_symbol
 _atom_site_label
 _atom_site_symmetry_multiplicity
 _atom_site_fract_x
 _atom_site_fract_y
 _atom_site_fract_z
 _atom_site_occupancy
  Pr  Pr0  1  0.558740  0.065315  0.253106  1
  Pr  Pr1  1  0.065315  0.253106  0.558740  1
  Pr  Pr2  1  0.746894  0.441260  0.934685  1
  Pr  Pr3  1  0.253106  0.558740  0.065315  1
  Pr  Pr4  1  0.934685  0.746894  0.441260  1
  Pr  Pr5  1  0.441260  0.934685  0.746894  1
  Tm  Tm6  1  0.000000  0.000000  0.000000  1
  Tm  Tm7  1  0.500000  0.500000  0.500000  1
  O  O8  1  0.694323  0.086243  0.934441  1
  O  O9  1  0.913757  0.065559  0.305677  1
  O  O10  1  0.406410  0.194252  0.535992  1
  O  O11  1  0.065559  0.305677  0.913757  1
  O  O12  1  0.535992  0.406410  0.194252  1
  O  O13  1  0.805748  0.464008  0.593590  1
  O  O14  1  0.194252  0.535992  0.406410  1
  O  O15  1  0.464008  0.593590  0.805748  1
  O  O16  1  0.934441  0.694323  0.086243  1
  O  O17  1  0.593590  0.805748  0.464008  1
  O  O18  1  0.086243  0.934441  0.694323  1
  O  O19  1  0.305677  0.913757  0.065559  1
