# generated using pymatgen
data_YEr3(B6Os)2
_symmetry_space_group_name_H-M   'P 1'
_cell_length_a   3.63763300
_cell_length_b   9.11642902
_cell_length_c   11.49914703
_cell_angle_alpha   89.99191792
_cell_angle_beta   90.00000000
_cell_angle_gamma   90.00000000
_symmetry_Int_Tables_number   1
_chemical_formula_structural   YEr3(B6Os)2
_chemical_formula_sum   'Y2 Er6 B24 Os4'
_cell_volume   381.33727491
_cell_formula_units_Z   2
loop_
 _symmetry_equiv_pos_site_id
 _symmetry_equiv_pos_as_xyz
  1  'x, y, z'
loop_
 _atom_site_type_symbol
 _atom_site_label
 _atom_site_symmetry_multiplicity
 _atom_site_fract_x
 _atom_site_fract_y
 _atom_site_fract_z
 _atom_site_occupancy
  Y  Y0  1  0.000000  0.321577  0.413882  1
  Y  Y1  1  0.000000  0.678423  0.586118  1
  Er  Er2  1  0.000000  0.821679  0.085765  1
  Er  Er3  1  0.000000  0.178321  0.914235  1
  Er  Er4  1  0.000000  0.943752  0.372534  1
  Er  Er5  1  0.000000  0.056248  0.627466  1
  Er  Er6  1  0.000000  0.443704  0.126730  1
  Er  Er7  1  0.000000  0.556296  0.873270  1
  B  B8  1  0.500000  0.554029  0.432706  1
  B  B9  1  0.500000  0.445971  0.567294  1
  B  B10  1  0.500000  0.053619  0.066424  1
  B  B11  1  0.500000  0.946381  0.933576  1
  B  B12  1  0.500000  0.748613  0.419209  1
  B  B13  1  0.500000  0.251387  0.580791  1
  B  B14  1  0.500000  0.248127  0.079625  1
  B  B15  1  0.500000  0.751873  0.920375  1
  B  B16  1  0.500000  0.791288  0.265585  1
  B  B17  1  0.500000  0.208712  0.734415  1
  B  B18  1  0.500000  0.290774  0.233090  1
  B  B19  1  0.500000  0.709226  0.766910  1
  B  B20  1  0.500000  0.631486  0.184529  1
  B  B21  1  0.500000  0.368514  0.815471  1
  B  B22  1  0.500000  0.130782  0.314448  1
  B  B23  1  0.500000  0.869218  0.685552  1
  B  B24  1  0.500000  0.982299  0.212562  1
  B  B25  1  0.500000  0.017701  0.787438  1
  B  B26  1  0.500000  0.482890  0.286288  1
  B  B27  1  0.500000  0.517110  0.713712  1
  B  B28  1  0.500000  0.607317  0.029666  1
  B  B29  1  0.500000  0.392683  0.970334  1
  B  B30  1  0.500000  0.105704  0.470702  1
  B  B31  1  0.500000  0.894296  0.529298  1
  Os  Os32  1  0.000000  0.637540  0.320524  1
  Os  Os33  1  0.000000  0.362460  0.679476  1
  Os  Os34  1  0.000000  0.137048  0.178112  1
  Os  Os35  1  0.000000  0.862952  0.821888  1
