# generated using pymatgen
data_La8Al8Pt3RhAu4
_symmetry_space_group_name_H-M   'P 1'
_cell_length_a   4.38826200
_cell_length_b   7.38439806
_cell_length_c   16.73563692
_cell_angle_alpha   89.91794961
_cell_angle_beta   90.00000000
_cell_angle_gamma   90.00000000
_symmetry_Int_Tables_number   1
_chemical_formula_structural   La8Al8Pt3RhAu4
_chemical_formula_sum   'La8 Al8 Pt3 Rh1 Au4'
_cell_volume   542.31229271
_cell_formula_units_Z   1
loop_
 _symmetry_equiv_pos_site_id
 _symmetry_equiv_pos_as_xyz
  1  'x, y, z'
loop_
 _atom_site_type_symbol
 _atom_site_label
 _atom_site_symmetry_multiplicity
 _atom_site_fract_x
 _atom_site_fract_y
 _atom_site_fract_z
 _atom_site_occupancy
  La  La0  1  0.250000  0.516184  0.778760  1
  La  La1  1  0.750000  0.484286  0.221808  1
  La  La2  1  0.750000  0.984613  0.278931  1
  La  La3  1  0.250000  0.022904  0.715918  1
  La  La4  1  0.250000  0.643212  0.555371  1
  La  La5  1  0.750000  0.354797  0.447186  1
  La  La6  1  0.750000  0.859632  0.054573  1
  La  La7  1  0.250000  0.139914  0.944416  1
  Al  Al8  1  0.250000  0.663996  0.357306  1
  Al  Al9  1  0.750000  0.337511  0.642354  1
  Al  Al10  1  0.750000  0.837690  0.856024  1
  Al  Al11  1  0.250000  0.164464  0.142877  1
  Al  Al12  1  0.250000  0.506762  0.059795  1
  Al  Al13  1  0.750000  0.492429  0.940588  1
  Al  Al14  1  0.750000  0.993760  0.558114  1
  Al  Al15  1  0.250000  0.007206  0.442339  1
  Pt  Pt16  1  0.250000  0.705703  0.930101  1
  Pt  Pt17  1  0.750000  0.293383  0.070314  1
  Pt  Pt18  1  0.750000  0.790018  0.429190  1
  Rh  Rh19  1  0.250000  0.202207  0.573085  1
  Au  Au20  1  0.250000  0.772515  0.182626  1
  Au  Au21  1  0.750000  0.226925  0.817756  1
  Au  Au22  1  0.750000  0.728369  0.682880  1
  Au  Au23  1  0.250000  0.271520  0.317689  1
