# generated using pymatgen
data_Rb3ErBr6
_symmetry_space_group_name_H-M   'P 1'
_cell_length_a   8.30719955
_cell_length_b   8.30719941
_cell_length_c   8.30719937
_cell_angle_alpha   62.35690532
_cell_angle_beta   62.35690823
_cell_angle_gamma   62.35690277
_symmetry_Int_Tables_number   1
_chemical_formula_structural   Rb3ErBr6
_chemical_formula_sum   'Rb3 Er1 Br6'
_cell_volume   426.68185972
_cell_formula_units_Z   1
loop_
 _symmetry_equiv_pos_site_id
 _symmetry_equiv_pos_as_xyz
  1  'x, y, z'
loop_
 _atom_site_type_symbol
 _atom_site_label
 _atom_site_symmetry_multiplicity
 _atom_site_fract_x
 _atom_site_fract_y
 _atom_site_fract_z
 _atom_site_occupancy
  Rb  Rb0  1  0.227178  0.227178  0.227178  1
  Rb  Rb1  1  0.500000  0.500000  0.500000  1
  Rb  Rb2  1  0.772822  0.772822  0.772822  1
  Er  Er3  1  0.000000  0.000000  0.000000  1
  Br  Br4  1  0.798190  0.321018  0.124336  1
  Br  Br5  1  0.678982  0.875663  0.201811  1
  Br  Br6  1  0.124336  0.798189  0.321018  1
  Br  Br7  1  0.875664  0.201811  0.678982  1
  Br  Br8  1  0.321018  0.124337  0.798189  1
  Br  Br9  1  0.201810  0.678982  0.875664  1
