# generated using pymatgen
data_Yb3(WN3)2
_symmetry_space_group_name_H-M   'P 1'
_cell_length_a   3.90062491
_cell_length_b   3.90062507
_cell_length_c   10.06563561
_cell_angle_alpha   100.69796718
_cell_angle_beta   100.69796675
_cell_angle_gamma   90.08426854
_symmetry_Int_Tables_number   1
_chemical_formula_structural   Yb3(WN3)2
_chemical_formula_sum   'Yb3 W2 N6'
_cell_volume   147.76764576
_cell_formula_units_Z   1
loop_
 _symmetry_equiv_pos_site_id
 _symmetry_equiv_pos_as_xyz
  1  'x, y, z'
loop_
 _atom_site_type_symbol
 _atom_site_label
 _atom_site_symmetry_multiplicity
 _atom_site_fract_x
 _atom_site_fract_y
 _atom_site_fract_z
 _atom_site_occupancy
  Yb  Yb0  1  0.000000  0.000000  0.000000  1
  Yb  Yb1  1  0.185949  0.185949  0.360590  1
  Yb  Yb2  1  0.814052  0.814052  0.639410  1
  W  W3  1  0.610525  0.610525  0.206507  1
  W  W4  1  0.389476  0.389476  0.793493  1
  N  N5  1  0.572961  0.080693  0.165474  1
  N  N6  1  0.080693  0.572961  0.165474  1
  N  N7  1  0.695472  0.695472  0.394119  1
  N  N8  1  0.304528  0.304528  0.605882  1
  N  N9  1  0.919307  0.427040  0.834527  1
  N  N10  1  0.427040  0.919307  0.834527  1
