# generated using pymatgen
data_Tb7Y9Cd4OsPd3
_symmetry_space_group_name_H-M   'P 1'
_cell_length_a   9.75716526
_cell_length_b   9.75498872
_cell_length_c   9.76274758
_cell_angle_alpha   59.43275656
_cell_angle_beta   59.48166716
_cell_angle_gamma   59.50255442
_symmetry_Int_Tables_number   1
_chemical_formula_structural   Tb7Y9Cd4OsPd3
_chemical_formula_sum   'Tb7 Y9 Cd4 Os1 Pd3'
_cell_volume   649.17665392
_cell_formula_units_Z   1
loop_
 _symmetry_equiv_pos_site_id
 _symmetry_equiv_pos_as_xyz
  1  'x, y, z'
loop_
 _atom_site_type_symbol
 _atom_site_label
 _atom_site_symmetry_multiplicity
 _atom_site_fract_x
 _atom_site_fract_y
 _atom_site_fract_z
 _atom_site_occupancy
  Tb  Tb0  1  0.353220  0.353242  0.353461  1
  Tb  Tb1  1  0.350308  0.350048  0.945281  1
  Tb  Tb2  1  0.350556  0.945118  0.350238  1
  Tb  Tb3  1  0.945081  0.350493  0.350446  1
  Tb  Tb4  1  0.816360  0.188513  0.188284  1
  Tb  Tb5  1  0.188367  0.810400  0.810123  1
  Tb  Tb6  1  0.188509  0.816370  0.188530  1
  Y  Y7  1  0.810048  0.188451  0.810085  1
  Y  Y8  1  0.188701  0.188959  0.815428  1
  Y  Y9  1  0.809816  0.810121  0.188456  1
  Y  Y10  1  0.934661  0.565994  0.566005  1
  Y  Y11  1  0.558768  0.937069  0.937062  1
  Y  Y12  1  0.565891  0.934846  0.565937  1
  Y  Y13  1  0.937058  0.558773  0.937134  1
  Y  Y14  1  0.565839  0.565863  0.934941  1
  Y  Y15  1  0.937125  0.937191  0.558593  1
  Cd  Cd16  1  0.580828  0.580376  0.580319  1
  Cd  Cd17  1  0.581364  0.581426  0.253723  1
  Cd  Cd18  1  0.581133  0.253686  0.581478  1
  Cd  Cd19  1  0.253754  0.581012  0.581284  1
  Os  Os20  1  0.143578  0.143586  0.145075  1
  Pd  Pd21  1  0.145173  0.144361  0.568535  1
  Pd  Pd22  1  0.145273  0.568941  0.144448  1
  Pd  Pd23  1  0.568587  0.145160  0.145129  1
