# generated using pymatgen
data_TbTh2In3Ir2Rh
_symmetry_space_group_name_H-M   'P 1'
_cell_length_a   7.68069500
_cell_length_b   7.76541402
_cell_length_c   3.92224200
_cell_angle_alpha   90.00000000
_cell_angle_beta   90.00000000
_cell_angle_gamma   119.63977132
_symmetry_Int_Tables_number   1
_chemical_formula_structural   TbTh2In3Ir2Rh
_chemical_formula_sum   'Tb1 Th2 In3 Ir2 Rh1'
_cell_volume   203.32706063
_cell_formula_units_Z   1
loop_
 _symmetry_equiv_pos_site_id
 _symmetry_equiv_pos_as_xyz
  1  'x, y, z'
loop_
 _atom_site_type_symbol
 _atom_site_label
 _atom_site_symmetry_multiplicity
 _atom_site_fract_x
 _atom_site_fract_y
 _atom_site_fract_z
 _atom_site_occupancy
  Tb  Tb0  1  0.590806  0.000000  0.500000  1
  Th  Th1  1  0.998587  0.585482  0.500000  1
  Th  Th2  1  0.413105  0.414518  0.500000  1
  In  In3  1  0.747628  0.760059  0.000000  1
  In  In4  1  0.987568  0.239941  0.000000  1
  In  In5  1  0.264843  0.000000  0.000000  1
  Ir  Ir6  1  0.317889  0.648123  0.000000  1
  Ir  Ir7  1  0.669767  0.351877  0.000000  1
  Rh  Rh8  1  0.009808  0.000000  0.500000  1
