# generated using pymatgen
data_Ti4Nb(Re3Tc)6
_symmetry_space_group_name_H-M   'P 1'
_cell_length_a   8.37495771
_cell_length_b   8.37495714
_cell_length_c   8.35609745
_cell_angle_alpha   109.45861130
_cell_angle_beta   109.45860662
_cell_angle_gamma   109.58765958
_symmetry_Int_Tables_number   1
_chemical_formula_structural   Ti4Nb(Re3Tc)6
_chemical_formula_sum   'Ti4 Nb1 Re18 Tc6'
_cell_volume   450.66767667
_cell_formula_units_Z   1
loop_
 _symmetry_equiv_pos_site_id
 _symmetry_equiv_pos_as_xyz
  1  'x, y, z'
loop_
 _atom_site_type_symbol
 _atom_site_label
 _atom_site_symmetry_multiplicity
 _atom_site_fract_x
 _atom_site_fract_y
 _atom_site_fract_z
 _atom_site_occupancy
  Ti  Ti0  1  0.629156  0.999790  0.000000  1
  Ti  Ti1  1  0.999790  0.629156  0.000000  1
  Ti  Ti2  1  0.000043  0.000043  0.630484  1
  Ti  Ti3  1  0.369560  0.369560  0.369516  1
  Nb  Nb4  1  0.999052  0.999052  0.000000  1
  Re  Re5  1  0.319697  0.319697  0.721009  1
  Re  Re6  1  0.000860  0.681526  0.399424  1
  Re  Re7  1  0.681526  0.000860  0.399424  1
  Re  Re8  1  0.598687  0.598687  0.278991  1
  Re  Re9  1  0.282102  0.601436  0.600576  1
  Re  Re10  1  0.601436  0.282102  0.600576  1
  Re  Re11  1  0.375668  0.193895  0.000000  1
  Re  Re12  1  0.180281  0.806292  0.805228  1
  Re  Re13  1  0.375052  0.001063  0.194772  1
  Re  Re14  1  0.193895  0.375668  0.000000  1
  Re  Re15  1  0.001063  0.375052  0.194772  1
  Re  Re16  1  0.806292  0.180281  0.805228  1
  Re  Re17  1  0.807043  0.807043  0.182152  1
  Re  Re18  1  0.001390  0.193377  0.378040  1
  Re  Re19  1  0.193377  0.001390  0.378040  1
  Re  Re20  1  0.624890  0.624890  0.817848  1
  Re  Re21  1  0.815337  0.623351  0.621960  1
  Re  Re22  1  0.623351  0.815337  0.621960  1
  Tc  Tc23  1  0.399394  0.683342  0.000000  1
  Tc  Tc24  1  0.717790  0.316758  0.315690  1
  Tc  Tc25  1  0.402100  0.001068  0.684310  1
  Tc  Tc26  1  0.683342  0.399394  0.000000  1
  Tc  Tc27  1  0.001068  0.402100  0.684310  1
  Tc  Tc28  1  0.316758  0.717790  0.315690  1
