# generated using pymatgen
data_Cs6Na4YNbP6
_symmetry_space_group_name_H-M   'P 1'
_cell_length_a   10.98249534
_cell_length_b   10.98249547
_cell_length_c   16.54293500
_cell_angle_alpha   90.00000000
_cell_angle_beta   90.00000000
_cell_angle_gamma   143.00947011
_symmetry_Int_Tables_number   1
_chemical_formula_structural   Cs6Na4YNbP6
_chemical_formula_sum   'Cs12 Na8 Y2 Nb2 P12'
_cell_volume   1200.55586607
_cell_formula_units_Z   2
loop_
 _symmetry_equiv_pos_site_id
 _symmetry_equiv_pos_as_xyz
  1  'x, y, z'
loop_
 _atom_site_type_symbol
 _atom_site_label
 _atom_site_symmetry_multiplicity
 _atom_site_fract_x
 _atom_site_fract_y
 _atom_site_fract_z
 _atom_site_occupancy
  Cs  Cs0  1  0.948142  0.609367  0.824666  1
  Cs  Cs1  1  0.551858  0.890633  0.324666  1
  Cs  Cs2  1  0.390633  0.051858  0.175334  1
  Cs  Cs3  1  0.050370  0.392273  0.174176  1
  Cs  Cs4  1  0.892273  0.550370  0.325824  1
  Cs  Cs5  1  0.449630  0.107727  0.674176  1
  Cs  Cs6  1  0.607727  0.949630  0.825824  1
  Cs  Cs7  1  0.280060  0.282685  0.317203  1
  Cs  Cs8  1  0.782685  0.780060  0.182797  1
  Cs  Cs9  1  0.219940  0.217315  0.817203  1
  Cs  Cs10  1  0.717315  0.719940  0.682797  1
  Cs  Cs11  1  0.109367  0.448142  0.675334  1
  Na  Na12  1  0.920249  0.079751  0.000000  1
  Na  Na13  1  0.579751  0.420249  0.500000  1
  Na  Na14  1  0.080418  0.919582  0.000000  1
  Na  Na15  1  0.419582  0.580418  0.500000  1
  Na  Na16  1  0.753753  0.246247  0.000000  1
  Na  Na17  1  0.746247  0.253753  0.500000  1
  Na  Na18  1  0.245208  0.754792  0.000000  1
  Na  Na19  1  0.254792  0.745208  0.500000  1
  Y  Y20  1  0.587574  0.412426  0.000000  1
  Y  Y21  1  0.912426  0.087574  0.500000  1
  Nb  Nb22  1  0.415243  0.584757  0.000000  1
  Nb  Nb23  1  0.084757  0.915243  0.500000  1
  P  P24  1  0.891709  0.571000  0.094703  1
  P  P25  1  0.429000  0.108291  0.905297  1
  P  P26  1  0.608291  0.929000  0.594703  1
  P  P27  1  0.947058  0.644768  0.584322  1
  P  P28  1  0.144768  0.447058  0.915678  1
  P  P29  1  0.552942  0.855232  0.084322  1
  P  P30  1  0.355232  0.052942  0.415678  1
  P  P31  1  0.205316  0.185506  0.581648  1
  P  P32  1  0.685506  0.705316  0.918352  1
  P  P33  1  0.294684  0.314494  0.081648  1
  P  P34  1  0.071000  0.391709  0.405297  1
  P  P35  1  0.814494  0.794684  0.418352  1
