# generated using pymatgen
data_TmCrFe2P3Ir2
_symmetry_space_group_name_H-M   'P 1'
_cell_length_a   3.75293300
_cell_length_b   10.49709600
_cell_length_c   12.35846700
_cell_angle_alpha   90.00000000
_cell_angle_beta   90.00000000
_cell_angle_gamma   90.00000000
_symmetry_Int_Tables_number   1
_chemical_formula_structural   TmCrFe2P3Ir2
_chemical_formula_sum   'Tm4 Cr4 Fe8 P12 Ir8'
_cell_volume   486.86054669
_cell_formula_units_Z   4
loop_
 _symmetry_equiv_pos_site_id
 _symmetry_equiv_pos_as_xyz
  1  'x, y, z'
loop_
 _atom_site_type_symbol
 _atom_site_label
 _atom_site_symmetry_multiplicity
 _atom_site_fract_x
 _atom_site_fract_y
 _atom_site_fract_z
 _atom_site_occupancy
  Tm  Tm0  1  0.250000  0.581610  0.713878  1
  Tm  Tm1  1  0.250000  0.918390  0.213878  1
  Tm  Tm2  1  0.750000  0.418390  0.286122  1
  Tm  Tm3  1  0.750000  0.081610  0.786122  1
  Cr  Cr4  1  0.250000  0.702305  0.990402  1
  Cr  Cr5  1  0.250000  0.797695  0.490402  1
  Cr  Cr6  1  0.750000  0.297695  0.009598  1
  Cr  Cr7  1  0.750000  0.202305  0.509598  1
  Fe  Fe8  1  0.250000  0.879529  0.694742  1
  Fe  Fe9  1  0.250000  0.620471  0.194742  1
  Fe  Fe10  1  0.750000  0.120471  0.305258  1
  Fe  Fe11  1  0.750000  0.379529  0.805258  1
  Fe  Fe12  1  0.250000  0.462716  0.936588  1
  Fe  Fe13  1  0.250000  0.037284  0.436588  1
  Fe  Fe14  1  0.750000  0.537284  0.063412  1
  Fe  Fe15  1  0.750000  0.962716  0.563412  1
  P  P16  1  0.250000  0.433071  0.110604  1
  P  P17  1  0.250000  0.066929  0.610604  1
  P  P18  1  0.750000  0.566929  0.889396  1
  P  P19  1  0.750000  0.933071  0.389396  1
  P  P20  1  0.250000  0.275376  0.863848  1
  P  P21  1  0.250000  0.224624  0.363848  1
  P  P22  1  0.750000  0.724624  0.136152  1
  P  P23  1  0.750000  0.775376  0.636152  1
  P  P24  1  0.250000  0.597540  0.378451  1
  P  P25  1  0.250000  0.902460  0.878451  1
  P  P26  1  0.750000  0.402460  0.621549  1
  P  P27  1  0.750000  0.097540  0.121549  1
  Ir  Ir28  1  0.250000  0.403434  0.474563  1
  Ir  Ir29  1  0.250000  0.096566  0.974563  1
  Ir  Ir30  1  0.750000  0.596566  0.525437  1
  Ir  Ir31  1  0.750000  0.903434  0.025437  1
  Ir  Ir32  1  0.250000  0.223958  0.172999  1
  Ir  Ir33  1  0.250000  0.276042  0.672999  1
  Ir  Ir34  1  0.750000  0.776042  0.827001  1
  Ir  Ir35  1  0.750000  0.723958  0.327001  1
