# generated using pymatgen
data_Tb7Dy(AlRu)2
_symmetry_space_group_name_H-M   'P 1'
_cell_length_a   9.55128335
_cell_length_b   9.55277422
_cell_length_c   9.57407000
_cell_angle_alpha   59.92623559
_cell_angle_beta   59.92105665
_cell_angle_gamma   59.87040583
_symmetry_Int_Tables_number   1
_chemical_formula_structural   Tb7Dy(AlRu)2
_chemical_formula_sum   'Tb14 Dy2 Al4 Ru4'
_cell_volume   616.37424916
_cell_formula_units_Z   2
loop_
 _symmetry_equiv_pos_site_id
 _symmetry_equiv_pos_as_xyz
  1  'x, y, z'
loop_
 _atom_site_type_symbol
 _atom_site_label
 _atom_site_symmetry_multiplicity
 _atom_site_fract_x
 _atom_site_fract_y
 _atom_site_fract_z
 _atom_site_occupancy
  Tb  Tb0  1  0.943762  0.555580  0.945223  1
  Tb  Tb1  1  0.310267  0.689049  0.310596  1
  Tb  Tb2  1  0.943762  0.555580  0.555435  1
  Tb  Tb3  1  0.310881  0.310988  0.689065  1
  Tb  Tb4  1  0.100775  0.100709  0.100783  1
  Tb  Tb5  1  0.555140  0.555372  0.944744  1
  Tb  Tb6  1  0.100775  0.100709  0.697733  1
  Tb  Tb7  1  0.688954  0.310447  0.689945  1
  Tb  Tb8  1  0.690252  0.690127  0.309811  1
  Tb  Tb9  1  0.688954  0.310447  0.310654  1
  Tb  Tb10  1  0.310267  0.689049  0.690089  1
  Tb  Tb11  1  0.555612  0.943592  0.555712  1
  Tb  Tb12  1  0.698274  0.101041  0.100342  1
  Tb  Tb13  1  0.555612  0.943592  0.945085  1
  Dy  Dy14  1  0.101037  0.698362  0.100300  1
  Dy  Dy15  1  0.944535  0.944454  0.555506  1
  Al  Al16  1  0.326152  0.326506  0.326207  1
  Al  Al17  1  0.020507  0.326476  0.326508  1
  Al  Al18  1  0.326196  0.020571  0.326615  1
  Al  Al19  1  0.326152  0.326506  0.021133  1
  Ru  Ru20  1  0.890006  0.889289  0.888352  1
  Ru  Ru21  1  0.890006  0.889289  0.332352  1
  Ru  Ru22  1  0.331557  0.890306  0.889068  1
  Ru  Ru23  1  0.890564  0.331956  0.888739  1
