# generated using pymatgen
data_Er3Tm(Ni5Sn)4
_symmetry_space_group_name_H-M   'P 1'
_cell_length_a   4.85164700
_cell_length_b   8.02734800
_cell_length_c   10.22563100
_cell_angle_alpha   90.00356620
_cell_angle_beta   90.00000000
_cell_angle_gamma   90.00000000
_symmetry_Int_Tables_number   1
_chemical_formula_structural   Er3Tm(Ni5Sn)4
_chemical_formula_sum   'Er3 Tm1 Ni20 Sn4'
_cell_volume   398.24598111
_cell_formula_units_Z   1
loop_
 _symmetry_equiv_pos_site_id
 _symmetry_equiv_pos_as_xyz
  1  'x, y, z'
loop_
 _atom_site_type_symbol
 _atom_site_label
 _atom_site_symmetry_multiplicity
 _atom_site_fract_x
 _atom_site_fract_y
 _atom_site_fract_z
 _atom_site_occupancy
  Er  Er0  1  0.750000  0.246975  0.560258  1
  Er  Er1  1  0.250000  0.253066  0.060274  1
  Er  Er2  1  0.750000  0.746938  0.939762  1
  Tm  Tm3  1  0.250000  0.753212  0.439689  1
  Ni  Ni4  1  0.750000  0.913828  0.482640  1
  Ni  Ni5  1  0.250000  0.585969  0.982687  1
  Ni  Ni6  1  0.750000  0.414075  0.017337  1
  Ni  Ni7  1  0.250000  0.085718  0.517256  1
  Ni  Ni8  1  0.250000  0.188656  0.742569  1
  Ni  Ni9  1  0.750000  0.311298  0.242576  1
  Ni  Ni10  1  0.250000  0.688667  0.757390  1
  Ni  Ni11  1  0.750000  0.811326  0.257524  1
  Ni  Ni12  1  0.750000  0.547629  0.401302  1
  Ni  Ni13  1  0.250000  0.952560  0.901252  1
  Ni  Ni14  1  0.750000  0.047433  0.098746  1
  Ni  Ni15  1  0.250000  0.452740  0.598641  1
  Ni  Ni16  1  0.498927  0.066029  0.309487  1
  Ni  Ni17  1  0.501021  0.433904  0.809440  1
  Ni  Ni18  1  0.001100  0.566127  0.190594  1
  Ni  Ni19  1  0.999033  0.933834  0.690514  1
  Ni  Ni20  1  0.500967  0.933834  0.690514  1
  Ni  Ni21  1  0.498900  0.566127  0.190594  1
  Ni  Ni22  1  0.998979  0.433904  0.809440  1
  Ni  Ni23  1  0.001073  0.066029  0.309487  1
  Sn  Sn24  1  0.750000  0.639989  0.639616  1
  Sn  Sn25  1  0.250000  0.860032  0.139849  1
  Sn  Sn26  1  0.750000  0.139883  0.860277  1
  Sn  Sn27  1  0.250000  0.360218  0.360283  1
