# generated using pymatgen
data_Ce5Pr3(Si3Ir)4
_symmetry_space_group_name_H-M   'P 1'
_cell_length_a   8.21950300
_cell_length_b   8.26170257
_cell_length_c   8.36820100
_cell_angle_alpha   90.00000000
_cell_angle_beta   90.00000000
_cell_angle_gamma   119.83118889
_symmetry_Int_Tables_number   1
_chemical_formula_structural   Ce5Pr3(Si3Ir)4
_chemical_formula_sum   'Ce5 Pr3 Si12 Ir4'
_cell_volume   492.96274174
_cell_formula_units_Z   1
loop_
 _symmetry_equiv_pos_site_id
 _symmetry_equiv_pos_as_xyz
  1  'x, y, z'
loop_
 _atom_site_type_symbol
 _atom_site_label
 _atom_site_symmetry_multiplicity
 _atom_site_fract_x
 _atom_site_fract_y
 _atom_site_fract_z
 _atom_site_occupancy
  Ce  Ce0  1  0.500160  0.499819  0.750000  1
  Ce  Ce1  1  0.499606  0.500542  0.250000  1
  Ce  Ce2  1  0.999660  0.499819  0.750000  1
  Ce  Ce3  1  0.000934  0.500542  0.250000  1
  Ce  Ce4  1  0.499949  0.999897  0.750000  1
  Pr  Pr5  1  0.500653  0.001307  0.250000  1
  Pr  Pr6  1  0.999861  0.999723  0.750000  1
  Pr  Pr7  1  0.000092  0.000184  0.250000  1
  Si  Si8  1  0.833013  0.166889  0.999106  1
  Si  Si9  1  0.167047  0.833068  0.997454  1
  Si  Si10  1  0.333878  0.166889  0.999106  1
  Si  Si11  1  0.167047  0.833068  0.502546  1
  Si  Si12  1  0.666020  0.833068  0.997454  1
  Si  Si13  1  0.833013  0.166889  0.500894  1
  Si  Si14  1  0.834085  0.668170  0.001747  1
  Si  Si15  1  0.666020  0.833068  0.502546  1
  Si  Si16  1  0.165724  0.331448  0.998784  1
  Si  Si17  1  0.333878  0.166889  0.500894  1
  Si  Si18  1  0.165724  0.331448  0.501216  1
  Si  Si19  1  0.834085  0.668170  0.498253  1
  Ir  Ir20  1  0.668520  0.337039  0.993018  1
  Ir  Ir21  1  0.331256  0.662512  0.997718  1
  Ir  Ir22  1  0.331256  0.662512  0.502282  1
  Ir  Ir23  1  0.668520  0.337039  0.506982  1
