# generated using pymatgen
data_Np4O7F
_symmetry_space_group_name_H-M   'P 1'
_cell_length_a   5.45552511
_cell_length_b   5.45739912
_cell_length_c   5.45324601
_cell_angle_alpha   89.99364611
_cell_angle_beta   89.99750057
_cell_angle_gamma   90.02329012
_symmetry_Int_Tables_number   1
_chemical_formula_structural   Np4O7F
_chemical_formula_sum   'Np4 O7 F1'
_cell_volume   162.35935870
_cell_formula_units_Z   1
loop_
 _symmetry_equiv_pos_site_id
 _symmetry_equiv_pos_as_xyz
  1  'x, y, z'
loop_
 _atom_site_type_symbol
 _atom_site_label
 _atom_site_symmetry_multiplicity
 _atom_site_fract_x
 _atom_site_fract_y
 _atom_site_fract_z
 _atom_site_occupancy
  Np  Np0  1  0.992947  0.256989  0.257006  1
  Np  Np1  1  0.506996  0.742955  0.256951  1
  Np  Np2  1  0.506918  0.256956  0.743046  1
  Np  Np3  1  0.993060  0.743105  0.743023  1
  O  O4  1  0.250150  0.500115  0.001140  1
  O  O5  1  0.750162  0.000100  0.498866  1
  O  O6  1  0.749862  0.500098  0.498955  1
  O  O7  1  0.250162  0.499892  0.501097  1
  O  O8  1  0.249842  0.999895  0.501118  1
  O  O9  1  0.749858  0.499896  0.998887  1
  O  O10  1  0.750205  0.999896  0.998909  1
  F  F11  1  0.249836  0.000094  0.001003  1
