# generated using pymatgen
data_Y6Si4B2Ir11Rh
_symmetry_space_group_name_H-M   'P 1'
_cell_length_a   5.53901196
_cell_length_b   5.53901093
_cell_length_c   14.75013463
_cell_angle_alpha   89.94062626
_cell_angle_beta   90.05937240
_cell_angle_gamma   119.92410388
_symmetry_Int_Tables_number   1
_chemical_formula_structural   Y6Si4B2Ir11Rh
_chemical_formula_sum   'Y6 Si4 B2 Ir11 Rh1'
_cell_volume   392.21343125
_cell_formula_units_Z   1
loop_
 _symmetry_equiv_pos_site_id
 _symmetry_equiv_pos_as_xyz
  1  'x, y, z'
loop_
 _atom_site_type_symbol
 _atom_site_label
 _atom_site_symmetry_multiplicity
 _atom_site_fract_x
 _atom_site_fract_y
 _atom_site_fract_z
 _atom_site_occupancy
  Y  Y0  1  0.666746  0.333254  0.969696  1
  Y  Y1  1  0.666730  0.333270  0.530691  1
  Y  Y2  1  0.334052  0.665948  0.045000  1
  Y  Y3  1  0.666779  0.333221  0.749314  1
  Y  Y4  1  0.333287  0.666713  0.454794  1
  Y  Y5  1  0.333668  0.666332  0.249868  1
  Si  Si6  1  0.999832  0.000168  0.489138  1
  Si  Si7  1  0.000089  0.999911  0.750259  1
  Si  Si8  1  0.333290  0.666710  0.750577  1
  Si  Si9  1  0.997741  0.002259  0.010899  1
  B  B10  1  0.666115  0.333885  0.249990  1
  B  B11  1  0.999858  0.000142  0.249934  1
  Ir  Ir12  1  0.167291  0.333127  0.873855  1
  Ir  Ir13  1  0.166864  0.333950  0.625982  1
  Ir  Ir14  1  0.666873  0.832709  0.873855  1
  Ir  Ir15  1  0.333113  0.166311  0.352240  1
  Ir  Ir16  1  0.833689  0.666887  0.352240  1
  Ir  Ir17  1  0.833412  0.166588  0.352193  1
  Ir  Ir18  1  0.833449  0.166551  0.147644  1
  Ir  Ir19  1  0.333137  0.165874  0.147538  1
  Ir  Ir20  1  0.666050  0.833136  0.625982  1
  Ir  Ir21  1  0.166845  0.833155  0.626863  1
  Ir  Ir22  1  0.834126  0.666863  0.147538  1
  Rh  Rh23  1  0.166960  0.833040  0.873911  1
