# generated using pymatgen
data_YbCuRe(Sb6Os)2
_symmetry_space_group_name_H-M   'P 1'
_cell_length_a   8.21994024
_cell_length_b   8.18402890
_cell_length_c   8.13593359
_cell_angle_alpha   109.28588415
_cell_angle_beta   109.53024578
_cell_angle_gamma   109.66208487
_symmetry_Int_Tables_number   1
_chemical_formula_structural   YbCuRe(Sb6Os)2
_chemical_formula_sum   'Yb1 Cu1 Re1 Sb12 Os2'
_cell_volume   420.98947089
_cell_formula_units_Z   1
loop_
 _symmetry_equiv_pos_site_id
 _symmetry_equiv_pos_as_xyz
  1  'x, y, z'
loop_
 _atom_site_type_symbol
 _atom_site_label
 _atom_site_symmetry_multiplicity
 _atom_site_fract_x
 _atom_site_fract_y
 _atom_site_fract_z
 _atom_site_occupancy
  Yb  Yb0  1  0.000000  0.000000  0.000000  1
  Cu  Cu1  1  0.500000  0.000000  0.000000  1
  Re  Re2  1  0.000000  0.000000  0.500000  1
  Sb  Sb3  1  0.840580  0.662212  0.505734  1
  Sb  Sb4  1  0.159420  0.337788  0.494266  1
  Sb  Sb5  1  0.152014  0.655369  0.811817  1
  Sb  Sb6  1  0.847986  0.344631  0.188183  1
  Sb  Sb7  1  0.663359  0.504123  0.843401  1
  Sb  Sb8  1  0.336641  0.495877  0.156599  1
  Sb  Sb9  1  0.660081  0.811774  0.156478  1
  Sb  Sb10  1  0.339919  0.188226  0.843522  1
  Sb  Sb11  1  0.503038  0.842338  0.654784  1
  Sb  Sb12  1  0.496962  0.157662  0.345216  1
  Sb  Sb13  1  0.178680  0.842437  0.337210  1
  Sb  Sb14  1  0.821320  0.157563  0.662790  1
  Os  Os15  1  0.500000  0.500000  0.500000  1
  Os  Os16  1  0.000000  0.500000  0.000000  1
