# generated using pymatgen
data_Na2Mn(BrO3)6
_symmetry_space_group_name_H-M   'P 1'
_cell_length_a   5.53111100
_cell_length_b   9.27224120
_cell_length_c   9.27223200
_cell_angle_alpha   59.99993292
_cell_angle_beta   90.00006215
_cell_angle_gamma   89.99984570
_symmetry_Int_Tables_number   1
_chemical_formula_structural   Na2Mn(BrO3)6
_chemical_formula_sum   'Na2 Mn1 Br6 O18'
_cell_volume   411.82406604
_cell_formula_units_Z   1
loop_
 _symmetry_equiv_pos_site_id
 _symmetry_equiv_pos_as_xyz
  1  'x, y, z'
loop_
 _atom_site_type_symbol
 _atom_site_label
 _atom_site_symmetry_multiplicity
 _atom_site_fract_x
 _atom_site_fract_y
 _atom_site_fract_z
 _atom_site_occupancy
  Na  Na0  1  0.731038  0.333331  0.333332  1
  Na  Na1  1  0.217197  0.666665  0.666669  1
  Mn  Mn2  1  0.662909  0.000002  0.999997  1
  Br  Br3  1  0.810634  0.965292  0.684927  1
  Br  Br4  1  0.810629  0.349787  0.965292  1
  Br  Br5  1  0.810623  0.684922  0.349785  1
  Br  Br6  1  0.336150  0.024612  0.299706  1
  Br  Br7  1  0.336156  0.675682  0.024611  1
  Br  Br8  1  0.336150  0.299707  0.675678  1
  O  O9  1  0.472110  0.223021  0.569809  1
  O  O10  1  0.472100  0.207172  0.223023  1
  O  O11  1  0.472103  0.569805  0.207171  1
  O  O12  1  0.971080  0.777231  0.431436  1
  O  O13  1  0.971083  0.791330  0.777245  1
  O  O14  1  0.971084  0.431423  0.791333  1
  O  O15  1  0.872841  0.056692  0.813062  1
  O  O16  1  0.872826  0.130248  0.056694  1
  O  O17  1  0.872827  0.813063  0.130247  1
  O  O18  1  0.459372  0.922592  0.195095  1
  O  O19  1  0.459378  0.882312  0.922583  1
  O  O20  1  0.459373  0.195106  0.882303  1
  O  O21  1  0.962681  0.098968  0.516398  1
  O  O22  1  0.962682  0.384649  0.098961  1
  O  O23  1  0.962675  0.516393  0.384641  1
  O  O24  1  0.447628  0.903058  0.489084  1
  O  O25  1  0.447636  0.607862  0.903058  1
  O  O26  1  0.447632  0.489080  0.607863  1
