# generated using pymatgen
data_TbHo6Sn23Ir6
_symmetry_space_group_name_H-M   'P 1'
_cell_length_a   9.85077400
_cell_length_b   9.85077304
_cell_length_c   10.11354800
_cell_angle_alpha   90.00000000
_cell_angle_beta   90.00000000
_cell_angle_gamma   119.99999651
_symmetry_Int_Tables_number   1
_chemical_formula_structural   TbHo6Sn23Ir6
_chemical_formula_sum   'Tb1 Ho6 Sn23 Ir6'
_cell_volume   849.91375040
_cell_formula_units_Z   1
loop_
 _symmetry_equiv_pos_site_id
 _symmetry_equiv_pos_as_xyz
  1  'x, y, z'
loop_
 _atom_site_type_symbol
 _atom_site_label
 _atom_site_symmetry_multiplicity
 _atom_site_fract_x
 _atom_site_fract_y
 _atom_site_fract_z
 _atom_site_occupancy
  Tb  Tb0  1  0.000000  0.000000  0.000000  1
  Ho  Ho1  1  0.519879  0.480121  0.693018  1
  Ho  Ho2  1  0.519879  0.039757  0.693018  1
  Ho  Ho3  1  0.960243  0.480121  0.693018  1
  Ho  Ho4  1  0.039757  0.519879  0.306982  1
  Ho  Ho5  1  0.480121  0.960243  0.306982  1
  Ho  Ho6  1  0.480121  0.519879  0.306982  1
  Sn  Sn7  1  0.666667  0.333333  0.174358  1
  Sn  Sn8  1  0.666667  0.333333  0.876944  1
  Sn  Sn9  1  0.333333  0.666667  0.123056  1
  Sn  Sn10  1  0.352579  0.352579  0.000000  1
  Sn  Sn11  1  0.000000  0.647421  0.000000  1
  Sn  Sn12  1  0.647421  0.000000  0.000000  1
  Sn  Sn13  1  0.647421  0.647421  0.000000  1
  Sn  Sn14  1  0.333333  0.666667  0.825642  1
  Sn  Sn15  1  0.445136  0.222568  0.456003  1
  Sn  Sn16  1  0.222568  0.777432  0.543997  1
  Sn  Sn17  1  0.222568  0.445136  0.543997  1
  Sn  Sn18  1  0.554864  0.777432  0.543997  1
  Sn  Sn19  1  0.119377  0.880623  0.283845  1
  Sn  Sn20  1  0.777432  0.554864  0.456003  1
  Sn  Sn21  1  0.777432  0.222568  0.456003  1
  Sn  Sn22  1  0.352579  0.000000  0.000000  1
  Sn  Sn23  1  0.119377  0.238753  0.283845  1
  Sn  Sn24  1  0.761247  0.880623  0.283845  1
  Sn  Sn25  1  0.238753  0.119377  0.716155  1
  Sn  Sn26  1  0.880623  0.761247  0.716155  1
  Sn  Sn27  1  0.880623  0.119377  0.716155  1
  Sn  Sn28  1  0.000000  0.000000  0.500000  1
  Sn  Sn29  1  0.000000  0.352579  0.000000  1
  Ir  Ir30  1  0.168800  0.831200  0.801826  1
  Ir  Ir31  1  0.168800  0.337599  0.801826  1
  Ir  Ir32  1  0.662401  0.831200  0.801826  1
  Ir  Ir33  1  0.337599  0.168800  0.198174  1
  Ir  Ir34  1  0.831200  0.662401  0.198174  1
  Ir  Ir35  1  0.831200  0.168800  0.198174  1
