# generated using pymatgen
data_Pr4Al3ZnPt4
_symmetry_space_group_name_H-M   'P 1'
_cell_length_a   4.54158600
_cell_length_b   7.15304519
_cell_length_c   7.94279385
_cell_angle_alpha   89.61972624
_cell_angle_beta   90.00000000
_cell_angle_gamma   90.00000000
_symmetry_Int_Tables_number   1
_chemical_formula_structural   Pr4Al3ZnPt4
_chemical_formula_sum   'Pr4 Al3 Zn1 Pt4'
_cell_volume   258.02526737
_cell_formula_units_Z   1
loop_
 _symmetry_equiv_pos_site_id
 _symmetry_equiv_pos_as_xyz
  1  'x, y, z'
loop_
 _atom_site_type_symbol
 _atom_site_label
 _atom_site_symmetry_multiplicity
 _atom_site_fract_x
 _atom_site_fract_y
 _atom_site_fract_z
 _atom_site_occupancy
  Pr  Pr0  1  0.250000  0.528722  0.817835  1
  Pr  Pr1  1  0.250000  0.029065  0.687538  1
  Pr  Pr2  1  0.750000  0.971444  0.314244  1
  Pr  Pr3  1  0.750000  0.466520  0.180285  1
  Al  Al4  1  0.750000  0.354853  0.564847  1
  Al  Al5  1  0.250000  0.649176  0.433671  1
  Al  Al6  1  0.750000  0.851222  0.933625  1
  Zn  Zn7  1  0.250000  0.153298  0.069624  1
  Pt  Pt8  1  0.250000  0.775444  0.111821  1
  Pt  Pt9  1  0.250000  0.287309  0.396757  1
  Pt  Pt10  1  0.750000  0.716597  0.611407  1
  Pt  Pt11  1  0.750000  0.216350  0.878348  1
