# generated using pymatgen
data_Pm2SiSeO8
_symmetry_space_group_name_H-M   'P 1'
_cell_length_a   6.04448591
_cell_length_b   6.04448585
_cell_length_c   6.04448682
_cell_angle_alpha   106.11041080
_cell_angle_beta   116.42471686
_cell_angle_gamma   106.11041588
_symmetry_Int_Tables_number   1
_chemical_formula_structural   Pm2SiSeO8
_chemical_formula_sum   'Pm2 Si1 Se1 O8'
_cell_volume   168.10302737
_cell_formula_units_Z   1
loop_
 _symmetry_equiv_pos_site_id
 _symmetry_equiv_pos_as_xyz
  1  'x, y, z'
loop_
 _atom_site_type_symbol
 _atom_site_label
 _atom_site_symmetry_multiplicity
 _atom_site_fract_x
 _atom_site_fract_y
 _atom_site_fract_z
 _atom_site_occupancy
  Pm  Pm0  1  0.875000  0.250001  0.125000  1
  Pm  Pm1  1  0.125000  0.750000  0.875000  1
  Si  Si2  1  0.375000  0.250000  0.624999  1
  Se  Se3  1  0.625000  0.750000  0.374999  1
  O  O4  1  0.283639  0.573141  0.210497  1
  O  O5  1  0.637356  0.926858  0.210497  1
  O  O6  1  0.207173  0.073227  0.280401  1
  O  O7  1  0.789504  0.573142  0.362645  1
  O  O8  1  0.207173  0.426772  0.633945  1
  O  O9  1  0.789504  0.926858  0.716361  1
  O  O10  1  0.366055  0.073227  0.792827  1
  O  O11  1  0.719599  0.426772  0.792827  1
