# generated using pymatgen
data_Tb3Mn6Fe2CoP6
_symmetry_space_group_name_H-M   'P 1'
_cell_length_a   3.68371400
_cell_length_b   10.88247800
_cell_length_c   12.46970900
_cell_angle_alpha   90.00000000
_cell_angle_beta   90.00000000
_cell_angle_gamma   90.00000000
_symmetry_Int_Tables_number   1
_chemical_formula_structural   Tb3Mn6Fe2CoP6
_chemical_formula_sum   'Tb6 Mn12 Fe4 Co2 P12'
_cell_volume   499.88490335
_cell_formula_units_Z   2
loop_
 _symmetry_equiv_pos_site_id
 _symmetry_equiv_pos_as_xyz
  1  'x, y, z'
loop_
 _atom_site_type_symbol
 _atom_site_label
 _atom_site_symmetry_multiplicity
 _atom_site_fract_x
 _atom_site_fract_y
 _atom_site_fract_z
 _atom_site_occupancy
  Tb  Tb0  1  0.000000  0.500000  0.533360  1
  Tb  Tb1  1  0.500000  0.000000  0.467079  1
  Tb  Tb2  1  0.500000  0.822797  0.203417  1
  Tb  Tb3  1  0.500000  0.177203  0.203417  1
  Tb  Tb4  1  0.000000  0.674498  0.798096  1
  Tb  Tb5  1  0.000000  0.325502  0.798096  1
  Mn  Mn6  1  0.500000  0.500000  0.157471  1
  Mn  Mn7  1  0.000000  0.000000  0.836759  1
  Mn  Mn8  1  0.000000  0.169358  0.002158  1
  Mn  Mn9  1  0.000000  0.830642  0.002158  1
  Mn  Mn10  1  0.500000  0.298080  0.431667  1
  Mn  Mn11  1  0.500000  0.701920  0.431667  1
  Mn  Mn12  1  0.000000  0.202879  0.568779  1
  Mn  Mn13  1  0.000000  0.797121  0.568779  1
  Mn  Mn14  1  0.500000  0.882282  0.703636  1
  Mn  Mn15  1  0.500000  0.117718  0.703636  1
  Mn  Mn16  1  0.000000  0.617177  0.295191  1
  Mn  Mn17  1  0.000000  0.382823  0.295191  1
  Fe  Fe18  1  0.000000  0.500000  0.994020  1
  Fe  Fe19  1  0.500000  0.000000  0.006182  1
  Fe  Fe20  1  0.500000  0.328220  0.998412  1
  Fe  Fe21  1  0.500000  0.671780  0.998412  1
  Co  Co22  1  0.500000  0.500000  0.710615  1
  Co  Co23  1  0.000000  0.000000  0.292224  1
  P  P24  1  0.500000  0.500000  0.892893  1
  P  P25  1  0.000000  0.000000  0.113547  1
  P  P26  1  0.500000  0.500000  0.356574  1
  P  P27  1  0.000000  0.000000  0.642312  1
  P  P28  1  0.500000  0.317301  0.620816  1
  P  P29  1  0.500000  0.682699  0.620816  1
  P  P30  1  0.000000  0.183528  0.380363  1
  P  P31  1  0.000000  0.816472  0.380363  1
  P  P32  1  0.500000  0.846164  0.887872  1
  P  P33  1  0.500000  0.153836  0.887872  1
  P  P34  1  0.000000  0.652381  0.108074  1
  P  P35  1  0.000000  0.347619  0.108074  1
