# generated using pymatgen
data_YSi4Ir5Rh
_symmetry_space_group_name_H-M   'P 1'
_cell_length_a   7.02507070
_cell_length_b   7.03573317
_cell_length_c   3.84108800
_cell_angle_alpha   90.00000000
_cell_angle_beta   90.00000000
_cell_angle_gamma   120.05021038
_symmetry_Int_Tables_number   1
_chemical_formula_structural   YSi4Ir5Rh
_chemical_formula_sum   'Y1 Si4 Ir5 Rh1'
_cell_volume   164.33307943
_cell_formula_units_Z   1
loop_
 _symmetry_equiv_pos_site_id
 _symmetry_equiv_pos_as_xyz
  1  'x, y, z'
loop_
 _atom_site_type_symbol
 _atom_site_label
 _atom_site_symmetry_multiplicity
 _atom_site_fract_x
 _atom_site_fract_y
 _atom_site_fract_z
 _atom_site_occupancy
  Y  Y0  1  0.000353  0.000177  0.000000  1
  Si  Si1  1  0.801495  0.197714  0.500000  1
  Si  Si2  1  0.801495  0.603781  0.500000  1
  Si  Si3  1  0.394979  0.197489  0.500000  1
  Si  Si4  1  0.333908  0.666955  0.000000  1
  Ir  Ir5  1  0.533650  0.467923  0.000000  1
  Ir  Ir6  1  0.533650  0.065726  0.000000  1
  Ir  Ir7  1  0.934586  0.467293  0.000000  1
  Ir  Ir8  1  0.197280  0.802436  0.500000  1
  Ir  Ir9  1  0.197280  0.394844  0.500000  1
  Rh  Rh10  1  0.604657  0.802329  0.500000  1
