# generated using pymatgen
data_NaSmHg(P3Pd10)2
_symmetry_space_group_name_H-M   'P 1'
_cell_length_a   8.65952233
_cell_length_b   8.65952343
_cell_length_c   8.65952400
_cell_angle_alpha   60.00001310
_cell_angle_beta   60.00000892
_cell_angle_gamma   60.00000351
_symmetry_Int_Tables_number   1
_chemical_formula_structural   NaSmHg(P3Pd10)2
_chemical_formula_sum   'Na1 Sm1 Hg1 P6 Pd20'
_cell_volume   459.16315817
_cell_formula_units_Z   1
loop_
 _symmetry_equiv_pos_site_id
 _symmetry_equiv_pos_as_xyz
  1  'x, y, z'
loop_
 _atom_site_type_symbol
 _atom_site_label
 _atom_site_symmetry_multiplicity
 _atom_site_fract_x
 _atom_site_fract_y
 _atom_site_fract_z
 _atom_site_occupancy
  Na  Na0  1  0.000000  0.000000  0.000000  1
  Sm  Sm1  1  0.750000  0.750000  0.750000  1
  Hg  Hg2  1  0.250000  0.250000  0.250000  1
  P  P3  1  0.737463  0.262537  0.262537  1
  P  P4  1  0.262537  0.737463  0.737463  1
  P  P5  1  0.262537  0.737463  0.262537  1
  P  P6  1  0.737463  0.262537  0.737463  1
  P  P7  1  0.262537  0.262537  0.737463  1
  P  P8  1  0.737463  0.737463  0.262537  1
  Pd  Pd9  1  0.382347  0.382347  0.382347  1
  Pd  Pd10  1  0.612183  0.612183  0.612183  1
  Pd  Pd11  1  0.382347  0.382347  0.852960  1
  Pd  Pd12  1  0.382347  0.852960  0.382347  1
  Pd  Pd13  1  0.612183  0.612183  0.163447  1
  Pd  Pd14  1  0.612183  0.163447  0.612183  1
  Pd  Pd15  1  0.852960  0.382347  0.382347  1
  Pd  Pd16  1  0.163447  0.612183  0.612183  1
  Pd  Pd17  1  0.347177  0.997964  0.997964  1
  Pd  Pd18  1  0.656891  0.997964  0.997964  1
  Pd  Pd19  1  0.997964  0.347177  0.656891  1
  Pd  Pd20  1  0.997964  0.656891  0.347177  1
  Pd  Pd21  1  0.997964  0.347177  0.997964  1
  Pd  Pd22  1  0.656891  0.997964  0.347177  1
  Pd  Pd23  1  0.997964  0.656891  0.997964  1
  Pd  Pd24  1  0.347177  0.997964  0.656891  1
  Pd  Pd25  1  0.997964  0.997964  0.347177  1
  Pd  Pd26  1  0.997964  0.997964  0.656891  1
  Pd  Pd27  1  0.656891  0.347177  0.997964  1
  Pd  Pd28  1  0.347177  0.656891  0.997964  1
