# generated using pymatgen
data_ErLu7Re2(OsC4)2
_symmetry_space_group_name_H-M   'P 1'
_cell_length_a   4.99087600
_cell_length_b   6.44411483
_cell_length_c   9.64071754
_cell_angle_alpha   90.11289280
_cell_angle_beta   90.00000000
_cell_angle_gamma   90.00000000
_symmetry_Int_Tables_number   1
_chemical_formula_structural   ErLu7Re2(OsC4)2
_chemical_formula_sum   'Er1 Lu7 Re2 Os2 C8'
_cell_volume   310.06201565
_cell_formula_units_Z   1
loop_
 _symmetry_equiv_pos_site_id
 _symmetry_equiv_pos_as_xyz
  1  'x, y, z'
loop_
 _atom_site_type_symbol
 _atom_site_label
 _atom_site_symmetry_multiplicity
 _atom_site_fract_x
 _atom_site_fract_y
 _atom_site_fract_z
 _atom_site_occupancy
  Er  Er0  1  0.250000  0.532221  0.215287  1
  Lu  Lu1  1  0.750000  0.825877  0.055934  1
  Lu  Lu2  1  0.250000  0.673874  0.556233  1
  Lu  Lu3  1  0.750000  0.322116  0.443199  1
  Lu  Lu4  1  0.250000  0.177811  0.942673  1
  Lu  Lu5  1  0.750000  0.466441  0.783117  1
  Lu  Lu6  1  0.250000  0.033540  0.283103  1
  Lu  Lu7  1  0.750000  0.967838  0.716221  1
  Re  Re8  1  0.750000  0.782064  0.369276  1
  Re  Re9  1  0.250000  0.718594  0.868652  1
  Os  Os10  1  0.750000  0.281527  0.130519  1
  Os  Os11  1  0.250000  0.217517  0.631013  1
  C  C12  1  0.750000  0.171360  0.943629  1
  C  C13  1  0.250000  0.831146  0.056187  1
  C  C14  1  0.750000  0.671939  0.557441  1
  C  C15  1  0.250000  0.326808  0.444366  1
  C  C16  1  0.750000  0.048689  0.260103  1
  C  C17  1  0.250000  0.450962  0.760227  1
  C  C18  1  0.750000  0.548063  0.241825  1
  C  C19  1  0.250000  0.951611  0.740999  1
