# generated using pymatgen
data_TbDy5(CrC3)4
_symmetry_space_group_name_H-M   'P 1'
_cell_length_a   8.13214701
_cell_length_b   8.13206397
_cell_length_c   5.01765600
_cell_angle_alpha   90.00000000
_cell_angle_beta   90.00000000
_cell_angle_gamma   120.00543178
_symmetry_Int_Tables_number   1
_chemical_formula_structural   TbDy5(CrC3)4
_chemical_formula_sum   'Tb1 Dy5 Cr4 C12'
_cell_volume   287.35168564
_cell_formula_units_Z   1
loop_
 _symmetry_equiv_pos_site_id
 _symmetry_equiv_pos_as_xyz
  1  'x, y, z'
loop_
 _atom_site_type_symbol
 _atom_site_label
 _atom_site_symmetry_multiplicity
 _atom_site_fract_x
 _atom_site_fract_y
 _atom_site_fract_z
 _atom_site_occupancy
  Tb  Tb0  1  0.379841  0.314509  0.250000  1
  Dy  Dy1  1  0.621624  0.686498  0.750000  1
  Dy  Dy2  1  0.935325  0.621432  0.250000  1
  Dy  Dy3  1  0.686364  0.064766  0.250000  1
  Dy  Dy4  1  0.313725  0.935122  0.750000  1
  Dy  Dy5  1  0.064736  0.378498  0.750000  1
  Cr  Cr6  1  0.999898  0.999827  0.500135  1
  Cr  Cr7  1  0.999898  0.999827  0.999865  1
  Cr  Cr8  1  0.666800  0.333289  0.750000  1
  Cr  Cr9  1  0.333274  0.666738  0.250000  1
  C  C10  1  0.964562  0.775432  0.750000  1
  C  C11  1  0.188436  0.963810  0.250000  1
  C  C12  1  0.775371  0.810764  0.250000  1
  C  C13  1  0.224638  0.189155  0.750000  1
  C  C14  1  0.810799  0.035402  0.750000  1
  C  C15  1  0.035140  0.224700  0.250000  1
  C  C16  1  0.865314  0.579895  0.750000  1
  C  C17  1  0.285559  0.865523  0.250000  1
  C  C18  1  0.579824  0.714913  0.250000  1
  C  C19  1  0.420208  0.285044  0.750000  1
  C  C20  1  0.134145  0.420251  0.250000  1
  C  C21  1  0.714517  0.134605  0.750000  1
