# generated using pymatgen
data_Er5Tm5CuIrPb6
_symmetry_space_group_name_H-M   'P 1'
_cell_length_a   9.11685901
_cell_length_b   9.11685958
_cell_length_c   6.68919200
_cell_angle_alpha   89.99896278
_cell_angle_beta   89.99897077
_cell_angle_gamma   120.00456248
_symmetry_Int_Tables_number   1
_chemical_formula_structural   Er5Tm5CuIrPb6
_chemical_formula_sum   'Er5 Tm5 Cu1 Ir1 Pb6'
_cell_volume   481.47620518
_cell_formula_units_Z   1
loop_
 _symmetry_equiv_pos_site_id
 _symmetry_equiv_pos_as_xyz
  1  'x, y, z'
loop_
 _atom_site_type_symbol
 _atom_site_label
 _atom_site_symmetry_multiplicity
 _atom_site_fract_x
 _atom_site_fract_y
 _atom_site_fract_z
 _atom_site_occupancy
  Er  Er0  1  0.243919  0.243919  0.761681  1
  Er  Er1  1  0.333334  0.666679  0.000007  1
  Er  Er2  1  0.666679  0.333334  0.000007  1
  Er  Er3  1  0.666681  0.333345  0.499992  1
  Er  Er4  1  0.333345  0.666681  0.499992  1
  Tm  Tm5  1  0.243754  0.999989  0.238258  1
  Tm  Tm6  1  0.756230  0.999995  0.761742  1
  Tm  Tm7  1  0.999989  0.243754  0.238258  1
  Tm  Tm8  1  0.999995  0.756230  0.761742  1
  Tm  Tm9  1  0.756300  0.756300  0.238224  1
  Cu  Cu10  1  0.999901  0.999901  0.499929  1
  Ir  Ir11  1  0.999809  0.999809  0.000140  1
  Pb  Pb12  1  0.602465  0.000011  0.253601  1
  Pb  Pb13  1  0.397566  0.999934  0.746410  1
  Pb  Pb14  1  0.000011  0.602465  0.253601  1
  Pb  Pb15  1  0.999934  0.397566  0.746410  1
  Pb  Pb16  1  0.397515  0.397515  0.253582  1
  Pb  Pb17  1  0.602573  0.602573  0.746423  1
