# generated using pymatgen
data_HfScAu8
_symmetry_space_group_name_H-M   'P 1'
_cell_length_a   5.14471469
_cell_length_b   5.14471482
_cell_length_c   9.41283889
_cell_angle_alpha   89.59727985
_cell_angle_beta   89.59727868
_cell_angle_gamma   47.25309331
_symmetry_Int_Tables_number   1
_chemical_formula_structural   HfScAu8
_chemical_formula_sum   'Hf1 Sc1 Au8'
_cell_volume   182.95275748
_cell_formula_units_Z   1
loop_
 _symmetry_equiv_pos_site_id
 _symmetry_equiv_pos_as_xyz
  1  'x, y, z'
loop_
 _atom_site_type_symbol
 _atom_site_label
 _atom_site_symmetry_multiplicity
 _atom_site_fract_x
 _atom_site_fract_y
 _atom_site_fract_z
 _atom_site_occupancy
  Hf  Hf0  1  0.500000  0.500000  0.500000  1
  Sc  Sc1  1  0.000000  0.000000  0.000000  1
  Au  Au2  1  0.699624  0.699624  0.903023  1
  Au  Au3  1  0.200399  0.200399  0.404213  1
  Au  Au4  1  0.799601  0.799601  0.595787  1
  Au  Au5  1  0.300376  0.300376  0.096977  1
  Au  Au6  1  0.402472  0.402472  0.799305  1
  Au  Au7  1  0.905665  0.905665  0.300793  1
  Au  Au8  1  0.094335  0.094335  0.699207  1
  Au  Au9  1  0.597528  0.597528  0.200695  1
