# generated using pymatgen
data_Co2As2PbO8
_symmetry_space_group_name_H-M   'P 1'
_cell_length_a   5.75084572
_cell_length_b   7.30026131
_cell_length_c   9.63298748
_cell_angle_alpha   111.83727856
_cell_angle_beta   101.07727332
_cell_angle_gamma   98.73157769
_symmetry_Int_Tables_number   1
_chemical_formula_structural   Co2As2PbO8
_chemical_formula_sum   'Co4 As4 Pb2 O16'
_cell_volume   357.16792141
_cell_formula_units_Z   2
loop_
 _symmetry_equiv_pos_site_id
 _symmetry_equiv_pos_as_xyz
  1  'x, y, z'
loop_
 _atom_site_type_symbol
 _atom_site_label
 _atom_site_symmetry_multiplicity
 _atom_site_fract_x
 _atom_site_fract_y
 _atom_site_fract_z
 _atom_site_occupancy
  Co  Co0  1  0.522010  0.623914  0.847518  1
  Co  Co1  1  0.477244  0.380282  0.157238  1
  Co  Co2  1  0.858582  0.138266  0.941894  1
  Co  Co3  1  0.138792  0.861717  0.057775  1
  As  As4  1  0.344289  0.023705  0.802908  1
  As  As5  1  0.655878  0.977960  0.198834  1
  As  As6  1  0.896195  0.421026  0.743764  1
  As  As7  1  0.103333  0.577579  0.253767  1
  Pb  Pb8  1  0.258234  0.203587  0.460828  1
  Pb  Pb9  1  0.746813  0.796566  0.540793  1
  O  O10  1  0.871423  0.602129  0.916923  1
  O  O11  1  0.125662  0.396710  0.079877  1
  O  O12  1  0.527642  0.259310  0.939513  1
  O  O13  1  0.473699  0.740359  0.064516  1
  O  O14  1  0.104197  0.945970  0.869838  1
  O  O15  1  0.893407  0.053394  0.129195  1
  O  O16  1  0.558366  0.875531  0.801807  1
  O  O17  1  0.439056  0.123028  0.197345  1
  O  O18  1  0.834750  0.181909  0.739250  1
  O  O19  1  0.157370  0.817259  0.258993  1
  O  O20  1  0.177168  0.473909  0.707668  1
  O  O21  1  0.827364  0.522709  0.294745  1
  O  O22  1  0.235024  0.995098  0.616782  1
  O  O23  1  0.765172  0.008501  0.385223  1
  O  O24  1  0.660456  0.451291  0.618439  1
  O  O25  1  0.347876  0.548290  0.374568  1
