# generated using pymatgen
data_SrNd3Ir3RhO14
_symmetry_space_group_name_H-M   'P 1'
_cell_length_a   7.41716808
_cell_length_b   7.38887960
_cell_length_c   7.41716800
_cell_angle_alpha   59.87327287
_cell_angle_beta   60.00000034
_cell_angle_gamma   59.87327276
_symmetry_Int_Tables_number   1
_chemical_formula_structural   SrNd3Ir3RhO14
_chemical_formula_sum   'Sr1 Nd3 Ir3 Rh1 O14'
_cell_volume   286.88331156
_cell_formula_units_Z   1
loop_
 _symmetry_equiv_pos_site_id
 _symmetry_equiv_pos_as_xyz
  1  'x, y, z'
loop_
 _atom_site_type_symbol
 _atom_site_label
 _atom_site_symmetry_multiplicity
 _atom_site_fract_x
 _atom_site_fract_y
 _atom_site_fract_z
 _atom_site_occupancy
  Sr  Sr0  1  0.125000  0.625000  0.125000  1
  Nd  Nd1  1  0.625000  0.125000  0.125000  1
  Nd  Nd2  1  0.125000  0.125000  0.625000  1
  Nd  Nd3  1  0.125000  0.125000  0.125000  1
  Ir  Ir4  1  0.125000  0.625000  0.625000  1
  Ir  Ir5  1  0.625000  0.625000  0.125000  1
  Ir  Ir6  1  0.625000  0.625000  0.625000  1
  Rh  Rh7  1  0.625000  0.125000  0.625000  1
  O  O8  1  0.695032  0.705567  0.299700  1
  O  O9  1  0.292174  0.295962  0.705932  1
  O  O10  1  0.705932  0.295962  0.705932  1
  O  O11  1  0.299700  0.705567  0.299700  1
  O  O12  1  0.299700  0.705567  0.695032  1
  O  O13  1  0.705932  0.295962  0.292174  1
  O  O14  1  0.554968  0.544433  0.950300  1
  O  O15  1  0.957826  0.954038  0.544068  1
  O  O16  1  0.544068  0.954038  0.544068  1
  O  O17  1  0.950300  0.544433  0.950300  1
  O  O18  1  0.950300  0.544433  0.554968  1
  O  O19  1  0.544068  0.954038  0.957826  1
  O  O20  1  0.253550  0.239348  0.253550  1
  O  O21  1  0.996450  0.010652  0.996450  1
