# generated using pymatgen
data_Tb4Ho2GaNiOs
_symmetry_space_group_name_H-M   'P 1'
_cell_length_a   8.36150890
_cell_length_b   8.36150950
_cell_length_c   8.36150919
_cell_angle_alpha   113.07035953
_cell_angle_beta   110.17027141
_cell_angle_gamma   105.26759413
_symmetry_Int_Tables_number   1
_chemical_formula_structural   Tb4Ho2GaNiOs
_chemical_formula_sum   'Tb8 Ho4 Ga2 Ni2 Os2'
_cell_volume   447.91007712
_cell_formula_units_Z   2
loop_
 _symmetry_equiv_pos_site_id
 _symmetry_equiv_pos_as_xyz
  1  'x, y, z'
loop_
 _atom_site_type_symbol
 _atom_site_label
 _atom_site_symmetry_multiplicity
 _atom_site_fract_x
 _atom_site_fract_y
 _atom_site_fract_z
 _atom_site_occupancy
  Tb  Tb0  1  0.435042  0.242125  0.192917  1
  Tb  Tb1  1  0.564958  0.757875  0.807083  1
  Tb  Tb2  1  0.049208  0.242125  0.807083  1
  Tb  Tb3  1  0.950792  0.757875  0.192917  1
  Tb  Tb4  1  0.180334  0.278384  0.458717  1
  Tb  Tb5  1  0.819666  0.721616  0.541283  1
  Tb  Tb6  1  0.180334  0.721616  0.901950  1
  Tb  Tb7  1  0.819666  0.278384  0.098050  1
  Ho  Ho8  1  0.331072  0.644856  0.313784  1
  Ho  Ho9  1  0.668928  0.355144  0.686216  1
  Ho  Ho10  1  0.331072  0.017287  0.686216  1
  Ho  Ho11  1  0.668928  0.982713  0.313784  1
  Ga  Ga12  1  0.500000  0.500000  0.000000  1
  Ga  Ga13  1  0.000000  0.000000  0.000000  1
  Ni  Ni14  1  0.117170  0.617170  0.500000  1
  Ni  Ni15  1  0.882830  0.382830  0.500000  1
  Os  Os16  1  0.330567  0.000000  0.330567  1
  Os  Os17  1  0.669433  0.000000  0.669433  1
