# generated using pymatgen
data_Ba3ZrTc2O9
_symmetry_space_group_name_H-M   'P 1'
_cell_length_a   5.92946600
_cell_length_b   5.92946670
_cell_length_c   14.37766700
_cell_angle_alpha   90.00000000
_cell_angle_beta   90.00000000
_cell_angle_gamma   119.99999607
_symmetry_Int_Tables_number   1
_chemical_formula_structural   Ba3ZrTc2O9
_chemical_formula_sum   'Ba6 Zr2 Tc4 O18'
_cell_volume   437.77432539
_cell_formula_units_Z   2
loop_
 _symmetry_equiv_pos_site_id
 _symmetry_equiv_pos_as_xyz
  1  'x, y, z'
loop_
 _atom_site_type_symbol
 _atom_site_label
 _atom_site_symmetry_multiplicity
 _atom_site_fract_x
 _atom_site_fract_y
 _atom_site_fract_z
 _atom_site_occupancy
  Ba  Ba0  1  0.333333  0.666667  0.905962  1
  Ba  Ba1  1  0.666667  0.333333  0.094038  1
  Ba  Ba2  1  0.666667  0.333333  0.405962  1
  Ba  Ba3  1  0.333333  0.666667  0.594038  1
  Ba  Ba4  1  0.000000  0.000000  0.250000  1
  Ba  Ba5  1  0.000000  0.000000  0.750000  1
  Zr  Zr6  1  0.000000  0.000000  0.500000  1
  Zr  Zr7  1  0.000000  0.000000  0.000000  1
  Tc  Tc8  1  0.333333  0.666667  0.335865  1
  Tc  Tc9  1  0.666667  0.333333  0.835865  1
  Tc  Tc10  1  0.333333  0.666667  0.164135  1
  Tc  Tc11  1  0.666667  0.333333  0.664135  1
  O  O12  1  0.660653  0.830326  0.415861  1
  O  O13  1  0.339347  0.169674  0.584139  1
  O  O14  1  0.492962  0.507038  0.250000  1
  O  O15  1  0.339347  0.169674  0.915861  1
  O  O16  1  0.830326  0.660653  0.915861  1
  O  O17  1  0.507038  0.014076  0.750000  1
  O  O18  1  0.169674  0.339347  0.084139  1
  O  O19  1  0.169674  0.830326  0.084139  1
  O  O20  1  0.169674  0.339347  0.415861  1
  O  O21  1  0.014076  0.507038  0.250000  1
  O  O22  1  0.985924  0.492962  0.750000  1
  O  O23  1  0.660653  0.830326  0.084139  1
  O  O24  1  0.507038  0.492962  0.750000  1
  O  O25  1  0.492962  0.985924  0.250000  1
  O  O26  1  0.830326  0.660653  0.584139  1
  O  O27  1  0.830326  0.169674  0.584139  1
  O  O28  1  0.830326  0.169674  0.915861  1
  O  O29  1  0.169674  0.830326  0.415861  1
