# generated using pymatgen
data_Dy3Zn3Ge2Ir
_symmetry_space_group_name_H-M   'P 1'
_cell_length_a   6.94612600
_cell_length_b   6.94612637
_cell_length_c   4.26093300
_cell_angle_alpha   90.00000000
_cell_angle_beta   90.00000000
_cell_angle_gamma   119.99999824
_symmetry_Int_Tables_number   1
_chemical_formula_structural   Dy3Zn3Ge2Ir
_chemical_formula_sum   'Dy3 Zn3 Ge2 Ir1'
_cell_volume   178.04126926
_cell_formula_units_Z   1
loop_
 _symmetry_equiv_pos_site_id
 _symmetry_equiv_pos_as_xyz
  1  'x, y, z'
loop_
 _atom_site_type_symbol
 _atom_site_label
 _atom_site_symmetry_multiplicity
 _atom_site_fract_x
 _atom_site_fract_y
 _atom_site_fract_z
 _atom_site_occupancy
  Dy  Dy0  1  0.408429  0.000000  0.000000  1
  Dy  Dy1  1  0.000000  0.408430  0.000000  1
  Dy  Dy2  1  0.591571  0.591570  0.000000  1
  Zn  Zn3  1  0.766442  0.000000  0.499999  1
  Zn  Zn4  1  0.233558  0.233558  0.499999  1
  Zn  Zn5  1  0.000000  0.766442  0.499999  1
  Ge  Ge6  1  0.666666  0.333333  0.499999  1
  Ge  Ge7  1  0.333334  0.666667  0.499999  1
  Ir  Ir8  1  0.000000  0.000000  0.000000  1
