# generated using pymatgen
data_HfZrTiReMo2
_symmetry_space_group_name_H-M   'P 1'
_cell_length_a   5.34792550
_cell_length_b   5.40105980
_cell_length_c   5.32134218
_cell_angle_alpha   60.15045946
_cell_angle_beta   59.83461542
_cell_angle_gamma   60.32489440
_symmetry_Int_Tables_number   1
_chemical_formula_structural   HfZrTiReMo2
_chemical_formula_sum   'Hf1 Zr1 Ti1 Re1 Mo2'
_cell_volume   108.93558684
_cell_formula_units_Z   1
loop_
 _symmetry_equiv_pos_site_id
 _symmetry_equiv_pos_as_xyz
  1  'x, y, z'
loop_
 _atom_site_type_symbol
 _atom_site_label
 _atom_site_symmetry_multiplicity
 _atom_site_fract_x
 _atom_site_fract_y
 _atom_site_fract_z
 _atom_site_occupancy
  Hf  Hf0  1  0.249328  0.254095  0.247250  1
  Zr  Zr1  1  0.000318  0.996458  0.002907  1
  Ti  Ti2  1  0.625133  0.124879  0.624856  1
  Re  Re3  1  0.625116  0.624746  0.125022  1
  Mo  Mo4  1  0.125043  0.624912  0.624982  1
  Mo  Mo5  1  0.625063  0.624912  0.624982  1
