# generated using pymatgen
data_PrY4Mn2O12
_symmetry_space_group_name_H-M   'P 1'
_cell_length_a   6.90092352
_cell_length_b   6.90092391
_cell_length_c   7.35155502
_cell_angle_alpha   74.63954179
_cell_angle_beta   74.63953946
_cell_angle_gamma   49.56953436
_symmetry_Int_Tables_number   1
_chemical_formula_structural   PrY4Mn2O12
_chemical_formula_sum   'Pr1 Y4 Mn2 O12'
_cell_volume   254.89960032
_cell_formula_units_Z   1
loop_
 _symmetry_equiv_pos_site_id
 _symmetry_equiv_pos_as_xyz
  1  'x, y, z'
loop_
 _atom_site_type_symbol
 _atom_site_label
 _atom_site_symmetry_multiplicity
 _atom_site_fract_x
 _atom_site_fract_y
 _atom_site_fract_z
 _atom_site_occupancy
  Pr  Pr0  1  0.000000  0.000000  0.500000  1
  Y  Y1  1  0.306422  0.306422  0.356189  1
  Y  Y2  1  0.693578  0.693578  0.643811  1
  Y  Y3  1  0.694331  0.694331  0.163075  1
  Y  Y4  1  0.305669  0.305669  0.836925  1
  Mn  Mn5  1  0.753133  0.246867  0.000000  1
  Mn  Mn6  1  0.246867  0.753133  0.000000  1
  O  O7  1  0.095282  0.587125  0.580480  1
  O  O8  1  0.999126  0.999126  0.172876  1
  O  O9  1  0.412875  0.904718  0.419520  1
  O  O10  1  0.500264  0.500264  0.180021  1
  O  O11  1  0.101033  0.579335  0.078302  1
  O  O12  1  0.904718  0.412875  0.419520  1
  O  O13  1  0.000874  0.000874  0.827124  1
  O  O14  1  0.587125  0.095281  0.580480  1
  O  O15  1  0.499736  0.499736  0.819979  1
  O  O16  1  0.579335  0.101033  0.078302  1
  O  O17  1  0.420665  0.898967  0.921698  1
  O  O18  1  0.898967  0.420665  0.921698  1
