# generated using pymatgen
data_Ca20Cd3Ga8Bi
_symmetry_space_group_name_H-M   'P 1'
_cell_length_a   8.16755200
_cell_length_b   8.16755200
_cell_length_c   14.68415100
_cell_angle_alpha   90.00000000
_cell_angle_beta   90.00000000
_cell_angle_gamma   90.00000000
_symmetry_Int_Tables_number   1
_chemical_formula_structural   Ca20Cd3Ga8Bi
_chemical_formula_sum   'Ca20 Cd3 Ga8 Bi1'
_cell_volume   979.56364394
_cell_formula_units_Z   1
loop_
 _symmetry_equiv_pos_site_id
 _symmetry_equiv_pos_as_xyz
  1  'x, y, z'
loop_
 _atom_site_type_symbol
 _atom_site_label
 _atom_site_symmetry_multiplicity
 _atom_site_fract_x
 _atom_site_fract_y
 _atom_site_fract_z
 _atom_site_occupancy
  Ca  Ca0  1  0.672529  0.169145  0.108422  1
  Ca  Ca1  1  0.171520  0.670651  0.610336  1
  Ca  Ca2  1  0.327471  0.830855  0.108422  1
  Ca  Ca3  1  0.828480  0.329349  0.610336  1
  Ca  Ca4  1  0.830855  0.672529  0.108422  1
  Ca  Ca5  1  0.329349  0.171520  0.610336  1
  Ca  Ca6  1  0.169145  0.327471  0.108422  1
  Ca  Ca7  1  0.670651  0.828480  0.610336  1
  Ca  Ca8  1  0.830855  0.327471  0.891578  1
  Ca  Ca9  1  0.329349  0.828480  0.389664  1
  Ca  Ca10  1  0.169145  0.672529  0.891578  1
  Ca  Ca11  1  0.670651  0.171520  0.389664  1
  Ca  Ca12  1  0.672529  0.830855  0.891578  1
  Ca  Ca13  1  0.171520  0.329349  0.389664  1
  Ca  Ca14  1  0.327471  0.169145  0.891578  1
  Ca  Ca15  1  0.828480  0.670651  0.389664  1
  Ca  Ca16  1  0.500000  0.500000  0.753158  1
  Ca  Ca17  1  0.000000  0.000000  0.250677  1
  Ca  Ca18  1  0.000000  0.000000  0.749323  1
  Ca  Ca19  1  0.500000  0.500000  0.246842  1
  Cd  Cd20  1  0.500000  0.500000  0.500000  1
  Cd  Cd21  1  0.500000  0.500000  0.000000  1
  Cd  Cd22  1  0.000000  0.000000  0.500000  1
  Ga  Ga23  1  0.614189  0.115983  0.752411  1
  Ga  Ga24  1  0.115983  0.614189  0.247589  1
  Ga  Ga25  1  0.884017  0.385811  0.247589  1
  Ga  Ga26  1  0.385811  0.884017  0.752411  1
  Ga  Ga27  1  0.884017  0.614189  0.752411  1
  Ga  Ga28  1  0.385811  0.115983  0.247589  1
  Ga  Ga29  1  0.115983  0.385811  0.752411  1
  Ga  Ga30  1  0.614189  0.884017  0.247589  1
  Bi  Bi31  1  0.000000  0.000000  0.000000  1
