# generated using pymatgen
data_YbV2(P2O7)2
_symmetry_space_group_name_H-M   'P 1'
_cell_length_a   4.85831038
_cell_length_b   7.10015006
_cell_length_c   7.96914114
_cell_angle_alpha   89.10087192
_cell_angle_beta   87.70565149
_cell_angle_gamma   73.20025089
_symmetry_Int_Tables_number   1
_chemical_formula_structural   YbV2(P2O7)2
_chemical_formula_sum   'Yb1 V2 P4 O14'
_cell_volume   262.94774937
_cell_formula_units_Z   1
loop_
 _symmetry_equiv_pos_site_id
 _symmetry_equiv_pos_as_xyz
  1  'x, y, z'
loop_
 _atom_site_type_symbol
 _atom_site_label
 _atom_site_symmetry_multiplicity
 _atom_site_fract_x
 _atom_site_fract_y
 _atom_site_fract_z
 _atom_site_occupancy
  Yb  Yb0  1  0.000041  0.000056  0.000003  1
  V  V1  1  0.499577  0.500446  0.000052  1
  V  V2  1  0.000176  0.999744  0.499954  1
  P  P3  1  0.977474  0.613409  0.752118  1
  P  P4  1  0.022585  0.386422  0.247848  1
  P  P5  1  0.388111  0.209325  0.719944  1
  P  P6  1  0.612101  0.790544  0.280036  1
  O  O7  1  0.208838  0.429744  0.667980  1
  O  O8  1  0.791174  0.570308  0.332012  1
  O  O9  1  0.115550  0.668991  0.910235  1
  O  O10  1  0.884285  0.331132  0.089733  1
  O  O11  1  0.509425  0.219679  0.896449  1
  O  O12  1  0.490585  0.780423  0.103553  1
  O  O13  1  0.705344  0.555373  0.795999  1
  O  O14  1  0.386021  0.844144  0.420104  1
  O  O15  1  0.614037  0.155767  0.579872  1
  O  O16  1  0.178703  0.081479  0.730310  1
  O  O17  1  0.294688  0.444628  0.204073  1
  O  O18  1  0.073195  0.223645  0.375843  1
  O  O19  1  0.926797  0.776252  0.624204  1
  O  O20  1  0.821298  0.918485  0.269679  1
