# generated using pymatgen
data_PrSmSiAuI2
_symmetry_space_group_name_H-M   'P 1'
_cell_length_a   4.31574100
_cell_length_b   4.31574219
_cell_length_c   12.18675700
_cell_angle_alpha   90.00000000
_cell_angle_beta   90.00000000
_cell_angle_gamma   119.99998325
_symmetry_Int_Tables_number   1
_chemical_formula_structural   PrSmSiAuI2
_chemical_formula_sum   'Pr1 Sm1 Si1 Au1 I2'
_cell_volume   196.57565115
_cell_formula_units_Z   1
loop_
 _symmetry_equiv_pos_site_id
 _symmetry_equiv_pos_as_xyz
  1  'x, y, z'
loop_
 _atom_site_type_symbol
 _atom_site_label
 _atom_site_symmetry_multiplicity
 _atom_site_fract_x
 _atom_site_fract_y
 _atom_site_fract_z
 _atom_site_occupancy
  Pr  Pr0  1  0.000000  0.000000  0.835675  1
  Sm  Sm1  1  0.000000  0.000000  0.163991  1
  Si  Si2  1  0.666667  0.333333  0.987684  1
  Au  Au3  1  0.333333  0.666667  0.018469  1
  I  I4  1  0.333333  0.666667  0.663611  1
  I  I5  1  0.666667  0.333333  0.330570  1
