# generated using pymatgen
data_TmMgB6Os
_symmetry_space_group_name_H-M   'P 1'
_cell_length_a   3.55352300
_cell_length_b   8.87791600
_cell_length_c   11.21957400
_cell_angle_alpha   90.00000000
_cell_angle_beta   90.00000000
_cell_angle_gamma   90.00000000
_symmetry_Int_Tables_number   1
_chemical_formula_structural   TmMgB6Os
_chemical_formula_sum   'Tm4 Mg4 B24 Os4'
_cell_volume   353.95375960
_cell_formula_units_Z   4
loop_
 _symmetry_equiv_pos_site_id
 _symmetry_equiv_pos_as_xyz
  1  'x, y, z'
loop_
 _atom_site_type_symbol
 _atom_site_label
 _atom_site_symmetry_multiplicity
 _atom_site_fract_x
 _atom_site_fract_y
 _atom_site_fract_z
 _atom_site_occupancy
  Tm  Tm0  1  0.000000  0.323888  0.413392  1
  Tm  Tm1  1  0.000000  0.676112  0.586608  1
  Tm  Tm2  1  0.000000  0.823888  0.086608  1
  Tm  Tm3  1  0.000000  0.176112  0.913392  1
  Mg  Mg4  1  0.000000  0.944101  0.372364  1
  Mg  Mg5  1  0.000000  0.055899  0.627636  1
  Mg  Mg6  1  0.000000  0.444101  0.127636  1
  Mg  Mg7  1  0.000000  0.555899  0.872364  1
  B  B8  1  0.500000  0.555451  0.432960  1
  B  B9  1  0.500000  0.444549  0.567040  1
  B  B10  1  0.500000  0.055451  0.067040  1
  B  B11  1  0.500000  0.944549  0.932960  1
  B  B12  1  0.500000  0.755338  0.418874  1
  B  B13  1  0.500000  0.244662  0.581126  1
  B  B14  1  0.500000  0.255338  0.081126  1
  B  B15  1  0.500000  0.744662  0.918874  1
  B  B16  1  0.500000  0.793659  0.262935  1
  B  B17  1  0.500000  0.206341  0.737064  1
  B  B18  1  0.500000  0.293659  0.237065  1
  B  B19  1  0.500000  0.706341  0.762936  1
  B  B20  1  0.500000  0.627994  0.182060  1
  B  B21  1  0.500000  0.372006  0.817940  1
  B  B22  1  0.500000  0.127994  0.317940  1
  B  B23  1  0.500000  0.872006  0.682060  1
  B  B24  1  0.500000  0.980541  0.213029  1
  B  B25  1  0.500000  0.019459  0.786971  1
  B  B26  1  0.500000  0.480541  0.286971  1
  B  B27  1  0.500000  0.519459  0.713029  1
  B  B28  1  0.500000  0.593159  0.025559  1
  B  B29  1  0.500000  0.406841  0.974441  1
  B  B30  1  0.500000  0.093159  0.474441  1
  B  B31  1  0.500000  0.906841  0.525559  1
  Os  Os32  1  0.000000  0.640418  0.318716  1
  Os  Os33  1  0.000000  0.359582  0.681284  1
  Os  Os34  1  0.000000  0.140418  0.181284  1
  Os  Os35  1  0.000000  0.859582  0.818716  1
