# generated using pymatgen
data_Sm2ErMg3Pb2Au
_symmetry_space_group_name_H-M   'P 1'
_cell_length_a   7.63101478
_cell_length_b   7.63101575
_cell_length_c   4.53634600
_cell_angle_alpha   90.00000000
_cell_angle_beta   90.00000000
_cell_angle_gamma   119.77447674
_symmetry_Int_Tables_number   1
_chemical_formula_structural   Sm2ErMg3Pb2Au
_chemical_formula_sum   'Sm2 Er1 Mg3 Pb2 Au1'
_cell_volume   229.28936590
_cell_formula_units_Z   1
loop_
 _symmetry_equiv_pos_site_id
 _symmetry_equiv_pos_as_xyz
  1  'x, y, z'
loop_
 _atom_site_type_symbol
 _atom_site_label
 _atom_site_symmetry_multiplicity
 _atom_site_fract_x
 _atom_site_fract_y
 _atom_site_fract_z
 _atom_site_occupancy
  Sm  Sm0  1  0.594960  0.999094  0.000000  1
  Sm  Sm1  1  0.999094  0.594960  0.000000  1
  Er  Er2  1  0.401287  0.401287  0.000000  1
  Mg  Mg3  1  0.234298  0.001093  0.500000  1
  Mg  Mg4  1  0.001093  0.234298  0.500000  1
  Mg  Mg5  1  0.765851  0.765851  0.500000  1
  Pb  Pb6  1  0.334609  0.663892  0.500000  1
  Pb  Pb7  1  0.663892  0.334609  0.500000  1
  Au  Au8  1  0.004916  0.004916  0.000000  1
