# generated using pymatgen
data_Tb5NiRhO12
_symmetry_space_group_name_H-M   'P 1'
_cell_length_a   6.83785834
_cell_length_b   6.83785677
_cell_length_c   7.25771157
_cell_angle_alpha   74.49962149
_cell_angle_beta   74.49962782
_cell_angle_gamma   50.71373662
_symmetry_Int_Tables_number   1
_chemical_formula_structural   Tb5NiRhO12
_chemical_formula_sum   'Tb5 Ni1 Rh1 O12'
_cell_volume   250.90090434
_cell_formula_units_Z   1
loop_
 _symmetry_equiv_pos_site_id
 _symmetry_equiv_pos_as_xyz
  1  'x, y, z'
loop_
 _atom_site_type_symbol
 _atom_site_label
 _atom_site_symmetry_multiplicity
 _atom_site_fract_x
 _atom_site_fract_y
 _atom_site_fract_z
 _atom_site_occupancy
  Tb  Tb0  1  0.694582  0.689542  0.666316  1
  Tb  Tb1  1  0.705165  0.687642  0.142559  1
  Tb  Tb2  1  0.995898  0.004102  0.000000  1
  Tb  Tb3  1  0.312358  0.294835  0.857441  1
  Tb  Tb4  1  0.310458  0.305418  0.333684  1
  Ni  Ni5  1  0.746928  0.253072  0.500000  1
  Rh  Rh6  1  0.238307  0.761693  0.500000  1
  O  O7  1  0.401173  0.899355  0.925819  1
  O  O8  1  0.579338  0.098301  0.580780  1
  O  O9  1  0.901699  0.420662  0.419220  1
  O  O10  1  0.100645  0.598827  0.074181  1
  O  O11  1  0.983850  0.016841  0.324400  1
  O  O12  1  0.508959  0.490381  0.678865  1
  O  O13  1  0.906894  0.401743  0.923802  1
  O  O14  1  0.097828  0.575115  0.581821  1
  O  O15  1  0.424885  0.902172  0.418179  1
  O  O16  1  0.598257  0.093106  0.076198  1
  O  O17  1  0.509619  0.491041  0.321135  1
  O  O18  1  0.983159  0.016150  0.675600  1
