# generated using pymatgen
data_Sm(Ga2Pt)2
_symmetry_space_group_name_H-M   'P 1'
_cell_length_a   4.34881100
_cell_length_b   6.65521300
_cell_length_c   17.47275400
_cell_angle_alpha   90.00000000
_cell_angle_beta   90.00000000
_cell_angle_gamma   90.00000000
_symmetry_Int_Tables_number   1
_chemical_formula_structural   Sm(Ga2Pt)2
_chemical_formula_sum   'Sm4 Ga16 Pt8'
_cell_volume   505.70105037
_cell_formula_units_Z   4
loop_
 _symmetry_equiv_pos_site_id
 _symmetry_equiv_pos_as_xyz
  1  'x, y, z'
loop_
 _atom_site_type_symbol
 _atom_site_label
 _atom_site_symmetry_multiplicity
 _atom_site_fract_x
 _atom_site_fract_y
 _atom_site_fract_z
 _atom_site_occupancy
  Sm  Sm0  1  0.750000  0.986555  0.640309  1
  Sm  Sm1  1  0.250000  0.486555  0.859691  1
  Sm  Sm2  1  0.750000  0.513445  0.140309  1
  Sm  Sm3  1  0.250000  0.013445  0.359691  1
  Ga  Ga4  1  0.250000  0.232090  0.190389  1
  Ga  Ga5  1  0.250000  0.484923  0.429455  1
  Ga  Ga6  1  0.250000  0.015077  0.929455  1
  Ga  Ga7  1  0.250000  0.825071  0.183447  1
  Ga  Ga8  1  0.250000  0.674929  0.683447  1
  Ga  Ga9  1  0.250000  0.267910  0.690389  1
  Ga  Ga10  1  0.250000  0.154912  0.536504  1
  Ga  Ga11  1  0.750000  0.984923  0.070545  1
  Ga  Ga12  1  0.750000  0.174929  0.816553  1
  Ga  Ga13  1  0.250000  0.345088  0.036504  1
  Ga  Ga14  1  0.750000  0.845088  0.463496  1
  Ga  Ga15  1  0.750000  0.654912  0.963496  1
  Ga  Ga16  1  0.750000  0.767910  0.809611  1
  Ga  Ga17  1  0.750000  0.515077  0.570545  1
  Ga  Ga18  1  0.750000  0.325071  0.316553  1
  Ga  Ga19  1  0.750000  0.732090  0.309611  1
  Pt  Pt20  1  0.250000  0.966433  0.784237  1
  Pt  Pt21  1  0.750000  0.033567  0.215763  1
  Pt  Pt22  1  0.250000  0.533567  0.284237  1
  Pt  Pt23  1  0.250000  0.749595  0.535728  1
  Pt  Pt24  1  0.250000  0.750405  0.035728  1
  Pt  Pt25  1  0.750000  0.250405  0.464272  1
  Pt  Pt26  1  0.750000  0.249595  0.964272  1
  Pt  Pt27  1  0.750000  0.466433  0.715763  1
