# generated using pymatgen
data_Li2TaNbIr4
_symmetry_space_group_name_H-M   'P 1'
_cell_length_a   4.36849500
_cell_length_b   6.13579500
_cell_length_c   13.11303000
_cell_angle_alpha   90.00000437
_cell_angle_beta   90.00089161
_cell_angle_gamma   90.00036104
_symmetry_Int_Tables_number   1
_chemical_formula_structural   Li2TaNbIr4
_chemical_formula_sum   'Li6 Ta3 Nb3 Ir12'
_cell_volume   351.48414467
_cell_formula_units_Z   3
loop_
 _symmetry_equiv_pos_site_id
 _symmetry_equiv_pos_as_xyz
  1  'x, y, z'
loop_
 _atom_site_type_symbol
 _atom_site_label
 _atom_site_symmetry_multiplicity
 _atom_site_fract_x
 _atom_site_fract_y
 _atom_site_fract_z
 _atom_site_occupancy
  Li  Li0  1  0.999998  0.500056  0.000059  1
  Li  Li1  1  0.499807  0.999938  0.166659  1
  Li  Li2  1  0.999807  0.500055  0.333284  1
  Li  Li3  1  0.499998  0.999955  0.499938  1
  Li  Li4  1  0.000194  0.500042  0.666657  1
  Li  Li5  1  0.500192  0.999956  0.833402  1
  Ta  Ta6  1  0.499997  0.500007  0.499871  1
  Ta  Ta7  1  0.000167  0.999998  0.666664  1
  Ta  Ta8  1  0.500164  0.500006  0.833464  1
  Nb  Nb9  1  0.000000  0.999990  0.000146  1
  Nb  Nb10  1  0.499834  0.500015  0.166667  1
  Nb  Nb11  1  0.999830  0.999992  0.333190  1
  Ir  Ir12  1  0.500021  0.250120  0.999697  1
  Ir  Ir13  1  0.499980  0.749874  0.999690  1
  Ir  Ir14  1  0.999811  0.250266  0.166667  1
  Ir  Ir15  1  0.999856  0.749736  0.166667  1
  Ir  Ir16  1  0.499855  0.250123  0.333637  1
  Ir  Ir17  1  0.499810  0.749873  0.333643  1
  Ir  Ir18  1  0.999984  0.250624  0.500290  1
  Ir  Ir19  1  0.000019  0.749377  0.500293  1
  Ir  Ir20  1  0.500179  0.249765  0.666667  1
  Ir  Ir21  1  0.500157  0.750231  0.666668  1
  Ir  Ir22  1  0.000155  0.250616  0.833044  1
  Ir  Ir23  1  0.000184  0.749384  0.833039  1
