# generated using pymatgen
data_K4Sr2ZrBi4
_symmetry_space_group_name_H-M   'P 1'
_cell_length_a   11.26954023
_cell_length_b   11.26953987
_cell_length_c   8.47521060
_cell_angle_alpha   88.18748323
_cell_angle_beta   88.18748123
_cell_angle_gamma   60.21579808
_symmetry_Int_Tables_number   1
_chemical_formula_structural   K4Sr2ZrBi4
_chemical_formula_sum   'K8 Sr4 Zr2 Bi8'
_cell_volume   933.56234016
_cell_formula_units_Z   2
loop_
 _symmetry_equiv_pos_site_id
 _symmetry_equiv_pos_as_xyz
  1  'x, y, z'
loop_
 _atom_site_type_symbol
 _atom_site_label
 _atom_site_symmetry_multiplicity
 _atom_site_fract_x
 _atom_site_fract_y
 _atom_site_fract_z
 _atom_site_occupancy
  K  K0  1  0.942444  0.526229  0.370213  1
  K  K1  1  0.526229  0.942444  0.370213  1
  K  K2  1  0.719415  0.133607  0.188776  1
  K  K3  1  0.133607  0.719415  0.188776  1
  K  K4  1  0.141970  0.141970  0.213745  1
  K  K5  1  0.275296  0.866402  0.696614  1
  K  K6  1  0.866402  0.275296  0.696614  1
  K  K7  1  0.853065  0.853065  0.648223  1
  Sr  Sr8  1  0.528025  0.528025  0.369610  1
  Sr  Sr9  1  0.055061  0.477741  0.876983  1
  Sr  Sr10  1  0.477741  0.055061  0.876983  1
  Sr  Sr11  1  0.478471  0.478471  0.866822  1
  Zr  Zr12  1  0.335677  0.335677  0.487774  1
  Zr  Zr13  1  0.665029  0.665029  0.982411  1
  Bi  Bi14  1  0.384759  0.803332  0.097081  1
  Bi  Bi15  1  0.803332  0.384759  0.097081  1
  Bi  Bi16  1  0.808100  0.808100  0.057914  1
  Bi  Bi17  1  0.611431  0.204562  0.602018  1
  Bi  Bi18  1  0.204562  0.611431  0.602018  1
  Bi  Bi19  1  0.199536  0.199536  0.627318  1
  Bi  Bi20  1  0.337204  0.337204  0.139969  1
  Bi  Bi21  1  0.653257  0.653257  0.645662  1
