# generated using pymatgen
data_Hf2Co10Mo2P7
_symmetry_space_group_name_H-M   'P 1'
_cell_length_a   8.93273967
_cell_length_b   8.96895008
_cell_length_c   3.65111600
_cell_angle_alpha   90.00000000
_cell_angle_beta   90.00000000
_cell_angle_gamma   119.79612107
_symmetry_Int_Tables_number   1
_chemical_formula_structural   Hf2Co10Mo2P7
_chemical_formula_sum   'Hf2 Co10 Mo2 P7'
_cell_volume   253.84645871
_cell_formula_units_Z   1
loop_
 _symmetry_equiv_pos_site_id
 _symmetry_equiv_pos_as_xyz
  1  'x, y, z'
loop_
 _atom_site_type_symbol
 _atom_site_label
 _atom_site_symmetry_multiplicity
 _atom_site_fract_x
 _atom_site_fract_y
 _atom_site_fract_z
 _atom_site_occupancy
  Hf  Hf0  1  0.667073  0.332227  0.500000  1
  Hf  Hf1  1  0.337852  0.667384  0.000000  1
  Co  Co2  1  0.714200  0.876007  0.000000  1
  Co  Co3  1  0.932453  0.370850  0.000000  1
  Co  Co4  1  0.164572  0.291262  0.000000  1
  Co  Co5  1  0.391395  0.444341  0.500000  1
  Co  Co6  1  0.122724  0.834301  0.000000  1
  Co  Co7  1  0.437943  0.066957  0.000000  1
  Co  Co8  1  0.048680  0.610654  0.500000  1
  Co  Co9  1  0.556708  0.943355  0.500000  1
  Co  Co10  1  0.630006  0.563043  0.000000  1
  Co  Co11  1  0.869251  0.774471  0.500000  1
  Mo  Mo12  1  0.218502  0.098895  0.500000  1
  Mo  Mo13  1  0.904983  0.126568  0.500000  1
  P  P14  1  0.417275  0.301371  0.000000  1
  P  P15  1  0.286823  0.874956  0.500000  1
  P  P16  1  0.698753  0.115229  0.000000  1
  P  P17  1  0.594980  0.712598  0.500000  1
  P  P18  1  0.883360  0.586802  0.000000  1
  P  P19  1  0.124656  0.415655  0.500000  1
  P  P20  1  0.997812  0.993074  0.000000  1
