# generated using pymatgen
data_Nd3Si2Rh
_symmetry_space_group_name_H-M   'P 1'
_cell_length_a   4.28666500
_cell_length_b   11.64063800
_cell_length_c   11.95124900
_cell_angle_alpha   90.00000000
_cell_angle_beta   90.00000000
_cell_angle_gamma   90.00000000
_symmetry_Int_Tables_number   1
_chemical_formula_structural   Nd3Si2Rh
_chemical_formula_sum   'Nd12 Si8 Rh4'
_cell_volume   596.36153463
_cell_formula_units_Z   4
loop_
 _symmetry_equiv_pos_site_id
 _symmetry_equiv_pos_as_xyz
  1  'x, y, z'
loop_
 _atom_site_type_symbol
 _atom_site_label
 _atom_site_symmetry_multiplicity
 _atom_site_fract_x
 _atom_site_fract_y
 _atom_site_fract_z
 _atom_site_occupancy
  Nd  Nd0  1  0.250000  0.375450  0.057388  1
  Nd  Nd1  1  0.750000  0.624550  0.942612  1
  Nd  Nd2  1  0.750000  0.875450  0.442612  1
  Nd  Nd3  1  0.250000  0.124550  0.557388  1
  Nd  Nd4  1  0.250000  0.696928  0.214241  1
  Nd  Nd5  1  0.750000  0.303072  0.785759  1
  Nd  Nd6  1  0.750000  0.196928  0.285759  1
  Nd  Nd7  1  0.250000  0.803072  0.714241  1
  Nd  Nd8  1  0.250000  0.442984  0.381551  1
  Nd  Nd9  1  0.750000  0.557016  0.618449  1
  Nd  Nd10  1  0.750000  0.942984  0.118449  1
  Nd  Nd11  1  0.250000  0.057016  0.881551  1
  Si  Si12  1  0.250000  0.686669  0.476504  1
  Si  Si13  1  0.750000  0.313331  0.523496  1
  Si  Si14  1  0.750000  0.186669  0.023496  1
  Si  Si15  1  0.250000  0.813331  0.976504  1
  Si  Si16  1  0.250000  0.003959  0.303979  1
  Si  Si17  1  0.750000  0.996041  0.696021  1
  Si  Si18  1  0.750000  0.503959  0.196021  1
  Si  Si19  1  0.250000  0.496041  0.803979  1
  Rh  Rh20  1  0.250000  0.134181  0.130356  1
  Rh  Rh21  1  0.750000  0.865819  0.869644  1
  Rh  Rh22  1  0.750000  0.634181  0.369644  1
  Rh  Rh23  1  0.250000  0.365819  0.630356  1
