# generated using pymatgen
data_Ho10Zn3CuBi2
_symmetry_space_group_name_H-M   'P 1'
_cell_length_a   8.59558181
_cell_length_b   8.59558097
_cell_length_c   8.63321534
_cell_angle_alpha   123.95461343
_cell_angle_beta   123.95461700
_cell_angle_gamma   82.99458733
_symmetry_Int_Tables_number   1
_chemical_formula_structural   Ho10Zn3CuBi2
_chemical_formula_sum   'Ho10 Zn3 Cu1 Bi2'
_cell_volume   421.80405789
_cell_formula_units_Z   1
loop_
 _symmetry_equiv_pos_site_id
 _symmetry_equiv_pos_as_xyz
  1  'x, y, z'
loop_
 _atom_site_type_symbol
 _atom_site_label
 _atom_site_symmetry_multiplicity
 _atom_site_fract_x
 _atom_site_fract_y
 _atom_site_fract_z
 _atom_site_occupancy
  Ho  Ho0  1  0.002287  0.001005  0.003291  1
  Ho  Ho1  1  0.498995  0.497713  0.996709  1
  Ho  Ho2  1  0.789894  0.295166  0.801359  1
  Ho  Ho3  1  0.204834  0.710106  0.198641  1
  Ho  Ho4  1  0.488536  0.993807  0.198641  1
  Ho  Ho5  1  0.297388  0.482564  0.500000  1
  Ho  Ho6  1  0.017436  0.202612  0.500000  1
  Ho  Ho7  1  0.506193  0.011464  0.801359  1
  Ho  Ho8  1  0.705318  0.512791  0.500000  1
  Ho  Ho9  1  0.987209  0.794682  0.500000  1
  Zn  Zn10  1  0.138773  0.639934  0.778706  1
  Zn  Zn11  1  0.860066  0.361227  0.221294  1
  Zn  Zn12  1  0.636781  0.863219  0.500000  1
  Cu  Cu13  1  0.370983  0.129017  0.500000  1
  Bi  Bi14  1  0.247653  0.252347  0.000000  1
  Bi  Bi15  1  0.747653  0.752347  0.000000  1
