# generated using pymatgen
data_Ho20Ir5Au7
_symmetry_space_group_name_H-M   'P 1'
_cell_length_a   6.33373069
_cell_length_b   11.22802430
_cell_length_c   11.22802382
_cell_angle_alpha   90.38580293
_cell_angle_beta   89.82531523
_cell_angle_gamma   89.82531883
_symmetry_Int_Tables_number   1
_chemical_formula_structural   Ho20Ir5Au7
_chemical_formula_sum   'Ho20 Ir5 Au7'
_cell_volume   798.45850812
_cell_formula_units_Z   1
loop_
 _symmetry_equiv_pos_site_id
 _symmetry_equiv_pos_as_xyz
  1  'x, y, z'
loop_
 _atom_site_type_symbol
 _atom_site_label
 _atom_site_symmetry_multiplicity
 _atom_site_fract_x
 _atom_site_fract_y
 _atom_site_fract_z
 _atom_site_occupancy
  Ho  Ho0  1  0.359428  0.830501  0.549867  1
  Ho  Ho1  1  0.860813  0.656498  0.549696  1
  Ho  Ho2  1  0.858683  0.832147  0.949926  1
  Ho  Ho3  1  0.357776  0.665892  0.948643  1
  Ho  Ho4  1  0.858461  0.543550  0.825645  1
  Ho  Ho5  1  0.361139  0.952388  0.833121  1
  Ho  Ho6  1  0.371761  0.542504  0.661300  1
  Ho  Ho7  1  0.859784  0.948779  0.665922  1
  Ho  Ho8  1  0.641539  0.174355  0.456451  1
  Ho  Ho9  1  0.128239  0.338700  0.457497  1
  Ho  Ho10  1  0.138861  0.166879  0.047612  1
  Ho  Ho11  1  0.640216  0.334078  0.051221  1
  Ho  Ho12  1  0.140572  0.450134  0.169499  1
  Ho  Ho13  1  0.641317  0.050074  0.167853  1
  Ho  Ho14  1  0.639187  0.450305  0.343502  1
  Ho  Ho15  1  0.142224  0.051357  0.334108  1
  Ho  Ho16  1  0.501204  0.749635  0.249009  1
  Ho  Ho17  1  0.998796  0.750991  0.250365  1
  Ho  Ho18  1  0.998796  0.253879  0.743561  1
  Ho  Ho19  1  0.501204  0.256439  0.746121  1
  Ir  Ir20  1  0.750000  0.402538  0.597462  1
  Ir  Ir21  1  0.108444  0.749723  0.749693  1
  Ir  Ir22  1  0.606226  0.750111  0.749682  1
  Ir  Ir23  1  0.893774  0.250318  0.249889  1
  Ir  Ir24  1  0.391556  0.250307  0.250277  1
  Au  Au25  1  0.250000  0.906074  0.093926  1
  Au  Au26  1  0.751068  0.593654  0.092004  1
  Au  Au27  1  0.748932  0.907996  0.406346  1
  Au  Au28  1  0.250000  0.595293  0.404707  1
  Au  Au29  1  0.750000  0.096263  0.903737  1
  Au  Au30  1  0.248462  0.406469  0.907836  1
  Au  Au31  1  0.251538  0.092164  0.593531  1
