# generated using pymatgen
data_TaTi2NbGa2
_symmetry_space_group_name_H-M   'P 1'
_cell_length_a   4.58768800
_cell_length_b   4.58768769
_cell_length_c   5.43886700
_cell_angle_alpha   90.00000000
_cell_angle_beta   90.00000000
_cell_angle_gamma   120.00000220
_symmetry_Int_Tables_number   1
_chemical_formula_structural   TaTi2NbGa2
_chemical_formula_sum   'Ta1 Ti2 Nb1 Ga2'
_cell_volume   99.13494761
_cell_formula_units_Z   1
loop_
 _symmetry_equiv_pos_site_id
 _symmetry_equiv_pos_as_xyz
  1  'x, y, z'
loop_
 _atom_site_type_symbol
 _atom_site_label
 _atom_site_symmetry_multiplicity
 _atom_site_fract_x
 _atom_site_fract_y
 _atom_site_fract_z
 _atom_site_occupancy
  Ta  Ta0  1  0.000000  0.000000  0.000000  1
  Ti  Ti1  1  0.333333  0.666667  0.752515  1
  Ti  Ti2  1  0.666667  0.333333  0.247485  1
  Nb  Nb3  1  0.000000  0.000000  0.500000  1
  Ga  Ga4  1  0.333333  0.666667  0.249931  1
  Ga  Ga5  1  0.666667  0.333333  0.750069  1
