# generated using pymatgen
data_Tb2Tm2Cu3Sb8
_symmetry_space_group_name_H-M   'P 1'
_cell_length_a   10.56237922
_cell_length_b   10.56238017
_cell_length_c   10.56474289
_cell_angle_alpha   146.49176245
_cell_angle_beta   146.49175948
_cell_angle_gamma   48.08818683
_symmetry_Int_Tables_number   1
_chemical_formula_structural   Tb2Tm2Cu3Sb8
_chemical_formula_sum   'Tb2 Tm2 Cu3 Sb8'
_cell_volume   357.77297260
_cell_formula_units_Z   1
loop_
 _symmetry_equiv_pos_site_id
 _symmetry_equiv_pos_as_xyz
  1  'x, y, z'
loop_
 _atom_site_type_symbol
 _atom_site_label
 _atom_site_symmetry_multiplicity
 _atom_site_fract_x
 _atom_site_fract_y
 _atom_site_fract_z
 _atom_site_occupancy
  Tb  Tb0  1  0.366615  0.874545  0.000000  1
  Tb  Tb1  1  0.874545  0.366615  0.000000  1
  Tm  Tm2  1  0.634558  0.634558  0.509484  1
  Tm  Tm3  1  0.125073  0.125073  0.490516  1
  Cu  Cu4  1  0.999076  0.999076  0.000000  1
  Cu  Cu5  1  0.999137  0.499137  0.500000  1
  Cu  Cu6  1  0.499137  0.999137  0.500000  1
  Sb  Sb7  1  0.333904  0.333904  0.515564  1
  Sb  Sb8  1  0.818341  0.818341  0.484436  1
  Sb  Sb9  1  0.663980  0.181639  0.000000  1
  Sb  Sb10  1  0.181639  0.663980  0.000000  1
  Sb  Sb11  1  0.251042  0.251042  0.000000  1
  Sb  Sb12  1  0.750760  0.750760  0.000000  1
  Sb  Sb13  1  0.751097  0.251097  0.500000  1
  Sb  Sb14  1  0.251097  0.751097  0.500000  1
