# generated using pymatgen
data_Rb4Na2LuAlAs4
_symmetry_space_group_name_H-M   'P 1'
_cell_length_a   9.36641914
_cell_length_b   9.36642119
_cell_length_c   9.36641940
_cell_angle_alpha   136.08035476
_cell_angle_beta   137.80864246
_cell_angle_gamma   62.53419119
_symmetry_Int_Tables_number   1
_chemical_formula_structural   Rb4Na2LuAlAs4
_chemical_formula_sum   'Rb4 Na2 Lu1 Al1 As4'
_cell_volume   378.14485987
_cell_formula_units_Z   1
loop_
 _symmetry_equiv_pos_site_id
 _symmetry_equiv_pos_as_xyz
  1  'x, y, z'
loop_
 _atom_site_type_symbol
 _atom_site_label
 _atom_site_symmetry_multiplicity
 _atom_site_fract_x
 _atom_site_fract_y
 _atom_site_fract_z
 _atom_site_occupancy
  Rb  Rb0  1  0.669627  0.404208  0.718973  1
  Rb  Rb1  1  0.830373  0.049347  0.234581  1
  Rb  Rb2  1  0.185235  0.950653  0.781027  1
  Rb  Rb3  1  0.314765  0.595792  0.265419  1
  Na  Na4  1  0.750000  0.000000  0.750000  1
  Na  Na5  1  0.250000  0.000000  0.250000  1
  Lu  Lu6  1  0.750000  0.500000  0.250000  1
  Al  Al7  1  0.250000  0.500000  0.750000  1
  As  As8  1  0.389929  0.197495  0.773881  1
  As  As9  1  0.576386  0.802505  0.192435  1
  As  As10  1  0.110071  0.383952  0.307565  1
  As  As11  1  0.923614  0.616048  0.726119  1
