# generated using pymatgen
data_Sr2CeCu2Se5
_symmetry_space_group_name_H-M   'P 1'
_cell_length_a   4.19431777
_cell_length_b   7.13923616
_cell_length_c   9.35546757
_cell_angle_alpha   101.38626566
_cell_angle_beta   102.95371166
_cell_angle_gamma   107.08265783
_symmetry_Int_Tables_number   1
_chemical_formula_structural   Sr2CeCu2Se5
_chemical_formula_sum   'Sr2 Ce1 Cu2 Se5'
_cell_volume   250.32953151
_cell_formula_units_Z   1
loop_
 _symmetry_equiv_pos_site_id
 _symmetry_equiv_pos_as_xyz
  1  'x, y, z'
loop_
 _atom_site_type_symbol
 _atom_site_label
 _atom_site_symmetry_multiplicity
 _atom_site_fract_x
 _atom_site_fract_y
 _atom_site_fract_z
 _atom_site_occupancy
  Sr  Sr0  1  0.475238  0.646912  0.303565  1
  Sr  Sr1  1  0.524762  0.353088  0.696435  1
  Ce  Ce2  1  0.000000  0.000000  0.000000  1
  Cu  Cu3  1  0.735968  0.179574  0.292364  1
  Cu  Cu4  1  0.264032  0.820426  0.707636  1
  Se  Se5  1  0.688461  0.308774  0.068149  1
  Se  Se6  1  0.154153  0.995683  0.312623  1
  Se  Se7  1  0.000001  0.500001  0.500000  1
  Se  Se8  1  0.845847  0.004317  0.687378  1
  Se  Se9  1  0.311540  0.691228  0.931851  1
