# generated using pymatgen
data_Li2Yb10Sn4N3
_symmetry_space_group_name_H-M   'P 1'
_cell_length_a   4.86838700
_cell_length_b   4.86838700
_cell_length_c   18.42545500
_cell_angle_alpha   90.00000000
_cell_angle_beta   90.00000000
_cell_angle_gamma   90.00000000
_symmetry_Int_Tables_number   1
_chemical_formula_structural   Li2Yb10Sn4N3
_chemical_formula_sum   'Li2 Yb10 Sn4 N3'
_cell_volume   436.70524631
_cell_formula_units_Z   1
loop_
 _symmetry_equiv_pos_site_id
 _symmetry_equiv_pos_as_xyz
  1  'x, y, z'
loop_
 _atom_site_type_symbol
 _atom_site_label
 _atom_site_symmetry_multiplicity
 _atom_site_fract_x
 _atom_site_fract_y
 _atom_site_fract_z
 _atom_site_occupancy
  Li  Li0  1  0.500000  0.000000  0.000000  1
  Li  Li1  1  0.000000  0.500000  0.000000  1
  Yb  Yb2  1  0.500000  0.500000  0.886047  1
  Yb  Yb3  1  0.500000  0.500000  0.113953  1
  Yb  Yb4  1  0.500000  0.500000  0.372410  1
  Yb  Yb5  1  0.500000  0.500000  0.627590  1
  Yb  Yb6  1  0.500000  0.000000  0.244103  1
  Yb  Yb7  1  0.500000  0.000000  0.500000  1
  Yb  Yb8  1  0.500000  0.000000  0.755897  1
  Yb  Yb9  1  0.000000  0.500000  0.244103  1
  Yb  Yb10  1  0.000000  0.500000  0.500000  1
  Yb  Yb11  1  0.000000  0.500000  0.755897  1
  Sn  Sn12  1  0.000000  0.000000  0.910643  1
  Sn  Sn13  1  0.000000  0.000000  0.089357  1
  Sn  Sn14  1  0.000000  0.000000  0.367872  1
  Sn  Sn15  1  0.000000  0.000000  0.632128  1
  N  N16  1  0.500000  0.500000  0.233242  1
  N  N17  1  0.500000  0.500000  0.500000  1
  N  N18  1  0.500000  0.500000  0.766758  1
