# generated using pymatgen
data_Na3CuSe13
_symmetry_space_group_name_H-M   'P 1'
_cell_length_a   4.57885800
_cell_length_b   13.75239237
_cell_length_c   14.66522967
_cell_angle_alpha   86.07711600
_cell_angle_beta   90.00000000
_cell_angle_gamma   90.00000000
_symmetry_Int_Tables_number   1
_chemical_formula_structural   Na3CuSe13
_chemical_formula_sum   'Na6 Cu2 Se26'
_cell_volume   921.30953915
_cell_formula_units_Z   2
loop_
 _symmetry_equiv_pos_site_id
 _symmetry_equiv_pos_as_xyz
  1  'x, y, z'
loop_
 _atom_site_type_symbol
 _atom_site_label
 _atom_site_symmetry_multiplicity
 _atom_site_fract_x
 _atom_site_fract_y
 _atom_site_fract_z
 _atom_site_occupancy
  Na  Na0  1  0.182651  0.167174  0.724845  1
  Na  Na1  1  0.182651  0.332826  0.275155  1
  Na  Na2  1  0.141217  0.250000  0.000000  1
  Na  Na3  1  0.858783  0.750000  0.000000  1
  Na  Na4  1  0.817349  0.832826  0.275155  1
  Na  Na5  1  0.817349  0.667174  0.724845  1
  Cu  Cu6  1  0.000000  0.500000  0.500000  1
  Cu  Cu7  1  0.000000  0.000000  0.500000  1
  Se  Se8  1  0.295062  0.557787  0.619635  1
  Se  Se9  1  0.631283  0.575393  0.268211  1
  Se  Se10  1  0.368717  0.075393  0.268211  1
  Se  Se11  1  0.368717  0.424607  0.731789  1
  Se  Se12  1  0.945460  0.535452  0.145093  1
  Se  Se13  1  0.945460  0.964548  0.854907  1
  Se  Se14  1  0.054540  0.464548  0.854907  1
  Se  Se15  1  0.054540  0.035452  0.145093  1
  Se  Se16  1  0.670489  0.421223  0.063704  1
  Se  Se17  1  0.631283  0.924607  0.731789  1
  Se  Se18  1  0.329511  0.578777  0.936296  1
  Se  Se19  1  0.329511  0.921223  0.063704  1
  Se  Se20  1  0.665643  0.269170  0.151800  1
  Se  Se21  1  0.665643  0.230830  0.848200  1
  Se  Se22  1  0.334357  0.730830  0.848200  1
  Se  Se23  1  0.334357  0.769170  0.151800  1
  Se  Se24  1  0.072004  0.651647  0.413420  1
  Se  Se25  1  0.072004  0.848353  0.586580  1
  Se  Se26  1  0.927996  0.348353  0.586580  1
  Se  Se27  1  0.927996  0.151647  0.413420  1
  Se  Se28  1  0.611692  0.250000  0.500000  1
  Se  Se29  1  0.388308  0.750000  0.500000  1
  Se  Se30  1  0.704938  0.442213  0.380365  1
  Se  Se31  1  0.704938  0.057787  0.619635  1
  Se  Se32  1  0.670489  0.078777  0.936296  1
  Se  Se33  1  0.295062  0.942213  0.380365  1
