# generated using pymatgen
data_Tm7Hf(Ge4Mo3)4
_symmetry_space_group_name_H-M   'P 1'
_cell_length_a   6.87365496
_cell_length_b   7.00054107
_cell_length_c   13.08894067
_cell_angle_alpha   90.10440144
_cell_angle_beta   89.97648628
_cell_angle_gamma   89.96012325
_symmetry_Int_Tables_number   1
_chemical_formula_structural   Tm7Hf(Ge4Mo3)4
_chemical_formula_sum   'Tm7 Hf1 Ge16 Mo12'
_cell_volume   629.82946124
_cell_formula_units_Z   1
loop_
 _symmetry_equiv_pos_site_id
 _symmetry_equiv_pos_as_xyz
  1  'x, y, z'
loop_
 _atom_site_type_symbol
 _atom_site_label
 _atom_site_symmetry_multiplicity
 _atom_site_fract_x
 _atom_site_fract_y
 _atom_site_fract_z
 _atom_site_occupancy
  Tm  Tm0  1  0.487618  0.671257  0.591595  1
  Tm  Tm1  1  0.988283  0.830157  0.908350  1
  Tm  Tm2  1  0.511472  0.329737  0.092306  1
  Tm  Tm3  1  0.010272  0.168911  0.409449  1
  Tm  Tm4  1  0.510382  0.328420  0.409062  1
  Tm  Tm5  1  0.011317  0.171019  0.092028  1
  Tm  Tm6  1  0.487680  0.670769  0.907131  1
  Hf  Hf7  1  0.983656  0.827892  0.593548  1
  Ge  Ge8  1  0.674112  0.953216  0.454453  1
  Ge  Ge9  1  0.171529  0.545420  0.047133  1
  Ge  Ge10  1  0.329095  0.046509  0.951892  1
  Ge  Ge11  1  0.829032  0.455288  0.547124  1
  Ge  Ge12  1  0.321098  0.042866  0.547102  1
  Ge  Ge13  1  0.828796  0.454562  0.951922  1
  Ge  Ge14  1  0.671266  0.954374  0.047537  1
  Ge  Ge15  1  0.171101  0.548161  0.454644  1
  Ge  Ge16  1  0.470979  0.368011  0.748937  1
  Ge  Ge17  1  0.970609  0.129110  0.748523  1
  Ge  Ge18  1  0.531321  0.631046  0.250459  1
  Ge  Ge19  1  0.030795  0.870245  0.249829  1
  Ge  Ge20  1  0.691085  0.852034  0.749852  1
  Ge  Ge21  1  0.187230  0.649468  0.748499  1
  Ge  Ge22  1  0.310443  0.147322  0.250408  1
  Ge  Ge23  1  0.811354  0.353530  0.250930  1
  Mo  Mo24  1  0.672348  0.149153  0.625532  1
  Mo  Mo25  1  0.168742  0.345009  0.872564  1
  Mo  Mo26  1  0.331330  0.845021  0.126056  1
  Mo  Mo27  1  0.832995  0.657108  0.375549  1
  Mo  Mo28  1  0.331170  0.844875  0.373787  1
  Mo  Mo29  1  0.831752  0.656010  0.126710  1
  Mo  Mo30  1  0.670041  0.154052  0.873137  1
  Mo  Mo31  1  0.170086  0.346397  0.626314  1
  Mo  Mo32  1  0.834567  0.499476  0.747830  1
  Mo  Mo33  1  0.333155  0.002224  0.747716  1
  Mo  Mo34  1  0.166560  0.504571  0.250756  1
  Mo  Mo35  1  0.666729  0.996785  0.251334  1
