# generated using pymatgen
data_Er16In6FeNi
_symmetry_space_group_name_H-M   'P 1'
_cell_length_a   10.32633000
_cell_length_b   10.32632941
_cell_length_c   6.96198600
_cell_angle_alpha   90.00000000
_cell_angle_beta   90.00000000
_cell_angle_gamma   119.99999549
_symmetry_Int_Tables_number   1
_chemical_formula_structural   Er16In6FeNi
_chemical_formula_sum   'Er16 In6 Fe1 Ni1'
_cell_volume   642.91827614
_cell_formula_units_Z   1
loop_
 _symmetry_equiv_pos_site_id
 _symmetry_equiv_pos_as_xyz
  1  'x, y, z'
loop_
 _atom_site_type_symbol
 _atom_site_label
 _atom_site_symmetry_multiplicity
 _atom_site_fract_x
 _atom_site_fract_y
 _atom_site_fract_z
 _atom_site_occupancy
  Er  Er0  1  0.535894  0.071789  0.791641  1
  Er  Er1  1  0.928211  0.464106  0.791641  1
  Er  Er2  1  0.535894  0.464106  0.791641  1
  Er  Er3  1  0.467199  0.934399  0.293593  1
  Er  Er4  1  0.065601  0.532801  0.293593  1
  Er  Er5  1  0.467199  0.532801  0.293593  1
  Er  Er6  1  0.821336  0.642671  0.500041  1
  Er  Er7  1  0.357329  0.178664  0.500041  1
  Er  Er8  1  0.821336  0.178664  0.500041  1
  Er  Er9  1  0.177879  0.355759  0.998114  1
  Er  Er10  1  0.644241  0.822121  0.998114  1
  Er  Er11  1  0.177879  0.822121  0.998114  1
  Er  Er12  1  0.666667  0.333333  0.180714  1
  Er  Er13  1  0.333333  0.666667  0.680270  1
  Er  Er14  1  0.000000  0.000000  0.780566  1
  Er  Er15  1  0.000000  0.000000  0.277691  1
  In  In16  1  0.837659  0.675319  0.038640  1
  In  In17  1  0.324681  0.162341  0.038640  1
  In  In18  1  0.837659  0.162341  0.038640  1
  In  In19  1  0.163135  0.326269  0.538335  1
  In  In20  1  0.673731  0.836865  0.538335  1
  In  In21  1  0.163135  0.836865  0.538335  1
  Fe  Fe22  1  0.666667  0.333333  0.567700  1
  Ni  Ni23  1  0.333333  0.666667  0.067875  1
