# generated using pymatgen
data_LaHo5TaSbO14
_symmetry_space_group_name_H-M   'P 1'
_cell_length_a   6.50000903
_cell_length_b   6.50000906
_cell_length_c   7.53013913
_cell_angle_alpha   89.67412715
_cell_angle_beta   90.32587292
_cell_angle_gamma   108.56367405
_symmetry_Int_Tables_number   1
_chemical_formula_structural   LaHo5TaSbO14
_chemical_formula_sum   'La1 Ho5 Ta1 Sb1 O14'
_cell_volume   301.58869777
_cell_formula_units_Z   1
loop_
 _symmetry_equiv_pos_site_id
 _symmetry_equiv_pos_as_xyz
  1  'x, y, z'
loop_
 _atom_site_type_symbol
 _atom_site_label
 _atom_site_symmetry_multiplicity
 _atom_site_fract_x
 _atom_site_fract_y
 _atom_site_fract_z
 _atom_site_occupancy
  La  La0  1  0.505726  0.505726  0.500000  1
  Ho  Ho1  1  0.459294  0.459294  0.000000  1
  Ho  Ho2  1  0.999876  0.532748  0.239201  1
  Ho  Ho3  1  0.998226  0.466923  0.748056  1
  Ho  Ho4  1  0.532748  0.999876  0.760799  1
  Ho  Ho5  1  0.466923  0.998226  0.251944  1
  Ta  Ta6  1  0.996897  0.996897  0.000000  1
  Sb  Sb7  1  0.999078  0.999078  0.500000  1
  O  O8  1  0.931299  0.069028  0.749327  1
  O  O9  1  0.069028  0.931299  0.250673  1
  O  O10  1  0.357779  0.642514  0.237327  1
  O  O11  1  0.642514  0.357779  0.762673  1
  O  O12  1  0.366436  0.632934  0.762696  1
  O  O13  1  0.632934  0.366436  0.237304  1
  O  O14  1  0.326592  0.081127  0.974613  1
  O  O15  1  0.676860  0.930865  0.472698  1
  O  O16  1  0.317714  0.061740  0.537805  1
  O  O17  1  0.693301  0.953045  0.041680  1
  O  O18  1  0.061740  0.317714  0.462195  1
  O  O19  1  0.953045  0.693301  0.958320  1
  O  O20  1  0.930865  0.676860  0.527302  1
  O  O21  1  0.081127  0.326592  0.025387  1
