# generated using pymatgen
data_SrGa3CoNi
_symmetry_space_group_name_H-M   'P 1'
_cell_length_a   6.41931572
_cell_length_b   6.41931403
_cell_length_c   5.23126000
_cell_angle_alpha   90.00000000
_cell_angle_beta   90.00000000
_cell_angle_gamma   104.74708229
_symmetry_Int_Tables_number   1
_chemical_formula_structural   SrGa3CoNi
_chemical_formula_sum   'Sr2 Ga6 Co2 Ni2'
_cell_volume   208.46665163
_cell_formula_units_Z   2
loop_
 _symmetry_equiv_pos_site_id
 _symmetry_equiv_pos_as_xyz
  1  'x, y, z'
loop_
 _atom_site_type_symbol
 _atom_site_label
 _atom_site_symmetry_multiplicity
 _atom_site_fract_x
 _atom_site_fract_y
 _atom_site_fract_z
 _atom_site_occupancy
  Sr  Sr0  1  0.344566  0.344566  0.250000  1
  Sr  Sr1  1  0.655434  0.655434  0.750000  1
  Ga  Ga2  1  0.920303  0.525090  0.248146  1
  Ga  Ga3  1  0.079697  0.474910  0.748146  1
  Ga  Ga4  1  0.057612  0.057612  0.750000  1
  Ga  Ga5  1  0.942388  0.942388  0.250000  1
  Ga  Ga6  1  0.474910  0.079697  0.751854  1
  Ga  Ga7  1  0.525090  0.920303  0.251854  1
  Co  Co8  1  0.800522  0.199478  0.000000  1
  Co  Co9  1  0.199478  0.800522  0.500000  1
  Ni  Ni10  1  0.203136  0.796864  0.000000  1
  Ni  Ni11  1  0.796864  0.203136  0.500000  1
