# generated using pymatgen
data_TbCe8Er(SiB4)4
_symmetry_space_group_name_H-M   'P 1'
_cell_length_a   7.31296300
_cell_length_b   7.31296300
_cell_length_c   8.25498600
_cell_angle_alpha   90.00000000
_cell_angle_beta   90.00000000
_cell_angle_gamma   90.00000000
_symmetry_Int_Tables_number   1
_chemical_formula_structural   TbCe8Er(SiB4)4
_chemical_formula_sum   'Tb1 Ce8 Er1 Si4 B16'
_cell_volume   441.47192810
_cell_formula_units_Z   1
loop_
 _symmetry_equiv_pos_site_id
 _symmetry_equiv_pos_as_xyz
  1  'x, y, z'
loop_
 _atom_site_type_symbol
 _atom_site_label
 _atom_site_symmetry_multiplicity
 _atom_site_fract_x
 _atom_site_fract_y
 _atom_site_fract_z
 _atom_site_occupancy
  Tb  Tb0  1  0.500000  0.500000  0.500000  1
  Ce  Ce1  1  0.682391  0.182350  0.226635  1
  Ce  Ce2  1  0.317609  0.817650  0.773365  1
  Ce  Ce3  1  0.317609  0.817650  0.226635  1
  Ce  Ce4  1  0.817650  0.682391  0.226635  1
  Ce  Ce5  1  0.817650  0.682391  0.773365  1
  Ce  Ce6  1  0.682391  0.182350  0.773365  1
  Ce  Ce7  1  0.182350  0.317609  0.773365  1
  Ce  Ce8  1  0.182350  0.317609  0.226635  1
  Er  Er9  1  0.000000  0.000000  0.500000  1
  Si  Si10  1  0.114437  0.615985  0.500000  1
  Si  Si11  1  0.885563  0.384015  0.500000  1
  Si  Si12  1  0.384015  0.114437  0.500000  1
  Si  Si13  1  0.615985  0.885563  0.500000  1
  B  B14  1  0.172518  0.039108  0.000000  1
  B  B15  1  0.827482  0.960892  0.000000  1
  B  B16  1  0.960892  0.172518  0.000000  1
  B  B17  1  0.327499  0.539121  0.000000  1
  B  B18  1  0.039108  0.827482  0.000000  1
  B  B19  1  0.672501  0.460879  0.000000  1
  B  B20  1  0.539121  0.672501  0.000000  1
  B  B21  1  0.460879  0.327499  0.000000  1
  B  B22  1  0.091460  0.591439  0.000000  1
  B  B23  1  0.908540  0.408561  0.000000  1
  B  B24  1  0.408561  0.091460  0.000000  1
  B  B25  1  0.591439  0.908540  0.000000  1
  B  B26  1  0.000000  0.000000  0.159286  1
  B  B27  1  0.000000  0.000000  0.840714  1
  B  B28  1  0.500000  0.500000  0.841251  1
  B  B29  1  0.500000  0.500000  0.158749  1
