# generated using pymatgen
data_Y4Tm4B24IrRu3
_symmetry_space_group_name_H-M   'P 1'
_cell_length_a   3.64448300
_cell_length_b   9.11859651
_cell_length_c   11.48980465
_cell_angle_alpha   90.03835544
_cell_angle_beta   90.00000000
_cell_angle_gamma   90.00000000
_symmetry_Int_Tables_number   1
_chemical_formula_structural   Y4Tm4B24IrRu3
_chemical_formula_sum   'Y4 Tm4 B24 Ir1 Ru3'
_cell_volume   381.83565117
_cell_formula_units_Z   1
loop_
 _symmetry_equiv_pos_site_id
 _symmetry_equiv_pos_as_xyz
  1  'x, y, z'
loop_
 _atom_site_type_symbol
 _atom_site_label
 _atom_site_symmetry_multiplicity
 _atom_site_fract_x
 _atom_site_fract_y
 _atom_site_fract_z
 _atom_site_occupancy
  Y  Y0  1  0.000000  0.318890  0.414717  1
  Y  Y1  1  0.000000  0.679224  0.588412  1
  Y  Y2  1  0.000000  0.822723  0.084120  1
  Y  Y3  1  0.000000  0.178863  0.913583  1
  Tm  Tm4  1  0.000000  0.945906  0.372972  1
  Tm  Tm5  1  0.000000  0.055961  0.627199  1
  Tm  Tm6  1  0.000000  0.441839  0.125848  1
  Tm  Tm7  1  0.000000  0.555972  0.872951  1
  B  B8  1  0.500000  0.554155  0.433424  1
  B  B9  1  0.500000  0.445526  0.567204  1
  B  B10  1  0.500000  0.054618  0.067224  1
  B  B11  1  0.500000  0.945594  0.932647  1
  B  B12  1  0.500000  0.750782  0.420476  1
  B  B13  1  0.500000  0.250275  0.580680  1
  B  B14  1  0.500000  0.249257  0.080515  1
  B  B15  1  0.500000  0.750730  0.919394  1
  B  B16  1  0.500000  0.792551  0.265308  1
  B  B17  1  0.500000  0.208457  0.734073  1
  B  B18  1  0.500000  0.291854  0.234417  1
  B  B19  1  0.500000  0.708223  0.765946  1
  B  B20  1  0.500000  0.631201  0.183153  1
  B  B21  1  0.500000  0.369163  0.815378  1
  B  B22  1  0.500000  0.131106  0.315646  1
  B  B23  1  0.500000  0.868765  0.684650  1
  B  B24  1  0.500000  0.983195  0.213410  1
  B  B25  1  0.500000  0.016806  0.786461  1
  B  B26  1  0.500000  0.482039  0.286304  1
  B  B27  1  0.500000  0.516841  0.713570  1
  B  B28  1  0.500000  0.606204  0.029377  1
  B  B29  1  0.500000  0.393868  0.971016  1
  B  B30  1  0.500000  0.105973  0.470990  1
  B  B31  1  0.500000  0.893505  0.528666  1
  Ir  Ir32  1  0.000000  0.638090  0.320820  1
  Ru  Ru33  1  0.000000  0.361823  0.679211  1
  Ru  Ru34  1  0.000000  0.138607  0.179946  1
  Ru  Ru35  1  0.000000  0.861413  0.820293  1
