# generated using pymatgen
data_Tb3ErGa4IrPd3
_symmetry_space_group_name_H-M   'P 1'
_cell_length_a   4.44191500
_cell_length_b   6.90867116
_cell_length_c   7.70586694
_cell_angle_alpha   89.38027722
_cell_angle_beta   90.00000000
_cell_angle_gamma   90.00000000
_symmetry_Int_Tables_number   1
_chemical_formula_structural   Tb3ErGa4IrPd3
_chemical_formula_sum   'Tb3 Er1 Ga4 Ir1 Pd3'
_cell_volume   236.46173196
_cell_formula_units_Z   1
loop_
 _symmetry_equiv_pos_site_id
 _symmetry_equiv_pos_as_xyz
  1  'x, y, z'
loop_
 _atom_site_type_symbol
 _atom_site_label
 _atom_site_symmetry_multiplicity
 _atom_site_fract_x
 _atom_site_fract_y
 _atom_site_fract_z
 _atom_site_occupancy
  Tb  Tb0  1  0.250000  0.987389  0.305376  1
  Tb  Tb1  1  0.750000  0.025203  0.690729  1
  Tb  Tb2  1  0.750000  0.520274  0.806167  1
  Er  Er3  1  0.250000  0.477317  0.199746  1
  Ga  Ga4  1  0.250000  0.330388  0.569345  1
  Ga  Ga5  1  0.250000  0.829484  0.930369  1
  Ga  Ga6  1  0.750000  0.661674  0.427619  1
  Ga  Ga7  1  0.750000  0.172067  0.073028  1
  Ir  Ir8  1  0.750000  0.274472  0.393385  1
  Pd  Pd9  1  0.250000  0.223480  0.898315  1
  Pd  Pd10  1  0.250000  0.722106  0.603158  1
  Pd  Pd11  1  0.750000  0.776148  0.102762  1
