# generated using pymatgen
data_Ho9Tm11(Bi2Ru)4
_symmetry_space_group_name_H-M   'P 1'
_cell_length_a   7.89429518
_cell_length_b   8.96871800
_cell_length_c   12.41490684
_cell_angle_alpha   90.00000000
_cell_angle_beta   89.93744344
_cell_angle_gamma   90.00000000
_symmetry_Int_Tables_number   1
_chemical_formula_structural   Ho9Tm11(Bi2Ru)4
_chemical_formula_sum   'Ho9 Tm11 Bi8 Ru4'
_cell_volume   878.99607635
_cell_formula_units_Z   1
loop_
 _symmetry_equiv_pos_site_id
 _symmetry_equiv_pos_as_xyz
  1  'x, y, z'
loop_
 _atom_site_type_symbol
 _atom_site_label
 _atom_site_symmetry_multiplicity
 _atom_site_fract_x
 _atom_site_fract_y
 _atom_site_fract_z
 _atom_site_occupancy
  Ho  Ho0  1  0.659511  0.750000  0.292043  1
  Ho  Ho1  1  0.375872  0.750000  0.690222  1
  Ho  Ho2  1  0.624104  0.250000  0.309847  1
  Ho  Ho3  1  0.875997  0.250000  0.809839  1
  Ho  Ho4  1  0.124310  0.750000  0.190094  1
  Ho  Ho5  1  0.945360  0.750000  0.504452  1
  Ho  Ho6  1  0.055263  0.250000  0.495964  1
  Ho  Ho7  1  0.444610  0.250000  0.995675  1
  Ho  Ho8  1  0.555017  0.750000  0.004041  1
  Tm  Tm9  1  0.840949  0.750000  0.792680  1
  Tm  Tm10  1  0.158910  0.250000  0.207271  1
  Tm  Tm11  1  0.340810  0.250000  0.707384  1
  Tm  Tm12  1  0.672565  0.043024  0.565016  1
  Tm  Tm13  1  0.327038  0.957526  0.435423  1
  Tm  Tm14  1  0.172641  0.957106  0.935101  1
  Tm  Tm15  1  0.327038  0.542474  0.435423  1
  Tm  Tm16  1  0.827436  0.042967  0.064779  1
  Tm  Tm17  1  0.672565  0.456976  0.565016  1
  Tm  Tm18  1  0.827436  0.457033  0.064779  1
  Tm  Tm19  1  0.172641  0.542894  0.935101  1
  Bi  Bi20  1  0.566941  0.493112  0.826903  1
  Bi  Bi21  1  0.432467  0.506247  0.172722  1
  Bi  Bi22  1  0.066814  0.506863  0.673012  1
  Bi  Bi23  1  0.432467  0.993753  0.172722  1
  Bi  Bi24  1  0.933727  0.492643  0.327110  1
  Bi  Bi25  1  0.566941  0.006888  0.826903  1
  Bi  Bi26  1  0.933727  0.007357  0.327110  1
  Bi  Bi27  1  0.066814  0.993137  0.673012  1
  Ru  Ru28  1  0.573645  0.750000  0.509656  1
  Ru  Ru29  1  0.426390  0.250000  0.490706  1
  Ru  Ru30  1  0.073513  0.250000  0.990639  1
  Ru  Ru31  1  0.926479  0.750000  0.009354  1
