# generated using pymatgen
data_Tm4Lu4B24Os3W
_symmetry_space_group_name_H-M   'P 1'
_cell_length_a   3.59368400
_cell_length_b   9.08641204
_cell_length_c   11.47178102
_cell_angle_alpha   89.89631667
_cell_angle_beta   90.00000000
_cell_angle_gamma   90.00000000
_symmetry_Int_Tables_number   1
_chemical_formula_structural   Tm4Lu4B24Os3W
_chemical_formula_sum   'Tm4 Lu4 B24 Os3 W1'
_cell_volume   374.59540863
_cell_formula_units_Z   1
loop_
 _symmetry_equiv_pos_site_id
 _symmetry_equiv_pos_as_xyz
  1  'x, y, z'
loop_
 _atom_site_type_symbol
 _atom_site_label
 _atom_site_symmetry_multiplicity
 _atom_site_fract_x
 _atom_site_fract_y
 _atom_site_fract_z
 _atom_site_occupancy
  Tm  Tm0  1  0.000000  0.320153  0.413515  1
  Tm  Tm1  1  0.000000  0.678959  0.585561  1
  Tm  Tm2  1  0.000000  0.819162  0.086823  1
  Tm  Tm3  1  0.000000  0.178359  0.914628  1
  Lu  Lu4  1  0.000000  0.945947  0.373791  1
  Lu  Lu5  1  0.000000  0.057517  0.627838  1
  Lu  Lu6  1  0.000000  0.442472  0.125575  1
  Lu  Lu7  1  0.000000  0.556842  0.872032  1
  B  B8  1  0.500000  0.549638  0.436953  1
  B  B9  1  0.500000  0.446162  0.568159  1
  B  B10  1  0.500000  0.053545  0.066273  1
  B  B11  1  0.500000  0.946431  0.933599  1
  B  B12  1  0.500000  0.753210  0.422967  1
  B  B13  1  0.500000  0.250926  0.580935  1
  B  B14  1  0.500000  0.249157  0.079697  1
  B  B15  1  0.500000  0.750568  0.919351  1
  B  B16  1  0.500000  0.796100  0.263720  1
  B  B17  1  0.500000  0.208296  0.734722  1
  B  B18  1  0.500000  0.290617  0.232540  1
  B  B19  1  0.500000  0.708992  0.765588  1
  B  B20  1  0.500000  0.630999  0.181061  1
  B  B21  1  0.500000  0.369013  0.815607  1
  B  B22  1  0.500000  0.130721  0.314653  1
  B  B23  1  0.500000  0.870350  0.684972  1
  B  B24  1  0.500000  0.982620  0.212773  1
  B  B25  1  0.500000  0.018595  0.787952  1
  B  B26  1  0.500000  0.475400  0.286022  1
  B  B27  1  0.500000  0.517918  0.713382  1
  B  B28  1  0.500000  0.603936  0.027069  1
  B  B29  1  0.500000  0.394924  0.970104  1
  B  B30  1  0.500000  0.105568  0.471549  1
  B  B31  1  0.500000  0.898293  0.530181  1
  Os  Os32  1  0.000000  0.361647  0.680396  1
  Os  Os33  1  0.000000  0.137124  0.177843  1
  Os  Os34  1  0.000000  0.862501  0.820751  1
  W  W35  1  0.000000  0.637338  0.321417  1
