# generated using pymatgen
data_TbEr5(BiO7)2
_symmetry_space_group_name_H-M   'P 1'
_cell_length_a   6.52560127
_cell_length_b   6.50444650
_cell_length_c   7.66808840
_cell_angle_alpha   106.91269771
_cell_angle_beta   89.71192029
_cell_angle_gamma   98.83531011
_symmetry_Int_Tables_number   1
_chemical_formula_structural   TbEr5(BiO7)2
_chemical_formula_sum   'Tb1 Er5 Bi2 O14'
_cell_volume   307.43229326
_cell_formula_units_Z   1
loop_
 _symmetry_equiv_pos_site_id
 _symmetry_equiv_pos_as_xyz
  1  'x, y, z'
loop_
 _atom_site_type_symbol
 _atom_site_label
 _atom_site_symmetry_multiplicity
 _atom_site_fract_x
 _atom_site_fract_y
 _atom_site_fract_z
 _atom_site_occupancy
  Tb  Tb0  1  0.265245  0.523816  0.387047  1
  Er  Er1  1  0.462698  0.005770  0.251526  1
  Er  Er2  1  0.537976  0.994405  0.748455  1
  Er  Er3  1  0.273840  0.538047  0.882921  1
  Er  Er4  1  0.726576  0.462147  0.116709  1
  Er  Er5  1  0.730973  0.474048  0.612346  1
  Bi  Bi6  1  0.999559  0.000265  0.500286  1
  Bi  Bi7  1  0.999833  0.999646  0.999750  1
  O  O8  1  0.447813  0.650109  0.165379  1
  O  O9  1  0.553995  0.350284  0.832628  1
  O  O10  1  0.303365  0.920549  0.950553  1
  O  O11  1  0.696599  0.079585  0.049127  1
  O  O12  1  0.300409  0.924398  0.513402  1
  O  O13  1  0.699428  0.077257  0.487407  1
  O  O14  1  0.547202  0.361957  0.344470  1
  O  O15  1  0.457414  0.637812  0.657434  1
  O  O16  1  0.925158  0.664689  0.961331  1
  O  O17  1  0.075065  0.335092  0.038616  1
  O  O18  1  0.069329  0.352624  0.622630  1
  O  O19  1  0.927487  0.648542  0.378149  1
  O  O20  1  0.871511  0.898944  0.724192  1
  O  O21  1  0.128525  0.100014  0.275641  1
