# generated using pymatgen
data_Yb4Cu5Pd3
_symmetry_space_group_name_H-M   'P 1'
_cell_length_a   5.19308227
_cell_length_b   5.19308186
_cell_length_c   8.96635300
_cell_angle_alpha   90.00000000
_cell_angle_beta   90.00000000
_cell_angle_gamma   121.70420115
_symmetry_Int_Tables_number   1
_chemical_formula_structural   Yb4Cu5Pd3
_chemical_formula_sum   'Yb4 Cu5 Pd3'
_cell_volume   205.72150235
_cell_formula_units_Z   1
loop_
 _symmetry_equiv_pos_site_id
 _symmetry_equiv_pos_as_xyz
  1  'x, y, z'
loop_
 _atom_site_type_symbol
 _atom_site_label
 _atom_site_symmetry_multiplicity
 _atom_site_fract_x
 _atom_site_fract_y
 _atom_site_fract_z
 _atom_site_occupancy
  Yb  Yb0  1  0.333888  0.666112  0.433105  1
  Yb  Yb1  1  0.666494  0.333506  0.562901  1
  Yb  Yb2  1  0.666494  0.333506  0.937099  1
  Yb  Yb3  1  0.333888  0.666112  0.066895  1
  Cu  Cu4  1  0.828530  0.667878  0.250000  1
  Cu  Cu5  1  0.332122  0.171470  0.250000  1
  Cu  Cu6  1  0.170358  0.829642  0.750000  1
  Cu  Cu7  1  0.169204  0.337682  0.750000  1
  Cu  Cu8  1  0.662318  0.830796  0.750000  1
  Pd  Pd9  1  0.005460  0.994540  0.504076  1
  Pd  Pd10  1  0.005460  0.994540  0.995924  1
  Pd  Pd11  1  0.825784  0.174216  0.250000  1
