# generated using pymatgen
data_Ti15V4Si16Pt
_symmetry_space_group_name_H-M   'P 1'
_cell_length_a   6.62408133
_cell_length_b   6.62324843
_cell_length_c   12.07123611
_cell_angle_alpha   89.94241168
_cell_angle_beta   90.32878986
_cell_angle_gamma   89.79294527
_symmetry_Int_Tables_number   1
_chemical_formula_structural   Ti15V4Si16Pt
_chemical_formula_sum   'Ti15 V4 Si16 Pt1'
_cell_volume   529.58811535
_cell_formula_units_Z   1
loop_
 _symmetry_equiv_pos_site_id
 _symmetry_equiv_pos_as_xyz
  1  'x, y, z'
loop_
 _atom_site_type_symbol
 _atom_site_label
 _atom_site_symmetry_multiplicity
 _atom_site_fract_x
 _atom_site_fract_y
 _atom_site_fract_z
 _atom_site_occupancy
  Ti  Ti0  1  0.501402  0.650105  0.629199  1
  Ti  Ti1  1  0.003651  0.844091  0.118105  1
  Ti  Ti2  1  0.150642  0.000385  0.375306  1
  Ti  Ti3  1  0.845879  0.003013  0.883217  1
  Ti  Ti4  1  0.002178  0.346568  0.219734  1
  Ti  Ti5  1  0.156634  0.501694  0.468884  1
  Ti  Ti6  1  0.835745  0.495507  0.971703  1
  Ti  Ti7  1  0.502187  0.157412  0.530872  1
  Ti  Ti8  1  0.498547  0.834253  0.028916  1
  Ti  Ti9  1  0.997106  0.656911  0.718955  1
  Ti  Ti10  1  0.346212  0.000904  0.780411  1
  Ti  Ti11  1  0.657678  0.998423  0.281032  1
  Ti  Ti12  1  0.331416  0.669674  0.247117  1
  Ti  Ti13  1  0.669492  0.328551  0.752232  1
  Ti  Ti14  1  0.830143  0.832267  0.500093  1
  V  V15  1  0.993254  0.152076  0.623330  1
  V  V16  1  0.354254  0.495551  0.867477  1
  V  V17  1  0.652667  0.506716  0.372552  1
  V  V18  1  0.498887  0.355167  0.131067  1
  Si  Si19  1  0.046882  0.300221  0.813820  1
  Si  Si20  1  0.209530  0.541461  0.059212  1
  Si  Si21  1  0.799623  0.454663  0.563502  1
  Si  Si22  1  0.542348  0.207788  0.940415  1
  Si  Si23  1  0.456138  0.798459  0.435651  1
  Si  Si24  1  0.955329  0.699203  0.313753  1
  Si  Si25  1  0.303610  0.048872  0.183854  1
  Si  Si26  1  0.702720  0.957128  0.687090  1
  Si  Si27  1  0.289476  0.356731  0.672602  1
  Si  Si28  1  0.136904  0.777235  0.917076  1
  Si  Si29  1  0.858700  0.210827  0.423613  1
  Si  Si30  1  0.778467  0.135264  0.083390  1
  Si  Si31  1  0.204860  0.866397  0.577379  1
  Si  Si32  1  0.705871  0.637148  0.174634  1
  Si  Si33  1  0.366269  0.297607  0.326145  1
  Si  Si34  1  0.638483  0.704826  0.827955  1
  Pt  Pt35  1  0.176814  0.176903  0.999706  1
