# generated using pymatgen
data_Sc6Ti2Al15Ir7
_symmetry_space_group_name_H-M   'P 1'
_cell_length_a   8.82226178
_cell_length_b   8.82226107
_cell_length_c   8.82226109
_cell_angle_alpha   120.21391798
_cell_angle_beta   119.65438845
_cell_angle_gamma   90.11477215
_symmetry_Int_Tables_number   1
_chemical_formula_structural   Sc6Ti2Al15Ir7
_chemical_formula_sum   'Sc6 Ti2 Al15 Ir7'
_cell_volume   486.00743794
_cell_formula_units_Z   1
loop_
 _symmetry_equiv_pos_site_id
 _symmetry_equiv_pos_as_xyz
  1  'x, y, z'
loop_
 _atom_site_type_symbol
 _atom_site_label
 _atom_site_symmetry_multiplicity
 _atom_site_fract_x
 _atom_site_fract_y
 _atom_site_fract_z
 _atom_site_occupancy
  Sc  Sc0  1  0.787162  0.281522  0.061330  1
  Sc  Sc1  1  0.220191  0.281522  0.494360  1
  Sc  Sc2  1  0.213944  0.713944  0.500000  1
  Sc  Sc3  1  0.220191  0.725832  0.938670  1
  Sc  Sc4  1  0.787162  0.725832  0.505640  1
  Sc  Sc5  1  0.775400  0.275400  0.500000  1
  Ti  Ti6  1  0.379866  0.125367  0.745501  1
  Ti  Ti7  1  0.379866  0.634364  0.254499  1
  Al  Al8  1  0.993306  0.493306  0.500000  1
  Al  Al9  1  0.160917  0.339851  0.178932  1
  Al  Al10  1  0.160917  0.981985  0.821068  1
  Al  Al11  1  0.154355  0.343100  0.811255  1
  Al  Al12  1  0.531845  0.343100  0.188745  1
  Al  Al13  1  0.839564  0.656593  0.817029  1
  Al  Al14  1  0.839564  0.022536  0.182971  1
  Al  Al15  1  0.837409  0.659749  0.177660  1
  Al  Al16  1  0.482089  0.659749  0.822340  1
  Al  Al17  1  0.380161  0.122556  0.257606  1
  Al  Al18  1  0.864952  0.122556  0.742394  1
  Al  Al19  1  0.620176  0.874700  0.254525  1
  Al  Al20  1  0.620176  0.365652  0.745475  1
  Al  Al21  1  0.619419  0.877049  0.742369  1
  Al  Al22  1  0.134679  0.877049  0.257631  1
  Ir  Ir23  1  0.001890  0.999829  0.501659  1
  Ir  Ir24  1  0.498170  0.999829  0.997939  1
  Ir  Ir25  1  0.497770  0.497770  0.000000  1
  Ir  Ir26  1  0.498170  0.500230  0.498341  1
  Ir  Ir27  1  0.001890  0.500230  0.002061  1
  Ir  Ir28  1  0.000751  0.000751  0.000000  1
  Ir  Ir29  1  0.498044  0.998044  0.500000  1
