# generated using pymatgen
data_La12Nd2IrPt5
_symmetry_space_group_name_H-M   'P 1'
_cell_length_a   6.58098672
_cell_length_b   10.32764749
_cell_length_c   10.33384385
_cell_angle_alpha   119.97603459
_cell_angle_beta   89.98986297
_cell_angle_gamma   90.00179411
_symmetry_Int_Tables_number   1
_chemical_formula_structural   La12Nd2IrPt5
_chemical_formula_sum   'La12 Nd2 Ir1 Pt5'
_cell_volume   608.40078637
_cell_formula_units_Z   1
loop_
 _symmetry_equiv_pos_site_id
 _symmetry_equiv_pos_as_xyz
  1  'x, y, z'
loop_
 _atom_site_type_symbol
 _atom_site_label
 _atom_site_symmetry_multiplicity
 _atom_site_fract_x
 _atom_site_fract_y
 _atom_site_fract_z
 _atom_site_occupancy
  La  La0  1  0.247104  0.127157  0.872148  1
  La  La1  1  0.247112  0.744925  0.872109  1
  La  La2  1  0.252571  0.127836  0.255728  1
  La  La3  1  0.745843  0.878478  0.131155  1
  La  La4  1  0.745950  0.252758  0.131201  1
  La  La5  1  0.746580  0.872448  0.744864  1
  La  La6  1  0.440226  0.536849  0.461032  1
  La  La7  1  0.440173  0.924177  0.461026  1
  La  La8  1  0.441495  0.537894  0.075855  1
  La  La9  1  0.938040  0.456793  0.535570  1
  La  La10  1  0.937871  0.078805  0.535623  1
  La  La11  1  0.941190  0.462065  0.924104  1
  Nd  Nd12  1  0.465299  0.331719  0.663436  1
  Nd  Nd13  1  0.960503  0.666845  0.333654  1
  Ir  Ir14  1  0.691611  0.188514  0.377013  1
  Pt  Pt15  1  0.192048  0.810945  0.187780  1
  Pt  Pt16  1  0.192031  0.376847  0.187832  1
  Pt  Pt17  1  0.192465  0.811730  0.623481  1
  Pt  Pt18  1  0.691918  0.188632  0.813213  1
  Pt  Pt19  1  0.691966  0.624585  0.813175  1
