# generated using pymatgen
data_Er12Ir2PdPt
_symmetry_space_group_name_H-M   'P 1'
_cell_length_a   6.38887827
_cell_length_b   7.10151109
_cell_length_c   9.32344000
_cell_angle_alpha   90.00000000
_cell_angle_beta   90.00000000
_cell_angle_gamma   89.95472389
_symmetry_Int_Tables_number   1
_chemical_formula_structural   Er12Ir2PdPt
_chemical_formula_sum   'Er12 Ir2 Pd1 Pt1'
_cell_volume   423.01077271
_cell_formula_units_Z   1
loop_
 _symmetry_equiv_pos_site_id
 _symmetry_equiv_pos_as_xyz
  1  'x, y, z'
loop_
 _atom_site_type_symbol
 _atom_site_label
 _atom_site_symmetry_multiplicity
 _atom_site_fract_x
 _atom_site_fract_y
 _atom_site_fract_z
 _atom_site_occupancy
  Er  Er0  1  0.332202  0.676663  0.058808  1
  Er  Er1  1  0.176104  0.184509  0.438900  1
  Er  Er2  1  0.671938  0.320651  0.560726  1
  Er  Er3  1  0.822720  0.817973  0.936971  1
  Er  Er4  1  0.671938  0.320651  0.939274  1
  Er  Er5  1  0.822720  0.817973  0.563029  1
  Er  Er6  1  0.332202  0.676663  0.441192  1
  Er  Er7  1  0.176104  0.184509  0.061100  1
  Er  Er8  1  0.864868  0.524509  0.250000  1
  Er  Er9  1  0.626228  0.036549  0.250000  1
  Er  Er10  1  0.131082  0.473854  0.750000  1
  Er  Er11  1  0.371443  0.964678  0.750000  1
  Ir  Ir12  1  0.449981  0.385978  0.250000  1
  Ir  Ir13  1  0.545837  0.613513  0.750000  1
  Pd  Pd14  1  0.050262  0.886834  0.250000  1
  Pt  Pt15  1  0.954368  0.114492  0.750000  1
