# generated using pymatgen
data_Ce3In3NiPdRh
_symmetry_space_group_name_H-M   'P 1'
_cell_length_a   7.60653800
_cell_length_b   7.60653738
_cell_length_c   3.96691600
_cell_angle_alpha   90.00000000
_cell_angle_beta   90.00000000
_cell_angle_gamma   119.99999401
_symmetry_Int_Tables_number   1
_chemical_formula_structural   Ce3In3NiPdRh
_chemical_formula_sum   'Ce3 In3 Ni1 Pd1 Rh1'
_cell_volume   198.77314309
_cell_formula_units_Z   1
loop_
 _symmetry_equiv_pos_site_id
 _symmetry_equiv_pos_as_xyz
  1  'x, y, z'
loop_
 _atom_site_type_symbol
 _atom_site_label
 _atom_site_symmetry_multiplicity
 _atom_site_fract_x
 _atom_site_fract_y
 _atom_site_fract_z
 _atom_site_occupancy
  Ce  Ce0  1  0.416145  0.407075  0.000000  1
  Ce  Ce1  1  0.592925  0.009069  0.000000  1
  Ce  Ce2  1  0.990931  0.583855  0.000000  1
  In  In3  1  0.754493  0.755110  0.500000  1
  In  In4  1  0.244890  0.999384  0.500000  1
  In  In5  1  0.000616  0.245507  0.500000  1
  Ni  Ni6  1  0.000000  0.000000  0.000000  1
  Pd  Pd7  1  0.333333  0.666667  0.500000  1
  Rh  Rh8  1  0.666667  0.333333  0.500000  1
