# generated using pymatgen
data_TbTm3ReB12Ru
_symmetry_space_group_name_H-M   'P 1'
_cell_length_a   3.64317300
_cell_length_b   9.10451918
_cell_length_c   11.49275200
_cell_angle_alpha   89.80821616
_cell_angle_beta   90.00000000
_cell_angle_gamma   90.00000000
_symmetry_Int_Tables_number   1
_chemical_formula_structural   TbTm3ReB12Ru
_chemical_formula_sum   'Tb2 Tm6 Re2 B24 Ru2'
_cell_volume   381.20484551
_cell_formula_units_Z   2
loop_
 _symmetry_equiv_pos_site_id
 _symmetry_equiv_pos_as_xyz
  1  'x, y, z'
loop_
 _atom_site_type_symbol
 _atom_site_label
 _atom_site_symmetry_multiplicity
 _atom_site_fract_x
 _atom_site_fract_y
 _atom_site_fract_z
 _atom_site_occupancy
  Tb  Tb0  1  0.000000  0.323921  0.415019  1
  Tb  Tb1  1  0.000000  0.676079  0.584981  1
  Tm  Tm2  1  0.000000  0.820501  0.087439  1
  Tm  Tm3  1  0.000000  0.179499  0.912561  1
  Tm  Tm4  1  0.000000  0.943007  0.370266  1
  Tm  Tm5  1  0.000000  0.056993  0.629734  1
  Tm  Tm6  1  0.000000  0.442876  0.128661  1
  Tm  Tm7  1  0.000000  0.557124  0.871339  1
  Re  Re8  1  0.000000  0.639201  0.319079  1
  Re  Re9  1  0.000000  0.360799  0.680921  1
  B  B10  1  0.500000  0.553519  0.432438  1
  B  B11  1  0.500000  0.446481  0.567562  1
  B  B12  1  0.500000  0.053376  0.066303  1
  B  B13  1  0.500000  0.946624  0.933697  1
  B  B14  1  0.500000  0.750213  0.418117  1
  B  B15  1  0.500000  0.249787  0.581883  1
  B  B16  1  0.500000  0.248915  0.080278  1
  B  B17  1  0.500000  0.751085  0.919722  1
  B  B18  1  0.500000  0.792710  0.264052  1
  B  B19  1  0.500000  0.207290  0.735948  1
  B  B20  1  0.500000  0.290619  0.233237  1
  B  B21  1  0.500000  0.709381  0.766763  1
  B  B22  1  0.500000  0.631261  0.183724  1
  B  B23  1  0.500000  0.368739  0.816276  1
  B  B24  1  0.500000  0.129826  0.313665  1
  B  B25  1  0.500000  0.870174  0.686335  1
  B  B26  1  0.500000  0.982104  0.211386  1
  B  B27  1  0.500000  0.017896  0.788614  1
  B  B28  1  0.500000  0.482411  0.286203  1
  B  B29  1  0.500000  0.517589  0.713797  1
  B  B30  1  0.500000  0.603415  0.028297  1
  B  B31  1  0.500000  0.396585  0.971703  1
  B  B32  1  0.500000  0.100524  0.472035  1
  B  B33  1  0.500000  0.899476  0.527965  1
  Ru  Ru34  1  0.000000  0.137286  0.177875  1
  Ru  Ru35  1  0.000000  0.862714  0.822125  1
