# generated using pymatgen
data_Lu8Cr(B8Rh)3
_symmetry_space_group_name_H-M   'P 1'
_cell_length_a   3.57071000
_cell_length_b   9.04526705
_cell_length_c   11.39896032
_cell_angle_alpha   90.16176301
_cell_angle_beta   90.00000000
_cell_angle_gamma   90.00000000
_symmetry_Int_Tables_number   1
_chemical_formula_structural   Lu8Cr(B8Rh)3
_chemical_formula_sum   'Lu8 Cr1 B24 Rh3'
_cell_volume   368.16244356
_cell_formula_units_Z   1
loop_
 _symmetry_equiv_pos_site_id
 _symmetry_equiv_pos_as_xyz
  1  'x, y, z'
loop_
 _atom_site_type_symbol
 _atom_site_label
 _atom_site_symmetry_multiplicity
 _atom_site_fract_x
 _atom_site_fract_y
 _atom_site_fract_z
 _atom_site_occupancy
  Lu  Lu0  1  0.500000  0.317758  0.409851  1
  Lu  Lu1  1  0.500000  0.678274  0.585528  1
  Lu  Lu2  1  0.500000  0.177999  0.918228  1
  Lu  Lu3  1  0.500000  0.825753  0.087381  1
  Lu  Lu4  1  0.500000  0.441944  0.125937  1
  Lu  Lu5  1  0.500000  0.555435  0.873466  1
  Lu  Lu6  1  0.500000  0.055354  0.627216  1
  Lu  Lu7  1  0.500000  0.947663  0.371867  1
  Cr  Cr8  1  0.500000  0.139392  0.179415  1
  B  B9  1  0.000000  0.107474  0.471248  1
  B  B10  1  0.000000  0.892294  0.529703  1
  B  B11  1  0.000000  0.392806  0.969988  1
  B  B12  1  0.000000  0.608542  0.029332  1
  B  B13  1  0.000000  0.132510  0.314949  1
  B  B14  1  0.000000  0.866770  0.683028  1
  B  B15  1  0.000000  0.367288  0.817432  1
  B  B16  1  0.000000  0.632680  0.183367  1
  B  B17  1  0.000000  0.053488  0.066260  1
  B  B18  1  0.000000  0.947601  0.934703  1
  B  B19  1  0.000000  0.446368  0.564840  1
  B  B20  1  0.000000  0.552853  0.434357  1
  B  B21  1  0.000000  0.481426  0.286979  1
  B  B22  1  0.000000  0.518233  0.712777  1
  B  B23  1  0.000000  0.018560  0.787690  1
  B  B24  1  0.000000  0.983008  0.212535  1
  B  B25  1  0.000000  0.248796  0.080273  1
  B  B26  1  0.000000  0.750029  0.921630  1
  B  B27  1  0.000000  0.249366  0.578502  1
  B  B28  1  0.000000  0.750758  0.420816  1
  B  B29  1  0.000000  0.293619  0.234778  1
  B  B30  1  0.000000  0.705151  0.763893  1
  B  B31  1  0.000000  0.205892  0.736462  1
  B  B32  1  0.000000  0.794760  0.264765  1
  Rh  Rh33  1  0.500000  0.859949  0.821069  1
  Rh  Rh34  1  0.500000  0.360329  0.678896  1
  Rh  Rh35  1  0.500000  0.639878  0.320839  1
