# generated using pymatgen
data_Ti5InPtRh9
_symmetry_space_group_name_H-M   'P 1'
_cell_length_a   4.07015000
_cell_length_b   5.48564396
_cell_length_c   10.80330281
_cell_angle_alpha   91.10806867
_cell_angle_beta   90.00000000
_cell_angle_gamma   90.00000000
_symmetry_Int_Tables_number   1
_chemical_formula_structural   Ti5InPtRh9
_chemical_formula_sum   'Ti5 In1 Pt1 Rh9'
_cell_volume   241.16448913
_cell_formula_units_Z   1
loop_
 _symmetry_equiv_pos_site_id
 _symmetry_equiv_pos_as_xyz
  1  'x, y, z'
loop_
 _atom_site_type_symbol
 _atom_site_label
 _atom_site_symmetry_multiplicity
 _atom_site_fract_x
 _atom_site_fract_y
 _atom_site_fract_z
 _atom_site_occupancy
  Ti  Ti0  1  0.000000  0.493482  0.501167  1
  Ti  Ti1  1  0.500000  0.332299  0.140669  1
  Ti  Ti2  1  0.500000  0.680578  0.854686  1
  Ti  Ti3  1  0.500000  0.824201  0.361896  1
  Ti  Ti4  1  0.500000  0.164952  0.642517  1
  In  In5  1  0.000000  0.005608  0.999039  1
  Pt  Pt6  1  0.000000  0.071814  0.251164  1
  Rh  Rh7  1  0.000000  0.995971  0.501418  1
  Rh  Rh8  1  0.000000  0.507011  0.998697  1
  Rh  Rh9  1  0.000000  0.925095  0.750074  1
  Rh  Rh10  1  0.000000  0.571396  0.260211  1
  Rh  Rh11  1  0.000000  0.424323  0.737954  1
  Rh  Rh12  1  0.500000  0.308014  0.394090  1
  Rh  Rh13  1  0.500000  0.687969  0.605644  1
  Rh  Rh14  1  0.500000  0.786925  0.123519  1
  Rh  Rh15  1  0.500000  0.220360  0.877256  1
