# generated using pymatgen
data_Yb4MgOsC8
_symmetry_space_group_name_H-M   'P 1'
_cell_length_a   6.81596507
_cell_length_b   6.81596510
_cell_length_c   6.81596300
_cell_angle_alpha   134.35709628
_cell_angle_beta   108.59402648
_cell_angle_gamma   88.96927464
_symmetry_Int_Tables_number   1
_chemical_formula_structural   Yb4MgOsC8
_chemical_formula_sum   'Yb4 Mg1 Os1 C8'
_cell_volume   204.53950949
_cell_formula_units_Z   1
loop_
 _symmetry_equiv_pos_site_id
 _symmetry_equiv_pos_as_xyz
  1  'x, y, z'
loop_
 _atom_site_type_symbol
 _atom_site_label
 _atom_site_symmetry_multiplicity
 _atom_site_fract_x
 _atom_site_fract_y
 _atom_site_fract_z
 _atom_site_occupancy
  Yb  Yb0  1  0.203114  0.344153  0.846271  1
  Yb  Yb1  1  0.796875  0.643148  0.141028  1
  Yb  Yb2  1  0.497894  0.856840  0.653715  1
  Yb  Yb3  1  0.502113  0.155813  0.358938  1
  Mg  Mg4  1  0.000033  0.250050  0.250060  1
  Os  Os5  1  0.999988  0.750057  0.750054  1
  C  C6  1  0.789389  0.136973  0.672759  1
  C  C7  1  0.210600  0.883368  0.347587  1
  C  C8  1  0.464195  0.616577  0.827184  1
  C  C9  1  0.535810  0.363013  0.152404  1
  C  C10  1  0.894959  0.021999  0.745401  1
  C  C11  1  0.105038  0.850427  0.127023  1
  C  C12  1  0.276604  0.649579  0.754624  1
  C  C13  1  0.723388  0.478004  0.372953  1
