# generated using pymatgen
data_Nb3Co8Ni
_symmetry_space_group_name_H-M   'P 1'
_cell_length_a   6.95862246
_cell_length_b   6.93799780
_cell_length_c   6.95862208
_cell_angle_alpha   43.76923078
_cell_angle_beta   43.85304260
_cell_angle_gamma   43.76923344
_symmetry_Int_Tables_number   1
_chemical_formula_structural   Nb3Co8Ni
_chemical_formula_sum   'Nb3 Co8 Ni1'
_cell_volume   146.10311052
_cell_formula_units_Z   1
loop_
 _symmetry_equiv_pos_site_id
 _symmetry_equiv_pos_as_xyz
  1  'x, y, z'
loop_
 _atom_site_type_symbol
 _atom_site_label
 _atom_site_symmetry_multiplicity
 _atom_site_fract_x
 _atom_site_fract_y
 _atom_site_fract_z
 _atom_site_occupancy
  Nb  Nb0  1  0.000000  0.000000  0.000000  1
  Nb  Nb1  1  0.216183  0.219729  0.216183  1
  Nb  Nb2  1  0.783817  0.780271  0.783817  1
  Co  Co3  1  0.500000  0.500000  0.000000  1
  Co  Co4  1  0.713511  0.713852  0.241839  1
  Co  Co5  1  0.286131  0.758706  0.286130  1
  Co  Co6  1  0.758161  0.286149  0.286489  1
  Co  Co7  1  0.000000  0.500001  0.500000  1
  Co  Co8  1  0.241839  0.713851  0.713511  1
  Co  Co9  1  0.713869  0.241294  0.713870  1
  Co  Co10  1  0.286489  0.286148  0.758161  1
  Ni  Ni11  1  0.500001  0.000000  0.500000  1
