# generated using pymatgen
data_Ca2Tb4Si24Os7Ru
_symmetry_space_group_name_H-M   'P 1'
_cell_length_a   10.15417822
_cell_length_b   10.15417822
_cell_length_c   8.16687104
_cell_angle_alpha   89.98403344
_cell_angle_beta   89.98402954
_cell_angle_gamma   132.47176422
_symmetry_Int_Tables_number   1
_chemical_formula_structural   Ca2Tb4Si24Os7Ru
_chemical_formula_sum   'Ca2 Tb4 Si24 Os7 Ru1'
_cell_volume   621.11506204
_cell_formula_units_Z   1
loop_
 _symmetry_equiv_pos_site_id
 _symmetry_equiv_pos_as_xyz
  1  'x, y, z'
loop_
 _atom_site_type_symbol
 _atom_site_label
 _atom_site_symmetry_multiplicity
 _atom_site_fract_x
 _atom_site_fract_y
 _atom_site_fract_z
 _atom_site_occupancy
  Ca  Ca0  1  0.500159  0.500159  0.499602  1
  Ca  Ca1  1  0.000483  0.000483  0.999826  1
  Tb  Tb2  1  0.500384  0.000526  0.750127  1
  Tb  Tb3  1  0.999133  0.499674  0.249947  1
  Tb  Tb4  1  0.499674  0.999133  0.249947  1
  Tb  Tb5  1  0.000526  0.500384  0.750127  1
  Si  Si6  1  0.796982  0.202950  0.500093  1
  Si  Si7  1  0.296935  0.702927  0.000181  1
  Si  Si8  1  0.202950  0.796982  0.500093  1
  Si  Si9  1  0.702927  0.296935  0.000181  1
  Si  Si10  1  0.334345  0.334345  0.831297  1
  Si  Si11  1  0.668423  0.668423  0.166036  1
  Si  Si12  1  0.167706  0.167706  0.332046  1
  Si  Si13  1  0.832189  0.832189  0.668090  1
  Si  Si14  1  0.121690  0.889878  0.730352  1
  Si  Si15  1  0.109976  0.877587  0.269739  1
  Si  Si16  1  0.608948  0.376505  0.230252  1
  Si  Si17  1  0.622352  0.390582  0.770146  1
  Si  Si18  1  0.877587  0.109976  0.269739  1
  Si  Si19  1  0.889878  0.121690  0.730352  1
  Si  Si20  1  0.390582  0.622352  0.770146  1
  Si  Si21  1  0.376505  0.608948  0.230252  1
  Si  Si22  1  0.346884  0.114771  0.506379  1
  Si  Si23  1  0.884713  0.652985  0.493937  1
  Si  Si24  1  0.385381  0.153009  0.007521  1
  Si  Si25  1  0.846497  0.614689  0.993310  1
  Si  Si26  1  0.652985  0.884713  0.493937  1
  Si  Si27  1  0.114771  0.346884  0.506379  1
  Si  Si28  1  0.614689  0.846497  0.993310  1
  Si  Si29  1  0.153009  0.385381  0.007521  1
  Os  Os30  1  0.671473  0.328392  0.500168  1
  Os  Os31  1  0.171533  0.828368  0.999773  1
  Os  Os32  1  0.328392  0.671473  0.500168  1
  Os  Os33  1  0.828368  0.171533  0.999773  1
  Os  Os34  1  0.126452  0.126452  0.626190  1
  Os  Os35  1  0.873910  0.873910  0.373471  1
  Os  Os36  1  0.374284  0.374284  0.125814  1
  Ru  Ru37  1  0.626322  0.626322  0.873773  1
