# generated using pymatgen
data_Er2Lu3(SnPb)2
_symmetry_space_group_name_H-M   'P 1'
_cell_length_a   8.03806300
_cell_length_b   8.08320900
_cell_length_c   15.33637300
_cell_angle_alpha   90.00000000
_cell_angle_beta   90.00000000
_cell_angle_gamma   90.00000000
_symmetry_Int_Tables_number   1
_chemical_formula_structural   Er2Lu3(SnPb)2
_chemical_formula_sum   'Er8 Lu12 Sn8 Pb8'
_cell_volume   996.45542613
_cell_formula_units_Z   4
loop_
 _symmetry_equiv_pos_site_id
 _symmetry_equiv_pos_as_xyz
  1  'x, y, z'
loop_
 _atom_site_type_symbol
 _atom_site_label
 _atom_site_symmetry_multiplicity
 _atom_site_fract_x
 _atom_site_fract_y
 _atom_site_fract_z
 _atom_site_occupancy
  Er  Er0  1  0.538660  0.323986  0.897905  1
  Er  Er1  1  0.038660  0.176014  0.602095  1
  Er  Er2  1  0.461340  0.676014  0.397905  1
  Er  Er3  1  0.961340  0.823986  0.102095  1
  Er  Er4  1  0.461340  0.676014  0.102095  1
  Er  Er5  1  0.961340  0.823986  0.397905  1
  Er  Er6  1  0.538660  0.323986  0.602095  1
  Er  Er7  1  0.038660  0.176014  0.897905  1
  Lu  Lu8  1  0.377810  0.842048  0.876017  1
  Lu  Lu9  1  0.877810  0.657952  0.623983  1
  Lu  Lu10  1  0.622190  0.157952  0.376017  1
  Lu  Lu11  1  0.122190  0.342048  0.123983  1
  Lu  Lu12  1  0.622190  0.157952  0.123983  1
  Lu  Lu13  1  0.122190  0.342048  0.376017  1
  Lu  Lu14  1  0.377810  0.842048  0.623983  1
  Lu  Lu15  1  0.877810  0.657952  0.876017  1
  Lu  Lu16  1  0.209258  0.505527  0.750000  1
  Lu  Lu17  1  0.709258  0.994473  0.750000  1
  Lu  Lu18  1  0.790742  0.494473  0.250000  1
  Lu  Lu19  1  0.290742  0.005527  0.250000  1
  Sn  Sn20  1  0.573126  0.625019  0.750000  1
  Sn  Sn21  1  0.073126  0.874981  0.750000  1
  Sn  Sn22  1  0.426874  0.374981  0.250000  1
  Sn  Sn23  1  0.926874  0.125019  0.250000  1
  Sn  Sn24  1  0.347450  0.152019  0.750000  1
  Sn  Sn25  1  0.847450  0.347981  0.750000  1
  Sn  Sn26  1  0.652550  0.847981  0.250000  1
  Sn  Sn27  1  0.152550  0.652019  0.250000  1
  Pb  Pb28  1  0.281859  0.034076  0.042275  1
  Pb  Pb29  1  0.781859  0.465924  0.457725  1
  Pb  Pb30  1  0.718141  0.965924  0.542275  1
  Pb  Pb31  1  0.218141  0.534076  0.957725  1
  Pb  Pb32  1  0.718141  0.965924  0.957725  1
  Pb  Pb33  1  0.218141  0.534076  0.542275  1
  Pb  Pb34  1  0.281859  0.034076  0.457725  1
  Pb  Pb35  1  0.781859  0.465924  0.042275  1
