# generated using pymatgen
data_Nd2HoZr(Al3Ir)6
_symmetry_space_group_name_H-M   'P 1'
_cell_length_a   7.57103169
_cell_length_b   7.56228858
_cell_length_c   9.48661000
_cell_angle_alpha   90.00000000
_cell_angle_beta   90.00000000
_cell_angle_gamma   119.53341467
_symmetry_Int_Tables_number   1
_chemical_formula_structural   Nd2HoZr(Al3Ir)6
_chemical_formula_sum   'Nd2 Ho1 Zr1 Al18 Ir6'
_cell_volume   472.57717041
_cell_formula_units_Z   1
loop_
 _symmetry_equiv_pos_site_id
 _symmetry_equiv_pos_as_xyz
  1  'x, y, z'
loop_
 _atom_site_type_symbol
 _atom_site_label
 _atom_site_symmetry_multiplicity
 _atom_site_fract_x
 _atom_site_fract_y
 _atom_site_fract_z
 _atom_site_occupancy
  Nd  Nd0  1  0.005194  0.327936  0.750000  1
  Nd  Nd1  1  0.329859  0.006368  0.750000  1
  Ho  Ho2  1  0.670958  0.995699  0.250000  1
  Zr  Zr3  1  0.997053  0.672906  0.250000  1
  Al  Al4  1  0.124583  0.122635  0.250000  1
  Al  Al5  1  0.868083  0.866595  0.750000  1
  Al  Al6  1  0.999761  0.338101  0.081107  1
  Al  Al7  1  0.997992  0.665132  0.934491  1
  Al  Al8  1  0.997992  0.665132  0.565509  1
  Al  Al9  1  0.332680  0.997874  0.418704  1
  Al  Al10  1  0.999761  0.338101  0.418893  1
  Al  Al11  1  0.664643  0.996379  0.569861  1
  Al  Al12  1  0.664643  0.996379  0.930139  1
  Al  Al13  1  0.332680  0.997874  0.081296  1
  Al  Al14  1  0.334621  0.334808  0.542688  1
  Al  Al15  1  0.669322  0.667419  0.441502  1
  Al  Al16  1  0.669322  0.667419  0.058498  1
  Al  Al17  1  0.334621  0.334808  0.957312  1
  Al  Al18  1  0.336814  0.550505  0.250000  1
  Al  Al19  1  0.660951  0.454856  0.750000  1
  Al  Al20  1  0.556204  0.344566  0.250000  1
  Al  Al21  1  0.453346  0.659473  0.750000  1
  Ir  Ir22  1  0.672538  0.328892  0.002604  1
  Ir  Ir23  1  0.328750  0.672458  0.003416  1
  Ir  Ir24  1  0.328750  0.672458  0.496584  1
  Ir  Ir25  1  0.672538  0.328892  0.497396  1
  Ir  Ir26  1  0.998170  0.998168  0.002940  1
  Ir  Ir27  1  0.998170  0.998168  0.497060  1
