# generated using pymatgen
data_RbNdGeS4
_symmetry_space_group_name_H-M   'P 1'
_cell_length_a   6.86593500
_cell_length_b   6.67573283
_cell_length_c   18.29525423
_cell_angle_alpha   72.08392017
_cell_angle_beta   90.00000000
_cell_angle_gamma   90.00000000
_symmetry_Int_Tables_number   1
_chemical_formula_structural   RbNdGeS4
_chemical_formula_sum   'Rb4 Nd4 Ge4 S16'
_cell_volume   797.90204318
_cell_formula_units_Z   4
loop_
 _symmetry_equiv_pos_site_id
 _symmetry_equiv_pos_as_xyz
  1  'x, y, z'
loop_
 _atom_site_type_symbol
 _atom_site_label
 _atom_site_symmetry_multiplicity
 _atom_site_fract_x
 _atom_site_fract_y
 _atom_site_fract_z
 _atom_site_occupancy
  Rb  Rb0  1  0.752585  0.279452  0.465466  1
  Rb  Rb1  1  0.252585  0.720548  0.034534  1
  Rb  Rb2  1  0.247415  0.720548  0.534534  1
  Rb  Rb3  1  0.747415  0.279452  0.965466  1
  Nd  Nd4  1  0.773143  0.227750  0.225857  1
  Nd  Nd5  1  0.726857  0.227750  0.725857  1
  Nd  Nd6  1  0.273143  0.772250  0.274143  1
  Nd  Nd7  1  0.226857  0.772250  0.774143  1
  Ge  Ge8  1  0.240146  0.219013  0.336917  1
  Ge  Ge9  1  0.740146  0.780987  0.163083  1
  Ge  Ge10  1  0.759854  0.780987  0.663083  1
  Ge  Ge11  1  0.259854  0.219013  0.836917  1
  S  S12  1  0.495671  0.975220  0.858679  1
  S  S13  1  0.745790  0.581005  0.086969  1
  S  S14  1  0.992501  0.018774  0.849822  1
  S  S15  1  0.507499  0.018774  0.349822  1
  S  S16  1  0.007499  0.981226  0.150178  1
  S  S17  1  0.325103  0.422928  0.717660  1
  S  S18  1  0.254210  0.418995  0.913031  1
  S  S19  1  0.004329  0.975220  0.358679  1
  S  S20  1  0.245790  0.418995  0.413031  1
  S  S21  1  0.995671  0.024780  0.641321  1
  S  S22  1  0.754210  0.581005  0.586969  1
  S  S23  1  0.674897  0.577072  0.282340  1
  S  S24  1  0.492501  0.981226  0.650178  1
  S  S25  1  0.825103  0.577072  0.782340  1
  S  S26  1  0.174897  0.422928  0.217660  1
  S  S27  1  0.504329  0.024780  0.141321  1
