# generated using pymatgen
data_Dy8Y2Tl4In3Ni4Pb
_symmetry_space_group_name_H-M   'P 1'
_cell_length_a   3.58414200
_cell_length_b   8.08802350
_cell_length_c   18.01757200
_cell_angle_alpha   89.96518909
_cell_angle_beta   90.00147070
_cell_angle_gamma   90.00266449
_symmetry_Int_Tables_number   1
_chemical_formula_structural   Dy8Y2Tl4In3Ni4Pb
_chemical_formula_sum   'Dy8 Y2 Tl4 In3 Ni4 Pb1'
_cell_volume   522.30453627
_cell_formula_units_Z   1
loop_
 _symmetry_equiv_pos_site_id
 _symmetry_equiv_pos_as_xyz
  1  'x, y, z'
loop_
 _atom_site_type_symbol
 _atom_site_label
 _atom_site_symmetry_multiplicity
 _atom_site_fract_x
 _atom_site_fract_y
 _atom_site_fract_z
 _atom_site_occupancy
  Dy  Dy0  1  0.499288  0.375405  0.586962  1
  Dy  Dy1  1  0.500504  0.886756  0.913104  1
  Dy  Dy2  1  0.499929  0.115696  0.087074  1
  Dy  Dy3  1  0.499849  0.759447  0.722030  1
  Dy  Dy4  1  0.499915  0.261658  0.782689  1
  Dy  Dy5  1  0.500165  0.742367  0.217929  1
  Dy  Dy6  1  0.500088  0.240844  0.279942  1
  Dy  Dy7  1  0.500349  0.613454  0.409930  1
  Y  Y8  1  0.500200  0.499948  0.000643  1
  Y  Y9  1  0.499877  0.003509  0.498891  1
  Tl  Tl10  1  0.000261  0.794771  0.066843  1
  Tl  Tl11  1  0.000047  0.921708  0.346408  1
  Tl  Tl12  1  0.999639  0.083468  0.655303  1
  Tl  Tl13  1  0.999929  0.579953  0.848262  1
  In  In14  1  0.000246  0.204327  0.933926  1
  In  In15  1  0.000010  0.295142  0.430960  1
  In  In16  1  0.000357  0.419562  0.153213  1
  Ni  Ni17  1  0.000800  0.980932  0.804941  1
  Ni  Ni18  1  0.000809  0.519672  0.303257  1
  Ni  Ni19  1  0.999008  0.472234  0.695797  1
  Ni  Ni20  1  0.998999  0.028319  0.196192  1
  Pb  Pb21  1  0.999732  0.700830  0.565708  1
