# generated using pymatgen
data_La2ErBe2(PPd5)4
_symmetry_space_group_name_H-M   'P 1'
_cell_length_a   8.73707934
_cell_length_b   8.64035225
_cell_length_c   8.64035226
_cell_angle_alpha   60.74204429
_cell_angle_beta   59.62897499
_cell_angle_gamma   59.62898488
_symmetry_Int_Tables_number   1
_chemical_formula_structural   La2ErBe2(PPd5)4
_chemical_formula_sum   'La2 Er1 Be2 P4 Pd20'
_cell_volume   461.10951617
_cell_formula_units_Z   1
loop_
 _symmetry_equiv_pos_site_id
 _symmetry_equiv_pos_as_xyz
  1  'x, y, z'
loop_
 _atom_site_type_symbol
 _atom_site_label
 _atom_site_symmetry_multiplicity
 _atom_site_fract_x
 _atom_site_fract_y
 _atom_site_fract_z
 _atom_site_occupancy
  La  La0  1  0.250000  0.250000  0.250000  1
  La  La1  1  0.750000  0.750000  0.750000  1
  Er  Er2  1  0.000000  0.000000  0.000000  1
  Be  Be3  1  0.733171  0.266829  0.266829  1
  Be  Be4  1  0.266829  0.733171  0.733171  1
  P  P5  1  0.265486  0.734514  0.265486  1
  P  P6  1  0.734514  0.265486  0.734514  1
  P  P7  1  0.265486  0.265486  0.734514  1
  P  P8  1  0.734514  0.734514  0.265486  1
  Pd  Pd9  1  0.389438  0.383854  0.383854  1
  Pd  Pd10  1  0.610562  0.616146  0.616146  1
  Pd  Pd11  1  0.383854  0.389438  0.842854  1
  Pd  Pd12  1  0.383854  0.842854  0.389438  1
  Pd  Pd13  1  0.616146  0.610562  0.157146  1
  Pd  Pd14  1  0.616146  0.157146  0.610562  1
  Pd  Pd15  1  0.842854  0.383854  0.383854  1
  Pd  Pd16  1  0.157146  0.616146  0.616146  1
  Pd  Pd17  1  0.343830  0.000000  0.000000  1
  Pd  Pd18  1  0.656170  0.000000  0.000000  1
  Pd  Pd19  1  0.000000  0.343830  0.656170  1
  Pd  Pd20  1  0.000000  0.656170  0.343830  1
  Pd  Pd21  1  0.996698  0.342824  0.003302  1
  Pd  Pd22  1  0.657176  0.003302  0.342824  1
  Pd  Pd23  1  0.003302  0.657176  0.996698  1
  Pd  Pd24  1  0.342824  0.996698  0.657176  1
  Pd  Pd25  1  0.996698  0.003302  0.342824  1
  Pd  Pd26  1  0.003302  0.996698  0.657176  1
  Pd  Pd27  1  0.657176  0.342824  0.003302  1
  Pd  Pd28  1  0.342824  0.657176  0.996698  1
