# generated using pymatgen
data_LiLa2Ho4Rh17
_symmetry_space_group_name_H-M   'P 1'
_cell_length_a   5.32388300
_cell_length_b   5.32388195
_cell_length_c   17.41252500
_cell_angle_alpha   90.00000000
_cell_angle_beta   90.00000000
_cell_angle_gamma   120.00000032
_symmetry_Int_Tables_number   1
_chemical_formula_structural   LiLa2Ho4Rh17
_chemical_formula_sum   'Li1 La2 Ho4 Rh17'
_cell_volume   427.41455058
_cell_formula_units_Z   1
loop_
 _symmetry_equiv_pos_site_id
 _symmetry_equiv_pos_as_xyz
  1  'x, y, z'
loop_
 _atom_site_type_symbol
 _atom_site_label
 _atom_site_symmetry_multiplicity
 _atom_site_fract_x
 _atom_site_fract_y
 _atom_site_fract_z
 _atom_site_occupancy
  Li  Li0  1  0.000000  0.000000  0.250000  1
  La  La1  1  0.333333  0.666667  0.750000  1
  La  La2  1  0.666667  0.333333  0.250000  1
  Ho  Ho3  1  0.333333  0.666667  0.538589  1
  Ho  Ho4  1  0.666667  0.333333  0.041353  1
  Ho  Ho5  1  0.666667  0.333333  0.458647  1
  Ho  Ho6  1  0.333333  0.666667  0.961411  1
  Rh  Rh7  1  0.167971  0.335943  0.124063  1
  Rh  Rh8  1  0.832062  0.664122  0.623476  1
  Rh  Rh9  1  0.664057  0.832029  0.124063  1
  Rh  Rh10  1  0.167971  0.832029  0.124063  1
  Rh  Rh11  1  0.832062  0.167938  0.623476  1
  Rh  Rh12  1  0.335878  0.167938  0.623476  1
  Rh  Rh13  1  0.832062  0.664122  0.876524  1
  Rh  Rh14  1  0.832062  0.167938  0.876524  1
  Rh  Rh15  1  0.335878  0.167938  0.876524  1
  Rh  Rh16  1  0.664057  0.832029  0.375937  1
  Rh  Rh17  1  0.167971  0.832029  0.375937  1
  Rh  Rh18  1  0.167971  0.335943  0.375937  1
  Rh  Rh19  1  0.000000  0.000000  0.750000  1
  Rh  Rh20  1  0.333333  0.666667  0.250000  1
  Rh  Rh21  1  0.666667  0.333333  0.750000  1
  Rh  Rh22  1  0.000000  0.000000  0.001538  1
  Rh  Rh23  1  0.000000  0.000000  0.498462  1
