# generated using pymatgen
data_Hf6Al3Ga3Ir5Pt
_symmetry_space_group_name_H-M   'P 1'
_cell_length_a   7.15838550
_cell_length_b   7.16346381
_cell_length_c   6.97663221
_cell_angle_alpha   90.00899433
_cell_angle_beta   90.01809886
_cell_angle_gamma   119.73058003
_symmetry_Int_Tables_number   1
_chemical_formula_structural   Hf6Al3Ga3Ir5Pt
_chemical_formula_sum   'Hf6 Al3 Ga3 Ir5 Pt1'
_cell_volume   310.66134631
_cell_formula_units_Z   1
loop_
 _symmetry_equiv_pos_site_id
 _symmetry_equiv_pos_as_xyz
  1  'x, y, z'
loop_
 _atom_site_type_symbol
 _atom_site_label
 _atom_site_symmetry_multiplicity
 _atom_site_fract_x
 _atom_site_fract_y
 _atom_site_fract_z
 _atom_site_occupancy
  Hf  Hf0  1  0.397082  0.400849  0.249426  1
  Hf  Hf1  1  0.599331  0.003030  0.748972  1
  Hf  Hf2  1  0.408412  0.405352  0.749469  1
  Hf  Hf3  1  0.995378  0.593266  0.748852  1
  Hf  Hf4  1  0.002813  0.604154  0.250786  1
  Hf  Hf5  1  0.603149  0.996394  0.249869  1
  Al  Al6  1  0.271778  0.000643  0.002768  1
  Al  Al7  1  0.255245  0.000944  0.497821  1
  Al  Al8  1  0.002115  0.255086  0.498269  1
  Ga  Ga9  1  0.001339  0.276361  0.002532  1
  Ga  Ga10  1  0.727022  0.726381  0.002386  1
  Ga  Ga11  1  0.740624  0.739777  0.498124  1
  Ir  Ir12  1  0.664917  0.327403  0.496451  1
  Ir  Ir13  1  0.660398  0.328456  0.003582  1
  Ir  Ir14  1  0.332519  0.671058  0.994154  1
  Ir  Ir15  1  0.327385  0.665267  0.505134  1
  Ir  Ir16  1  0.004740  0.002676  0.236061  1
  Pt  Pt17  1  0.005752  0.002903  0.765344  1
