# generated using pymatgen
data_Tb4Lu4Tc3B24Os
_symmetry_space_group_name_H-M   'P 1'
_cell_length_a   3.64574600
_cell_length_b   9.10177746
_cell_length_c   11.49881201
_cell_angle_alpha   89.95291260
_cell_angle_beta   90.00000000
_cell_angle_gamma   90.00000000
_symmetry_Int_Tables_number   1
_chemical_formula_structural   Tb4Lu4Tc3B24Os
_chemical_formula_sum   'Tb4 Lu4 Tc3 B24 Os1'
_cell_volume   381.56229147
_cell_formula_units_Z   1
loop_
 _symmetry_equiv_pos_site_id
 _symmetry_equiv_pos_as_xyz
  1  'x, y, z'
loop_
 _atom_site_type_symbol
 _atom_site_label
 _atom_site_symmetry_multiplicity
 _atom_site_fract_x
 _atom_site_fract_y
 _atom_site_fract_z
 _atom_site_occupancy
  Tb  Tb0  1  0.000000  0.322981  0.413783  1
  Tb  Tb1  1  0.000000  0.676079  0.584525  1
  Tb  Tb2  1  0.000000  0.822379  0.087252  1
  Tb  Tb3  1  0.000000  0.178488  0.914503  1
  Lu  Lu4  1  0.000000  0.942880  0.370258  1
  Lu  Lu5  1  0.000000  0.057831  0.629735  1
  Lu  Lu6  1  0.000000  0.443327  0.129990  1
  Lu  Lu7  1  0.000000  0.556542  0.869741  1
  Tc  Tc8  1  0.000000  0.639148  0.319651  1
  Tc  Tc9  1  0.000000  0.360811  0.680898  1
  Tc  Tc10  1  0.000000  0.138773  0.179418  1
  B  B11  1  0.500000  0.553629  0.432389  1
  B  B12  1  0.500000  0.446316  0.567450  1
  B  B13  1  0.500000  0.053616  0.067441  1
  B  B14  1  0.500000  0.945750  0.932336  1
  B  B15  1  0.500000  0.750337  0.418304  1
  B  B16  1  0.500000  0.249382  0.581775  1
  B  B17  1  0.500000  0.250931  0.081736  1
  B  B18  1  0.500000  0.749669  0.917969  1
  B  B19  1  0.500000  0.792622  0.265744  1
  B  B20  1  0.500000  0.207544  0.734833  1
  B  B21  1  0.500000  0.292566  0.234478  1
  B  B22  1  0.500000  0.708146  0.765389  1
  B  B23  1  0.500000  0.630134  0.185027  1
  B  B24  1  0.500000  0.369830  0.815523  1
  B  B25  1  0.500000  0.129662  0.314738  1
  B  B26  1  0.500000  0.869847  0.685054  1
  B  B27  1  0.500000  0.981588  0.212734  1
  B  B28  1  0.500000  0.017238  0.787281  1
  B  B29  1  0.500000  0.481874  0.287081  1
  B  B30  1  0.500000  0.517968  0.712772  1
  B  B31  1  0.500000  0.599523  0.027253  1
  B  B32  1  0.500000  0.401588  0.972587  1
  B  B33  1  0.500000  0.099121  0.472685  1
  B  B34  1  0.500000  0.900938  0.527764  1
  Os  Os35  1  0.000000  0.860941  0.819901  1
