# generated using pymatgen
data_YbPa(AlRh)2
_symmetry_space_group_name_H-M   'P 1'
_cell_length_a   4.13994500
_cell_length_b   6.95353085
_cell_length_c   8.09144779
_cell_angle_alpha   89.28320534
_cell_angle_beta   90.00000000
_cell_angle_gamma   90.00000000
_symmetry_Int_Tables_number   1
_chemical_formula_structural   YbPa(AlRh)2
_chemical_formula_sum   'Yb2 Pa2 Al4 Rh4'
_cell_volume   232.91218361
_cell_formula_units_Z   2
loop_
 _symmetry_equiv_pos_site_id
 _symmetry_equiv_pos_as_xyz
  1  'x, y, z'
loop_
 _atom_site_type_symbol
 _atom_site_label
 _atom_site_symmetry_multiplicity
 _atom_site_fract_x
 _atom_site_fract_y
 _atom_site_fract_z
 _atom_site_occupancy
  Yb  Yb0  1  0.250000  0.539572  0.824283  1
  Yb  Yb1  1  0.750000  0.460428  0.175717  1
  Pa  Pa2  1  0.750000  0.957908  0.318418  1
  Pa  Pa3  1  0.250000  0.042092  0.681582  1
  Al  Al4  1  0.750000  0.863736  0.943297  1
  Al  Al5  1  0.250000  0.136264  0.056703  1
  Al  Al6  1  0.250000  0.622670  0.442501  1
  Al  Al7  1  0.750000  0.377330  0.557499  1
  Rh  Rh8  1  0.750000  0.762366  0.615873  1
  Rh  Rh9  1  0.250000  0.237634  0.384127  1
  Rh  Rh10  1  0.250000  0.775244  0.139809  1
  Rh  Rh11  1  0.750000  0.224756  0.860191  1
