# generated using pymatgen
data_RbLiSmF5
_symmetry_space_group_name_H-M   'P 1'
_cell_length_a   12.23630400
_cell_length_b   6.56109830
_cell_length_c   6.77080183
_cell_angle_alpha   65.93319355
_cell_angle_beta   90.00000000
_cell_angle_gamma   90.00000000
_symmetry_Int_Tables_number   1
_chemical_formula_structural   RbLiSmF5
_chemical_formula_sum   'Rb4 Li4 Sm4 F20'
_cell_volume   496.33083532
_cell_formula_units_Z   4
loop_
 _symmetry_equiv_pos_site_id
 _symmetry_equiv_pos_as_xyz
  1  'x, y, z'
loop_
 _atom_site_type_symbol
 _atom_site_label
 _atom_site_symmetry_multiplicity
 _atom_site_fract_x
 _atom_site_fract_y
 _atom_site_fract_z
 _atom_site_occupancy
  Rb  Rb0  1  0.846667  0.036563  0.948877  1
  Rb  Rb1  1  0.653333  0.536563  0.948877  1
  Rb  Rb2  1  0.346667  0.463437  0.051123  1
  Rb  Rb3  1  0.153333  0.963437  0.051123  1
  Li  Li4  1  0.748237  0.460529  0.446374  1
  Li  Li5  1  0.751763  0.960529  0.446374  1
  Li  Li6  1  0.251763  0.539471  0.553626  1
  Li  Li7  1  0.248237  0.039471  0.553626  1
  Sm  Sm8  1  0.996675  0.319050  0.320413  1
  Sm  Sm9  1  0.003325  0.680950  0.679587  1
  Sm  Sm10  1  0.503325  0.819050  0.320413  1
  Sm  Sm11  1  0.496675  0.180950  0.679587  1
  F  F12  1  0.673667  0.285583  0.698320  1
  F  F13  1  0.605000  0.967868  0.532690  1
  F  F14  1  0.326333  0.714417  0.301680  1
  F  F15  1  0.008069  0.329390  0.959408  1
  F  F16  1  0.173667  0.214417  0.301680  1
  F  F17  1  0.395000  0.032132  0.467310  1
  F  F18  1  0.895000  0.467868  0.532690  1
  F  F19  1  0.530680  0.454827  0.336466  1
  F  F20  1  0.804063  0.270510  0.293014  1
  F  F21  1  0.304063  0.229490  0.706986  1
  F  F22  1  0.469320  0.545173  0.663534  1
  F  F23  1  0.991931  0.670610  0.040592  1
  F  F24  1  0.195937  0.729490  0.706986  1
  F  F25  1  0.508069  0.170610  0.040592  1
  F  F26  1  0.969320  0.954827  0.336466  1
  F  F27  1  0.695937  0.770510  0.293014  1
  F  F28  1  0.030680  0.045173  0.663534  1
  F  F29  1  0.826333  0.785583  0.698320  1
  F  F30  1  0.105000  0.532132  0.467310  1
  F  F31  1  0.491931  0.829390  0.959408  1
