# generated using pymatgen
data_Tb4Ga7Au5
_symmetry_space_group_name_H-M   'P 1'
_cell_length_a   4.42348700
_cell_length_b   6.90587008
_cell_length_c   10.34224487
_cell_angle_alpha   90.16152663
_cell_angle_beta   90.00000000
_cell_angle_gamma   90.00000000
_symmetry_Int_Tables_number   1
_chemical_formula_structural   Tb4Ga7Au5
_chemical_formula_sum   'Tb4 Ga7 Au5'
_cell_volume   315.93391481
_cell_formula_units_Z   1
loop_
 _symmetry_equiv_pos_site_id
 _symmetry_equiv_pos_as_xyz
  1  'x, y, z'
loop_
 _atom_site_type_symbol
 _atom_site_label
 _atom_site_symmetry_multiplicity
 _atom_site_fract_x
 _atom_site_fract_y
 _atom_site_fract_z
 _atom_site_occupancy
  Tb  Tb0  1  0.500000  0.773612  0.172444  1
  Tb  Tb1  1  0.500000  0.269958  0.334140  1
  Tb  Tb2  1  0.000000  0.226354  0.833265  1
  Tb  Tb3  1  0.000000  0.734928  0.661018  1
  Ga  Ga4  1  0.500000  0.923718  0.848696  1
  Ga  Ga5  1  0.500000  0.427069  0.652302  1
  Ga  Ga6  1  0.000000  0.078863  0.147378  1
  Ga  Ga7  1  0.000000  0.571808  0.351286  1
  Ga  Ga8  1  0.500000  0.209397  0.038507  1
  Ga  Ga9  1  0.000000  0.287207  0.540157  1
  Ga  Ga10  1  0.000000  0.789425  0.960309  1
  Au  Au11  1  0.500000  0.539146  0.897653  1
  Au  Au12  1  0.500000  0.046850  0.607607  1
  Au  Au13  1  0.000000  0.463441  0.106843  1
  Au  Au14  1  0.000000  0.963468  0.389033  1
  Au  Au15  1  0.500000  0.694759  0.459363  1
