# generated using pymatgen
data_Tb3PrIr2(RhO7)2
_symmetry_space_group_name_H-M   'P 1'
_cell_length_a   7.33151133
_cell_length_b   7.28668220
_cell_length_c   7.27083016
_cell_angle_alpha   59.92785065
_cell_angle_beta   60.19004188
_cell_angle_gamma   60.20206900
_symmetry_Int_Tables_number   1
_chemical_formula_structural   Tb3PrIr2(RhO7)2
_chemical_formula_sum   'Tb3 Pr1 Ir2 Rh2 O14'
_cell_volume   275.31775285
_cell_formula_units_Z   1
loop_
 _symmetry_equiv_pos_site_id
 _symmetry_equiv_pos_as_xyz
  1  'x, y, z'
loop_
 _atom_site_type_symbol
 _atom_site_label
 _atom_site_symmetry_multiplicity
 _atom_site_fract_x
 _atom_site_fract_y
 _atom_site_fract_z
 _atom_site_occupancy
  Tb  Tb0  1  0.125000  0.125000  0.625000  1
  Tb  Tb1  1  0.125000  0.125000  0.125000  1
  Tb  Tb2  1  0.125000  0.625000  0.125000  1
  Pr  Pr3  1  0.625000  0.125000  0.125000  1
  Ir  Ir4  1  0.125000  0.625000  0.625000  1
  Ir  Ir5  1  0.625000  0.625000  0.125000  1
  Rh  Rh6  1  0.625000  0.625000  0.625000  1
  Rh  Rh7  1  0.625000  0.125000  0.625000  1
  O  O8  1  0.963165  0.542247  0.537625  1
  O  O9  1  0.286835  0.293037  0.712375  1
  O  O10  1  0.958324  0.542146  0.957384  1
  O  O11  1  0.719861  0.293830  0.287153  1
  O  O12  1  0.530139  0.550844  0.962847  1
  O  O13  1  0.528662  0.963253  0.544832  1
  O  O14  1  0.530139  0.956170  0.962847  1
  O  O15  1  0.238875  0.254556  0.252013  1
  O  O16  1  0.286835  0.707753  0.712375  1
  O  O17  1  0.721338  0.286747  0.705168  1
  O  O18  1  0.011125  0.995444  0.997987  1
  O  O19  1  0.963165  0.956963  0.537625  1
  O  O20  1  0.291676  0.707854  0.292616  1
  O  O21  1  0.719861  0.699156  0.287153  1
