# generated using pymatgen
data_TbB3W
_symmetry_space_group_name_H-M   'P 1'
_cell_length_a   5.48640687
_cell_length_b   3.17254600
_cell_length_c   6.85698002
_cell_angle_alpha   90.00000000
_cell_angle_beta   102.43061755
_cell_angle_gamma   90.00000000
_symmetry_Int_Tables_number   1
_chemical_formula_structural   TbB3W
_chemical_formula_sum   'Tb2 B6 W2'
_cell_volume   116.55384190
_cell_formula_units_Z   2
loop_
 _symmetry_equiv_pos_site_id
 _symmetry_equiv_pos_as_xyz
  1  'x, y, z'
loop_
 _atom_site_type_symbol
 _atom_site_label
 _atom_site_symmetry_multiplicity
 _atom_site_fract_x
 _atom_site_fract_y
 _atom_site_fract_z
 _atom_site_occupancy
  Tb  Tb0  1  0.825632  0.750001  0.292040  1
  Tb  Tb1  1  0.174367  0.250001  0.707960  1
  B  B2  1  0.587254  0.250001  0.004934  1
  B  B3  1  0.916920  0.250001  0.006576  1
  B  B4  1  0.417851  0.750001  0.474501  1
  B  B5  1  0.582150  0.250001  0.525500  1
  B  B6  1  0.083079  0.750001  0.993424  1
  B  B7  1  0.412744  0.750001  0.995065  1
  W  W8  1  0.312737  0.250001  0.219180  1
  W  W9  1  0.687264  0.750001  0.780821  1
