# generated using pymatgen
data_SrCo3(Ni3B2)3
_symmetry_space_group_name_H-M   'P 1'
_cell_length_a   6.03415029
_cell_length_b   6.03415026
_cell_length_c   6.03415022
_cell_angle_alpha   104.38512625
_cell_angle_beta   104.38513514
_cell_angle_gamma   104.38511621
_symmetry_Int_Tables_number   1
_chemical_formula_structural   SrCo3(Ni3B2)3
_chemical_formula_sum   'Sr1 Co3 Ni9 B6'
_cell_volume   194.55958665
_cell_formula_units_Z   1
loop_
 _symmetry_equiv_pos_site_id
 _symmetry_equiv_pos_as_xyz
  1  'x, y, z'
loop_
 _atom_site_type_symbol
 _atom_site_label
 _atom_site_symmetry_multiplicity
 _atom_site_fract_x
 _atom_site_fract_y
 _atom_site_fract_z
 _atom_site_occupancy
  Sr  Sr0  1  0.000000  0.000000  0.000000  1
  Co  Co1  1  0.500000  0.865771  0.134229  1
  Co  Co2  1  0.134229  0.500000  0.865771  1
  Co  Co3  1  0.865771  0.134229  0.500000  1
  Ni  Ni4  1  0.540535  0.811419  0.543141  1
  Ni  Ni5  1  0.543141  0.540535  0.811419  1
  Ni  Ni6  1  0.811419  0.543141  0.540535  1
  Ni  Ni7  1  0.456859  0.188581  0.459465  1
  Ni  Ni8  1  0.459465  0.456859  0.188581  1
  Ni  Ni9  1  0.188581  0.459465  0.456859  1
  Ni  Ni10  1  0.131634  0.868366  0.500000  1
  Ni  Ni11  1  0.500000  0.131634  0.868366  1
  Ni  Ni12  1  0.868366  0.500000  0.131634  1
  B  B13  1  0.772138  0.336028  0.764638  1
  B  B14  1  0.764638  0.772138  0.336028  1
  B  B15  1  0.336028  0.764638  0.772138  1
  B  B16  1  0.235362  0.663972  0.227862  1
  B  B17  1  0.227862  0.235362  0.663972  1
  B  B18  1  0.663972  0.227862  0.235362  1
