# generated using pymatgen
data_Ho4Ga20(TcOs)3
_symmetry_space_group_name_H-M   'P 1'
_cell_length_a   8.99049677
_cell_length_b   8.99049677
_cell_length_c   6.36299600
_cell_angle_alpha   90.00000000
_cell_angle_beta   90.00000000
_cell_angle_gamma   90.14058680
_symmetry_Int_Tables_number   1
_chemical_formula_structural   Ho4Ga20(TcOs)3
_chemical_formula_sum   'Ho4 Ga20 Tc3 Os3'
_cell_volume   514.31325969
_cell_formula_units_Z   1
loop_
 _symmetry_equiv_pos_site_id
 _symmetry_equiv_pos_as_xyz
  1  'x, y, z'
loop_
 _atom_site_type_symbol
 _atom_site_label
 _atom_site_symmetry_multiplicity
 _atom_site_fract_x
 _atom_site_fract_y
 _atom_site_fract_z
 _atom_site_occupancy
  Ho  Ho0  1  0.183056  0.316748  0.000000  1
  Ho  Ho1  1  0.683488  0.183488  0.000000  1
  Ho  Ho2  1  0.816748  0.683056  0.000000  1
  Ho  Ho3  1  0.317368  0.817368  0.000000  1
  Ga  Ga4  1  0.499958  0.999958  0.285694  1
  Ga  Ga5  1  0.499958  0.999958  0.714306  1
  Ga  Ga6  1  0.293620  0.560752  0.707027  1
  Ga  Ga7  1  0.999779  0.499779  0.286357  1
  Ga  Ga8  1  0.999779  0.499779  0.713643  1
  Ga  Ga9  1  0.060752  0.793620  0.707027  1
  Ga  Ga10  1  0.206534  0.060725  0.293149  1
  Ga  Ga11  1  0.060752  0.793620  0.292973  1
  Ga  Ga12  1  0.706721  0.439329  0.707335  1
  Ga  Ga13  1  0.206534  0.060725  0.706851  1
  Ga  Ga14  1  0.939329  0.206721  0.707335  1
  Ga  Ga15  1  0.706721  0.439329  0.292665  1
  Ga  Ga16  1  0.560725  0.706534  0.293149  1
  Ga  Ga17  1  0.939329  0.206721  0.292665  1
  Ga  Ga18  1  0.560725  0.706534  0.706851  1
  Ga  Ga19  1  0.793812  0.938703  0.292312  1
  Ga  Ga20  1  0.438703  0.293812  0.707688  1
  Ga  Ga21  1  0.793812  0.938703  0.707688  1
  Ga  Ga22  1  0.438703  0.293812  0.292312  1
  Ga  Ga23  1  0.293620  0.560752  0.292973  1
  Tc  Tc24  1  0.178220  0.320807  0.500000  1
  Tc  Tc25  1  0.321536  0.821536  0.500000  1
  Tc  Tc26  1  0.820807  0.678220  0.500000  1
  Os  Os27  1  0.999533  0.000908  0.000000  1
  Os  Os28  1  0.678467  0.178467  0.500000  1
  Os  Os29  1  0.500908  0.499533  0.000000  1
