# generated using pymatgen
data_Ce2Y3Bi2Ru
_symmetry_space_group_name_H-M   'P 1'
_cell_length_a   8.01840100
_cell_length_b   9.02962300
_cell_length_c   12.52133700
_cell_angle_alpha   90.00000000
_cell_angle_beta   90.00000000
_cell_angle_gamma   90.00000000
_symmetry_Int_Tables_number   1
_chemical_formula_structural   Ce2Y3Bi2Ru
_chemical_formula_sum   'Ce8 Y12 Bi8 Ru4'
_cell_volume   906.58409192
_cell_formula_units_Z   4
loop_
 _symmetry_equiv_pos_site_id
 _symmetry_equiv_pos_as_xyz
  1  'x, y, z'
loop_
 _atom_site_type_symbol
 _atom_site_label
 _atom_site_symmetry_multiplicity
 _atom_site_fract_x
 _atom_site_fract_y
 _atom_site_fract_z
 _atom_site_occupancy
  Ce  Ce0  1  0.666007  0.032147  0.556857  1
  Ce  Ce1  1  0.333993  0.967853  0.443143  1
  Ce  Ce2  1  0.166007  0.967853  0.943143  1
  Ce  Ce3  1  0.333993  0.532147  0.443143  1
  Ce  Ce4  1  0.833993  0.032147  0.056857  1
  Ce  Ce5  1  0.666007  0.467853  0.556857  1
  Ce  Ce6  1  0.833993  0.467853  0.056857  1
  Ce  Ce7  1  0.166007  0.532147  0.943143  1
  Y  Y8  1  0.835661  0.750000  0.788833  1
  Y  Y9  1  0.164339  0.250000  0.211167  1
  Y  Y10  1  0.335661  0.250000  0.711167  1
  Y  Y11  1  0.664339  0.750000  0.288833  1
  Y  Y12  1  0.366123  0.750000  0.708042  1
  Y  Y13  1  0.633877  0.250000  0.291958  1
  Y  Y14  1  0.866123  0.250000  0.791958  1
  Y  Y15  1  0.133877  0.750000  0.208042  1
  Y  Y16  1  0.963486  0.750000  0.499508  1
  Y  Y17  1  0.036514  0.250000  0.500492  1
  Y  Y18  1  0.463486  0.250000  0.000492  1
  Y  Y19  1  0.536514  0.750000  0.999508  1
  Bi  Bi20  1  0.568953  0.489908  0.827329  1
  Bi  Bi21  1  0.431047  0.510092  0.172671  1
  Bi  Bi22  1  0.068953  0.510092  0.672671  1
  Bi  Bi23  1  0.431047  0.989908  0.172671  1
  Bi  Bi24  1  0.931047  0.489908  0.327329  1
  Bi  Bi25  1  0.568953  0.010092  0.827329  1
  Bi  Bi26  1  0.931047  0.010092  0.327329  1
  Bi  Bi27  1  0.068953  0.989908  0.672671  1
  Ru  Ru28  1  0.590076  0.750000  0.522850  1
  Ru  Ru29  1  0.409924  0.250000  0.477150  1
  Ru  Ru30  1  0.090076  0.250000  0.977150  1
  Ru  Ru31  1  0.909924  0.750000  0.022850  1
