# generated using pymatgen
data_Ti9Ir10W
_symmetry_space_group_name_H-M   'P 1'
_cell_length_a   7.41642316
_cell_length_b   7.41642373
_cell_length_c   7.41642300
_cell_angle_alpha   102.73530177
_cell_angle_beta   102.73530277
_cell_angle_gamma   123.99396669
_symmetry_Int_Tables_number   1
_chemical_formula_structural   Ti9Ir10W
_chemical_formula_sum   'Ti9 Ir10 W1'
_cell_volume   298.61480544
_cell_formula_units_Z   1
loop_
 _symmetry_equiv_pos_site_id
 _symmetry_equiv_pos_as_xyz
  1  'x, y, z'
loop_
 _atom_site_type_symbol
 _atom_site_label
 _atom_site_symmetry_multiplicity
 _atom_site_fract_x
 _atom_site_fract_y
 _atom_site_fract_z
 _atom_site_occupancy
  Ti  Ti0  1  0.000000  0.000000  0.000000  1
  Ti  Ti1  1  0.233972  0.590383  0.824355  1
  Ti  Ti2  1  0.409617  0.233972  0.643589  1
  Ti  Ti3  1  0.590383  0.766028  0.356411  1
  Ti  Ti4  1  0.766028  0.409617  0.175645  1
  Ti  Ti5  1  0.314699  0.898862  0.213560  1
  Ti  Ti6  1  0.101138  0.314699  0.415839  1
  Ti  Ti7  1  0.898862  0.685301  0.584161  1
  Ti  Ti8  1  0.685301  0.101138  0.786440  1
  Ir  Ir9  1  0.750000  0.250000  0.500000  1
  Ir  Ir10  1  0.250000  0.750000  0.500000  1
  Ir  Ir11  1  0.322556  0.017748  0.898933  1
  Ir  Ir12  1  0.423623  0.322556  0.304808  1
  Ir  Ir13  1  0.017748  0.118814  0.695192  1
  Ir  Ir14  1  0.118814  0.423623  0.101067  1
  Ir  Ir15  1  0.677444  0.982252  0.101067  1
  Ir  Ir16  1  0.576377  0.677444  0.695192  1
  Ir  Ir17  1  0.982252  0.881186  0.304808  1
  Ir  Ir18  1  0.881186  0.576377  0.898933  1
  W  W19  1  0.500000  0.500000  0.000000  1
