# generated using pymatgen
data_CePr3(Si5Pt3)2
_symmetry_space_group_name_H-M   'P 1'
_cell_length_a   8.27305731
_cell_length_b   8.27345581
_cell_length_c   8.27345593
_cell_angle_alpha   136.52426655
_cell_angle_beta   105.54241152
_cell_angle_gamma   90.36644794
_symmetry_Int_Tables_number   1
_chemical_formula_structural   CePr3(Si5Pt3)2
_chemical_formula_sum   'Ce1 Pr3 Si10 Pt6'
_cell_volume   357.74330339
_cell_formula_units_Z   1
loop_
 _symmetry_equiv_pos_site_id
 _symmetry_equiv_pos_as_xyz
  1  'x, y, z'
loop_
 _atom_site_type_symbol
 _atom_site_label
 _atom_site_symmetry_multiplicity
 _atom_site_fract_x
 _atom_site_fract_y
 _atom_site_fract_z
 _atom_site_occupancy
  Ce  Ce0  1  0.861042  0.629581  0.231461  1
  Pr  Pr1  1  0.139639  0.371603  0.768036  1
  Pr  Pr2  1  0.396316  0.128664  0.267652  1
  Pr  Pr3  1  0.603018  0.870696  0.732323  1
  Si  Si4  1  0.501599  0.750331  0.250701  1
  Si  Si5  1  0.501599  0.250898  0.751267  1
  Si  Si6  1  0.228206  0.978908  0.749804  1
  Si  Si7  1  0.771006  0.521738  0.751747  1
  Si  Si8  1  0.771006  0.019259  0.249269  1
  Si  Si9  1  0.228206  0.478403  0.249298  1
  Si  Si10  1  0.033780  0.885475  0.148304  1
  Si  Si11  1  0.963609  0.112695  0.850914  1
  Si  Si12  1  0.738813  0.387619  0.351195  1
  Si  Si13  1  0.262158  0.613537  0.648622  1
  Pt  Pt14  1  0.999957  0.749069  0.748559  1
  Pt  Pt15  1  0.999957  0.251398  0.250888  1
  Pt  Pt16  1  0.253419  0.863489  0.389931  1
  Pt  Pt17  1  0.747203  0.136724  0.610478  1
  Pt  Pt18  1  0.474042  0.364118  0.109925  1
  Pt  Pt19  1  0.525423  0.635797  0.889625  1
