# generated using pymatgen
data_TbY7Be3Si12Pd
_symmetry_space_group_name_H-M   'P 1'
_cell_length_a   7.95147500
_cell_length_b   7.95147495
_cell_length_c   8.11252700
_cell_angle_alpha   90.00000000
_cell_angle_beta   90.00000000
_cell_angle_gamma   120.00000437
_symmetry_Int_Tables_number   1
_chemical_formula_structural   TbY7Be3Si12Pd
_chemical_formula_sum   'Tb1 Y7 Be3 Si12 Pd1'
_cell_volume   444.20368872
_cell_formula_units_Z   1
loop_
 _symmetry_equiv_pos_site_id
 _symmetry_equiv_pos_as_xyz
  1  'x, y, z'
loop_
 _atom_site_type_symbol
 _atom_site_label
 _atom_site_symmetry_multiplicity
 _atom_site_fract_x
 _atom_site_fract_y
 _atom_site_fract_z
 _atom_site_occupancy
  Tb  Tb0  1  0.000000  0.000000  0.750733  1
  Y  Y1  1  0.501232  0.002464  0.247724  1
  Y  Y2  1  0.501984  0.003971  0.752314  1
  Y  Y3  1  0.997536  0.498768  0.247724  1
  Y  Y4  1  0.996029  0.498016  0.752314  1
  Y  Y5  1  0.501232  0.498768  0.247724  1
  Y  Y6  1  0.501984  0.498016  0.752314  1
  Y  Y7  1  0.000000  0.000000  0.248941  1
  Be  Be8  1  0.333333  0.666667  0.001372  1
  Be  Be9  1  0.666667  0.333333  0.001140  1
  Be  Be10  1  0.666667  0.333333  0.497844  1
  Si  Si11  1  0.172179  0.344357  0.999343  1
  Si  Si12  1  0.826786  0.653572  0.000280  1
  Si  Si13  1  0.655643  0.827821  0.999343  1
  Si  Si14  1  0.828139  0.656279  0.500098  1
  Si  Si15  1  0.346428  0.173214  0.000280  1
  Si  Si16  1  0.166147  0.332292  0.499508  1
  Si  Si17  1  0.172179  0.827821  0.999343  1
  Si  Si18  1  0.343721  0.171861  0.500098  1
  Si  Si19  1  0.826786  0.173214  0.000280  1
  Si  Si20  1  0.667708  0.833853  0.499508  1
  Si  Si21  1  0.828139  0.171861  0.500098  1
  Si  Si22  1  0.166147  0.833853  0.499508  1
  Pd  Pd23  1  0.333333  0.666667  0.502166  1
