# generated using pymatgen
data_Pa8Al(Si4Os)3
_symmetry_space_group_name_H-M   'P 1'
_cell_length_a   8.04949900
_cell_length_b   8.04173056
_cell_length_c   7.94910400
_cell_angle_alpha   89.98612800
_cell_angle_beta   90.00017795
_cell_angle_gamma   119.94043553
_symmetry_Int_Tables_number   1
_chemical_formula_structural   Pa8Al(Si4Os)3
_chemical_formula_sum   'Pa8 Al1 Si12 Os3'
_cell_volume   445.88978003
_cell_formula_units_Z   1
loop_
 _symmetry_equiv_pos_site_id
 _symmetry_equiv_pos_as_xyz
  1  'x, y, z'
loop_
 _atom_site_type_symbol
 _atom_site_label
 _atom_site_symmetry_multiplicity
 _atom_site_fract_x
 _atom_site_fract_y
 _atom_site_fract_z
 _atom_site_occupancy
  Pa  Pa0  1  0.000001  0.999993  0.248504  1
  Pa  Pa1  1  0.000021  0.000001  0.751354  1
  Pa  Pa2  1  0.503750  0.496280  0.252184  1
  Pa  Pa3  1  0.503744  0.007436  0.252151  1
  Pa  Pa4  1  0.992595  0.496284  0.252079  1
  Pa  Pa5  1  0.500711  0.499243  0.747900  1
  Pa  Pa6  1  0.500733  0.001505  0.747927  1
  Pa  Pa7  1  0.998557  0.499278  0.747998  1
  Al  Al8  1  0.333498  0.666695  0.005175  1
  Si  Si9  1  0.164325  0.835403  0.497877  1
  Si  Si10  1  0.164312  0.328882  0.497852  1
  Si  Si11  1  0.671118  0.835569  0.497828  1
  Si  Si12  1  0.836740  0.163549  0.501786  1
  Si  Si13  1  0.836775  0.673200  0.501794  1
  Si  Si14  1  0.326976  0.163473  0.501691  1
  Si  Si15  1  0.836196  0.163864  0.999913  1
  Si  Si16  1  0.836262  0.672415  0.999937  1
  Si  Si17  1  0.327661  0.163823  0.999994  1
  Si  Si18  1  0.166234  0.833520  0.000053  1
  Si  Si19  1  0.166253  0.332803  0.000065  1
  Si  Si20  1  0.667224  0.833645  0.000137  1
  Os  Os21  1  0.333709  0.666763  0.500764  1
  Os  Os22  1  0.666300  0.333197  0.500941  1
  Os  Os23  1  0.666305  0.333183  0.994095  1
