# generated using pymatgen
data_Sc2Mn3Cr2(PRh)7
_symmetry_space_group_name_H-M   'P 1'
_cell_length_a   9.36863582
_cell_length_b   9.36515656
_cell_length_c   3.75343300
_cell_angle_alpha   90.00000000
_cell_angle_beta   90.00000000
_cell_angle_gamma   120.16491180
_symmetry_Int_Tables_number   1
_chemical_formula_structural   Sc2Mn3Cr2(PRh)7
_chemical_formula_sum   'Sc2 Mn3 Cr2 P7 Rh7'
_cell_volume   284.72565738
_cell_formula_units_Z   1
loop_
 _symmetry_equiv_pos_site_id
 _symmetry_equiv_pos_as_xyz
  1  'x, y, z'
loop_
 _atom_site_type_symbol
 _atom_site_label
 _atom_site_symmetry_multiplicity
 _atom_site_fract_x
 _atom_site_fract_y
 _atom_site_fract_z
 _atom_site_occupancy
  Sc  Sc0  1  0.999236  0.999227  0.000000  1
  Sc  Sc1  1  0.667903  0.331524  0.500000  1
  Mn  Mn2  1  0.606132  0.780977  0.000000  1
  Mn  Mn3  1  0.176299  0.395052  0.000000  1
  Mn  Mn4  1  0.220342  0.826544  0.000000  1
  Cr  Cr5  1  0.113967  0.566181  0.500000  1
  Cr  Cr6  1  0.453271  0.886655  0.500000  1
  P  P7  1  0.632940  0.555685  0.000000  1
  P  P8  1  0.925924  0.370477  0.000000  1
  P  P9  1  0.446326  0.076329  0.000000  1
  P  P10  1  0.732621  0.944179  0.500000  1
  P  P11  1  0.209004  0.265543  0.500000  1
  P  P12  1  0.056150  0.786934  0.500000  1
  P  P13  1  0.332171  0.668790  0.000000  1
  Rh  Rh14  1  0.400282  0.302799  0.000000  1
  Rh  Rh15  1  0.901632  0.599035  0.000000  1
  Rh  Rh16  1  0.698288  0.099888  0.000000  1
  Rh  Rh17  1  0.780199  0.725276  0.500000  1
  Rh  Rh18  1  0.945604  0.220341  0.500000  1
  Rh  Rh19  1  0.274216  0.055783  0.500000  1
  Rh  Rh20  1  0.427492  0.542780  0.500000  1
