# generated using pymatgen
data_Er4Al24(IrPt2)3
_symmetry_space_group_name_H-M   'P 1'
_cell_length_a   7.48417187
_cell_length_b   7.48423502
_cell_length_c   13.21111021
_cell_angle_alpha   100.78372696
_cell_angle_beta   95.39530626
_cell_angle_gamma   60.19041253
_symmetry_Int_Tables_number   1
_chemical_formula_structural   Er4Al24(IrPt2)3
_chemical_formula_sum   'Er4 Al24 Ir3 Pt6'
_cell_volume   630.74370468
_cell_formula_units_Z   1
loop_
 _symmetry_equiv_pos_site_id
 _symmetry_equiv_pos_as_xyz
  1  'x, y, z'
loop_
 _atom_site_type_symbol
 _atom_site_label
 _atom_site_symmetry_multiplicity
 _atom_site_fract_x
 _atom_site_fract_y
 _atom_site_fract_z
 _atom_site_occupancy
  Er  Er0  1  0.331168  0.060880  0.189117  1
  Er  Er1  1  0.001056  0.732147  0.188901  1
  Er  Er2  1  0.998940  0.267855  0.811096  1
  Er  Er3  1  0.668840  0.939107  0.810887  1
  Al  Al4  1  0.331871  0.681852  0.041600  1
  Al  Al5  1  0.665877  0.016891  0.052838  1
  Al  Al6  1  0.000977  0.351543  0.052931  1
  Al  Al7  1  0.663482  0.603418  0.180552  1
  Al  Al8  1  0.455574  0.396731  0.180879  1
  Al  Al9  1  0.871037  0.189452  0.181825  1
  Al  Al10  1  0.992589  0.442281  0.324418  1
  Al  Al11  1  0.665373  0.116911  0.324833  1
  Al  Al12  1  0.340866  0.767553  0.326978  1
  Al  Al13  1  0.668620  0.478674  0.439907  1
  Al  Al14  1  0.333981  0.145873  0.441614  1
  Al  Al15  1  0.998964  0.814357  0.441423  1
  Al  Al16  1  0.001036  0.185641  0.558573  1
  Al  Al17  1  0.666019  0.854127  0.558387  1
  Al  Al18  1  0.331382  0.521325  0.560092  1
  Al  Al19  1  0.659140  0.232442  0.673021  1
  Al  Al20  1  0.334631  0.883087  0.675168  1
  Al  Al21  1  0.007409  0.557724  0.675579  1
  Al  Al22  1  0.128958  0.810554  0.818172  1
  Al  Al23  1  0.544424  0.603268  0.819120  1
  Al  Al24  1  0.336519  0.396585  0.819448  1
  Al  Al25  1  0.999020  0.648459  0.947073  1
  Al  Al26  1  0.334115  0.983111  0.947164  1
  Al  Al27  1  0.668131  0.318149  0.958400  1
  Ir  Ir28  1  0.000000  0.000001  0.000000  1
  Ir  Ir29  1  0.328560  0.328482  0.999956  1
  Ir  Ir30  1  0.671443  0.671518  0.000043  1
  Pt  Pt31  1  0.008928  0.111517  0.361532  1
  Pt  Pt32  1  0.667239  0.796052  0.361233  1
  Pt  Pt33  1  0.324463  0.453732  0.362568  1
  Pt  Pt34  1  0.675545  0.546274  0.637433  1
  Pt  Pt35  1  0.332758  0.203956  0.638771  1
  Pt  Pt36  1  0.991071  0.888469  0.638469  1
