# generated using pymatgen
data_DyLu7Ti11Si16Os
_symmetry_space_group_name_H-M   'P 1'
_cell_length_a   6.96537906
_cell_length_b   6.95138098
_cell_length_c   12.79228028
_cell_angle_alpha   90.16671775
_cell_angle_beta   90.10579057
_cell_angle_gamma   90.02154030
_symmetry_Int_Tables_number   1
_chemical_formula_structural   DyLu7Ti11Si16Os
_chemical_formula_sum   'Dy1 Lu7 Ti11 Si16 Os1'
_cell_volume   619.38574150
_cell_formula_units_Z   1
loop_
 _symmetry_equiv_pos_site_id
 _symmetry_equiv_pos_as_xyz
  1  'x, y, z'
loop_
 _atom_site_type_symbol
 _atom_site_label
 _atom_site_symmetry_multiplicity
 _atom_site_fract_x
 _atom_site_fract_y
 _atom_site_fract_z
 _atom_site_occupancy
  Dy  Dy0  1  0.340723  0.002203  0.467114  1
  Lu  Lu1  1  0.998996  0.657782  0.035392  1
  Lu  Lu2  1  0.000134  0.342231  0.530871  1
  Lu  Lu3  1  0.660412  0.996830  0.967136  1
  Lu  Lu4  1  0.158160  0.500380  0.783412  1
  Lu  Lu5  1  0.840687  0.496487  0.282279  1
  Lu  Lu6  1  0.500264  0.159352  0.218612  1
  Lu  Lu7  1  0.497820  0.839465  0.715630  1
  Ti  Ti8  1  0.844811  0.992152  0.375611  1
  Ti  Ti9  1  0.009834  0.156319  0.127900  1
  Ti  Ti10  1  0.996853  0.842763  0.621725  1
  Ti  Ti11  1  0.507863  0.346617  0.625917  1
  Ti  Ti12  1  0.152024  0.006922  0.874500  1
  Ti  Ti13  1  0.669804  0.669660  0.498459  1
  Ti  Ti14  1  0.826752  0.172668  0.750435  1
  Ti  Ti15  1  0.176238  0.825606  0.250567  1
  Ti  Ti16  1  0.329246  0.328465  0.001197  1
  Ti  Ti17  1  0.497552  0.653670  0.123532  1
  Ti  Ti18  1  0.652704  0.494512  0.875687  1
  Si  Si19  1  0.046199  0.707236  0.434451  1
  Si  Si20  1  0.954885  0.292801  0.936090  1
  Si  Si21  1  0.709064  0.046648  0.565491  1
  Si  Si22  1  0.208813  0.456749  0.187439  1
  Si  Si23  1  0.792341  0.546127  0.684943  1
  Si  Si24  1  0.455080  0.206305  0.815374  1
  Si  Si25  1  0.543889  0.788525  0.312578  1
  Si  Si26  1  0.293912  0.954013  0.064380  1
  Si  Si27  1  0.797145  0.869056  0.182513  1
  Si  Si28  1  0.297605  0.629858  0.565511  1
  Si  Si29  1  0.703278  0.365685  0.068294  1
  Si  Si30  1  0.628035  0.302252  0.432413  1
  Si  Si31  1  0.367160  0.703486  0.932327  1
  Si  Si32  1  0.129849  0.208280  0.318450  1
  Si  Si33  1  0.201099  0.132788  0.682105  1
  Si  Si34  1  0.867767  0.796719  0.816582  1
  Os  Os35  1  0.343003  0.509388  0.375087  1
