# generated using pymatgen
data_SmY3(Si4Tc3)2
_symmetry_space_group_name_H-M   'P 1'
_cell_length_a   6.80449253
_cell_length_b   6.81332180
_cell_length_c   6.78839378
_cell_angle_alpha   69.72682954
_cell_angle_beta   90.04847303
_cell_angle_gamma   89.77715908
_symmetry_Int_Tables_number   1
_chemical_formula_structural   SmY3(Si4Tc3)2
_chemical_formula_sum   'Sm1 Y3 Si8 Tc6'
_cell_volume   295.21864478
_cell_formula_units_Z   1
loop_
 _symmetry_equiv_pos_site_id
 _symmetry_equiv_pos_as_xyz
  1  'x, y, z'
loop_
 _atom_site_type_symbol
 _atom_site_label
 _atom_site_symmetry_multiplicity
 _atom_site_fract_x
 _atom_site_fract_y
 _atom_site_fract_z
 _atom_site_occupancy
  Sm  Sm0  1  0.165734  0.943029  0.189585  1
  Y  Y1  1  0.332459  0.441866  0.191910  1
  Y  Y2  1  0.832105  0.057417  0.808627  1
  Y  Y3  1  0.667742  0.557211  0.808623  1
  Si  Si4  1  0.554743  0.120883  0.104021  1
  Si  Si5  1  0.358363  0.630157  0.514333  1
  Si  Si6  1  0.855512  0.869044  0.486765  1
  Si  Si7  1  0.052201  0.380395  0.894849  1
  Si  Si8  1  0.142744  0.131997  0.516481  1
  Si  Si9  1  0.642278  0.368825  0.487205  1
  Si  Si10  1  0.947264  0.620450  0.102684  1
  Si  Si11  1  0.448232  0.878697  0.894604  1
  Tc  Tc12  1  0.848813  0.245055  0.241456  1
  Tc  Tc13  1  0.351961  0.259285  0.759330  1
  Tc  Tc14  1  0.149748  0.757069  0.757555  1
  Tc  Tc15  1  0.649933  0.740593  0.240263  1
  Tc  Tc16  1  0.500858  0.999992  0.500558  1
  Tc  Tc17  1  0.999311  0.498034  0.501150  1
