# generated using pymatgen
data_PrNd4(Sn5Pd2)2
_symmetry_space_group_name_H-M   'P 1'
_cell_length_a   14.32949900
_cell_length_b   14.32949900
_cell_length_c   4.66513500
_cell_angle_alpha   90.00000000
_cell_angle_beta   90.00000000
_cell_angle_gamma   90.00259899
_symmetry_Int_Tables_number   1
_chemical_formula_structural   PrNd4(Sn5Pd2)2
_chemical_formula_sum   'Pr2 Nd8 Sn20 Pd8'
_cell_volume   957.91335619
_cell_formula_units_Z   2
loop_
 _symmetry_equiv_pos_site_id
 _symmetry_equiv_pos_as_xyz
  1  'x, y, z'
loop_
 _atom_site_type_symbol
 _atom_site_label
 _atom_site_symmetry_multiplicity
 _atom_site_fract_x
 _atom_site_fract_y
 _atom_site_fract_z
 _atom_site_occupancy
  Pr  Pr0  1  0.391779  0.108221  0.500000  1
  Pr  Pr1  1  0.608221  0.891779  0.500000  1
  Nd  Nd2  1  0.500000  0.500000  0.000000  1
  Nd  Nd3  1  0.000000  0.000000  0.000000  1
  Nd  Nd4  1  0.680027  0.180027  0.500000  1
  Nd  Nd5  1  0.319973  0.819973  0.500000  1
  Nd  Nd6  1  0.179526  0.320474  0.500000  1
  Nd  Nd7  1  0.820474  0.679526  0.500000  1
  Nd  Nd8  1  0.892376  0.392376  0.500000  1
  Nd  Nd9  1  0.107624  0.607624  0.500000  1
  Sn  Sn10  1  0.569336  0.069336  0.000000  1
  Sn  Sn11  1  0.430664  0.930664  0.000000  1
  Sn  Sn12  1  0.069101  0.430899  0.000000  1
  Sn  Sn13  1  0.930899  0.569101  0.000000  1
  Sn  Sn14  1  0.653059  0.700787  0.000000  1
  Sn  Sn15  1  0.346941  0.299213  0.000000  1
  Sn  Sn16  1  0.152889  0.798576  0.000000  1
  Sn  Sn17  1  0.847111  0.201424  0.000000  1
  Sn  Sn18  1  0.298576  0.652889  0.000000  1
  Sn  Sn19  1  0.701424  0.347111  0.000000  1
  Sn  Sn20  1  0.200787  0.153059  0.000000  1
  Sn  Sn21  1  0.799213  0.846941  0.000000  1
  Sn  Sn22  1  0.662070  0.501142  0.500000  1
  Sn  Sn23  1  0.337930  0.498858  0.500000  1
  Sn  Sn24  1  0.161620  0.998716  0.500000  1
  Sn  Sn25  1  0.838380  0.001284  0.500000  1
  Sn  Sn26  1  0.498716  0.661620  0.500000  1
  Sn  Sn27  1  0.501284  0.338380  0.500000  1
  Sn  Sn28  1  0.001142  0.162070  0.500000  1
  Sn  Sn29  1  0.998858  0.837930  0.500000  1
  Pd  Pd30  1  0.745166  0.530968  0.000000  1
  Pd  Pd31  1  0.254834  0.469032  0.000000  1
  Pd  Pd32  1  0.244584  0.968776  0.000000  1
  Pd  Pd33  1  0.755416  0.031224  0.000000  1
  Pd  Pd34  1  0.468776  0.744584  0.000000  1
  Pd  Pd35  1  0.531224  0.255416  0.000000  1
  Pd  Pd36  1  0.030968  0.245166  0.000000  1
  Pd  Pd37  1  0.969032  0.754834  0.000000  1
