# generated using pymatgen
data_YTh3Al17GaIr6
_symmetry_space_group_name_H-M   'P 1'
_cell_length_a   7.63877451
_cell_length_b   7.64568578
_cell_length_c   9.51871500
_cell_angle_alpha   90.00000000
_cell_angle_beta   90.00000000
_cell_angle_gamma   119.44204281
_symmetry_Int_Tables_number   1
_chemical_formula_structural   YTh3Al17GaIr6
_chemical_formula_sum   'Y1 Th3 Al17 Ga1 Ir6'
_cell_volume   484.13166645
_cell_formula_units_Z   1
loop_
 _symmetry_equiv_pos_site_id
 _symmetry_equiv_pos_as_xyz
  1  'x, y, z'
loop_
 _atom_site_type_symbol
 _atom_site_label
 _atom_site_symmetry_multiplicity
 _atom_site_fract_x
 _atom_site_fract_y
 _atom_site_fract_z
 _atom_site_occupancy
  Y  Y0  1  0.328724  0.006029  0.750000  1
  Th  Th1  1  0.994689  0.672954  0.250000  1
  Th  Th2  1  0.003716  0.328917  0.750000  1
  Th  Th3  1  0.672054  0.993970  0.250000  1
  Al  Al4  1  0.869571  0.868591  0.750000  1
  Al  Al5  1  0.005792  0.336180  0.074411  1
  Al  Al6  1  0.000021  0.669043  0.922950  1
  Al  Al7  1  0.000021  0.669043  0.577050  1
  Al  Al8  1  0.335786  0.004456  0.431142  1
  Al  Al9  1  0.005792  0.336180  0.425589  1
  Al  Al10  1  0.659527  0.995314  0.576988  1
  Al  Al11  1  0.659527  0.995314  0.923012  1
  Al  Al12  1  0.335786  0.004456  0.068858  1
  Al  Al13  1  0.336083  0.332827  0.553665  1
  Al  Al14  1  0.663034  0.662898  0.454825  1
  Al  Al15  1  0.663034  0.662898  0.045175  1
  Al  Al16  1  0.336083  0.332827  0.946335  1
  Al  Al17  1  0.340895  0.544750  0.250000  1
  Al  Al18  1  0.657007  0.450570  0.750000  1
  Al  Al19  1  0.544602  0.337805  0.250000  1
  Al  Al20  1  0.452957  0.661691  0.750000  1
  Ga  Ga21  1  0.138719  0.135967  0.250000  1
  Ir  Ir22  1  0.673363  0.328300  0.000484  1
  Ir  Ir23  1  0.327082  0.670764  0.000778  1
  Ir  Ir24  1  0.327082  0.670764  0.499222  1
  Ir  Ir25  1  0.673363  0.328300  0.499516  1
  Ir  Ir26  1  0.997845  0.999596  0.998278  1
  Ir  Ir27  1  0.997845  0.999596  0.501722  1
