# generated using pymatgen
data_Er4HfCu2Pd13
_symmetry_space_group_name_H-M   'P 1'
_cell_length_a   4.10594400
_cell_length_b   4.05182300
_cell_length_c   20.12709600
_cell_angle_alpha   90.00000000
_cell_angle_beta   90.00000000
_cell_angle_gamma   90.00000000
_symmetry_Int_Tables_number   1
_chemical_formula_structural   Er4HfCu2Pd13
_chemical_formula_sum   'Er4 Hf1 Cu2 Pd13'
_cell_volume   334.84560674
_cell_formula_units_Z   1
loop_
 _symmetry_equiv_pos_site_id
 _symmetry_equiv_pos_as_xyz
  1  'x, y, z'
loop_
 _atom_site_type_symbol
 _atom_site_label
 _atom_site_symmetry_multiplicity
 _atom_site_fract_x
 _atom_site_fract_y
 _atom_site_fract_z
 _atom_site_occupancy
  Er  Er0  1  0.000000  0.000000  0.199081  1
  Er  Er1  1  0.000000  0.000000  0.397609  1
  Er  Er2  1  0.000000  0.000000  0.602391  1
  Er  Er3  1  0.000000  0.000000  0.800919  1
  Hf  Hf4  1  0.000000  0.000000  0.000000  1
  Cu  Cu5  1  0.500000  0.500000  0.000000  1
  Cu  Cu6  1  0.500000  0.000000  0.500000  1
  Pd  Pd7  1  0.500000  0.500000  0.193955  1
  Pd  Pd8  1  0.500000  0.500000  0.401715  1
  Pd  Pd9  1  0.500000  0.500000  0.598285  1
  Pd  Pd10  1  0.500000  0.500000  0.806045  1
  Pd  Pd11  1  0.500000  0.000000  0.090458  1
  Pd  Pd12  1  0.500000  0.000000  0.298005  1
  Pd  Pd13  1  0.500000  0.000000  0.701995  1
  Pd  Pd14  1  0.500000  0.000000  0.909542  1
  Pd  Pd15  1  0.000000  0.500000  0.090676  1
  Pd  Pd16  1  0.000000  0.500000  0.297955  1
  Pd  Pd17  1  0.000000  0.500000  0.500000  1
  Pd  Pd18  1  0.000000  0.500000  0.702045  1
  Pd  Pd19  1  0.000000  0.500000  0.909324  1
