# generated using pymatgen
data_Th6RuI15
_symmetry_space_group_name_H-M   'P 1'
_cell_length_a   10.77986061
_cell_length_b   10.77985990
_cell_length_c   10.77986000
_cell_angle_alpha   109.47122270
_cell_angle_beta   109.47122137
_cell_angle_gamma   109.47121591
_symmetry_Int_Tables_number   1
_chemical_formula_structural   Th6RuI15
_chemical_formula_sum   'Th6 Ru1 I15'
_cell_volume   964.31184592
_cell_formula_units_Z   1
loop_
 _symmetry_equiv_pos_site_id
 _symmetry_equiv_pos_as_xyz
  1  'x, y, z'
loop_
 _atom_site_type_symbol
 _atom_site_label
 _atom_site_symmetry_multiplicity
 _atom_site_fract_x
 _atom_site_fract_y
 _atom_site_fract_z
 _atom_site_occupancy
  Th  Th0  1  0.000000  0.230788  0.230788  1
  Th  Th1  1  0.000000  0.769212  0.769212  1
  Th  Th2  1  0.230788  0.000000  0.230788  1
  Th  Th3  1  0.769212  0.000000  0.769212  1
  Th  Th4  1  0.230788  0.230788  0.000000  1
  Th  Th5  1  0.769212  0.769212  0.000000  1
  Ru  Ru6  1  0.000000  0.000000  0.000000  1
  I  I7  1  0.503519  0.251761  0.251761  1
  I  I8  1  0.496481  0.748239  0.748239  1
  I  I9  1  0.000000  0.251761  0.748239  1
  I  I10  1  0.000000  0.748239  0.251761  1
  I  I11  1  0.251761  0.503519  0.251761  1
  I  I12  1  0.748239  0.000000  0.251761  1
  I  I13  1  0.748239  0.496481  0.748239  1
  I  I14  1  0.251761  0.000000  0.748239  1
  I  I15  1  0.251761  0.251761  0.503519  1
  I  I16  1  0.748239  0.748239  0.496481  1
  I  I17  1  0.748239  0.251761  0.000000  1
  I  I18  1  0.251761  0.748239  0.000000  1
  I  I19  1  0.000000  0.500000  0.500000  1
  I  I20  1  0.500000  0.000000  0.500000  1
  I  I21  1  0.500000  0.500000  0.000000  1
