# generated using pymatgen
data_Co(Pt3O4)4
_symmetry_space_group_name_H-M   'P 1'
_cell_length_a   8.05767144
_cell_length_b   8.05767132
_cell_length_c   8.05767200
_cell_angle_alpha   59.99999721
_cell_angle_beta   59.99999770
_cell_angle_gamma   60.00000035
_symmetry_Int_Tables_number   1
_chemical_formula_structural   Co(Pt3O4)4
_chemical_formula_sum   'Co1 Pt12 O16'
_cell_volume   369.92499286
_cell_formula_units_Z   1
loop_
 _symmetry_equiv_pos_site_id
 _symmetry_equiv_pos_as_xyz
  1  'x, y, z'
loop_
 _atom_site_type_symbol
 _atom_site_label
 _atom_site_symmetry_multiplicity
 _atom_site_fract_x
 _atom_site_fract_y
 _atom_site_fract_z
 _atom_site_occupancy
  Co  Co0  1  0.000000  0.000000  0.000000  1
  Pt  Pt1  1  0.376200  0.873402  0.126598  1
  Pt  Pt2  1  0.623800  0.126598  0.873402  1
  Pt  Pt3  1  0.623800  0.873402  0.376200  1
  Pt  Pt4  1  0.126598  0.873402  0.623800  1
  Pt  Pt5  1  0.623800  0.376200  0.126598  1
  Pt  Pt6  1  0.376200  0.126598  0.623800  1
  Pt  Pt7  1  0.873402  0.376200  0.623800  1
  Pt  Pt8  1  0.126598  0.623800  0.376200  1
  Pt  Pt9  1  0.126598  0.376200  0.873402  1
  Pt  Pt10  1  0.376200  0.623800  0.873402  1
  Pt  Pt11  1  0.873402  0.126598  0.376200  1
  Pt  Pt12  1  0.873402  0.623800  0.126598  1
  O  O13  1  0.655029  0.114990  0.114990  1
  O  O14  1  0.371307  0.886080  0.371307  1
  O  O15  1  0.114990  0.114990  0.655029  1
  O  O16  1  0.885010  0.885010  0.885010  1
  O  O17  1  0.628693  0.628693  0.113920  1
  O  O18  1  0.371307  0.371307  0.371307  1
  O  O19  1  0.628693  0.113920  0.628693  1
  O  O20  1  0.344971  0.885010  0.885010  1
  O  O21  1  0.371307  0.371307  0.886080  1
  O  O22  1  0.113920  0.628693  0.628693  1
  O  O23  1  0.628693  0.628693  0.628693  1
  O  O24  1  0.885010  0.344971  0.885010  1
  O  O25  1  0.114990  0.114990  0.114990  1
  O  O26  1  0.885010  0.885010  0.344971  1
  O  O27  1  0.886080  0.371307  0.371307  1
  O  O28  1  0.114990  0.655029  0.114990  1
