# generated using pymatgen
data_NdThCo3B8Os5
_symmetry_space_group_name_H-M   'P 1'
_cell_length_a   7.44278712
_cell_length_b   7.38181992
_cell_length_c   3.96889415
_cell_angle_alpha   90.01907706
_cell_angle_beta   89.70228033
_cell_angle_gamma   89.36970764
_symmetry_Int_Tables_number   1
_chemical_formula_structural   NdThCo3B8Os5
_chemical_formula_sum   'Nd1 Th1 Co3 B8 Os5'
_cell_volume   218.04010659
_cell_formula_units_Z   1
loop_
 _symmetry_equiv_pos_site_id
 _symmetry_equiv_pos_as_xyz
  1  'x, y, z'
loop_
 _atom_site_type_symbol
 _atom_site_label
 _atom_site_symmetry_multiplicity
 _atom_site_fract_x
 _atom_site_fract_y
 _atom_site_fract_z
 _atom_site_occupancy
  Nd  Nd0  1  0.249423  0.249715  0.311289  1
  Th  Th1  1  0.756956  0.749021  0.824530  1
  Co  Co2  1  0.373457  0.628934  0.134958  1
  Co  Co3  1  0.111482  0.858966  0.127211  1
  Co  Co4  1  0.130001  0.618821  0.629819  1
  B  B5  1  0.921310  0.018953  0.348386  1
  B  B6  1  0.574279  0.478844  0.349824  1
  B  B7  1  0.521240  0.085105  0.853352  1
  B  B8  1  0.982718  0.420081  0.849932  1
  B  B9  1  0.089390  0.940179  0.629381  1
  B  B10  1  0.406918  0.563218  0.633729  1
  B  B11  1  0.447550  0.913439  0.134645  1
  B  B12  1  0.064705  0.588525  0.133531  1
  Os  Os13  1  0.363920  0.871750  0.632646  1
  Os  Os14  1  0.595617  0.363235  0.851472  1
  Os  Os15  1  0.906758  0.143092  0.851231  1
  Os  Os16  1  0.857313  0.409439  0.352183  1
  Os  Os17  1  0.646962  0.098687  0.351882  1
