# generated using pymatgen
data_KCa(PrB12)2
_symmetry_space_group_name_H-M   'P 1'
_cell_length_a   7.19491512
_cell_length_b   7.19491402
_cell_length_c   5.90841700
_cell_angle_alpha   90.00000000
_cell_angle_beta   90.00000000
_cell_angle_gamma   109.31322957
_symmetry_Int_Tables_number   1
_chemical_formula_structural   KCa(PrB12)2
_chemical_formula_sum   'K1 Ca1 Pr2 B24'
_cell_volume   288.64743537
_cell_formula_units_Z   1
loop_
 _symmetry_equiv_pos_site_id
 _symmetry_equiv_pos_as_xyz
  1  'x, y, z'
loop_
 _atom_site_type_symbol
 _atom_site_label
 _atom_site_symmetry_multiplicity
 _atom_site_fract_x
 _atom_site_fract_y
 _atom_site_fract_z
 _atom_site_occupancy
  K  K0  1  0.000000  0.000000  0.000000  1
  Ca  Ca1  1  0.500000  0.500000  0.000000  1
  Pr  Pr2  1  0.751358  0.248642  0.500000  1
  Pr  Pr3  1  0.248642  0.751358  0.500000  1
  B  B4  1  0.176368  0.325811  0.649265  1
  B  B5  1  0.924242  0.574272  0.148372  1
  B  B6  1  0.674189  0.823632  0.649265  1
  B  B7  1  0.425728  0.075758  0.148372  1
  B  B8  1  0.176368  0.325811  0.350735  1
  B  B9  1  0.924242  0.574272  0.851628  1
  B  B10  1  0.674189  0.823632  0.350735  1
  B  B11  1  0.425728  0.075758  0.851628  1
  B  B12  1  0.399833  0.399833  0.500000  1
  B  B13  1  0.148669  0.649910  0.000000  1
  B  B14  1  0.898538  0.898538  0.500000  1
  B  B15  1  0.649910  0.148669  0.000000  1
  B  B16  1  0.325811  0.176368  0.649265  1
  B  B17  1  0.075758  0.425728  0.148372  1
  B  B18  1  0.823632  0.674189  0.649265  1
  B  B19  1  0.574272  0.924242  0.148372  1
  B  B20  1  0.101462  0.101462  0.500000  1
  B  B21  1  0.851331  0.350090  0.000000  1
  B  B22  1  0.600167  0.600167  0.500000  1
  B  B23  1  0.350090  0.851331  0.000000  1
  B  B24  1  0.325811  0.176368  0.350735  1
  B  B25  1  0.075758  0.425728  0.851628  1
  B  B26  1  0.823632  0.674189  0.350735  1
  B  B27  1  0.574272  0.924242  0.851628  1
