# generated using pymatgen
data_Y3MgZn2Si2Pd
_symmetry_space_group_name_H-M   'P 1'
_cell_length_a   7.00567222
_cell_length_b   7.00261743
_cell_length_c   4.27607400
_cell_angle_alpha   90.00000000
_cell_angle_beta   90.00000000
_cell_angle_gamma   119.98556640
_symmetry_Int_Tables_number   1
_chemical_formula_structural   Y3MgZn2Si2Pd
_chemical_formula_sum   'Y3 Mg1 Zn2 Si2 Pd1'
_cell_volume   181.69760586
_cell_formula_units_Z   1
loop_
 _symmetry_equiv_pos_site_id
 _symmetry_equiv_pos_as_xyz
  1  'x, y, z'
loop_
 _atom_site_type_symbol
 _atom_site_label
 _atom_site_symmetry_multiplicity
 _atom_site_fract_x
 _atom_site_fract_y
 _atom_site_fract_z
 _atom_site_occupancy
  Y  Y0  1  0.420104  0.420508  0.500000  1
  Y  Y1  1  0.000000  0.589817  0.500000  1
  Y  Y2  1  0.579896  0.000404  0.500000  1
  Mg  Mg3  1  0.000000  0.232056  0.000000  1
  Zn  Zn4  1  0.751653  0.753409  0.000000  1
  Zn  Zn5  1  0.248347  0.001756  0.000000  1
  Si  Si6  1  0.664073  0.336331  0.000000  1
  Si  Si7  1  0.335927  0.672260  0.000000  1
  Pd  Pd8  1  0.000000  0.993460  0.500000  1
