# generated using pymatgen
data_Nd4Sm4Sc11Si16Mo
_symmetry_space_group_name_H-M   'P 1'
_cell_length_a   7.19292716
_cell_length_b   7.43892226
_cell_length_c   14.07034211
_cell_angle_alpha   90.18603123
_cell_angle_beta   89.78413163
_cell_angle_gamma   89.67372807
_symmetry_Int_Tables_number   1
_chemical_formula_structural   Nd4Sm4Sc11Si16Mo
_chemical_formula_sum   'Nd4 Sm4 Sc11 Si16 Mo1'
_cell_volume   752.84903096
_cell_formula_units_Z   1
loop_
 _symmetry_equiv_pos_site_id
 _symmetry_equiv_pos_as_xyz
  1  'x, y, z'
loop_
 _atom_site_type_symbol
 _atom_site_label
 _atom_site_symmetry_multiplicity
 _atom_site_fract_x
 _atom_site_fract_y
 _atom_site_fract_z
 _atom_site_occupancy
  Nd  Nd0  1  0.011977  0.171738  0.097346  1
  Nd  Nd1  1  0.988830  0.828105  0.898777  1
  Nd  Nd2  1  0.486793  0.673949  0.899067  1
  Nd  Nd3  1  0.992332  0.831153  0.595311  1
  Sm  Sm4  1  0.513601  0.325427  0.097518  1
  Sm  Sm5  1  0.011921  0.173977  0.402772  1
  Sm  Sm6  1  0.507867  0.326279  0.408990  1
  Sm  Sm7  1  0.486372  0.674618  0.597116  1
  Sc  Sc8  1  0.163248  0.490303  0.744319  1
  Sc  Sc9  1  0.838161  0.499153  0.252177  1
  Sc  Sc10  1  0.338474  0.001030  0.251971  1
  Sc  Sc11  1  0.656265  0.004150  0.747114  1
  Sc  Sc12  1  0.665979  0.826180  0.378769  1
  Sc  Sc13  1  0.169836  0.676658  0.377789  1
  Sc  Sc14  1  0.669762  0.824255  0.124938  1
  Sc  Sc15  1  0.831833  0.324892  0.623792  1
  Sc  Sc16  1  0.332558  0.177538  0.875118  1
  Sc  Sc17  1  0.828796  0.323287  0.871106  1
  Sc  Sc18  1  0.170993  0.675539  0.126035  1
  Si  Si19  1  0.043826  0.125669  0.744905  1
  Si  Si20  1  0.963826  0.879285  0.252074  1
  Si  Si21  1  0.466767  0.622396  0.251114  1
  Si  Si22  1  0.529707  0.369142  0.744864  1
  Si  Si23  1  0.288699  0.889245  0.745986  1
  Si  Si24  1  0.710246  0.121453  0.251530  1
  Si  Si25  1  0.215211  0.378509  0.251217  1
  Si  Si26  1  0.784552  0.618291  0.746399  1
  Si  Si27  1  0.171428  0.449327  0.542076  1
  Si  Si28  1  0.846680  0.532426  0.459879  1
  Si  Si29  1  0.339393  0.970126  0.469937  1
  Si  Si30  1  0.847506  0.536198  0.039196  1
  Si  Si31  1  0.641866  0.037979  0.545507  1
  Si  Si32  1  0.149897  0.464488  0.959140  1
  Si  Si33  1  0.655619  0.038434  0.958675  1
  Si  Si34  1  0.346904  0.962798  0.039278  1
  Mo  Mo35  1  0.332274  0.176004  0.628194  1
