# generated using pymatgen
data_Hf8Mn3Fe(Si2Ru)8
_symmetry_space_group_name_H-M   'P 1'
_cell_length_a   9.81282098
_cell_length_b   9.81253678
_cell_length_c   13.19748473
_cell_angle_alpha   53.98925096
_cell_angle_beta   54.00274481
_cell_angle_gamma   31.07128041
_symmetry_Int_Tables_number   1
_chemical_formula_structural   Hf8Mn3Fe(Si2Ru)8
_chemical_formula_sum   'Hf8 Mn3 Fe1 Si16 Ru8'
_cell_volume   519.62787822
_cell_formula_units_Z   1
loop_
 _symmetry_equiv_pos_site_id
 _symmetry_equiv_pos_as_xyz
  1  'x, y, z'
loop_
 _atom_site_type_symbol
 _atom_site_label
 _atom_site_symmetry_multiplicity
 _atom_site_fract_x
 _atom_site_fract_y
 _atom_site_fract_z
 _atom_site_occupancy
  Hf  Hf0  1  0.292497  0.556664  0.649618  1
  Hf  Hf1  1  0.442276  0.708267  0.852505  1
  Hf  Hf2  1  0.708273  0.448499  0.347250  1
  Hf  Hf3  1  0.552933  0.294586  0.149265  1
  Hf  Hf4  1  0.038433  0.294619  0.635911  1
  Hf  Hf5  1  0.704091  0.960448  0.864608  1
  Hf  Hf6  1  0.959517  0.705800  0.361485  1
  Hf  Hf7  1  0.293743  0.042792  0.136795  1
  Mn  Mn8  1  0.655554  0.824086  0.278705  1
  Mn  Mn9  1  0.176380  0.344626  0.220200  1
  Mn  Mn10  1  0.759359  0.484394  0.065636  1
  Fe  Fe11  1  0.826219  0.651340  0.780044  1
  Si  Si12  1  0.873248  0.132318  0.246410  1
  Si  Si13  1  0.124718  0.875298  0.750395  1
  Si  Si14  1  0.391910  0.614012  0.246456  1
  Si  Si15  1  0.616681  0.382558  0.750648  1
  Si  Si16  1  0.964631  0.267983  0.894268  1
  Si  Si17  1  0.748184  0.020343  0.609885  1
  Si  Si18  1  0.020633  0.738680  0.113298  1
  Si  Si19  1  0.261571  0.978747  0.386222  1
  Si  Si20  1  0.568570  0.083488  0.072029  1
  Si  Si21  1  0.916016  0.432795  0.426895  1
  Si  Si22  1  0.439194  0.903615  0.936379  1
  Si  Si23  1  0.080324  0.574029  0.568041  1
  Si  Si24  1  0.387844  0.141714  0.390977  1
  Si  Si25  1  0.858138  0.609592  0.106233  1
  Si  Si26  1  0.614626  0.855490  0.604569  1
  Si  Si27  1  0.128052  0.393044  0.899930  1
  Ru  Ru28  1  0.897664  0.143779  0.583786  1
  Ru  Ru29  1  0.857035  0.103495  0.916302  1
  Ru  Ru30  1  0.105794  0.855240  0.415463  1
  Ru  Ru31  1  0.145559  0.893178  0.083758  1
  Ru  Ru32  1  0.239823  0.515059  0.932724  1
  Ru  Ru33  1  0.485325  0.759799  0.566945  1
  Ru  Ru34  1  0.516141  0.238831  0.433304  1
  Ru  Ru35  1  0.349043  0.170794  0.723059  1
