# generated using pymatgen
data_Ho2Ni2B2CN
_symmetry_space_group_name_H-M   'P 1'
_cell_length_a   3.50760700
_cell_length_b   3.50760700
_cell_length_c   7.56167600
_cell_angle_alpha   90.00000000
_cell_angle_beta   90.00000000
_cell_angle_gamma   90.00000000
_symmetry_Int_Tables_number   1
_chemical_formula_structural   Ho2Ni2B2CN
_chemical_formula_sum   'Ho2 Ni2 B2 C1 N1'
_cell_volume   93.03362025
_cell_formula_units_Z   1
loop_
 _symmetry_equiv_pos_site_id
 _symmetry_equiv_pos_as_xyz
  1  'x, y, z'
loop_
 _atom_site_type_symbol
 _atom_site_label
 _atom_site_symmetry_multiplicity
 _atom_site_fract_x
 _atom_site_fract_y
 _atom_site_fract_z
 _atom_site_occupancy
  Ho  Ho0  1  0.500000  0.000000  0.161437  1
  Ho  Ho1  1  0.000000  0.500000  0.833050  1
  Ni  Ni2  1  0.000000  0.000000  0.503190  1
  Ni  Ni3  1  0.500000  0.500000  0.503190  1
  B  B4  1  0.000000  0.500000  0.344621  1
  B  B5  1  0.500000  0.000000  0.657895  1
  C  C6  1  0.000000  0.500000  0.146611  1
  N  N7  1  0.500000  0.000000  0.850007  1
