# generated using pymatgen
data_Dy3Lu13(InPt)4
_symmetry_space_group_name_H-M   'P 1'
_cell_length_a   9.56899639
_cell_length_b   9.56069891
_cell_length_c   9.55584308
_cell_angle_alpha   60.07425634
_cell_angle_beta   60.02205074
_cell_angle_gamma   59.93770853
_symmetry_Int_Tables_number   1
_chemical_formula_structural   Dy3Lu13(InPt)4
_chemical_formula_sum   'Dy3 Lu13 In4 Pt4'
_cell_volume   618.33013333
_cell_formula_units_Z   1
loop_
 _symmetry_equiv_pos_site_id
 _symmetry_equiv_pos_as_xyz
  1  'x, y, z'
loop_
 _atom_site_type_symbol
 _atom_site_label
 _atom_site_symmetry_multiplicity
 _atom_site_fract_x
 _atom_site_fract_y
 _atom_site_fract_z
 _atom_site_occupancy
  Dy  Dy0  1  0.188637  0.811363  0.188637  1
  Dy  Dy1  1  0.814601  0.816098  0.183866  1
  Dy  Dy2  1  0.183866  0.185435  0.814601  1
  Lu  Lu3  1  0.601860  0.600771  0.598276  1
  Lu  Lu4  1  0.601522  0.603145  0.195842  1
  Lu  Lu5  1  0.598276  0.199093  0.601860  1
  Lu  Lu6  1  0.195842  0.599490  0.601522  1
  Lu  Lu7  1  0.060998  0.437763  0.441106  1
  Lu  Lu8  1  0.441106  0.060133  0.060998  1
  Lu  Lu9  1  0.438969  0.061031  0.438969  1
  Lu  Lu10  1  0.059798  0.440202  0.059798  1
  Lu  Lu11  1  0.441652  0.438538  0.060040  1
  Lu  Lu12  1  0.060040  0.059770  0.441652  1
  Lu  Lu13  1  0.191198  0.809348  0.807610  1
  Lu  Lu14  1  0.807610  0.191842  0.191198  1
  Lu  Lu15  1  0.812012  0.187988  0.812012  1
  In  In16  1  0.834167  0.833827  0.833926  1
  In  In17  1  0.831997  0.833651  0.502256  1
  In  In18  1  0.833926  0.498080  0.834167  1
  In  In19  1  0.502256  0.832096  0.831997  1
  Pt  Pt20  1  0.394594  0.393337  0.390233  1
  Pt  Pt21  1  0.391945  0.394443  0.822894  1
  Pt  Pt22  1  0.390233  0.821837  0.394594  1
  Pt  Pt23  1  0.822894  0.390719  0.391945  1
