# generated using pymatgen
data_Dy3Y5(LuBi)12
_symmetry_space_group_name_H-M   'P 1'
_cell_length_a   8.19692802
_cell_length_b   9.41633600
_cell_length_c   12.00030000
_cell_angle_alpha   90.00010952
_cell_angle_beta   89.99647709
_cell_angle_gamma   90.00007911
_symmetry_Int_Tables_number   1
_chemical_formula_structural   Dy3Y5(LuBi)12
_chemical_formula_sum   'Dy3 Y5 Lu12 Bi12'
_cell_volume   926.24349410
_cell_formula_units_Z   1
loop_
 _symmetry_equiv_pos_site_id
 _symmetry_equiv_pos_as_xyz
  1  'x, y, z'
loop_
 _atom_site_type_symbol
 _atom_site_label
 _atom_site_symmetry_multiplicity
 _atom_site_fract_x
 _atom_site_fract_y
 _atom_site_fract_z
 _atom_site_occupancy
  Dy  Dy0  1  0.186195  0.749999  0.718465  1
  Dy  Dy1  1  0.686217  0.750001  0.781540  1
  Dy  Dy2  1  0.813841  0.250001  0.281514  1
  Y  Y3  1  0.313423  0.250001  0.218827  1
  Y  Y4  1  0.353106  0.750003  0.216367  1
  Y  Y5  1  0.853228  0.749999  0.283672  1
  Y  Y6  1  0.646919  0.250000  0.783595  1
  Y  Y7  1  0.146964  0.250000  0.716200  1
  Lu  Lu8  1  0.023559  0.749998  0.989427  1
  Lu  Lu9  1  0.523514  0.749998  0.510567  1
  Lu  Lu10  1  0.976391  0.250000  0.010533  1
  Lu  Lu11  1  0.476621  0.250001  0.489599  1
  Lu  Lu12  1  0.307640  0.433510  0.940958  1
  Lu  Lu13  1  0.807633  0.066536  0.558919  1
  Lu  Lu14  1  0.692378  0.933470  0.058980  1
  Lu  Lu15  1  0.192392  0.566541  0.441018  1
  Lu  Lu16  1  0.692378  0.566528  0.058981  1
  Lu  Lu17  1  0.192391  0.933458  0.441020  1
  Lu  Lu18  1  0.307636  0.066490  0.940954  1
  Lu  Lu19  1  0.807635  0.433466  0.558920  1
  Bi  Bi20  1  0.433871  0.003794  0.671696  1
  Bi  Bi21  1  0.933860  0.496145  0.828294  1
  Bi  Bi22  1  0.566194  0.503830  0.328347  1
  Bi  Bi23  1  0.066079  0.996121  0.171636  1
  Bi  Bi24  1  0.566194  0.996170  0.328347  1
  Bi  Bi25  1  0.066080  0.503880  0.171636  1
  Bi  Bi26  1  0.433871  0.496206  0.671696  1
  Bi  Bi27  1  0.933860  0.003855  0.828294  1
  Bi  Bi28  1  0.404211  0.750000  0.957222  1
  Bi  Bi29  1  0.904233  0.750000  0.542780  1
  Bi  Bi30  1  0.595664  0.250000  0.042750  1
  Bi  Bi31  1  0.095819  0.250000  0.457244  1
