# generated using pymatgen
data_Tb5Er5Pt8
_symmetry_space_group_name_H-M   'P 1'
_cell_length_a   7.46479200
_cell_length_b   7.55672824
_cell_length_c   14.73646352
_cell_angle_alpha   90.04795623
_cell_angle_beta   90.00000000
_cell_angle_gamma   90.00000000
_symmetry_Int_Tables_number   1
_chemical_formula_structural   Tb5Er5Pt8
_chemical_formula_sum   'Tb10 Er10 Pt16'
_cell_volume   831.27484006
_cell_formula_units_Z   2
loop_
 _symmetry_equiv_pos_site_id
 _symmetry_equiv_pos_as_xyz
  1  'x, y, z'
loop_
 _atom_site_type_symbol
 _atom_site_label
 _atom_site_symmetry_multiplicity
 _atom_site_fract_x
 _atom_site_fract_y
 _atom_site_fract_z
 _atom_site_occupancy
  Tb  Tb0  1  0.656838  0.167936  0.877605  1
  Tb  Tb1  1  0.156838  0.332064  0.622395  1
  Tb  Tb2  1  0.501779  0.680189  0.592670  1
  Tb  Tb3  1  0.001779  0.819811  0.907330  1
  Tb  Tb4  1  0.498366  0.320430  0.093097  1
  Tb  Tb5  1  0.998366  0.179570  0.406903  1
  Tb  Tb6  1  0.498540  0.320189  0.407092  1
  Tb  Tb7  1  0.998540  0.179811  0.092908  1
  Tb  Tb8  1  0.501213  0.679674  0.907206  1
  Tb  Tb9  1  0.001213  0.820326  0.592794  1
  Er  Er10  1  0.656762  0.167840  0.622570  1
  Er  Er11  1  0.156762  0.332160  0.877430  1
  Er  Er12  1  0.343104  0.831955  0.122765  1
  Er  Er13  1  0.843104  0.668045  0.377235  1
  Er  Er14  1  0.343250  0.832021  0.377253  1
  Er  Er15  1  0.843250  0.667979  0.122747  1
  Er  Er16  1  0.819257  0.512051  0.749990  1
  Er  Er17  1  0.319257  0.987949  0.750010  1
  Er  Er18  1  0.180629  0.488567  0.249990  1
  Er  Er19  1  0.680629  0.011433  0.250010  1
  Pt  Pt20  1  0.682964  0.967029  0.458235  1
  Pt  Pt21  1  0.182964  0.532971  0.041765  1
  Pt  Pt22  1  0.316366  0.032638  0.958405  1
  Pt  Pt23  1  0.816366  0.467362  0.541595  1
  Pt  Pt24  1  0.317778  0.031829  0.541513  1
  Pt  Pt25  1  0.817778  0.468171  0.958487  1
  Pt  Pt26  1  0.682949  0.966331  0.042252  1
  Pt  Pt27  1  0.182949  0.533669  0.457748  1
  Pt  Pt28  1  0.454090  0.387245  0.749982  1
  Pt  Pt29  1  0.954090  0.112755  0.750018  1
  Pt  Pt30  1  0.546135  0.613485  0.250006  1
  Pt  Pt31  1  0.046135  0.886515  0.249994  1
  Pt  Pt32  1  0.683076  0.856667  0.749731  1
  Pt  Pt33  1  0.183076  0.643333  0.750269  1
  Pt  Pt34  1  0.316907  0.142667  0.250009  1
  Pt  Pt35  1  0.816907  0.357333  0.249991  1
