# generated using pymatgen
data_Nd4Ga9GeAu6
_symmetry_space_group_name_H-M   'P 1'
_cell_length_a   8.73570420
_cell_length_b   8.74401001
_cell_length_c   8.74400900
_cell_angle_alpha   138.21768280
_cell_angle_beta   104.69534613
_cell_angle_gamma   90.05045869
_symmetry_Int_Tables_number   1
_chemical_formula_structural   Nd4Ga9GeAu6
_chemical_formula_sum   'Nd4 Ga9 Ge1 Au6'
_cell_volume   411.33376308
_cell_formula_units_Z   1
loop_
 _symmetry_equiv_pos_site_id
 _symmetry_equiv_pos_as_xyz
  1  'x, y, z'
loop_
 _atom_site_type_symbol
 _atom_site_label
 _atom_site_symmetry_multiplicity
 _atom_site_fract_x
 _atom_site_fract_y
 _atom_site_fract_z
 _atom_site_occupancy
  Nd  Nd0  1  0.865442  0.627337  0.238105  1
  Nd  Nd1  1  0.135223  0.374230  0.760993  1
  Nd  Nd2  1  0.388663  0.126890  0.261774  1
  Nd  Nd3  1  0.608864  0.872101  0.736762  1
  Ga  Ga4  1  0.502068  0.750312  0.251402  1
  Ga  Ga5  1  0.502068  0.250666  0.751756  1
  Ga  Ga6  1  0.229287  0.982518  0.748001  1
  Ga  Ga7  1  0.769040  0.517173  0.748782  1
  Ga  Ga8  1  0.769040  0.020258  0.251868  1
  Ga  Ga9  1  0.229287  0.481286  0.246768  1
  Ga  Ga10  1  0.030336  0.882162  0.148173  1
  Ga  Ga11  1  0.967477  0.114905  0.852572  1
  Ga  Ga12  1  0.735668  0.383830  0.351838  1
  Ge  Ge13  1  0.265291  0.617355  0.647937  1
  Au  Au14  1  0.998823  0.749979  0.751070  1
  Au  Au15  1  0.998823  0.247754  0.248845  1
  Au  Au16  1  0.249053  0.867004  0.382049  1
  Au  Au17  1  0.754485  0.134717  0.619766  1
  Au  Au18  1  0.483161  0.364599  0.118561  1
  Au  Au19  1  0.517903  0.634922  0.882981  1
