# generated using pymatgen
data_EuHo5(SbO7)2
_symmetry_space_group_name_H-M   'P 1'
_cell_length_a   6.46919400
_cell_length_b   6.46919427
_cell_length_c   7.53950598
_cell_angle_alpha   89.95268325
_cell_angle_beta   90.04731743
_cell_angle_gamma   109.12501283
_symmetry_Int_Tables_number   1
_chemical_formula_structural   EuHo5(SbO7)2
_chemical_formula_sum   'Eu1 Ho5 Sb2 O14'
_cell_volume   298.11626088
_cell_formula_units_Z   1
loop_
 _symmetry_equiv_pos_site_id
 _symmetry_equiv_pos_as_xyz
  1  'x, y, z'
loop_
 _atom_site_type_symbol
 _atom_site_label
 _atom_site_symmetry_multiplicity
 _atom_site_fract_x
 _atom_site_fract_y
 _atom_site_fract_z
 _atom_site_occupancy
  Eu  Eu0  1  0.500000  0.500000  0.000000  1
  Ho  Ho1  1  0.500000  0.500000  0.500000  1
  Ho  Ho2  1  0.531347  0.000308  0.748603  1
  Ho  Ho3  1  0.000308  0.531347  0.251397  1
  Ho  Ho4  1  0.468653  0.999692  0.251397  1
  Ho  Ho5  1  0.999692  0.468653  0.748603  1
  Sb  Sb6  1  0.000000  0.000000  0.500000  1
  Sb  Sb7  1  0.000000  0.000000  0.000000  1
  O  O8  1  0.678187  0.928282  0.469633  1
  O  O9  1  0.928282  0.678187  0.530367  1
  O  O10  1  0.678555  0.932525  0.030350  1
  O  O11  1  0.932525  0.678555  0.969650  1
  O  O12  1  0.321813  0.071718  0.530367  1
  O  O13  1  0.071718  0.321813  0.469633  1
  O  O14  1  0.321445  0.067475  0.969650  1
  O  O15  1  0.067475  0.321445  0.030350  1
  O  O16  1  0.928799  0.071201  0.749989  1
  O  O17  1  0.071201  0.928799  0.250011  1
  O  O18  1  0.367209  0.632791  0.742128  1
  O  O19  1  0.632791  0.367209  0.257872  1
  O  O20  1  0.638577  0.361423  0.743765  1
  O  O21  1  0.361423  0.638577  0.256235  1
