# generated using pymatgen
data_Zr8HgPd8Pb3
_symmetry_space_group_name_H-M   'P 1'
_cell_length_a   7.56781200
_cell_length_b   7.56781200
_cell_length_c   6.96821200
_cell_angle_alpha   90.00000000
_cell_angle_beta   90.00000000
_cell_angle_gamma   90.00000000
_symmetry_Int_Tables_number   1
_chemical_formula_structural   Zr8HgPd8Pb3
_chemical_formula_sum   'Zr8 Hg1 Pd8 Pb3'
_cell_volume   399.08189398
_cell_formula_units_Z   1
loop_
 _symmetry_equiv_pos_site_id
 _symmetry_equiv_pos_as_xyz
  1  'x, y, z'
loop_
 _atom_site_type_symbol
 _atom_site_label
 _atom_site_symmetry_multiplicity
 _atom_site_fract_x
 _atom_site_fract_y
 _atom_site_fract_z
 _atom_site_occupancy
  Zr  Zr0  1  0.652054  0.645011  0.497118  1
  Zr  Zr1  1  0.814488  0.191721  0.498280  1
  Zr  Zr2  1  0.691721  0.685512  0.001720  1
  Zr  Zr3  1  0.854989  0.152054  0.002882  1
  Zr  Zr4  1  0.185512  0.808279  0.498280  1
  Zr  Zr5  1  0.308279  0.314488  0.001720  1
  Zr  Zr6  1  0.145011  0.847946  0.002882  1
  Zr  Zr7  1  0.347946  0.354989  0.497118  1
  Hg  Hg8  1  0.000000  0.500000  0.250000  1
  Pd  Pd9  1  0.629961  0.371983  0.210376  1
  Pd  Pd10  1  0.373181  0.630226  0.789317  1
  Pd  Pd11  1  0.869774  0.873181  0.710683  1
  Pd  Pd12  1  0.626819  0.369774  0.789317  1
  Pd  Pd13  1  0.370039  0.628017  0.210376  1
  Pd  Pd14  1  0.128017  0.129961  0.289624  1
  Pd  Pd15  1  0.871983  0.870039  0.289624  1
  Pd  Pd16  1  0.130226  0.126819  0.710683  1
  Pb  Pb17  1  0.500000  0.000000  0.750000  1
  Pb  Pb18  1  0.500000  0.000000  0.250000  1
  Pb  Pb19  1  0.000000  0.500000  0.750000  1
