# generated using pymatgen
data_La12TbYPt6
_symmetry_space_group_name_H-M   'P 1'
_cell_length_a   10.31562800
_cell_length_b   10.31562945
_cell_length_c   6.54967200
_cell_angle_alpha   90.00000000
_cell_angle_beta   90.00000000
_cell_angle_gamma   120.00000177
_symmetry_Int_Tables_number   1
_chemical_formula_structural   La12TbYPt6
_chemical_formula_sum   'La12 Tb1 Y1 Pt6'
_cell_volume   603.58936791
_cell_formula_units_Z   1
loop_
 _symmetry_equiv_pos_site_id
 _symmetry_equiv_pos_as_xyz
  1  'x, y, z'
loop_
 _atom_site_type_symbol
 _atom_site_label
 _atom_site_symmetry_multiplicity
 _atom_site_fract_x
 _atom_site_fract_y
 _atom_site_fract_z
 _atom_site_occupancy
  La  La0  1  0.871445  0.742889  0.749953  1
  La  La1  1  0.257111  0.128555  0.749953  1
  La  La2  1  0.871445  0.128555  0.749953  1
  La  La3  1  0.128495  0.256992  0.250105  1
  La  La4  1  0.743008  0.871505  0.250105  1
  La  La5  1  0.128495  0.871505  0.250105  1
  La  La6  1  0.461874  0.923748  0.559991  1
  La  La7  1  0.076252  0.538126  0.559991  1
  La  La8  1  0.461874  0.538126  0.559991  1
  La  La9  1  0.538106  0.076211  0.059887  1
  La  La10  1  0.923789  0.461894  0.059887  1
  La  La11  1  0.538106  0.461894  0.059887  1
  Tb  Tb12  1  0.333333  0.666667  0.036586  1
  Y  Y13  1  0.666667  0.333333  0.537369  1
  Pt  Pt14  1  0.190248  0.380498  0.813573  1
  Pt  Pt15  1  0.619502  0.809752  0.813573  1
  Pt  Pt16  1  0.190248  0.809752  0.813573  1
  Pt  Pt17  1  0.809873  0.619745  0.313347  1
  Pt  Pt18  1  0.380255  0.190127  0.313347  1
  Pt  Pt19  1  0.809873  0.190127  0.313347  1
