# generated using pymatgen
data_Li(AcPd)4
_symmetry_space_group_name_H-M   'P 1'
_cell_length_a   7.96846000
_cell_length_b   8.14206700
_cell_length_c   15.56459000
_cell_angle_alpha   90.00000000
_cell_angle_beta   90.00000000
_cell_angle_gamma   90.00000000
_symmetry_Int_Tables_number   1
_chemical_formula_structural   Li(AcPd)4
_chemical_formula_sum   'Li4 Ac16 Pd16'
_cell_volume   1009.82647780
_cell_formula_units_Z   4
loop_
 _symmetry_equiv_pos_site_id
 _symmetry_equiv_pos_as_xyz
  1  'x, y, z'
loop_
 _atom_site_type_symbol
 _atom_site_label
 _atom_site_symmetry_multiplicity
 _atom_site_fract_x
 _atom_site_fract_y
 _atom_site_fract_z
 _atom_site_occupancy
  Li  Li0  1  0.661452  0.975498  0.750000  1
  Li  Li1  1  0.161452  0.524502  0.750000  1
  Li  Li2  1  0.338548  0.024502  0.250000  1
  Li  Li3  1  0.838548  0.475498  0.250000  1
  Ac  Ac4  1  0.526026  0.316639  0.105206  1
  Ac  Ac5  1  0.026026  0.183361  0.394794  1
  Ac  Ac6  1  0.473974  0.683361  0.605206  1
  Ac  Ac7  1  0.973974  0.816639  0.894794  1
  Ac  Ac8  1  0.473974  0.683361  0.894794  1
  Ac  Ac9  1  0.973974  0.816639  0.605206  1
  Ac  Ac10  1  0.526026  0.316639  0.394794  1
  Ac  Ac11  1  0.026026  0.183361  0.105206  1
  Ac  Ac12  1  0.831680  0.324881  0.625537  1
  Ac  Ac13  1  0.331680  0.175119  0.874463  1
  Ac  Ac14  1  0.168320  0.675119  0.125537  1
  Ac  Ac15  1  0.668320  0.824881  0.374463  1
  Ac  Ac16  1  0.168320  0.675119  0.374463  1
  Ac  Ac17  1  0.668320  0.824881  0.125537  1
  Ac  Ac18  1  0.831680  0.324881  0.874463  1
  Ac  Ac19  1  0.331680  0.175119  0.625537  1
  Pd  Pd20  1  0.669122  0.035579  0.535505  1
  Pd  Pd21  1  0.169122  0.464421  0.964495  1
  Pd  Pd22  1  0.330878  0.964421  0.035505  1
  Pd  Pd23  1  0.830878  0.535579  0.464495  1
  Pd  Pd24  1  0.330878  0.964421  0.464495  1
  Pd  Pd25  1  0.830878  0.535579  0.035505  1
  Pd  Pd26  1  0.669122  0.035579  0.964495  1
  Pd  Pd27  1  0.169122  0.464421  0.535505  1
  Pd  Pd28  1  0.519977  0.399383  0.750000  1
  Pd  Pd29  1  0.019977  0.100617  0.750000  1
  Pd  Pd30  1  0.480023  0.600617  0.250000  1
  Pd  Pd31  1  0.980023  0.899383  0.250000  1
  Pd  Pd32  1  0.780570  0.637124  0.750000  1
  Pd  Pd33  1  0.280570  0.862876  0.750000  1
  Pd  Pd34  1  0.219430  0.362876  0.250000  1
  Pd  Pd35  1  0.719430  0.137124  0.250000  1
