# generated using pymatgen
data_PrEu3Ti8O20
_symmetry_space_group_name_H-M   'P 1'
_cell_length_a   5.87587400
_cell_length_b   7.73544811
_cell_length_c   8.65510000
_cell_angle_alpha   90.09263828
_cell_angle_beta   90.00000000
_cell_angle_gamma   90.00000000
_symmetry_Int_Tables_number   1
_chemical_formula_structural   PrEu3Ti8O20
_chemical_formula_sum   'Pr1 Eu3 Ti8 O20'
_cell_volume   393.39557809
_cell_formula_units_Z   1
loop_
 _symmetry_equiv_pos_site_id
 _symmetry_equiv_pos_as_xyz
  1  'x, y, z'
loop_
 _atom_site_type_symbol
 _atom_site_label
 _atom_site_symmetry_multiplicity
 _atom_site_fract_x
 _atom_site_fract_y
 _atom_site_fract_z
 _atom_site_occupancy
  Pr  Pr0  1  0.000000  0.137112  0.167846  1
  Eu  Eu1  1  0.000000  0.362380  0.668363  1
  Eu  Eu2  1  0.000000  0.638147  0.331902  1
  Eu  Eu3  1  0.000000  0.858520  0.830034  1
  Ti  Ti4  1  0.500000  0.118545  0.857854  1
  Ti  Ti5  1  0.500000  0.883564  0.142732  1
  Ti  Ti6  1  0.500000  0.615999  0.639818  1
  Ti  Ti7  1  0.500000  0.382062  0.358413  1
  Ti  Ti8  1  0.243585  0.501417  0.999211  1
  Ti  Ti9  1  0.756051  0.000357  0.502938  1
  Ti  Ti10  1  0.756415  0.501417  0.999211  1
  Ti  Ti11  1  0.243949  0.000357  0.502938  1
  O  O12  1  0.258369  0.904300  0.290061  1
  O  O13  1  0.259931  0.101574  0.708461  1
  O  O14  1  0.740871  0.392239  0.206848  1
  O  O15  1  0.738694  0.600262  0.792321  1
  O  O16  1  0.740069  0.101574  0.708461  1
  O  O17  1  0.741631  0.904300  0.290061  1
  O  O18  1  0.261306  0.600262  0.792321  1
  O  O19  1  0.259129  0.392239  0.206848  1
  O  O20  1  0.500000  0.339011  0.925461  1
  O  O21  1  0.500000  0.659993  0.078635  1
  O  O22  1  0.500000  0.838456  0.572255  1
  O  O23  1  0.500000  0.161985  0.427848  1
  O  O24  1  0.286817  0.002186  0.001003  1
  O  O25  1  0.713097  0.500476  0.498680  1
  O  O26  1  0.713183  0.002186  0.001003  1
  O  O27  1  0.286903  0.500476  0.498680  1
  O  O28  1  0.000000  0.161071  0.443781  1
  O  O29  1  0.000000  0.838723  0.553313  1
  O  O30  1  0.000000  0.661531  0.054940  1
  O  O31  1  0.000000  0.337280  0.947757  1
