# generated using pymatgen
data_Dy5Lu4Pa3Ga20
_symmetry_space_group_name_H-M   'P 1'
_cell_length_a   6.07295813
_cell_length_b   9.55816682
_cell_length_c   11.50126695
_cell_angle_alpha   90.04582263
_cell_angle_beta   89.90447800
_cell_angle_gamma   90.01238921
_symmetry_Int_Tables_number   1
_chemical_formula_structural   Dy5Lu4Pa3Ga20
_chemical_formula_sum   'Dy5 Lu4 Pa3 Ga20'
_cell_volume   667.60537406
_cell_formula_units_Z   1
loop_
 _symmetry_equiv_pos_site_id
 _symmetry_equiv_pos_as_xyz
  1  'x, y, z'
loop_
 _atom_site_type_symbol
 _atom_site_label
 _atom_site_symmetry_multiplicity
 _atom_site_fract_x
 _atom_site_fract_y
 _atom_site_fract_z
 _atom_site_occupancy
  Dy  Dy0  1  0.390036  0.493517  0.149388  1
  Dy  Dy1  1  0.110075  0.493019  0.648982  1
  Dy  Dy2  1  0.389899  0.006172  0.149443  1
  Dy  Dy3  1  0.890070  0.993674  0.350795  1
  Dy  Dy4  1  0.610059  0.506789  0.851037  1
  Lu  Lu5  1  0.850326  0.749317  0.074236  1
  Lu  Lu6  1  0.649409  0.751597  0.573870  1
  Lu  Lu7  1  0.148623  0.247960  0.925422  1
  Lu  Lu8  1  0.350745  0.251143  0.425739  1
  Pa  Pa9  1  0.887275  0.506860  0.352104  1
  Pa  Pa10  1  0.612612  0.992601  0.851516  1
  Pa  Pa11  1  0.113006  0.006855  0.648529  1
  Ga  Ga12  1  0.874418  0.053234  0.089423  1
  Ga  Ga13  1  0.626338  0.447857  0.589464  1
  Ga  Ga14  1  0.125086  0.552142  0.909335  1
  Ga  Ga15  1  0.373946  0.947575  0.410670  1
  Ga  Ga16  1  0.122566  0.946618  0.910151  1
  Ga  Ga17  1  0.376035  0.552525  0.409773  1
  Ga  Ga18  1  0.874954  0.446962  0.090043  1
  Ga  Ga19  1  0.623350  0.053008  0.589982  1
  Ga  Ga20  1  0.166644  0.749553  0.255301  1
  Ga  Ga21  1  0.332793  0.750005  0.756127  1
  Ga  Ga22  1  0.833077  0.249722  0.743975  1
  Ga  Ga23  1  0.668388  0.250363  0.244968  1
  Ga  Ga24  1  0.381153  0.750126  0.000308  1
  Ga  Ga25  1  0.119216  0.750154  0.500068  1
  Ga  Ga26  1  0.619489  0.249117  0.998253  1
  Ga  Ga27  1  0.881157  0.250501  0.499999  1
  Ga  Ga28  1  0.604824  0.749774  0.299416  1
  Ga  Ga29  1  0.896195  0.751322  0.797825  1
  Ga  Ga30  1  0.396260  0.248671  0.701788  1
  Ga  Ga31  1  0.101978  0.251268  0.202070  1
