# generated using pymatgen
data_Li2SiAsRh4
_symmetry_space_group_name_H-M   'P 1'
_cell_length_a   4.14646000
_cell_length_b   5.87033600
_cell_length_c   12.44336700
_cell_angle_alpha   90.00000000
_cell_angle_beta   90.00080131
_cell_angle_gamma   90.00000000
_symmetry_Int_Tables_number   1
_chemical_formula_structural   Li2SiAsRh4
_chemical_formula_sum   'Li6 Si3 As3 Rh12'
_cell_volume   302.88540734
_cell_formula_units_Z   3
loop_
 _symmetry_equiv_pos_site_id
 _symmetry_equiv_pos_as_xyz
  1  'x, y, z'
loop_
 _atom_site_type_symbol
 _atom_site_label
 _atom_site_symmetry_multiplicity
 _atom_site_fract_x
 _atom_site_fract_y
 _atom_site_fract_z
 _atom_site_occupancy
  Li  Li0  1  0.000004  0.500001  0.997763  1
  Li  Li1  1  0.499851  0.000000  0.166658  1
  Li  Li2  1  0.999901  0.500001  0.335584  1
  Li  Li3  1  0.499999  0.000000  0.502482  1
  Li  Li4  1  0.000154  0.500001  0.666661  1
  Li  Li5  1  0.500096  0.000000  0.830854  1
  Si  Si6  1  0.500009  0.500001  0.504706  1
  Si  Si7  1  0.000121  0.000000  0.666668  1
  Si  Si8  1  0.500104  0.500001  0.828624  1
  As  As9  1  0.000001  0.000000  0.994800  1
  As  As10  1  0.499859  0.500001  0.166665  1
  As  As11  1  0.999893  0.000000  0.338532  1
  Rh  Rh12  1  0.500004  0.252014  0.997655  1
  Rh  Rh13  1  0.500004  0.747986  0.997655  1
  Rh  Rh14  1  0.999886  0.249012  0.166669  1
  Rh  Rh15  1  0.999886  0.750988  0.166669  1
  Rh  Rh16  1  0.499906  0.252007  0.335679  1
  Rh  Rh17  1  0.499906  0.747993  0.335679  1
  Rh  Rh18  1  0.000015  0.252144  0.502522  1
  Rh  Rh19  1  0.000015  0.747856  0.502522  1
  Rh  Rh20  1  0.500098  0.249531  0.666666  1
  Rh  Rh21  1  0.500098  0.750469  0.666666  1
  Rh  Rh22  1  0.000095  0.252146  0.830811  1
  Rh  Rh23  1  0.000095  0.747854  0.830811  1
