# generated using pymatgen
data_NaTbPr5PtBr12
_symmetry_space_group_name_H-M   'P 1'
_cell_length_a   9.58229954
_cell_length_b   9.61976546
_cell_length_c   9.65541873
_cell_angle_alpha   107.25929161
_cell_angle_beta   107.96268401
_cell_angle_gamma   106.82371897
_symmetry_Int_Tables_number   1
_chemical_formula_structural   NaTbPr5PtBr12
_chemical_formula_sum   'Na1 Tb1 Pr5 Pt1 Br12'
_cell_volume   734.00777418
_cell_formula_units_Z   1
loop_
 _symmetry_equiv_pos_site_id
 _symmetry_equiv_pos_as_xyz
  1  'x, y, z'
loop_
 _atom_site_type_symbol
 _atom_site_label
 _atom_site_symmetry_multiplicity
 _atom_site_fract_x
 _atom_site_fract_y
 _atom_site_fract_z
 _atom_site_occupancy
  Na  Na0  1  0.499964  0.500408  0.499577  1
  Tb  Tb1  1  0.114099  0.320000  0.031996  1
  Pr  Pr2  1  0.317807  0.028820  0.113333  1
  Pr  Pr3  1  0.031949  0.120432  0.328859  1
  Pr  Pr4  1  0.969356  0.884202  0.673437  1
  Pr  Pr5  1  0.682281  0.970264  0.886671  1
  Pr  Pr6  1  0.883479  0.671550  0.968335  1
  Pt  Pt7  1  0.000824  0.001200  0.001507  1
  Br  Br8  1  0.215153  0.676346  0.072305  1
  Br  Br9  1  0.445305  0.372428  0.152588  1
  Br  Br10  1  0.683174  0.073451  0.215634  1
  Br  Br11  1  0.927829  0.786407  0.315944  1
  Br  Br12  1  0.157276  0.456789  0.361654  1
  Br  Br13  1  0.373582  0.158923  0.457759  1
  Br  Br14  1  0.626625  0.841964  0.542495  1
  Br  Br15  1  0.841782  0.543425  0.626604  1
  Br  Br16  1  0.075332  0.222103  0.695919  1
  Br  Br17  1  0.317091  0.927391  0.784874  1
  Br  Br18  1  0.542570  0.627668  0.841010  1
  Br  Br19  1  0.794526  0.316230  0.929504  1
