# generated using pymatgen
data_Ho20Bi8Ru3Au
_symmetry_space_group_name_H-M   'P 1'
_cell_length_a   7.98074865
_cell_length_b   9.04278100
_cell_length_c   12.38434650
_cell_angle_alpha   90.00000000
_cell_angle_beta   89.91631859
_cell_angle_gamma   90.00000000
_symmetry_Int_Tables_number   1
_chemical_formula_structural   Ho20Bi8Ru3Au
_chemical_formula_sum   'Ho20 Bi8 Ru3 Au1'
_cell_volume   893.75457453
_cell_formula_units_Z   1
loop_
 _symmetry_equiv_pos_site_id
 _symmetry_equiv_pos_as_xyz
  1  'x, y, z'
loop_
 _atom_site_type_symbol
 _atom_site_label
 _atom_site_symmetry_multiplicity
 _atom_site_fract_x
 _atom_site_fract_y
 _atom_site_fract_z
 _atom_site_occupancy
  Ho  Ho0  1  0.332600  0.750000  0.717699  1
  Ho  Ho1  1  0.658637  0.250000  0.292313  1
  Ho  Ho2  1  0.842748  0.250000  0.792977  1
  Ho  Ho3  1  0.155791  0.750000  0.204763  1
  Ho  Ho4  1  0.877805  0.750000  0.805042  1
  Ho  Ho5  1  0.118771  0.250000  0.193069  1
  Ho  Ho6  1  0.378934  0.250000  0.691976  1
  Ho  Ho7  1  0.631033  0.750000  0.298609  1
  Ho  Ho8  1  0.679829  0.533655  0.566977  1
  Ho  Ho9  1  0.321523  0.446035  0.434076  1
  Ho  Ho10  1  0.174713  0.459581  0.936628  1
  Ho  Ho11  1  0.321523  0.053965  0.434076  1
  Ho  Ho12  1  0.824597  0.543666  0.063276  1
  Ho  Ho13  1  0.679829  0.966345  0.566977  1
  Ho  Ho14  1  0.824597  0.956334  0.063276  1
  Ho  Ho15  1  0.174713  0.040419  0.936628  1
  Ho  Ho16  1  0.043604  0.750000  0.499421  1
  Ho  Ho17  1  0.950213  0.250000  0.502035  1
  Ho  Ho18  1  0.556851  0.250000  0.003441  1
  Ho  Ho19  1  0.447526  0.750000  0.998166  1
  Bi  Bi20  1  0.569405  0.508401  0.827791  1
  Bi  Bi21  1  0.429466  0.491007  0.173278  1
  Bi  Bi22  1  0.072630  0.490501  0.671983  1
  Bi  Bi23  1  0.429466  0.008993  0.173278  1
  Bi  Bi24  1  0.929841  0.508923  0.328062  1
  Bi  Bi25  1  0.569405  0.991599  0.827791  1
  Bi  Bi26  1  0.929841  0.991077  0.328062  1
  Bi  Bi27  1  0.072630  0.009499  0.671983  1
  Ru  Ru28  1  0.075283  0.750000  0.987320  1
  Ru  Ru29  1  0.926239  0.250000  0.010354  1
  Ru  Ru30  1  0.575340  0.250000  0.510328  1
  Au  Au31  1  0.424620  0.750000  0.488348  1
