# generated using pymatgen
data_Nd4HgPt4Pb
_symmetry_space_group_name_H-M   'P 1'
_cell_length_a   3.78156500
_cell_length_b   8.03931500
_cell_length_c   8.03931500
_cell_angle_alpha   90.00000000
_cell_angle_beta   90.00000000
_cell_angle_gamma   90.00000000
_symmetry_Int_Tables_number   1
_chemical_formula_structural   Nd4HgPt4Pb
_chemical_formula_sum   'Nd4 Hg1 Pt4 Pb1'
_cell_volume   244.40476070
_cell_formula_units_Z   1
loop_
 _symmetry_equiv_pos_site_id
 _symmetry_equiv_pos_as_xyz
  1  'x, y, z'
loop_
 _atom_site_type_symbol
 _atom_site_label
 _atom_site_symmetry_multiplicity
 _atom_site_fract_x
 _atom_site_fract_y
 _atom_site_fract_z
 _atom_site_occupancy
  Nd  Nd0  1  0.500000  0.164020  0.678589  1
  Nd  Nd1  1  0.500000  0.835980  0.321411  1
  Nd  Nd2  1  0.500000  0.321411  0.164020  1
  Nd  Nd3  1  0.500000  0.678589  0.835980  1
  Hg  Hg4  1  0.000000  0.000000  0.000000  1
  Pt  Pt5  1  0.000000  0.622900  0.128524  1
  Pt  Pt6  1  0.000000  0.377100  0.871476  1
  Pt  Pt7  1  0.000000  0.871476  0.622900  1
  Pt  Pt8  1  0.000000  0.128524  0.377100  1
  Pb  Pb9  1  0.000000  0.500000  0.500000  1
