# generated using pymatgen
data_K2Hg(CO3)2
_symmetry_space_group_name_H-M   'P 1'
_cell_length_a   6.09638957
_cell_length_b   7.24460882
_cell_length_c   10.07914197
_cell_angle_alpha   97.31053077
_cell_angle_beta   72.39663228
_cell_angle_gamma   114.88216922
_symmetry_Int_Tables_number   1
_chemical_formula_structural   K2Hg(CO3)2
_chemical_formula_sum   'K4 Hg2 C4 O12'
_cell_volume   384.92309605
_cell_formula_units_Z   2
loop_
 _symmetry_equiv_pos_site_id
 _symmetry_equiv_pos_as_xyz
  1  'x, y, z'
loop_
 _atom_site_type_symbol
 _atom_site_label
 _atom_site_symmetry_multiplicity
 _atom_site_fract_x
 _atom_site_fract_y
 _atom_site_fract_z
 _atom_site_occupancy
  K  K0  1  0.679748  0.347802  0.102123  1
  K  K1  1  0.031872  0.847801  0.397877  1
  K  K2  1  0.581948  0.152199  0.602123  1
  K  K3  1  0.434070  0.652200  0.897878  1
  Hg  Hg4  1  0.989715  0.000000  0.000000  1
  Hg  Hg5  1  0.239716  0.500001  0.500000  1
  C  C6  1  0.122472  0.401731  0.240348  1
  C  C7  1  0.612821  0.901732  0.259653  1
  C  C8  1  0.970741  0.098268  0.740348  1
  C  C9  1  0.961088  0.598268  0.759652  1
  O  O10  1  0.167000  0.373153  0.108124  1
  O  O11  1  0.508629  0.943841  0.182480  1
  O  O12  1  0.835700  0.884245  0.201763  1
  O  O13  1  0.287462  0.384244  0.298237  1
  O  O14  1  0.941107  0.443840  0.317520  1
  O  O15  1  0.525123  0.873154  0.391876  1
  O  O16  1  0.043845  0.126847  0.608124  1
  O  O17  1  0.814787  0.556160  0.682480  1
  O  O18  1  0.201455  0.615756  0.701763  1
  O  O19  1  0.153218  0.115755  0.798237  1
  O  O20  1  0.747267  0.056159  0.817521  1
  O  O21  1  0.901969  0.626846  0.891876  1
