# generated using pymatgen
data_NaMnCr(Sb6Pt)2
_symmetry_space_group_name_H-M   'P 1'
_cell_length_a   8.18311416
_cell_length_b   8.13422748
_cell_length_c   8.21384777
_cell_angle_alpha   109.48231886
_cell_angle_beta   109.52989855
_cell_angle_gamma   109.22733890
_symmetry_Int_Tables_number   1
_chemical_formula_structural   NaMnCr(Sb6Pt)2
_chemical_formula_sum   'Na1 Mn1 Cr1 Sb12 Pt2'
_cell_volume   421.78072218
_cell_formula_units_Z   1
loop_
 _symmetry_equiv_pos_site_id
 _symmetry_equiv_pos_as_xyz
  1  'x, y, z'
loop_
 _atom_site_type_symbol
 _atom_site_label
 _atom_site_symmetry_multiplicity
 _atom_site_fract_x
 _atom_site_fract_y
 _atom_site_fract_z
 _atom_site_occupancy
  Na  Na0  1  0.000000  0.000000  0.000000  1
  Mn  Mn1  1  0.500000  0.500000  0.500000  1
  Cr  Cr2  1  0.000000  0.500000  0.000000  1
  Sb  Sb3  1  0.652477  0.802962  0.151603  1
  Sb  Sb4  1  0.848735  0.345934  0.188822  1
  Sb  Sb5  1  0.505957  0.834072  0.653162  1
  Sb  Sb6  1  0.831881  0.651284  0.505696  1
  Sb  Sb7  1  0.494043  0.165928  0.346838  1
  Sb  Sb8  1  0.151265  0.654066  0.811178  1
  Sb  Sb9  1  0.811428  0.156626  0.659602  1
  Sb  Sb10  1  0.188572  0.843374  0.340398  1
  Sb  Sb11  1  0.168119  0.348716  0.494304  1
  Sb  Sb12  1  0.660870  0.508015  0.831314  1
  Sb  Sb13  1  0.339130  0.491985  0.168686  1
  Sb  Sb14  1  0.347523  0.197038  0.848397  1
  Pt  Pt15  1  0.000000  0.000000  0.500000  1
  Pt  Pt16  1  0.500000  0.000000  0.000000  1
