# generated using pymatgen
data_Ho6Al24Fe5Ni3
_symmetry_space_group_name_H-M   'P 1'
_cell_length_a   8.68665030
_cell_length_b   8.72343190
_cell_length_c   9.30029100
_cell_angle_alpha   90.00463046
_cell_angle_beta   90.01495278
_cell_angle_gamma   119.64071161
_symmetry_Int_Tables_number   1
_chemical_formula_structural   Ho6Al24Fe5Ni3
_chemical_formula_sum   'Ho6 Al24 Fe5 Ni3'
_cell_volume   612.53065646
_cell_formula_units_Z   1
loop_
 _symmetry_equiv_pos_site_id
 _symmetry_equiv_pos_as_xyz
  1  'x, y, z'
loop_
 _atom_site_type_symbol
 _atom_site_label
 _atom_site_symmetry_multiplicity
 _atom_site_fract_x
 _atom_site_fract_y
 _atom_site_fract_z
 _atom_site_occupancy
  Ho  Ho0  1  0.190301  0.385490  0.250881  1
  Ho  Ho1  1  0.809699  0.614510  0.749119  1
  Ho  Ho2  1  0.612155  0.810454  0.251870  1
  Ho  Ho3  1  0.387845  0.189546  0.748130  1
  Ho  Ho4  1  0.196127  0.807374  0.250773  1
  Ho  Ho5  1  0.803873  0.192626  0.749227  1
  Al  Al6  1  0.335496  0.670466  0.015807  1
  Al  Al7  1  0.664504  0.329534  0.984193  1
  Al  Al8  1  0.669255  0.331981  0.516250  1
  Al  Al9  1  0.330745  0.668019  0.483750  1
  Al  Al10  1  0.157336  0.322064  0.575708  1
  Al  Al11  1  0.842664  0.677936  0.424292  1
  Al  Al12  1  0.677215  0.841953  0.575661  1
  Al  Al13  1  0.839078  0.679433  0.077327  1
  Al  Al14  1  0.322785  0.158047  0.424339  1
  Al  Al15  1  0.160922  0.320567  0.922673  1
  Al  Al16  1  0.162005  0.837285  0.575071  1
  Al  Al17  1  0.322051  0.157344  0.075860  1
  Al  Al18  1  0.837995  0.162715  0.424929  1
  Al  Al19  1  0.677949  0.842656  0.924140  1
  Al  Al20  1  0.834616  0.157477  0.076625  1
  Al  Al21  1  0.165384  0.842523  0.923375  1
  Al  Al22  1  0.558732  0.118495  0.249631  1
  Al  Al23  1  0.441268  0.881505  0.750369  1
  Al  Al24  1  0.880704  0.440784  0.252700  1
  Al  Al25  1  0.119296  0.559216  0.747300  1
  Al  Al26  1  0.559424  0.440371  0.249707  1
  Al  Al27  1  0.440576  0.559629  0.750293  1
  Al  Al28  1  0.999522  0.001439  0.250283  1
  Al  Al29  1  0.000478  0.998561  0.749717  1
  Fe  Fe30  1  0.500000  0.000000  0.000000  1
  Fe  Fe31  1  0.500000  0.000000  0.500000  1
  Fe  Fe32  1  0.000000  0.500000  0.500000  1
  Fe  Fe33  1  0.000000  0.000000  0.000000  1
  Fe  Fe34  1  0.000000  0.000000  0.500000  1
  Ni  Ni35  1  0.000000  0.500000  0.000000  1
  Ni  Ni36  1  0.500000  0.500000  0.000000  1
  Ni  Ni37  1  0.500000  0.500000  0.500000  1
