# generated using pymatgen
data_Tb16Tl3InRu3Rh
_symmetry_space_group_name_H-M   'P 1'
_cell_length_a   9.72314501
_cell_length_b   9.74099830
_cell_length_c   9.74510328
_cell_angle_alpha   59.71706319
_cell_angle_beta   59.67965092
_cell_angle_gamma   59.65463862
_symmetry_Int_Tables_number   1
_chemical_formula_structural   Tb16Tl3InRu3Rh
_chemical_formula_sum   'Tb16 Tl3 In1 Ru3 Rh1'
_cell_volume   647.96327305
_cell_formula_units_Z   1
loop_
 _symmetry_equiv_pos_site_id
 _symmetry_equiv_pos_as_xyz
  1  'x, y, z'
loop_
 _atom_site_type_symbol
 _atom_site_label
 _atom_site_symmetry_multiplicity
 _atom_site_fract_x
 _atom_site_fract_y
 _atom_site_fract_z
 _atom_site_occupancy
  Tb  Tb0  1  0.810477  0.808380  0.190836  1
  Tb  Tb1  1  0.810439  0.190875  0.808392  1
  Tb  Tb2  1  0.190231  0.194129  0.810438  1
  Tb  Tb3  1  0.652836  0.043580  0.650668  1
  Tb  Tb4  1  0.057225  0.058294  0.443427  1
  Tb  Tb5  1  0.442262  0.437918  0.060826  1
  Tb  Tb6  1  0.653169  0.650093  0.650129  1
  Tb  Tb7  1  0.812368  0.191745  0.191746  1
  Tb  Tb8  1  0.189234  0.809696  0.809759  1
  Tb  Tb9  1  0.041863  0.652424  0.652495  1
  Tb  Tb10  1  0.444801  0.058191  0.058195  1
  Tb  Tb11  1  0.442290  0.060812  0.437930  1
  Tb  Tb12  1  0.057246  0.443408  0.058317  1
  Tb  Tb13  1  0.652883  0.650660  0.043531  1
  Tb  Tb14  1  0.190250  0.810419  0.194148  1
  Tb  Tb15  1  0.059852  0.440883  0.440843  1
  Tl  Tl16  1  0.416782  0.415143  0.415165  1
  Tl  Tl17  1  0.416280  0.414805  0.754767  1
  Tl  Tl18  1  0.416273  0.754768  0.414788  1
  In  In19  1  0.749079  0.417034  0.416961  1
  Ru  Ru20  1  0.858098  0.418211  0.858754  1
  Ru  Ru21  1  0.857967  0.861513  0.861428  1
  Ru  Ru22  1  0.858086  0.858753  0.418209  1
  Rh  Rh23  1  0.420008  0.858267  0.858250  1
