# generated using pymatgen
data_Ta8V2Ga3Ge3B2
_symmetry_space_group_name_H-M   'P 1'
_cell_length_a   7.71425600
_cell_length_b   7.71425542
_cell_length_c   5.22035800
_cell_angle_alpha   90.00000000
_cell_angle_beta   90.00000000
_cell_angle_gamma   120.00000248
_symmetry_Int_Tables_number   1
_chemical_formula_structural   Ta8V2Ga3Ge3B2
_chemical_formula_sum   'Ta8 V2 Ga3 Ge3 B2'
_cell_volume   269.04131014
_cell_formula_units_Z   1
loop_
 _symmetry_equiv_pos_site_id
 _symmetry_equiv_pos_as_xyz
  1  'x, y, z'
loop_
 _atom_site_type_symbol
 _atom_site_label
 _atom_site_symmetry_multiplicity
 _atom_site_fract_x
 _atom_site_fract_y
 _atom_site_fract_z
 _atom_site_occupancy
  Ta  Ta0  1  0.333333  0.666667  0.001631  1
  Ta  Ta1  1  0.666667  0.333333  0.001631  1
  Ta  Ta2  1  0.754635  0.754635  0.247140  1
  Ta  Ta3  1  0.245365  0.000000  0.247140  1
  Ta  Ta4  1  0.000000  0.245365  0.247140  1
  Ta  Ta5  1  0.241637  0.241637  0.753071  1
  Ta  Ta6  1  0.758363  0.000000  0.753071  1
  Ta  Ta7  1  0.000000  0.758363  0.753071  1
  V  V8  1  0.666667  0.333333  0.498973  1
  V  V9  1  0.333333  0.666667  0.498973  1
  Ga  Ga10  1  0.402663  0.402663  0.262517  1
  Ga  Ga11  1  0.597337  0.000000  0.262517  1
  Ga  Ga12  1  0.000000  0.597337  0.262517  1
  Ge  Ge13  1  0.593921  0.593921  0.736929  1
  Ge  Ge14  1  0.406079  0.000000  0.736929  1
  Ge  Ge15  1  0.000000  0.406079  0.736929  1
  B  B16  1  0.000000  0.000000  0.496207  1
  B  B17  1  0.000000  0.000000  0.003615  1
