# generated using pymatgen
data_Tb11Er5Cd4(CoPd)2
_symmetry_space_group_name_H-M   'P 1'
_cell_length_a   9.59737452
_cell_length_b   9.59671562
_cell_length_c   9.59625690
_cell_angle_alpha   60.19185438
_cell_angle_beta   59.81854278
_cell_angle_gamma   59.82987632
_symmetry_Int_Tables_number   1
_chemical_formula_structural   Tb11Er5Cd4(CoPd)2
_chemical_formula_sum   'Tb11 Er5 Cd4 Co2 Pd2'
_cell_volume   624.20208434
_cell_formula_units_Z   1
loop_
 _symmetry_equiv_pos_site_id
 _symmetry_equiv_pos_as_xyz
  1  'x, y, z'
loop_
 _atom_site_type_symbol
 _atom_site_label
 _atom_site_symmetry_multiplicity
 _atom_site_fract_x
 _atom_site_fract_y
 _atom_site_fract_z
 _atom_site_occupancy
  Tb  Tb0  1  0.813758  0.186109  0.817544  1
  Tb  Tb1  1  0.438102  0.049971  0.439420  1
  Tb  Tb2  1  0.596824  0.193289  0.617760  1
  Tb  Tb3  1  0.813938  0.816759  0.187253  1
  Tb  Tb4  1  0.206048  0.604288  0.602435  1
  Tb  Tb5  1  0.808725  0.190034  0.189856  1
  Tb  Tb6  1  0.059779  0.439839  0.439781  1
  Tb  Tb7  1  0.185660  0.815120  0.185754  1
  Tb  Tb8  1  0.596660  0.617872  0.193171  1
  Tb  Tb9  1  0.185092  0.186238  0.814886  1
  Tb  Tb10  1  0.072774  0.436757  0.051502  1
  Er  Er11  1  0.439569  0.440262  0.049243  1
  Er  Er12  1  0.586932  0.598967  0.601204  1
  Er  Er13  1  0.186343  0.814509  0.814632  1
  Er  Er14  1  0.070877  0.051525  0.437531  1
  Er  Er15  1  0.435612  0.063030  0.063016  1
  Cd  Cd16  1  0.830336  0.828771  0.507809  1
  Cd  Cd17  1  0.833328  0.831160  0.830241  1
  Cd  Cd18  1  0.503731  0.829645  0.830219  1
  Cd  Cd19  1  0.829853  0.507627  0.828736  1
  Co  Co20  1  0.392292  0.825475  0.391279  1
  Co  Co21  1  0.393485  0.391331  0.825513  1
  Pd  Pd22  1  0.399189  0.391981  0.389754  1
  Pd  Pd23  1  0.821094  0.389441  0.391461  1
