# generated using pymatgen
data_TbTm7Re(B8Ir)3
_symmetry_space_group_name_H-M   'P 1'
_cell_length_a   3.63121200
_cell_length_b   9.12174892
_cell_length_c   11.45456109
_cell_angle_alpha   90.15407642
_cell_angle_beta   90.00000000
_cell_angle_gamma   90.00000000
_symmetry_Int_Tables_number   1
_chemical_formula_structural   TbTm7Re(B8Ir)3
_chemical_formula_sum   'Tb1 Tm7 Re1 B24 Ir3'
_cell_volume   379.40810264
_cell_formula_units_Z   1
loop_
 _symmetry_equiv_pos_site_id
 _symmetry_equiv_pos_as_xyz
  1  'x, y, z'
loop_
 _atom_site_type_symbol
 _atom_site_label
 _atom_site_symmetry_multiplicity
 _atom_site_fract_x
 _atom_site_fract_y
 _atom_site_fract_z
 _atom_site_occupancy
  Tb  Tb0  1  0.000000  0.320766  0.413716  1
  Tm  Tm1  1  0.000000  0.683960  0.590691  1
  Tm  Tm2  1  0.000000  0.820208  0.082356  1
  Tm  Tm3  1  0.000000  0.176131  0.912338  1
  Tm  Tm4  1  0.000000  0.943453  0.373270  1
  Tm  Tm5  1  0.000000  0.053448  0.626528  1
  Tm  Tm6  1  0.000000  0.443668  0.125798  1
  Tm  Tm7  1  0.000000  0.557394  0.875023  1
  Re  Re8  1  0.000000  0.862483  0.821331  1
  B  B9  1  0.500000  0.554420  0.434604  1
  B  B10  1  0.500000  0.448044  0.566916  1
  B  B11  1  0.500000  0.053345  0.065914  1
  B  B12  1  0.500000  0.946881  0.933611  1
  B  B13  1  0.500000  0.750529  0.420974  1
  B  B14  1  0.500000  0.249859  0.579737  1
  B  B15  1  0.500000  0.249270  0.078549  1
  B  B16  1  0.500000  0.751488  0.920140  1
  B  B17  1  0.500000  0.792633  0.264396  1
  B  B18  1  0.500000  0.207266  0.734109  1
  B  B19  1  0.500000  0.293111  0.234548  1
  B  B20  1  0.500000  0.707503  0.765902  1
  B  B21  1  0.500000  0.631231  0.183785  1
  B  B22  1  0.500000  0.368273  0.816240  1
  B  B23  1  0.500000  0.131149  0.315524  1
  B  B24  1  0.500000  0.868932  0.685177  1
  B  B25  1  0.500000  0.980925  0.212853  1
  B  B26  1  0.500000  0.017909  0.786656  1
  B  B27  1  0.500000  0.481635  0.286818  1
  B  B28  1  0.500000  0.518721  0.714034  1
  B  B29  1  0.500000  0.607362  0.030701  1
  B  B30  1  0.500000  0.390298  0.970358  1
  B  B31  1  0.500000  0.107307  0.470049  1
  B  B32  1  0.500000  0.892334  0.528489  1
  Ir  Ir33  1  0.000000  0.638198  0.321807  1
  Ir  Ir34  1  0.000000  0.362693  0.678918  1
  Ir  Ir35  1  0.000000  0.137173  0.178138  1
