# generated using pymatgen
data_Dy4Tc3(B4Os)3
_symmetry_space_group_name_H-M   'P 1'
_cell_length_a   6.20509007
_cell_length_b   6.21090286
_cell_length_c   7.51209800
_cell_angle_alpha   89.34602326
_cell_angle_beta   89.33968535
_cell_angle_gamma   113.64668484
_symmetry_Int_Tables_number   1
_chemical_formula_structural   Dy4Tc3(B4Os)3
_chemical_formula_sum   'Dy4 Tc3 B12 Os3'
_cell_volume   265.14369810
_cell_formula_units_Z   1
loop_
 _symmetry_equiv_pos_site_id
 _symmetry_equiv_pos_as_xyz
  1  'x, y, z'
loop_
 _atom_site_type_symbol
 _atom_site_label
 _atom_site_symmetry_multiplicity
 _atom_site_fract_x
 _atom_site_fract_y
 _atom_site_fract_z
 _atom_site_occupancy
  Dy  Dy0  1  0.901353  0.561142  0.321318  1
  Dy  Dy1  1  0.444396  0.099954  0.178084  1
  Dy  Dy2  1  0.099319  0.441893  0.677977  1
  Dy  Dy3  1  0.555163  0.898989  0.822269  1
  Tc  Tc4  1  0.411298  0.587799  0.250416  1
  Tc  Tc5  1  0.591150  0.412114  0.748582  1
  Tc  Tc6  1  0.011708  0.199245  0.087330  1
  B  B7  1  0.754198  0.851931  0.130516  1
  B  B8  1  0.147335  0.242380  0.368996  1
  B  B9  1  0.243466  0.148539  0.869801  1
  B  B10  1  0.853339  0.757253  0.632082  1
  B  B11  1  0.409453  0.835570  0.481626  1
  B  B12  1  0.160047  0.585697  0.016698  1
  B  B13  1  0.591288  0.164446  0.518457  1
  B  B14  1  0.838151  0.412141  0.982768  1
  B  B15  1  0.553853  0.649226  0.537397  1
  B  B16  1  0.349687  0.443542  0.962793  1
  B  B17  1  0.446626  0.351160  0.462931  1
  B  B18  1  0.648998  0.554794  0.036329  1
  Os  Os19  1  0.799294  0.988240  0.415512  1
  Os  Os20  1  0.987495  0.801511  0.912786  1
  Os  Os21  1  0.202385  0.012434  0.585331  1
