# generated using pymatgen
data_Na5TlS4
_symmetry_space_group_name_H-M   'P 1'
_cell_length_a   8.90804000
_cell_length_b   6.91720548
_cell_length_c   7.92372769
_cell_angle_alpha   88.90011294
_cell_angle_beta   90.00000000
_cell_angle_gamma   90.00000000
_symmetry_Int_Tables_number   1
_chemical_formula_structural   Na5TlS4
_chemical_formula_sum   'Na10 Tl2 S8'
_cell_volume   488.16018096
_cell_formula_units_Z   2
loop_
 _symmetry_equiv_pos_site_id
 _symmetry_equiv_pos_as_xyz
  1  'x, y, z'
loop_
 _atom_site_type_symbol
 _atom_site_label
 _atom_site_symmetry_multiplicity
 _atom_site_fract_x
 _atom_site_fract_y
 _atom_site_fract_z
 _atom_site_occupancy
  Na  Na0  1  0.480729  0.345715  0.665140  1
  Na  Na1  1  0.980729  0.654285  0.334860  1
  Na  Na2  1  0.519271  0.654285  0.334860  1
  Na  Na3  1  0.019271  0.345715  0.665140  1
  Na  Na4  1  0.750000  0.022755  0.530498  1
  Na  Na5  1  0.250000  0.977245  0.469502  1
  Na  Na6  1  0.750000  0.331227  0.160788  1
  Na  Na7  1  0.250000  0.668773  0.839212  1
  Na  Na8  1  0.000000  0.000000  0.000000  1
  Na  Na9  1  0.500000  0.000000  0.000000  1
  Tl  Tl10  1  0.250000  0.362230  0.175690  1
  Tl  Tl11  1  0.750000  0.637770  0.824310  1
  S  S12  1  0.250000  0.237004  0.873308  1
  S  S13  1  0.750000  0.762996  0.126692  1
  S  S14  1  0.985628  0.768798  0.668606  1
  S  S15  1  0.485628  0.231202  0.331394  1
  S  S16  1  0.014372  0.231202  0.331394  1
  S  S17  1  0.514372  0.768798  0.668606  1
  S  S18  1  0.750000  0.264273  0.821734  1
  S  S19  1  0.250000  0.735727  0.178266  1
