# generated using pymatgen
data_La7As10P2Pd17
_symmetry_space_group_name_H-M   'P 1'
_cell_length_a   12.77318867
_cell_length_b   12.77318860
_cell_length_c   13.99733044
_cell_angle_alpha   68.72769655
_cell_angle_beta   68.72769699
_cell_angle_gamma   19.00633169
_symmetry_Int_Tables_number   1
_chemical_formula_structural   La7As10P2Pd17
_chemical_formula_sum   'La7 As10 P2 Pd17'
_cell_volume   691.59944719
_cell_formula_units_Z   1
loop_
 _symmetry_equiv_pos_site_id
 _symmetry_equiv_pos_as_xyz
  1  'x, y, z'
loop_
 _atom_site_type_symbol
 _atom_site_label
 _atom_site_symmetry_multiplicity
 _atom_site_fract_x
 _atom_site_fract_y
 _atom_site_fract_z
 _atom_site_occupancy
  La  La0  1  0.500000  0.500000  0.500000  1
  La  La1  1  0.364304  0.364304  0.002139  1
  La  La2  1  0.635696  0.635696  0.997861  1
  La  La3  1  0.233347  0.233347  0.310843  1
  La  La4  1  0.766653  0.766653  0.689157  1
  La  La5  1  0.417936  0.417936  0.260723  1
  La  La6  1  0.582064  0.582064  0.739277  1
  As  As7  1  0.062086  0.062086  0.925268  1
  As  As8  1  0.937914  0.937914  0.074732  1
  As  As9  1  0.883936  0.883936  0.829724  1
  As  As10  1  0.116064  0.116064  0.170276  1
  As  As11  1  0.188999  0.188999  0.620817  1
  As  As12  1  0.811001  0.811001  0.379183  1
  As  As13  1  0.365384  0.365384  0.579821  1
  As  As14  1  0.634616  0.634616  0.420179  1
  As  As15  1  0.010762  0.010762  0.670454  1
  As  As16  1  0.989238  0.989238  0.329546  1
  P  P17  1  0.235436  0.235436  0.885429  1
  P  P18  1  0.764564  0.764564  0.114571  1
  Pd  Pd19  1  0.834900  0.834900  0.189264  1
  Pd  Pd20  1  0.165100  0.165100  0.810736  1
  Pd  Pd21  1  0.025112  0.025112  0.127547  1
  Pd  Pd22  1  0.974888  0.974888  0.872453  1
  Pd  Pd23  1  0.888474  0.888474  0.459231  1
  Pd  Pd24  1  0.111526  0.111526  0.540769  1
  Pd  Pd25  1  0.500000  0.500000  0.000000  1
  Pd  Pd26  1  0.549783  0.549783  0.252799  1
  Pd  Pd27  1  0.450217  0.450217  0.747201  1
  Pd  Pd28  1  0.295559  0.295559  0.488629  1
  Pd  Pd29  1  0.704441  0.704441  0.511371  1
  Pd  Pd30  1  0.666580  0.666580  0.220707  1
  Pd  Pd31  1  0.333420  0.333420  0.779293  1
  Pd  Pd32  1  0.907735  0.907735  0.640284  1
  Pd  Pd33  1  0.092265  0.092265  0.359716  1
  Pd  Pd34  1  0.222383  0.222383  0.068440  1
  Pd  Pd35  1  0.777617  0.777617  0.931560  1
