# generated using pymatgen
data_Tb3TiMnC6
_symmetry_space_group_name_H-M   'P 1'
_cell_length_a   8.24551900
_cell_length_b   8.24551832
_cell_length_c   5.05029100
_cell_angle_alpha   90.00000000
_cell_angle_beta   90.00000000
_cell_angle_gamma   119.99999765
_symmetry_Int_Tables_number   1
_chemical_formula_structural   Tb3TiMnC6
_chemical_formula_sum   'Tb6 Ti2 Mn2 C12'
_cell_volume   297.36031125
_cell_formula_units_Z   2
loop_
 _symmetry_equiv_pos_site_id
 _symmetry_equiv_pos_as_xyz
  1  'x, y, z'
loop_
 _atom_site_type_symbol
 _atom_site_label
 _atom_site_symmetry_multiplicity
 _atom_site_fract_x
 _atom_site_fract_y
 _atom_site_fract_z
 _atom_site_occupancy
  Tb  Tb0  1  0.619475  0.678900  0.750000  1
  Tb  Tb1  1  0.940576  0.619475  0.250000  1
  Tb  Tb2  1  0.678900  0.059424  0.250000  1
  Tb  Tb3  1  0.321100  0.940576  0.750000  1
  Tb  Tb4  1  0.059424  0.380525  0.750000  1
  Tb  Tb5  1  0.380525  0.321100  0.250000  1
  Ti  Ti6  1  0.000000  0.000000  0.500000  1
  Ti  Ti7  1  0.000000  0.000000  0.000000  1
  Mn  Mn8  1  0.666667  0.333333  0.750000  1
  Mn  Mn9  1  0.333333  0.666667  0.250000  1
  C  C10  1  0.962672  0.761370  0.750000  1
  C  C11  1  0.201303  0.962672  0.250000  1
  C  C12  1  0.761370  0.798697  0.250000  1
  C  C13  1  0.238630  0.201303  0.750000  1
  C  C14  1  0.798697  0.037328  0.750000  1
  C  C15  1  0.037328  0.238630  0.250000  1
  C  C16  1  0.861549  0.569811  0.750000  1
  C  C17  1  0.291738  0.861549  0.250000  1
  C  C18  1  0.569811  0.708262  0.250000  1
  C  C19  1  0.430189  0.291738  0.750000  1
  C  C20  1  0.138451  0.430189  0.250000  1
  C  C21  1  0.708262  0.138451  0.750000  1
