# generated using pymatgen
data_LiEr2MgPt2
_symmetry_space_group_name_H-M   'P 1'
_cell_length_a   4.17944400
_cell_length_b   6.93050400
_cell_length_c   8.34572100
_cell_angle_alpha   90.00000000
_cell_angle_beta   90.00000000
_cell_angle_gamma   90.00000000
_symmetry_Int_Tables_number   1
_chemical_formula_structural   LiEr2MgPt2
_chemical_formula_sum   'Li2 Er4 Mg2 Pt4'
_cell_volume   241.73926152
_cell_formula_units_Z   2
loop_
 _symmetry_equiv_pos_site_id
 _symmetry_equiv_pos_as_xyz
  1  'x, y, z'
loop_
 _atom_site_type_symbol
 _atom_site_label
 _atom_site_symmetry_multiplicity
 _atom_site_fract_x
 _atom_site_fract_y
 _atom_site_fract_z
 _atom_site_occupancy
  Li  Li0  1  0.750000  0.367836  0.439898  1
  Li  Li1  1  0.750000  0.867836  0.060102  1
  Er  Er2  1  0.250000  0.048542  0.324362  1
  Er  Er3  1  0.250000  0.548542  0.175638  1
  Er  Er4  1  0.750000  0.956359  0.675556  1
  Er  Er5  1  0.750000  0.456359  0.824444  1
  Mg  Mg6  1  0.250000  0.625894  0.553982  1
  Mg  Mg7  1  0.250000  0.125894  0.946018  1
  Pt  Pt8  1  0.250000  0.243720  0.630323  1
  Pt  Pt9  1  0.250000  0.743720  0.869677  1
  Pt  Pt10  1  0.750000  0.757651  0.372540  1
  Pt  Pt11  1  0.750000  0.257651  0.127460  1
