# generated using pymatgen
data_BaMn6(FeO8)2
_symmetry_space_group_name_H-M   'P 1'
_cell_length_a   5.88177901
_cell_length_b   7.18764227
_cell_length_c   7.29492849
_cell_angle_alpha   88.04827373
_cell_angle_beta   78.32830427
_cell_angle_gamma   78.17273102
_symmetry_Int_Tables_number   1
_chemical_formula_structural   BaMn6(FeO8)2
_chemical_formula_sum   'Ba1 Mn6 Fe2 O16'
_cell_volume   295.60362321
_cell_formula_units_Z   1
loop_
 _symmetry_equiv_pos_site_id
 _symmetry_equiv_pos_as_xyz
  1  'x, y, z'
loop_
 _atom_site_type_symbol
 _atom_site_label
 _atom_site_symmetry_multiplicity
 _atom_site_fract_x
 _atom_site_fract_y
 _atom_site_fract_z
 _atom_site_occupancy
  Ba  Ba0  1  0.008072  0.991850  0.999507  1
  Mn  Mn1  1  0.169950  0.820330  0.517360  1
  Mn  Mn2  1  0.667594  0.821029  0.524384  1
  Mn  Mn3  1  0.337731  0.184824  0.483071  1
  Mn  Mn4  1  0.835811  0.184605  0.487394  1
  Mn  Mn5  1  0.428494  0.485245  0.817381  1
  Mn  Mn6  1  0.927160  0.490838  0.817245  1
  Fe  Fe7  1  0.578660  0.519050  0.183888  1
  Fe  Fe8  1  0.080856  0.507011  0.186420  1
  O  O9  1  0.836309  0.647167  0.038587  1
  O  O10  1  0.330127  0.644059  0.037933  1
  O  O11  1  0.977866  0.714844  0.382236  1
  O  O12  1  0.481707  0.712597  0.387044  1
  O  O13  1  0.857032  0.954765  0.649068  1
  O  O14  1  0.349521  0.955767  0.646856  1
  O  O15  1  0.340803  0.367508  0.296270  1
  O  O16  1  0.840422  0.357633  0.288616  1
  O  O17  1  0.169047  0.632210  0.712922  1
  O  O18  1  0.669886  0.624411  0.707830  1
  O  O19  1  0.150085  0.045211  0.361246  1
  O  O20  1  0.654789  0.043918  0.364604  1
  O  O21  1  0.026733  0.293086  0.620269  1
  O  O22  1  0.524874  0.294325  0.618276  1
  O  O23  1  0.178760  0.352489  0.934949  1
  O  O24  1  0.684807  0.355228  0.936639  1
