# generated using pymatgen
data_Tb3Ho3(FeCo3)2
_symmetry_space_group_name_H-M   'P 1'
_cell_length_a   5.49756373
_cell_length_b   5.49756300
_cell_length_c   12.73896596
_cell_angle_alpha   90.04143384
_cell_angle_beta   89.95856517
_cell_angle_gamma   138.03482948
_symmetry_Int_Tables_number   1
_chemical_formula_structural   Tb3Ho3(FeCo3)2
_chemical_formula_sum   'Tb3 Ho3 Fe2 Co6'
_cell_volume   257.44949602
_cell_formula_units_Z   1
loop_
 _symmetry_equiv_pos_site_id
 _symmetry_equiv_pos_as_xyz
  1  'x, y, z'
loop_
 _atom_site_type_symbol
 _atom_site_label
 _atom_site_symmetry_multiplicity
 _atom_site_fract_x
 _atom_site_fract_y
 _atom_site_fract_z
 _atom_site_occupancy
  Tb  Tb0  1  0.711753  0.288247  0.605341  1
  Tb  Tb1  1  0.288116  0.711884  0.395058  1
  Tb  Tb2  1  0.288338  0.711662  0.104240  1
  Ho  Ho3  1  0.001952  0.998048  0.250010  1
  Ho  Ho4  1  0.998304  0.001696  0.750641  1
  Ho  Ho5  1  0.711826  0.288174  0.894951  1
  Fe  Fe6  1  0.000500  0.999500  0.999329  1
  Fe  Fe7  1  0.999846  0.000154  0.499862  1
  Co  Co8  1  0.695087  0.304913  0.249985  1
  Co  Co9  1  0.304249  0.695751  0.750954  1
  Co  Co10  1  0.427611  0.572389  0.590531  1
  Co  Co11  1  0.571795  0.428205  0.410047  1
  Co  Co12  1  0.572740  0.427260  0.089488  1
  Co  Co13  1  0.427881  0.572119  0.909565  1
