# generated using pymatgen
data_CaTb5(CoSn6)2
_symmetry_space_group_name_H-M   'P 1'
_cell_length_a   8.49391972
_cell_length_b   8.49392045
_cell_length_c   13.15757141
_cell_angle_alpha   90.04604287
_cell_angle_beta   89.95395761
_cell_angle_gamma   148.54727444
_symmetry_Int_Tables_number   1
_chemical_formula_structural   CaTb5(CoSn6)2
_chemical_formula_sum   'Ca1 Tb5 Co2 Sn12'
_cell_volume   495.32669859
_cell_formula_units_Z   1
loop_
 _symmetry_equiv_pos_site_id
 _symmetry_equiv_pos_as_xyz
  1  'x, y, z'
loop_
 _atom_site_type_symbol
 _atom_site_label
 _atom_site_symmetry_multiplicity
 _atom_site_fract_x
 _atom_site_fract_y
 _atom_site_fract_z
 _atom_site_occupancy
  Ca  Ca0  1  0.899621  0.100379  0.403963  1
  Tb  Tb1  1  0.898598  0.101402  0.093748  1
  Tb  Tb2  1  0.101143  0.898857  0.594301  1
  Tb  Tb3  1  0.900827  0.099173  0.751864  1
  Tb  Tb4  1  0.100603  0.899397  0.906735  1
  Tb  Tb5  1  0.099722  0.900278  0.249507  1
  Co  Co6  1  0.298672  0.701328  0.249904  1
  Co  Co7  1  0.700433  0.299567  0.749831  1
  Sn  Sn8  1  0.756560  0.243440  0.572208  1
  Sn  Sn9  1  0.428886  0.571114  0.577299  1
  Sn  Sn10  1  0.572973  0.427027  0.423823  1
  Sn  Sn11  1  0.734208  0.265792  0.248646  1
  Sn  Sn12  1  0.265240  0.734760  0.750438  1
  Sn  Sn13  1  0.243591  0.756409  0.071367  1
  Sn  Sn14  1  0.243738  0.756262  0.428737  1
  Sn  Sn15  1  0.571538  0.428462  0.075759  1
  Sn  Sn16  1  0.453939  0.546061  0.248029  1
  Sn  Sn17  1  0.546393  0.453607  0.750596  1
  Sn  Sn18  1  0.755939  0.244061  0.928243  1
  Sn  Sn19  1  0.427375  0.572625  0.925001  1
