# generated using pymatgen
data_ScTi3Nb2(SnC2)2
_symmetry_space_group_name_H-M   'P 1'
_cell_length_a   3.20865000
_cell_length_b   3.20865138
_cell_length_c   19.12799300
_cell_angle_alpha   90.00000000
_cell_angle_beta   90.00000000
_cell_angle_gamma   119.99998582
_symmetry_Int_Tables_number   1
_chemical_formula_structural   ScTi3Nb2(SnC2)2
_chemical_formula_sum   'Sc1 Ti3 Nb2 Sn2 C4'
_cell_volume   170.54735078
_cell_formula_units_Z   1
loop_
 _symmetry_equiv_pos_site_id
 _symmetry_equiv_pos_as_xyz
  1  'x, y, z'
loop_
 _atom_site_type_symbol
 _atom_site_label
 _atom_site_symmetry_multiplicity
 _atom_site_fract_x
 _atom_site_fract_y
 _atom_site_fract_z
 _atom_site_occupancy
  Sc  Sc0  1  0.333333  0.666667  0.125993  1
  Ti  Ti1  1  0.333333  0.666667  0.378697  1
  Ti  Ti2  1  0.666667  0.333333  0.626674  1
  Ti  Ti3  1  0.666667  0.333333  0.871081  1
  Nb  Nb4  1  0.000000  0.000000  0.994827  1
  Nb  Nb5  1  0.000000  0.000000  0.502619  1
  Sn  Sn6  1  0.000000  0.000000  0.257744  1
  Sn  Sn7  1  0.000000  0.000000  0.748959  1
  C  C8  1  0.333333  0.666667  0.925484  1
  C  C9  1  0.666667  0.333333  0.063154  1
  C  C10  1  0.666667  0.333333  0.432338  1
  C  C11  1  0.333333  0.666667  0.572430  1
