# generated using pymatgen
data_Tm12AlInFe4
_symmetry_space_group_name_H-M   'P 1'
_cell_length_a   8.26680031
_cell_length_b   8.26680024
_cell_length_c   8.26680007
_cell_angle_alpha   111.37865568
_cell_angle_beta   110.48974300
_cell_angle_gamma   106.58457350
_symmetry_Int_Tables_number   1
_chemical_formula_structural   Tm12AlInFe4
_chemical_formula_sum   'Tm12 Al1 In1 Fe4'
_cell_volume   434.05082272
_cell_formula_units_Z   1
loop_
 _symmetry_equiv_pos_site_id
 _symmetry_equiv_pos_as_xyz
  1  'x, y, z'
loop_
 _atom_site_type_symbol
 _atom_site_label
 _atom_site_symmetry_multiplicity
 _atom_site_fract_x
 _atom_site_fract_y
 _atom_site_fract_z
 _atom_site_occupancy
  Tm  Tm0  1  0.561151  0.269963  0.291188  1
  Tm  Tm1  1  0.186737  0.215052  0.401788  1
  Tm  Tm2  1  0.186737  0.784948  0.971685  1
  Tm  Tm3  1  0.688177  0.486788  0.798611  1
  Tm  Tm4  1  0.688177  0.889565  0.201389  1
  Tm  Tm5  1  0.978775  0.269963  0.708812  1
  Tm  Tm6  1  0.021225  0.730037  0.291188  1
  Tm  Tm7  1  0.311823  0.110435  0.798611  1
  Tm  Tm8  1  0.311823  0.513212  0.201389  1
  Tm  Tm9  1  0.813263  0.215052  0.028315  1
  Tm  Tm10  1  0.813263  0.784948  0.598212  1
  Tm  Tm11  1  0.438849  0.730037  0.708812  1
  Al  Al12  1  0.000000  0.500000  0.500000  1
  In  In13  1  0.500000  0.000000  0.500000  1
  Fe  Fe14  1  0.890360  0.890360  0.000000  1
  Fe  Fe15  1  0.382449  0.500000  0.882449  1
  Fe  Fe16  1  0.617551  0.500000  0.117551  1
  Fe  Fe17  1  0.109640  0.109640  0.000000  1
