# generated using pymatgen
data_Dy6Ho2Si12PdPt3
_symmetry_space_group_name_H-M   'P 1'
_cell_length_a   8.20173900
_cell_length_b   8.20173846
_cell_length_c   8.15528400
_cell_angle_alpha   90.00000000
_cell_angle_beta   90.00000000
_cell_angle_gamma   119.99999812
_symmetry_Int_Tables_number   1
_chemical_formula_structural   Dy6Ho2Si12PdPt3
_chemical_formula_sum   'Dy6 Ho2 Si12 Pd1 Pt3'
_cell_volume   475.09623716
_cell_formula_units_Z   1
loop_
 _symmetry_equiv_pos_site_id
 _symmetry_equiv_pos_as_xyz
  1  'x, y, z'
loop_
 _atom_site_type_symbol
 _atom_site_label
 _atom_site_symmetry_multiplicity
 _atom_site_fract_x
 _atom_site_fract_y
 _atom_site_fract_z
 _atom_site_occupancy
  Dy  Dy0  1  0.501817  0.003634  0.250035  1
  Dy  Dy1  1  0.499480  0.998961  0.749928  1
  Dy  Dy2  1  0.996366  0.498183  0.250035  1
  Dy  Dy3  1  0.001039  0.500520  0.749928  1
  Dy  Dy4  1  0.501817  0.498183  0.250035  1
  Dy  Dy5  1  0.499480  0.500520  0.749928  1
  Ho  Ho6  1  0.000000  0.000000  0.250831  1
  Ho  Ho7  1  0.000000  0.000000  0.749222  1
  Si  Si8  1  0.165614  0.331229  0.001521  1
  Si  Si9  1  0.834480  0.668962  0.998441  1
  Si  Si10  1  0.668771  0.834386  0.001521  1
  Si  Si11  1  0.834747  0.669497  0.501423  1
  Si  Si12  1  0.331038  0.165520  0.998441  1
  Si  Si13  1  0.165544  0.331088  0.498760  1
  Si  Si14  1  0.165614  0.834386  0.001521  1
  Si  Si15  1  0.330503  0.165253  0.501423  1
  Si  Si16  1  0.834480  0.165520  0.998441  1
  Si  Si17  1  0.668912  0.834456  0.498760  1
  Si  Si18  1  0.834747  0.165253  0.501423  1
  Si  Si19  1  0.165544  0.834456  0.498760  1
  Pd  Pd20  1  0.333333  0.666667  0.498274  1
  Pt  Pt21  1  0.333333  0.666667  0.001352  1
  Pt  Pt22  1  0.666667  0.333333  0.998439  1
  Pt  Pt23  1  0.666667  0.333333  0.501564  1
