# generated using pymatgen
data_Tb6Er4Si6F
_symmetry_space_group_name_H-M   'P 1'
_cell_length_a   8.39506500
_cell_length_b   8.39506513
_cell_length_c   6.25989200
_cell_angle_alpha   90.00000000
_cell_angle_beta   90.00000000
_cell_angle_gamma   119.99999553
_symmetry_Int_Tables_number   1
_chemical_formula_structural   Tb6Er4Si6F
_chemical_formula_sum   'Tb6 Er4 Si6 F1'
_cell_volume   382.07236344
_cell_formula_units_Z   1
loop_
 _symmetry_equiv_pos_site_id
 _symmetry_equiv_pos_as_xyz
  1  'x, y, z'
loop_
 _atom_site_type_symbol
 _atom_site_label
 _atom_site_symmetry_multiplicity
 _atom_site_fract_x
 _atom_site_fract_y
 _atom_site_fract_z
 _atom_site_occupancy
  Tb  Tb0  1  0.000000  0.752989  0.246921  1
  Tb  Tb1  1  0.247011  0.247011  0.246921  1
  Tb  Tb2  1  0.752989  0.000000  0.246921  1
  Tb  Tb3  1  0.000000  0.247011  0.753079  1
  Tb  Tb4  1  0.752989  0.752989  0.753079  1
  Tb  Tb5  1  0.247011  0.000000  0.753079  1
  Er  Er6  1  0.333333  0.666667  0.500000  1
  Er  Er7  1  0.666667  0.333333  0.500000  1
  Er  Er8  1  0.666667  0.333333  0.000000  1
  Er  Er9  1  0.333333  0.666667  0.000000  1
  Si  Si10  1  0.000000  0.394566  0.248417  1
  Si  Si11  1  0.605434  0.605434  0.248417  1
  Si  Si12  1  0.394566  0.000000  0.248417  1
  Si  Si13  1  0.000000  0.605434  0.751583  1
  Si  Si14  1  0.394566  0.394566  0.751583  1
  Si  Si15  1  0.605434  0.000000  0.751583  1
  F  F16  1  0.000000  0.000000  0.500000  1
