# generated using pymatgen
data_CsSc(NbCl3)6
_symmetry_space_group_name_H-M   'P 1'
_cell_length_a   10.17604743
_cell_length_b   10.17604698
_cell_length_c   10.17604784
_cell_angle_alpha   55.45740580
_cell_angle_beta   55.45740663
_cell_angle_gamma   55.45740632
_symmetry_Int_Tables_number   1
_chemical_formula_structural   CsSc(NbCl3)6
_chemical_formula_sum   'Cs1 Sc1 Nb6 Cl18'
_cell_volume   666.51125811
_cell_formula_units_Z   1
loop_
 _symmetry_equiv_pos_site_id
 _symmetry_equiv_pos_as_xyz
  1  'x, y, z'
loop_
 _atom_site_type_symbol
 _atom_site_label
 _atom_site_symmetry_multiplicity
 _atom_site_fract_x
 _atom_site_fract_y
 _atom_site_fract_z
 _atom_site_occupancy
  Cs  Cs0  1  0.222277  0.222277  0.222277  1
  Sc  Sc1  1  0.498133  0.498133  0.498133  1
  Nb  Nb2  1  0.801704  0.151121  0.907841  1
  Nb  Nb3  1  0.907841  0.801704  0.151121  1
  Nb  Nb4  1  0.151121  0.907841  0.801704  1
  Nb  Nb5  1  0.199480  0.849527  0.090627  1
  Nb  Nb6  1  0.090627  0.199480  0.849527  1
  Nb  Nb7  1  0.849527  0.090627  0.199480  1
  Cl  Cl8  1  0.868507  0.414106  0.721706  1
  Cl  Cl9  1  0.721706  0.868507  0.414106  1
  Cl  Cl10  1  0.414106  0.721706  0.868507  1
  Cl  Cl11  1  0.130118  0.586956  0.281422  1
  Cl  Cl12  1  0.281422  0.130118  0.586956  1
  Cl  Cl13  1  0.586956  0.281422  0.130118  1
  Cl  Cl14  1  0.538752  0.347461  0.786195  1
  Cl  Cl15  1  0.786195  0.538752  0.347461  1
  Cl  Cl16  1  0.347461  0.786195  0.538752  1
  Cl  Cl17  1  0.460616  0.653997  0.214998  1
  Cl  Cl18  1  0.214998  0.460616  0.653997  1
  Cl  Cl19  1  0.653997  0.214998  0.460616  1
  Cl  Cl20  1  0.660402  0.941994  0.067600  1
  Cl  Cl21  1  0.067600  0.660402  0.941994  1
  Cl  Cl22  1  0.941994  0.067600  0.660402  1
  Cl  Cl23  1  0.345103  0.055455  0.925041  1
  Cl  Cl24  1  0.925041  0.345103  0.055455  1
  Cl  Cl25  1  0.055455  0.925041  0.345103  1
