# generated using pymatgen
data_Eu(Cu2P)2
_symmetry_space_group_name_H-M   'P 1'
_cell_length_a   7.36747300
_cell_length_b   7.36747300
_cell_length_c   3.84088100
_cell_angle_alpha   90.00000000
_cell_angle_beta   90.00000000
_cell_angle_gamma   90.00000000
_symmetry_Int_Tables_number   1
_chemical_formula_structural   Eu(Cu2P)2
_chemical_formula_sum   'Eu2 Cu8 P4'
_cell_volume   208.48170866
_cell_formula_units_Z   2
loop_
 _symmetry_equiv_pos_site_id
 _symmetry_equiv_pos_as_xyz
  1  'x, y, z'
loop_
 _atom_site_type_symbol
 _atom_site_label
 _atom_site_symmetry_multiplicity
 _atom_site_fract_x
 _atom_site_fract_y
 _atom_site_fract_z
 _atom_site_occupancy
  Eu  Eu0  1  0.000000  0.000000  0.000000  1
  Eu  Eu1  1  0.500000  0.500000  0.500000  1
  Cu  Cu2  1  0.662414  0.915927  0.500000  1
  Cu  Cu3  1  0.162414  0.584073  0.000000  1
  Cu  Cu4  1  0.415927  0.837586  0.000000  1
  Cu  Cu5  1  0.915927  0.662414  0.500000  1
  Cu  Cu6  1  0.837586  0.415927  0.000000  1
  Cu  Cu7  1  0.584073  0.162414  0.000000  1
  Cu  Cu8  1  0.084073  0.337586  0.500000  1
  Cu  Cu9  1  0.337586  0.084073  0.500000  1
  P  P10  1  0.281591  0.281591  0.000000  1
  P  P11  1  0.718409  0.718409  0.000000  1
  P  P12  1  0.781591  0.218409  0.500000  1
  P  P13  1  0.218409  0.781591  0.500000  1
