# generated using pymatgen
data_Tb2BeRuCl2
_symmetry_space_group_name_H-M   'P 1'
_cell_length_a   3.89002500
_cell_length_b   3.89002554
_cell_length_c   10.95910300
_cell_angle_alpha   90.00002946
_cell_angle_beta   90.00019148
_cell_angle_gamma   119.99985086
_symmetry_Int_Tables_number   1
_chemical_formula_structural   Tb2BeRuCl2
_chemical_formula_sum   'Tb2 Be1 Ru1 Cl2'
_cell_volume   143.61874850
_cell_formula_units_Z   1
loop_
 _symmetry_equiv_pos_site_id
 _symmetry_equiv_pos_as_xyz
  1  'x, y, z'
loop_
 _atom_site_type_symbol
 _atom_site_label
 _atom_site_symmetry_multiplicity
 _atom_site_fract_x
 _atom_site_fract_y
 _atom_site_fract_z
 _atom_site_occupancy
  Tb  Tb0  1  0.999999  0.000002  0.178400  1
  Tb  Tb1  1  0.000000  0.999998  0.823708  1
  Be  Be2  1  0.333332  0.666664  0.997684  1
  Ru  Ru3  1  0.666664  0.333331  0.002678  1
  Cl  Cl4  1  0.333334  0.666670  0.335123  1
  Cl  Cl5  1  0.666669  0.333334  0.662408  1
