# generated using pymatgen
data_Nb2B2SbRu5
_symmetry_space_group_name_H-M   'P 1'
_cell_length_a   9.53668000
_cell_length_b   9.53668000
_cell_length_c   3.00716200
_cell_angle_alpha   90.00000000
_cell_angle_beta   90.00000000
_cell_angle_gamma   90.00000000
_symmetry_Int_Tables_number   1
_chemical_formula_structural   Nb2B2SbRu5
_chemical_formula_sum   'Nb4 B4 Sb2 Ru10'
_cell_volume   273.49616774
_cell_formula_units_Z   2
loop_
 _symmetry_equiv_pos_site_id
 _symmetry_equiv_pos_as_xyz
  1  'x, y, z'
loop_
 _atom_site_type_symbol
 _atom_site_label
 _atom_site_symmetry_multiplicity
 _atom_site_fract_x
 _atom_site_fract_y
 _atom_site_fract_z
 _atom_site_occupancy
  Nb  Nb0  1  0.824661  0.675339  0.000000  1
  Nb  Nb1  1  0.175339  0.324661  0.000000  1
  Nb  Nb2  1  0.324661  0.824661  0.000000  1
  Nb  Nb3  1  0.675339  0.175339  0.000000  1
  B  B4  1  0.621501  0.878499  0.000000  1
  B  B5  1  0.378499  0.121501  0.000000  1
  B  B6  1  0.121501  0.621501  0.000000  1
  B  B7  1  0.878499  0.378499  0.000000  1
  Sb  Sb8  1  0.500000  0.500000  0.000000  1
  Sb  Sb9  1  0.000000  0.000000  0.000000  1
  Ru  Ru10  1  0.570626  0.720084  0.500000  1
  Ru  Ru11  1  0.429374  0.279916  0.500000  1
  Ru  Ru12  1  0.070626  0.779916  0.500000  1
  Ru  Ru13  1  0.929374  0.220084  0.500000  1
  Ru  Ru14  1  0.279916  0.570626  0.500000  1
  Ru  Ru15  1  0.720084  0.429374  0.500000  1
  Ru  Ru16  1  0.220084  0.070626  0.500000  1
  Ru  Ru17  1  0.779916  0.929374  0.500000  1
  Ru  Ru18  1  0.500000  0.000000  0.500000  1
  Ru  Ru19  1  0.000000  0.500000  0.500000  1
