# generated using pymatgen
data_Er16Cd4NiIr3
_symmetry_space_group_name_H-M   'P 1'
_cell_length_a   9.52905128
_cell_length_b   9.52905169
_cell_length_c   9.52905270
_cell_angle_alpha   60.21737142
_cell_angle_beta   60.21736943
_cell_angle_gamma   60.21736973
_symmetry_Int_Tables_number   1
_chemical_formula_structural   Er16Cd4NiIr3
_chemical_formula_sum   'Er16 Cd4 Ni1 Ir3'
_cell_volume   614.84582356
_cell_formula_units_Z   1
loop_
 _symmetry_equiv_pos_site_id
 _symmetry_equiv_pos_as_xyz
  1  'x, y, z'
loop_
 _atom_site_type_symbol
 _atom_site_label
 _atom_site_symmetry_multiplicity
 _atom_site_fract_x
 _atom_site_fract_y
 _atom_site_fract_z
 _atom_site_occupancy
  Er  Er0  1  0.598971  0.598971  0.598971  1
  Er  Er1  1  0.598012  0.598012  0.202868  1
  Er  Er2  1  0.598012  0.202868  0.598012  1
  Er  Er3  1  0.202868  0.598012  0.598012  1
  Er  Er4  1  0.061682  0.439595  0.439595  1
  Er  Er5  1  0.438660  0.060406  0.060406  1
  Er  Er6  1  0.439595  0.061682  0.439595  1
  Er  Er7  1  0.060406  0.438660  0.060406  1
  Er  Er8  1  0.439595  0.439595  0.061682  1
  Er  Er9  1  0.060406  0.060406  0.438660  1
  Er  Er10  1  0.188513  0.812044  0.812044  1
  Er  Er11  1  0.814429  0.186962  0.186962  1
  Er  Er12  1  0.812044  0.188513  0.812044  1
  Er  Er13  1  0.186962  0.814429  0.186962  1
  Er  Er14  1  0.812044  0.812044  0.188513  1
  Er  Er15  1  0.186962  0.186962  0.814429  1
  Cd  Cd16  1  0.830676  0.830676  0.830676  1
  Cd  Cd17  1  0.831592  0.831592  0.506110  1
  Cd  Cd18  1  0.831592  0.506110  0.831592  1
  Cd  Cd19  1  0.506110  0.831592  0.831592  1
  Ni  Ni20  1  0.392062  0.392062  0.392062  1
  Ir  Ir21  1  0.392193  0.392193  0.824420  1
  Ir  Ir22  1  0.392193  0.824420  0.392193  1
  Ir  Ir23  1  0.824420  0.392193  0.392193  1
