# generated using pymatgen
data_Tb2Al2FeRe14C3
_symmetry_space_group_name_H-M   'P 1'
_cell_length_a   6.96440962
_cell_length_b   6.96440886
_cell_length_c   6.95468252
_cell_angle_alpha   82.47492577
_cell_angle_beta   82.47492378
_cell_angle_gamma   82.40442901
_symmetry_Int_Tables_number   1
_chemical_formula_structural   Tb2Al2FeRe14C3
_chemical_formula_sum   'Tb2 Al2 Fe1 Re14 C3'
_cell_volume   329.25921438
_cell_formula_units_Z   1
loop_
 _symmetry_equiv_pos_site_id
 _symmetry_equiv_pos_as_xyz
  1  'x, y, z'
loop_
 _atom_site_type_symbol
 _atom_site_label
 _atom_site_symmetry_multiplicity
 _atom_site_fract_x
 _atom_site_fract_y
 _atom_site_fract_z
 _atom_site_occupancy
  Tb  Tb0  1  0.656399  0.656399  0.654291  1
  Tb  Tb1  1  0.343601  0.343601  0.345709  1
  Al  Al2  1  0.500000  0.000000  0.000000  1
  Al  Al3  1  0.000000  0.500000  0.000000  1
  Fe  Fe4  1  0.000000  0.000000  0.500000  1
  Re  Re5  1  0.720805  0.279195  0.000000  1
  Re  Re6  1  0.002676  0.724791  0.280011  1
  Re  Re7  1  0.275209  0.997324  0.719989  1
  Re  Re8  1  0.997324  0.275209  0.719989  1
  Re  Re9  1  0.724791  0.002676  0.280011  1
  Re  Re10  1  0.279195  0.720805  0.000000  1
  Re  Re11  1  0.348119  0.348119  0.848496  1
  Re  Re12  1  0.852981  0.348424  0.352832  1
  Re  Re13  1  0.348424  0.852981  0.352832  1
  Re  Re14  1  0.651881  0.651881  0.151504  1
  Re  Re15  1  0.147019  0.651576  0.647168  1
  Re  Re16  1  0.651576  0.147019  0.647168  1
  Re  Re17  1  0.904169  0.904169  0.896874  1
  Re  Re18  1  0.095831  0.095831  0.103126  1
  C  C19  1  0.500000  0.500000  0.000000  1
  C  C20  1  0.000000  0.500000  0.500000  1
  C  C21  1  0.500000  0.000000  0.500000  1
