# generated using pymatgen
data_Dy16In6PtRh
_symmetry_space_group_name_H-M   'P 1'
_cell_length_a   10.47906300
_cell_length_b   10.47906259
_cell_length_c   7.01890400
_cell_angle_alpha   90.00000000
_cell_angle_beta   90.00000000
_cell_angle_gamma   120.00000446
_symmetry_Int_Tables_number   1
_chemical_formula_structural   Dy16In6PtRh
_chemical_formula_sum   'Dy16 In6 Pt1 Rh1'
_cell_volume   667.49005606
_cell_formula_units_Z   1
loop_
 _symmetry_equiv_pos_site_id
 _symmetry_equiv_pos_as_xyz
  1  'x, y, z'
loop_
 _atom_site_type_symbol
 _atom_site_label
 _atom_site_symmetry_multiplicity
 _atom_site_fract_x
 _atom_site_fract_y
 _atom_site_fract_z
 _atom_site_occupancy
  Dy  Dy0  1  0.531015  0.062028  0.515890  1
  Dy  Dy1  1  0.937972  0.468985  0.515890  1
  Dy  Dy2  1  0.531015  0.468985  0.515890  1
  Dy  Dy3  1  0.467179  0.934361  0.014072  1
  Dy  Dy4  1  0.065639  0.532821  0.014072  1
  Dy  Dy5  1  0.467179  0.532821  0.014072  1
  Dy  Dy6  1  0.176130  0.352259  0.721435  1
  Dy  Dy7  1  0.647741  0.823870  0.721435  1
  Dy  Dy8  1  0.176130  0.823870  0.721435  1
  Dy  Dy9  1  0.825002  0.650004  0.221383  1
  Dy  Dy10  1  0.349996  0.174998  0.221383  1
  Dy  Dy11  1  0.825002  0.174998  0.221383  1
  Dy  Dy12  1  0.666667  0.333333  0.891639  1
  Dy  Dy13  1  0.333333  0.666667  0.395104  1
  Dy  Dy14  1  0.000000  0.000000  0.498436  1
  Dy  Dy15  1  0.000000  0.000000  0.999568  1
  In  In16  1  0.836931  0.673862  0.760469  1
  In  In17  1  0.326138  0.163069  0.760469  1
  In  In18  1  0.836931  0.163069  0.760469  1
  In  In19  1  0.162998  0.325997  0.260443  1
  In  In20  1  0.674003  0.837002  0.260443  1
  In  In21  1  0.162998  0.837002  0.260443  1
  Pt  Pt22  1  0.666667  0.333333  0.288911  1
  Rh  Rh23  1  0.333333  0.666667  0.789465  1
