# generated using pymatgen
data_Pr3Cd3CuIrPt
_symmetry_space_group_name_H-M   'P 1'
_cell_length_a   7.80951100
_cell_length_b   7.80951082
_cell_length_c   3.94743200
_cell_angle_alpha   90.00000000
_cell_angle_beta   90.00000000
_cell_angle_gamma   119.99999652
_symmetry_Int_Tables_number   1
_chemical_formula_structural   Pr3Cd3CuIrPt
_chemical_formula_sum   'Pr3 Cd3 Cu1 Ir1 Pt1'
_cell_volume   208.49371912
_cell_formula_units_Z   1
loop_
 _symmetry_equiv_pos_site_id
 _symmetry_equiv_pos_as_xyz
  1  'x, y, z'
loop_
 _atom_site_type_symbol
 _atom_site_label
 _atom_site_symmetry_multiplicity
 _atom_site_fract_x
 _atom_site_fract_y
 _atom_site_fract_z
 _atom_site_occupancy
  Pr  Pr0  1  0.419197  0.007887  0.500000  1
  Pr  Pr1  1  0.992113  0.411310  0.500000  1
  Pr  Pr2  1  0.588690  0.580803  0.500000  1
  Cd  Cd3  1  0.755830  0.001813  0.000000  1
  Cd  Cd4  1  0.998187  0.754017  0.000000  1
  Cd  Cd5  1  0.245983  0.244170  0.000000  1
  Cu  Cu6  1  0.000000  0.000000  0.500000  1
  Ir  Ir7  1  0.666667  0.333333  0.000000  1
  Pt  Pt8  1  0.333333  0.666667  0.000000  1
