# generated using pymatgen
data_La9Pr7Cd4(IrOs)2
_symmetry_space_group_name_H-M   'P 1'
_cell_length_a   10.06969051
_cell_length_b   10.06969089
_cell_length_c   10.13014600
_cell_angle_alpha   59.80120066
_cell_angle_beta   59.80119938
_cell_angle_gamma   60.03398768
_symmetry_Int_Tables_number   1
_chemical_formula_structural   La9Pr7Cd4(IrOs)2
_chemical_formula_sum   'La9 Pr7 Cd4 Ir2 Os2'
_cell_volume   724.32282515
_cell_formula_units_Z   1
loop_
 _symmetry_equiv_pos_site_id
 _symmetry_equiv_pos_as_xyz
  1  'x, y, z'
loop_
 _atom_site_type_symbol
 _atom_site_label
 _atom_site_symmetry_multiplicity
 _atom_site_fract_x
 _atom_site_fract_y
 _atom_site_fract_z
 _atom_site_occupancy
  La  La0  1  0.345989  0.345989  0.349112  1
  La  La1  1  0.345989  0.345989  0.958907  1
  La  La2  1  0.345686  0.962280  0.346017  1
  La  La3  1  0.962280  0.345686  0.346017  1
  La  La4  1  0.811158  0.188880  0.191295  1
  La  La5  1  0.188880  0.811158  0.808668  1
  La  La6  1  0.188880  0.811158  0.191295  1
  La  La7  1  0.811158  0.188880  0.808668  1
  La  La8  1  0.190170  0.190170  0.809830  1
  Pr  Pr9  1  0.806200  0.806200  0.193800  1
  Pr  Pr10  1  0.937520  0.560354  0.563954  1
  Pr  Pr11  1  0.560354  0.937520  0.938172  1
  Pr  Pr12  1  0.560354  0.937520  0.563954  1
  Pr  Pr13  1  0.937520  0.560354  0.938172  1
  Pr  Pr14  1  0.561851  0.561851  0.938149  1
  Pr  Pr15  1  0.939080  0.939080  0.560920  1
  Cd  Cd16  1  0.580589  0.580589  0.578573  1
  Cd  Cd17  1  0.580589  0.580589  0.260247  1
  Cd  Cd18  1  0.579865  0.259536  0.580299  1
  Cd  Cd19  1  0.259536  0.579865  0.580299  1
  Ir  Ir20  1  0.147071  0.579975  0.136478  1
  Ir  Ir21  1  0.579975  0.147071  0.136478  1
  Os  Os22  1  0.139653  0.139653  0.136539  1
  Os  Os23  1  0.139653  0.139653  0.584156  1
