# generated using pymatgen
data_LiNbTeO5
_symmetry_space_group_name_H-M   'P 1'
_cell_length_a   6.92494914
_cell_length_b   7.74677105
_cell_length_c   8.59782161
_cell_angle_alpha   90.02930451
_cell_angle_beta   90.12100557
_cell_angle_gamma   104.31859522
_symmetry_Int_Tables_number   1
_chemical_formula_structural   LiNbTeO5
_chemical_formula_sum   'Li4 Nb4 Te4 O20'
_cell_volume   446.90930687
_cell_formula_units_Z   4
loop_
 _symmetry_equiv_pos_site_id
 _symmetry_equiv_pos_as_xyz
  1  'x, y, z'
loop_
 _atom_site_type_symbol
 _atom_site_label
 _atom_site_symmetry_multiplicity
 _atom_site_fract_x
 _atom_site_fract_y
 _atom_site_fract_z
 _atom_site_occupancy
  Li  Li0  1  0.118986  0.731760  0.468049  1
  Li  Li1  1  0.124853  0.232284  0.034635  1
  Li  Li2  1  0.875147  0.767716  0.965365  1
  Li  Li3  1  0.881014  0.268240  0.531951  1
  Nb  Nb4  1  0.241489  0.451698  0.739871  1
  Nb  Nb5  1  0.239887  0.950728  0.761657  1
  Nb  Nb6  1  0.760113  0.049272  0.238343  1
  Nb  Nb7  1  0.758511  0.548302  0.260129  1
  Te  Te8  1  0.305335  0.697170  0.104925  1
  Te  Te9  1  0.309236  0.196325  0.395828  1
  Te  Te10  1  0.690764  0.803675  0.604172  1
  Te  Te11  1  0.694665  0.302830  0.895075  1
  O  O12  1  0.167558  0.833586  0.970384  1
  O  O13  1  0.103948  0.647531  0.254431  1
  O  O14  1  0.216828  0.678288  0.678031  1
  O  O15  1  0.216603  0.484812  0.975145  1
  O  O16  1  0.173515  0.334246  0.530553  1
  O  O17  1  0.486149  0.012088  0.227538  1
  O  O18  1  0.105596  0.145516  0.247516  1
  O  O19  1  0.221928  0.179916  0.823015  1
  O  O20  1  0.780593  0.015869  0.473908  1
  O  O21  1  0.483591  0.504500  0.267158  1
  O  O22  1  0.516409  0.495500  0.732842  1
  O  O23  1  0.219407  0.984131  0.526092  1
  O  O24  1  0.778072  0.820084  0.176985  1
  O  O25  1  0.894404  0.854484  0.752484  1
  O  O26  1  0.513851  0.987912  0.772462  1
  O  O27  1  0.826485  0.665754  0.469447  1
  O  O28  1  0.783397  0.515188  0.024855  1
  O  O29  1  0.783172  0.321712  0.321969  1
  O  O30  1  0.896052  0.352469  0.745569  1
  O  O31  1  0.832442  0.166414  0.029616  1
