# generated using pymatgen
data_Na5TlSe4
_symmetry_space_group_name_H-M   'P 1'
_cell_length_a   7.13987451
_cell_length_b   9.37470200
_cell_length_c   8.18048700
_cell_angle_alpha   90.00000000
_cell_angle_beta   90.39214885
_cell_angle_gamma   90.00000000
_symmetry_Int_Tables_number   1
_chemical_formula_structural   Na5TlSe4
_chemical_formula_sum   'Na10 Tl2 Se8'
_cell_volume   547.54149427
_cell_formula_units_Z   2
loop_
 _symmetry_equiv_pos_site_id
 _symmetry_equiv_pos_as_xyz
  1  'x, y, z'
loop_
 _atom_site_type_symbol
 _atom_site_label
 _atom_site_symmetry_multiplicity
 _atom_site_fract_x
 _atom_site_fract_y
 _atom_site_fract_z
 _atom_site_occupancy
  Na  Na0  1  0.011812  0.250000  0.479561  1
  Na  Na1  1  0.988189  0.749999  0.520439  1
  Na  Na2  1  0.336436  0.250000  0.839195  1
  Na  Na3  1  0.663563  0.749999  0.160805  1
  Na  Na4  1  0.347645  0.513809  0.333460  1
  Na  Na5  1  0.652356  0.013808  0.666539  1
  Na  Na6  1  0.652356  0.486192  0.666539  1
  Na  Na7  1  0.347645  0.986191  0.333460  1
  Na  Na8  1  0.000000  0.000000  0.000000  1
  Na  Na9  1  0.000000  0.500000  0.000000  1
  Tl  Tl10  1  0.635897  0.250000  0.172574  1
  Tl  Tl11  1  0.364103  0.749999  0.827426  1
  Se  Se12  1  0.768653  0.250000  0.865112  1
  Se  Se13  1  0.231348  0.749999  0.134886  1
  Se  Se14  1  0.254898  0.250000  0.177855  1
  Se  Se15  1  0.745103  0.749999  0.822146  1
  Se  Se16  1  0.771691  0.014284  0.329942  1
  Se  Se17  1  0.228310  0.514285  0.670059  1
  Se  Se18  1  0.228310  0.985715  0.670059  1
  Se  Se19  1  0.771691  0.485715  0.329942  1
