# generated using pymatgen
data_Pr4Ho3Er(ReB6)4
_symmetry_space_group_name_H-M   'P 1'
_cell_length_a   3.73412300
_cell_length_b   9.25510501
_cell_length_c   11.73628201
_cell_angle_alpha   90.00377748
_cell_angle_beta   90.00000000
_cell_angle_gamma   90.00000000
_symmetry_Int_Tables_number   1
_chemical_formula_structural   Pr4Ho3Er(ReB6)4
_chemical_formula_sum   'Pr4 Ho3 Er1 Re4 B24'
_cell_volume   405.60238985
_cell_formula_units_Z   1
loop_
 _symmetry_equiv_pos_site_id
 _symmetry_equiv_pos_as_xyz
  1  'x, y, z'
loop_
 _atom_site_type_symbol
 _atom_site_label
 _atom_site_symmetry_multiplicity
 _atom_site_fract_x
 _atom_site_fract_y
 _atom_site_fract_z
 _atom_site_occupancy
  Pr  Pr0  1  0.000000  0.322762  0.414424  1
  Pr  Pr1  1  0.000000  0.677222  0.585642  1
  Pr  Pr2  1  0.000000  0.822701  0.085559  1
  Pr  Pr3  1  0.000000  0.177290  0.914399  1
  Ho  Ho4  1  0.000000  0.942981  0.369132  1
  Ho  Ho5  1  0.000000  0.057020  0.630886  1
  Ho  Ho6  1  0.000000  0.443028  0.130751  1
  Er  Er7  1  0.000000  0.557051  0.869038  1
  Re  Re8  1  0.000000  0.639528  0.318983  1
  Re  Re9  1  0.000000  0.360623  0.681156  1
  Re  Re10  1  0.000000  0.139543  0.180977  1
  Re  Re11  1  0.000000  0.860241  0.819044  1
  B  B12  1  0.500000  0.555673  0.429797  1
  B  B13  1  0.500000  0.444328  0.570242  1
  B  B14  1  0.500000  0.055668  0.070202  1
  B  B15  1  0.500000  0.944285  0.929781  1
  B  B16  1  0.500000  0.750346  0.415378  1
  B  B17  1  0.500000  0.249674  0.584638  1
  B  B18  1  0.500000  0.250342  0.084625  1
  B  B19  1  0.500000  0.749386  0.915394  1
  B  B20  1  0.500000  0.791478  0.266232  1
  B  B21  1  0.500000  0.208570  0.733776  1
  B  B22  1  0.500000  0.291490  0.233767  1
  B  B23  1  0.500000  0.708296  0.766285  1
  B  B24  1  0.500000  0.629488  0.186649  1
  B  B25  1  0.500000  0.370708  0.813493  1
  B  B26  1  0.500000  0.129489  0.313355  1
  B  B27  1  0.500000  0.870476  0.686676  1
  B  B28  1  0.500000  0.984432  0.213423  1
  B  B29  1  0.500000  0.015546  0.786587  1
  B  B30  1  0.500000  0.484424  0.286576  1
  B  B31  1  0.500000  0.515708  0.713567  1
  B  B32  1  0.500000  0.595351  0.026006  1
  B  B33  1  0.500000  0.404853  0.973557  1
  B  B34  1  0.500000  0.095363  0.473752  1
  B  B35  1  0.500000  0.904638  0.526250  1
