# generated using pymatgen
data_DyYFe2(Ni4P3)2
_symmetry_space_group_name_H-M   'P 1'
_cell_length_a   3.70223800
_cell_length_b   10.33910200
_cell_length_c   11.89296100
_cell_angle_alpha   90.00000000
_cell_angle_beta   90.00000000
_cell_angle_gamma   90.00000000
_symmetry_Int_Tables_number   1
_chemical_formula_structural   DyYFe2(Ni4P3)2
_chemical_formula_sum   'Dy2 Y2 Fe4 Ni16 P12'
_cell_volume   455.23657654
_cell_formula_units_Z   2
loop_
 _symmetry_equiv_pos_site_id
 _symmetry_equiv_pos_as_xyz
  1  'x, y, z'
loop_
 _atom_site_type_symbol
 _atom_site_label
 _atom_site_symmetry_multiplicity
 _atom_site_fract_x
 _atom_site_fract_y
 _atom_site_fract_z
 _atom_site_occupancy
  Dy  Dy0  1  0.750000  0.420656  0.295589  1
  Dy  Dy1  1  0.750000  0.079344  0.795589  1
  Y  Y2  1  0.250000  0.579390  0.704521  1
  Y  Y3  1  0.250000  0.920610  0.204521  1
  Fe  Fe4  1  0.250000  0.463624  0.931920  1
  Fe  Fe5  1  0.250000  0.036376  0.431920  1
  Fe  Fe6  1  0.750000  0.536070  0.068228  1
  Fe  Fe7  1  0.750000  0.963930  0.568228  1
  Ni  Ni8  1  0.250000  0.713628  0.995014  1
  Ni  Ni9  1  0.250000  0.786372  0.495014  1
  Ni  Ni10  1  0.750000  0.286429  0.004934  1
  Ni  Ni11  1  0.750000  0.213571  0.504934  1
  Ni  Ni12  1  0.250000  0.406845  0.487673  1
  Ni  Ni13  1  0.250000  0.093155  0.987673  1
  Ni  Ni14  1  0.750000  0.592851  0.511724  1
  Ni  Ni15  1  0.750000  0.907149  0.011724  1
  Ni  Ni16  1  0.250000  0.225544  0.176620  1
  Ni  Ni17  1  0.250000  0.274456  0.676620  1
  Ni  Ni18  1  0.750000  0.774592  0.823485  1
  Ni  Ni19  1  0.750000  0.725408  0.323485  1
  Ni  Ni20  1  0.250000  0.877622  0.701837  1
  Ni  Ni21  1  0.250000  0.622378  0.201837  1
  Ni  Ni22  1  0.750000  0.122841  0.298410  1
  Ni  Ni23  1  0.750000  0.377159  0.798410  1
  P  P24  1  0.250000  0.426113  0.111806  1
  P  P25  1  0.250000  0.073887  0.611806  1
  P  P26  1  0.750000  0.573649  0.888465  1
  P  P27  1  0.750000  0.926351  0.388465  1
  P  P28  1  0.250000  0.269239  0.868759  1
  P  P29  1  0.250000  0.230761  0.368759  1
  P  P30  1  0.750000  0.730805  0.131148  1
  P  P31  1  0.750000  0.769195  0.631148  1
  P  P32  1  0.250000  0.604190  0.393169  1
  P  P33  1  0.250000  0.895810  0.893169  1
  P  P34  1  0.750000  0.395570  0.606698  1
  P  P35  1  0.750000  0.104430  0.106698  1
