# generated using pymatgen
data_LiDy8InCo2
_symmetry_space_group_name_H-M   'P 1'
_cell_length_a   9.50419180
_cell_length_b   9.51363849
_cell_length_c   9.50419258
_cell_angle_alpha   59.96710667
_cell_angle_beta   60.02345525
_cell_angle_gamma   59.96710653
_symmetry_Int_Tables_number   1
_chemical_formula_structural   LiDy8InCo2
_chemical_formula_sum   'Li2 Dy16 In2 Co4'
_cell_volume   607.46717001
_cell_formula_units_Z   2
loop_
 _symmetry_equiv_pos_site_id
 _symmetry_equiv_pos_as_xyz
  1  'x, y, z'
loop_
 _atom_site_type_symbol
 _atom_site_label
 _atom_site_symmetry_multiplicity
 _atom_site_fract_x
 _atom_site_fract_y
 _atom_site_fract_z
 _atom_site_occupancy
  Li  Li0  1  0.928091  0.219166  0.928091  1
  Li  Li1  1  0.928091  0.924652  0.928091  1
  Dy  Dy2  1  0.154439  0.540192  0.154439  1
  Dy  Dy3  1  0.682962  0.317038  0.682962  1
  Dy  Dy4  1  0.687158  0.311206  0.312078  1
  Dy  Dy5  1  0.938662  0.561102  0.561829  1
  Dy  Dy6  1  0.533682  0.155313  0.155692  1
  Dy  Dy7  1  0.155692  0.155313  0.533682  1
  Dy  Dy8  1  0.938662  0.938405  0.561829  1
  Dy  Dy9  1  0.309511  0.690489  0.309511  1
  Dy  Dy10  1  0.561829  0.938405  0.938662  1
  Dy  Dy11  1  0.562443  0.937557  0.562443  1
  Dy  Dy12  1  0.687158  0.689559  0.312078  1
  Dy  Dy13  1  0.561829  0.561102  0.938662  1
  Dy  Dy14  1  0.940475  0.559525  0.940475  1
  Dy  Dy15  1  0.312078  0.689559  0.687158  1
  Dy  Dy16  1  0.154439  0.150931  0.154439  1
  Dy  Dy17  1  0.312078  0.311206  0.687158  1
  In  In18  1  0.916016  0.920718  0.242548  1
  In  In19  1  0.242548  0.920718  0.916016  1
  Co  Co20  1  0.356290  0.361051  0.921609  1
  Co  Co21  1  0.357130  0.923097  0.357130  1
  Co  Co22  1  0.921609  0.361051  0.356290  1
  Co  Co23  1  0.357130  0.362644  0.357130  1
