# generated using pymatgen
data_Li3Nd2YCdSn4
_symmetry_space_group_name_H-M   'P 1'
_cell_length_a   4.72661880
_cell_length_b   7.22558044
_cell_length_c   8.85249448
_cell_angle_alpha   114.62940057
_cell_angle_beta   105.48377423
_cell_angle_gamma   89.99998482
_symmetry_Int_Tables_number   1
_chemical_formula_structural   Li3Nd2YCdSn4
_chemical_formula_sum   'Li3 Nd2 Y1 Cd1 Sn4'
_cell_volume   262.71034776
_cell_formula_units_Z   1
loop_
 _symmetry_equiv_pos_site_id
 _symmetry_equiv_pos_as_xyz
  1  'x, y, z'
loop_
 _atom_site_type_symbol
 _atom_site_label
 _atom_site_symmetry_multiplicity
 _atom_site_fract_x
 _atom_site_fract_y
 _atom_site_fract_z
 _atom_site_occupancy
  Li  Li0  1  0.328300  0.012574  0.656599  1
  Li  Li1  1  0.670036  0.977566  0.340071  1
  Li  Li2  1  0.326142  0.636054  0.652284  1
  Nd  Nd3  1  0.873875  0.374561  0.747750  1
  Nd  Nd4  1  0.127201  0.637725  0.254401  1
  Y  Y5  1  0.001410  0.999767  0.002823  1
  Cd  Cd6  1  0.673785  0.368212  0.347570  1
  Sn  Sn7  1  0.214418  0.191595  0.428837  1
  Sn  Sn8  1  0.790779  0.803266  0.581556  1
  Sn  Sn9  1  0.495346  0.296151  0.990691  1
  Sn  Sn10  1  0.498709  0.702532  0.997417  1
