# generated using pymatgen
data_Ca2LaHg(Ru2O7)2
_symmetry_space_group_name_H-M   'P 1'
_cell_length_a   7.40626325
_cell_length_b   7.25986484
_cell_length_c   7.40626240
_cell_angle_alpha   59.48633739
_cell_angle_beta   59.84692654
_cell_angle_gamma   59.48633739
_symmetry_Int_Tables_number   1
_chemical_formula_structural   Ca2LaHg(Ru2O7)2
_chemical_formula_sum   'Ca2 La1 Hg1 Ru4 O14'
_cell_volume   279.06085483
_cell_formula_units_Z   1
loop_
 _symmetry_equiv_pos_site_id
 _symmetry_equiv_pos_as_xyz
  1  'x, y, z'
loop_
 _atom_site_type_symbol
 _atom_site_label
 _atom_site_symmetry_multiplicity
 _atom_site_fract_x
 _atom_site_fract_y
 _atom_site_fract_z
 _atom_site_occupancy
  Ca  Ca0  1  0.625000  0.625000  0.125000  1
  Ca  Ca1  1  0.125000  0.625000  0.625000  1
  La  La2  1  0.625000  0.625000  0.625000  1
  Hg  Hg3  1  0.625000  0.125000  0.625000  1
  Ru  Ru4  1  0.625000  0.125000  0.125000  1
  Ru  Ru5  1  0.125000  0.625000  0.125000  1
  Ru  Ru6  1  0.125000  0.125000  0.625000  1
  Ru  Ru7  1  0.125000  0.125000  0.125000  1
  O  O8  1  0.184065  0.190264  0.810964  1
  O  O9  1  0.194512  0.802571  0.194512  1
  O  O10  1  0.439036  0.059736  0.065935  1
  O  O11  1  0.200282  0.794334  0.797658  1
  O  O12  1  0.049718  0.455666  0.452342  1
  O  O13  1  0.797658  0.794334  0.200282  1
  O  O14  1  0.452342  0.455666  0.049718  1
  O  O15  1  0.502693  0.481982  0.502693  1
  O  O16  1  0.065935  0.059736  0.439036  1
  O  O17  1  0.442962  0.058611  0.442962  1
  O  O18  1  0.055488  0.447429  0.055488  1
  O  O19  1  0.747307  0.768018  0.747307  1
  O  O20  1  0.807038  0.191389  0.807038  1
  O  O21  1  0.810964  0.190264  0.184065  1
