# generated using pymatgen
data_LaDy2Er(Mo2O7)2
_symmetry_space_group_name_H-M   'P 1'
_cell_length_a   7.35621565
_cell_length_b   7.44457048
_cell_length_c   7.35621587
_cell_angle_alpha   60.59779305
_cell_angle_beta   60.35097183
_cell_angle_gamma   60.59778707
_symmetry_Int_Tables_number   1
_chemical_formula_structural   LaDy2Er(Mo2O7)2
_chemical_formula_sum   'La1 Dy2 Er1 Mo4 O14'
_cell_volume   288.17634920
_cell_formula_units_Z   1
loop_
 _symmetry_equiv_pos_site_id
 _symmetry_equiv_pos_as_xyz
  1  'x, y, z'
loop_
 _atom_site_type_symbol
 _atom_site_label
 _atom_site_symmetry_multiplicity
 _atom_site_fract_x
 _atom_site_fract_y
 _atom_site_fract_z
 _atom_site_occupancy
  La  La0  1  0.125000  0.625000  0.125000  1
  Dy  Dy1  1  0.625000  0.125000  0.125000  1
  Dy  Dy2  1  0.125000  0.125000  0.625000  1
  Er  Er3  1  0.125000  0.125000  0.125000  1
  Mo  Mo4  1  0.125000  0.625000  0.625000  1
  Mo  Mo5  1  0.625000  0.125000  0.625000  1
  Mo  Mo6  1  0.625000  0.625000  0.125000  1
  Mo  Mo7  1  0.625000  0.625000  0.625000  1
  O  O8  1  0.701109  0.722275  0.289584  1
  O  O9  1  0.283001  0.284921  0.720435  1
  O  O10  1  0.712252  0.285626  0.712252  1
  O  O11  1  0.290237  0.715148  0.290237  1
  O  O12  1  0.289584  0.722275  0.701109  1
  O  O13  1  0.720435  0.284921  0.283001  1
  O  O14  1  0.548891  0.527725  0.960416  1
  O  O15  1  0.966999  0.965079  0.529565  1
  O  O16  1  0.537748  0.964374  0.537748  1
  O  O17  1  0.959763  0.534852  0.959763  1
  O  O18  1  0.960416  0.527725  0.548891  1
  O  O19  1  0.529565  0.965079  0.966999  1
  O  O20  1  0.252686  0.240579  0.252686  1
  O  O21  1  0.997314  0.009421  0.997314  1
