# generated using pymatgen
data_DyHg4S2Cl5
_symmetry_space_group_name_H-M   'P 1'
_cell_length_a   8.29394135
_cell_length_b   10.49373100
_cell_length_c   9.06132207
_cell_angle_alpha   90.00000000
_cell_angle_beta   113.07156431
_cell_angle_gamma   90.00000000
_symmetry_Int_Tables_number   1
_chemical_formula_structural   DyHg4S2Cl5
_chemical_formula_sum   'Dy2 Hg8 S4 Cl10'
_cell_volume   725.56760012
_cell_formula_units_Z   2
loop_
 _symmetry_equiv_pos_site_id
 _symmetry_equiv_pos_as_xyz
  1  'x, y, z'
loop_
 _atom_site_type_symbol
 _atom_site_label
 _atom_site_symmetry_multiplicity
 _atom_site_fract_x
 _atom_site_fract_y
 _atom_site_fract_z
 _atom_site_occupancy
  Dy  Dy0  1  0.501113  0.431525  0.505110  1
  Dy  Dy1  1  0.498887  0.931525  0.494890  1
  Hg  Hg2  1  0.926266  0.183513  0.329796  1
  Hg  Hg3  1  0.073734  0.683513  0.670204  1
  Hg  Hg4  1  0.950385  0.666967  0.356770  1
  Hg  Hg5  1  0.049615  0.166967  0.643230  1
  Hg  Hg6  1  0.497229  0.181557  0.986067  1
  Hg  Hg7  1  0.502771  0.681557  0.013933  1
  Hg  Hg8  1  0.807469  0.432110  0.018557  1
  Hg  Hg9  1  0.192531  0.932110  0.981443  1
  S  S10  1  0.801533  0.200315  0.028941  1
  S  S11  1  0.198467  0.700315  0.971059  1
  S  S12  1  0.193485  0.161767  0.943358  1
  S  S13  1  0.806515  0.661767  0.056642  1
  Cl  Cl14  1  0.834491  0.924955  0.682502  1
  Cl  Cl15  1  0.165509  0.424955  0.317498  1
  Cl  Cl16  1  0.837820  0.438504  0.702989  1
  Cl  Cl17  1  0.162180  0.938504  0.297011  1
  Cl  Cl18  1  0.410381  0.456811  0.756278  1
  Cl  Cl19  1  0.589619  0.956811  0.243722  1
  Cl  Cl20  1  0.594402  0.395124  0.262790  1
  Cl  Cl21  1  0.405598  0.895124  0.737210  1
  Cl  Cl22  1  0.497054  0.180452  0.553295  1
  Cl  Cl23  1  0.502946  0.680452  0.446705  1
