# generated using pymatgen
data_Sc10Tl7GaNi4
_symmetry_space_group_name_H-M   'P 1'
_cell_length_a   3.41520200
_cell_length_b   7.64882505
_cell_length_c   17.35056462
_cell_angle_alpha   89.91628260
_cell_angle_beta   90.00000000
_cell_angle_gamma   90.00000000
_symmetry_Int_Tables_number   1
_chemical_formula_structural   Sc10Tl7GaNi4
_chemical_formula_sum   'Sc10 Tl7 Ga1 Ni4'
_cell_volume   453.23586835
_cell_formula_units_Z   1
loop_
 _symmetry_equiv_pos_site_id
 _symmetry_equiv_pos_as_xyz
  1  'x, y, z'
loop_
 _atom_site_type_symbol
 _atom_site_label
 _atom_site_symmetry_multiplicity
 _atom_site_fract_x
 _atom_site_fract_y
 _atom_site_fract_z
 _atom_site_occupancy
  Sc  Sc0  1  0.500000  0.500215  0.498398  1
  Sc  Sc1  1  0.500000  0.000055  0.009590  1
  Sc  Sc2  1  0.500000  0.881096  0.407080  1
  Sc  Sc3  1  0.500000  0.119581  0.590011  1
  Sc  Sc4  1  0.500000  0.618201  0.911865  1
  Sc  Sc5  1  0.500000  0.368468  0.092425  1
  Sc  Sc6  1  0.500000  0.243937  0.273829  1
  Sc  Sc7  1  0.500000  0.750267  0.722268  1
  Sc  Sc8  1  0.500000  0.249498  0.780621  1
  Sc  Sc9  1  0.500000  0.767448  0.216158  1
  Tl  Tl10  1  0.000000  0.201731  0.433335  1
  Tl  Tl11  1  0.000000  0.799368  0.564073  1
  Tl  Tl12  1  0.000000  0.296245  0.937289  1
  Tl  Tl13  1  0.000000  0.696156  0.066388  1
  Tl  Tl14  1  0.000000  0.577556  0.344194  1
  Tl  Tl15  1  0.000000  0.423793  0.651927  1
  Tl  Tl16  1  0.000000  0.924288  0.851074  1
  Ga  Ga17  1  0.000000  0.083860  0.154858  1
  Ni  Ni18  1  0.000000  0.969514  0.298795  1
  Ni  Ni19  1  0.000000  0.033587  0.695723  1
  Ni  Ni20  1  0.000000  0.533255  0.805861  1
  Ni  Ni21  1  0.000000  0.461883  0.194238  1
