# generated using pymatgen
data_Tb3YCo20(As5P)2
_symmetry_space_group_name_H-M   'P 1'
_cell_length_a   3.76675700
_cell_length_b   12.13088604
_cell_length_c   10.62474401
_cell_angle_alpha   90.00680452
_cell_angle_beta   90.00000000
_cell_angle_gamma   90.00000000
_symmetry_Int_Tables_number   1
_chemical_formula_structural   Tb3YCo20(As5P)2
_chemical_formula_sum   'Tb3 Y1 Co20 As10 P2'
_cell_volume   485.48811070
_cell_formula_units_Z   1
loop_
 _symmetry_equiv_pos_site_id
 _symmetry_equiv_pos_as_xyz
  1  'x, y, z'
loop_
 _atom_site_type_symbol
 _atom_site_label
 _atom_site_symmetry_multiplicity
 _atom_site_fract_x
 _atom_site_fract_y
 _atom_site_fract_z
 _atom_site_occupancy
  Tb  Tb0  1  0.750000  0.702244  0.082110  1
  Tb  Tb1  1  0.250000  0.293079  0.917255  1
  Tb  Tb2  1  0.250000  0.793040  0.582772  1
  Y  Y3  1  0.750000  0.202251  0.417856  1
  Co  Co4  1  0.750000  0.695105  0.390148  1
  Co  Co5  1  0.250000  0.303158  0.617097  1
  Co  Co6  1  0.250000  0.803269  0.882823  1
  Co  Co7  1  0.750000  0.195138  0.109966  1
  Co  Co8  1  0.750000  0.990532  0.211599  1
  Co  Co9  1  0.250000  0.012875  0.792413  1
  Co  Co10  1  0.250000  0.512773  0.707560  1
  Co  Co11  1  0.750000  0.490698  0.288256  1
  Co  Co12  1  0.750000  0.674057  0.772879  1
  Co  Co13  1  0.250000  0.321570  0.216269  1
  Co  Co14  1  0.250000  0.821582  0.283827  1
  Co  Co15  1  0.750000  0.174037  0.727115  1
  Co  Co16  1  0.750000  0.937842  0.965871  1
  Co  Co17  1  0.250000  0.070925  0.023628  1
  Co  Co18  1  0.250000  0.570806  0.476481  1
  Co  Co19  1  0.750000  0.437699  0.534062  1
  Co  Co20  1  0.750000  0.989067  0.593708  1
  Co  Co21  1  0.250000  0.011512  0.406687  1
  Co  Co22  1  0.250000  0.511487  0.093259  1
  Co  Co23  1  0.750000  0.489041  0.906276  1
  As  As24  1  0.250000  0.387889  0.416066  1
  As  As25  1  0.250000  0.888083  0.083920  1
  As  As26  1  0.750000  0.890017  0.400132  1
  As  As27  1  0.250000  0.109373  0.601861  1
  As  As28  1  0.250000  0.609356  0.897927  1
  As  As29  1  0.750000  0.390075  0.099851  1
  As  As30  1  0.750000  0.869433  0.768272  1
  As  As31  1  0.250000  0.128557  0.228645  1
  As  As32  1  0.250000  0.628521  0.271630  1
  As  As33  1  0.750000  0.369381  0.731731  1
  P  P34  1  0.750000  0.612724  0.580826  1
  P  P35  1  0.750000  0.112803  0.919220  1
