# generated using pymatgen
data_Tb3Dy3Sc2(Co4P3)4
_symmetry_space_group_name_H-M   'P 1'
_cell_length_a   3.72976700
_cell_length_b   10.68540002
_cell_length_c   12.39460102
_cell_angle_alpha   90.00697210
_cell_angle_beta   90.00000000
_cell_angle_gamma   90.00000000
_symmetry_Int_Tables_number   1
_chemical_formula_structural   Tb3Dy3Sc2(Co4P3)4
_chemical_formula_sum   'Tb3 Dy3 Sc2 Co16 P12'
_cell_volume   493.97507469
_cell_formula_units_Z   1
loop_
 _symmetry_equiv_pos_site_id
 _symmetry_equiv_pos_as_xyz
  1  'x, y, z'
loop_
 _atom_site_type_symbol
 _atom_site_label
 _atom_site_symmetry_multiplicity
 _atom_site_fract_x
 _atom_site_fract_y
 _atom_site_fract_z
 _atom_site_occupancy
  Tb  Tb0  1  0.000000  0.500144  0.527563  1
  Tb  Tb1  1  0.500000  0.999846  0.472375  1
  Tb  Tb2  1  0.500000  0.822300  0.205718  1
  Dy  Dy3  1  0.500000  0.177813  0.205625  1
  Dy  Dy4  1  0.000000  0.677496  0.794490  1
  Dy  Dy5  1  0.000000  0.322511  0.794375  1
  Sc  Sc6  1  0.500000  0.499879  0.156990  1
  Sc  Sc7  1  0.000000  0.999956  0.843152  1
  Co  Co8  1  0.500000  0.499947  0.705725  1
  Co  Co9  1  0.000000  0.000441  0.294389  1
  Co  Co10  1  0.000000  0.499888  0.987652  1
  Co  Co11  1  0.500000  0.000094  0.012042  1
  Co  Co12  1  0.500000  0.331227  0.994738  1
  Co  Co13  1  0.500000  0.668646  0.994589  1
  Co  Co14  1  0.000000  0.168982  0.005052  1
  Co  Co15  1  0.000000  0.831179  0.004993  1
  Co  Co16  1  0.500000  0.295631  0.432740  1
  Co  Co17  1  0.500000  0.704412  0.433139  1
  Co  Co18  1  0.000000  0.204535  0.567184  1
  Co  Co19  1  0.000000  0.795427  0.567350  1
  Co  Co20  1  0.500000  0.877926  0.703118  1
  Co  Co21  1  0.500000  0.121947  0.703034  1
  Co  Co22  1  0.000000  0.621698  0.297299  1
  Co  Co23  1  0.000000  0.378041  0.296940  1
  P  P24  1  0.500000  0.499874  0.885898  1
  P  P25  1  0.000000  0.000372  0.113750  1
  P  P26  1  0.500000  0.499979  0.359488  1
  P  P27  1  0.000000  0.000088  0.640640  1
  P  P28  1  0.500000  0.309167  0.615547  1
  P  P29  1  0.500000  0.690785  0.615741  1
  P  P30  1  0.000000  0.191088  0.384446  1
  P  P31  1  0.000000  0.808915  0.384943  1
  P  P32  1  0.500000  0.839381  0.892697  1
  P  P33  1  0.500000  0.160657  0.892523  1
  P  P34  1  0.000000  0.660332  0.106846  1
  P  P35  1  0.000000  0.339396  0.107211  1
