# generated using pymatgen
data_SmTh3(NiB4)4
_symmetry_space_group_name_H-M   'P 1'
_cell_length_a   6.94529605
_cell_length_b   6.94529633
_cell_length_c   6.94529583
_cell_angle_alpha   112.73867056
_cell_angle_beta   112.73867218
_cell_angle_gamma   103.11714206
_symmetry_Int_Tables_number   1
_chemical_formula_structural   SmTh3(NiB4)4
_chemical_formula_sum   'Sm1 Th3 Ni4 B16'
_cell_volume   255.55680154
_cell_formula_units_Z   1
loop_
 _symmetry_equiv_pos_site_id
 _symmetry_equiv_pos_as_xyz
  1  'x, y, z'
loop_
 _atom_site_type_symbol
 _atom_site_label
 _atom_site_symmetry_multiplicity
 _atom_site_fract_x
 _atom_site_fract_y
 _atom_site_fract_z
 _atom_site_occupancy
  Sm  Sm0  1  0.798408  0.798408  0.000000  1
  Th  Th1  1  0.749901  0.249901  0.500000  1
  Th  Th2  1  0.249901  0.749901  0.500000  1
  Th  Th3  1  0.203139  0.203139  0.000000  1
  Ni  Ni4  1  0.499667  0.271835  0.772168  1
  Ni  Ni5  1  0.499667  0.727499  0.227832  1
  Ni  Ni6  1  0.727499  0.499667  0.227832  1
  Ni  Ni7  1  0.271835  0.499667  0.772168  1
  B  B8  1  0.418163  0.418163  0.531576  1
  B  B9  1  0.886587  0.886587  0.468424  1
  B  B10  1  0.582379  0.112749  0.000000  1
  B  B11  1  0.112749  0.582379  0.000000  1
  B  B12  1  0.582379  0.582379  0.469630  1
  B  B13  1  0.112749  0.112749  0.530370  1
  B  B14  1  0.886587  0.418163  0.000000  1
  B  B15  1  0.418163  0.886587  0.000000  1
  B  B16  1  0.111794  0.274016  0.385754  1
  B  B17  1  0.888263  0.726041  0.614246  1
  B  B18  1  0.888263  0.274016  0.162222  1
  B  B19  1  0.111794  0.726041  0.837778  1
  B  B20  1  0.726041  0.888263  0.614246  1
  B  B21  1  0.274016  0.111794  0.385754  1
  B  B22  1  0.726041  0.111794  0.837778  1
  B  B23  1  0.274016  0.888263  0.162222  1
