# generated using pymatgen
data_Nd4ErTm3(B6Os)4
_symmetry_space_group_name_H-M   'P 1'
_cell_length_a   3.68628200
_cell_length_b   9.20139701
_cell_length_c   11.63751313
_cell_angle_alpha   89.99389715
_cell_angle_beta   90.00000000
_cell_angle_gamma   90.00000000
_symmetry_Int_Tables_number   1
_chemical_formula_structural   Nd4ErTm3(B6Os)4
_chemical_formula_sum   'Nd4 Er1 Tm3 B24 Os4'
_cell_volume   394.73215592
_cell_formula_units_Z   1
loop_
 _symmetry_equiv_pos_site_id
 _symmetry_equiv_pos_as_xyz
  1  'x, y, z'
loop_
 _atom_site_type_symbol
 _atom_site_label
 _atom_site_symmetry_multiplicity
 _atom_site_fract_x
 _atom_site_fract_y
 _atom_site_fract_z
 _atom_site_occupancy
  Nd  Nd0  1  0.000000  0.322255  0.414391  1
  Nd  Nd1  1  0.000000  0.677713  0.585591  1
  Nd  Nd2  1  0.000000  0.822397  0.085565  1
  Nd  Nd3  1  0.000000  0.177718  0.914339  1
  Er  Er4  1  0.000000  0.555429  0.872800  1
  Tm  Tm5  1  0.000000  0.944507  0.372608  1
  Tm  Tm6  1  0.000000  0.055497  0.627331  1
  Tm  Tm7  1  0.000000  0.444383  0.127680  1
  B  B8  1  0.500000  0.556417  0.430213  1
  B  B9  1  0.500000  0.443587  0.569694  1
  B  B10  1  0.500000  0.056471  0.069733  1
  B  B11  1  0.500000  0.943728  0.930218  1
  B  B12  1  0.500000  0.750326  0.417150  1
  B  B13  1  0.500000  0.249612  0.582840  1
  B  B14  1  0.500000  0.250290  0.082828  1
  B  B15  1  0.500000  0.750014  0.917117  1
  B  B16  1  0.500000  0.791248  0.266639  1
  B  B17  1  0.500000  0.208643  0.733272  1
  B  B18  1  0.500000  0.291175  0.233310  1
  B  B19  1  0.500000  0.709066  0.766608  1
  B  B20  1  0.500000  0.630516  0.184929  1
  B  B21  1  0.500000  0.369236  0.814936  1
  B  B22  1  0.500000  0.130482  0.315082  1
  B  B23  1  0.500000  0.869566  0.684825  1
  B  B24  1  0.500000  0.985269  0.214503  1
  B  B25  1  0.500000  0.014762  0.785414  1
  B  B26  1  0.500000  0.485331  0.285489  1
  B  B27  1  0.500000  0.514501  0.714327  1
  B  B28  1  0.500000  0.601732  0.028136  1
  B  B29  1  0.500000  0.397877  0.972628  1
  B  B30  1  0.500000  0.101658  0.472344  1
  B  B31  1  0.500000  0.898373  0.527698  1
  Os  Os32  1  0.000000  0.639651  0.319131  1
  Os  Os33  1  0.000000  0.360325  0.680684  1
  Os  Os34  1  0.000000  0.139518  0.180923  1
  Os  Os35  1  0.000000  0.860726  0.819019  1
