# generated using pymatgen
data_Tb2Mn5NiP7Ir6
_symmetry_space_group_name_H-M   'P 1'
_cell_length_a   9.41155723
_cell_length_b   9.39064354
_cell_length_c   3.85540300
_cell_angle_alpha   90.00000000
_cell_angle_beta   90.00000000
_cell_angle_gamma   119.57668731
_symmetry_Int_Tables_number   1
_chemical_formula_structural   Tb2Mn5NiP7Ir6
_chemical_formula_sum   'Tb2 Mn5 Ni1 P7 Ir6'
_cell_volume   296.34254988
_cell_formula_units_Z   1
loop_
 _symmetry_equiv_pos_site_id
 _symmetry_equiv_pos_as_xyz
  1  'x, y, z'
loop_
 _atom_site_type_symbol
 _atom_site_label
 _atom_site_symmetry_multiplicity
 _atom_site_fract_x
 _atom_site_fract_y
 _atom_site_fract_z
 _atom_site_occupancy
  Tb  Tb0  1  0.666893  0.334376  0.000000  1
  Tb  Tb1  1  0.332304  0.666115  0.500000  1
  Mn  Mn2  1  0.841283  0.730630  0.000000  1
  Mn  Mn3  1  0.887356  0.158471  0.000000  1
  Mn  Mn4  1  0.091897  0.879186  0.500000  1
  Mn  Mn5  1  0.784349  0.903956  0.500000  1
  Mn  Mn6  1  0.122072  0.216649  0.500000  1
  Ni  Ni7  1  0.268197  0.106587  0.000000  1
  P  P8  1  0.299853  0.887677  0.000000  1
  P  P9  1  0.589937  0.699445  0.000000  1
  P  P10  1  0.110794  0.407981  0.000000  1
  P  P11  1  0.397594  0.282586  0.500000  1
  P  P12  1  0.882270  0.604483  0.500000  1
  P  P13  1  0.722076  0.119710  0.500000  1
  P  P14  1  0.999954  0.999533  0.000000  1
  Ir  Ir15  1  0.065733  0.639294  0.000000  1
  Ir  Ir16  1  0.573116  0.934052  0.000000  1
  Ir  Ir17  1  0.362963  0.425782  0.000000  1
  Ir  Ir18  1  0.440484  0.054931  0.500000  1
  Ir  Ir19  1  0.615007  0.561391  0.500000  1
  Ir  Ir20  1  0.945868  0.387164  0.500000  1
