# generated using pymatgen
data_Dy2Lu2Al17GeIr6
_symmetry_space_group_name_H-M   'P 1'
_cell_length_a   7.54075533
_cell_length_b   7.54075494
_cell_length_c   9.43346700
_cell_angle_alpha   90.00000000
_cell_angle_beta   90.00000000
_cell_angle_gamma   119.64187884
_symmetry_Int_Tables_number   1
_chemical_formula_structural   Dy2Lu2Al17GeIr6
_chemical_formula_sum   'Dy2 Lu2 Al17 Ge1 Ir6'
_cell_volume   466.21643945
_cell_formula_units_Z   1
loop_
 _symmetry_equiv_pos_site_id
 _symmetry_equiv_pos_as_xyz
  1  'x, y, z'
loop_
 _atom_site_type_symbol
 _atom_site_label
 _atom_site_symmetry_multiplicity
 _atom_site_fract_x
 _atom_site_fract_y
 _atom_site_fract_z
 _atom_site_occupancy
  Dy  Dy0  1  0.994727  0.676052  0.750000  1
  Dy  Dy1  1  0.676052  0.994727  0.750000  1
  Lu  Lu2  1  0.003948  0.328504  0.250000  1
  Lu  Lu3  1  0.328504  0.003948  0.250000  1
  Al  Al4  1  0.872871  0.872871  0.250000  1
  Al  Al5  1  0.000219  0.337569  0.572843  1
  Al  Al6  1  0.999182  0.664681  0.423029  1
  Al  Al7  1  0.999182  0.664681  0.076971  1
  Al  Al8  1  0.337569  0.000219  0.927157  1
  Al  Al9  1  0.000219  0.337569  0.927157  1
  Al  Al10  1  0.664681  0.999182  0.076971  1
  Al  Al11  1  0.664681  0.999182  0.423029  1
  Al  Al12  1  0.337569  0.000219  0.572843  1
  Al  Al13  1  0.331882  0.331882  0.060785  1
  Al  Al14  1  0.663802  0.663802  0.948705  1
  Al  Al15  1  0.663802  0.663802  0.551295  1
  Al  Al16  1  0.331882  0.331882  0.439215  1
  Al  Al17  1  0.337084  0.553223  0.750000  1
  Al  Al18  1  0.660760  0.450038  0.250000  1
  Al  Al19  1  0.553223  0.337084  0.750000  1
  Al  Al20  1  0.450038  0.660760  0.250000  1
  Ge  Ge21  1  0.136103  0.136103  0.750000  1
  Ir  Ir22  1  0.669669  0.326367  0.499534  1
  Ir  Ir23  1  0.326367  0.669669  0.499534  1
  Ir  Ir24  1  0.326367  0.669669  0.000466  1
  Ir  Ir25  1  0.669669  0.326367  0.000466  1
  Ir  Ir26  1  0.999974  0.999974  0.500153  1
  Ir  Ir27  1  0.999974  0.999974  0.999847  1
