# generated using pymatgen
data_Pr10C4I15
_symmetry_space_group_name_H-M   'P 1'
_cell_length_a   9.85088943
_cell_length_b   10.73857000
_cell_length_c   11.87366775
_cell_angle_alpha   93.85617886
_cell_angle_beta   114.32238040
_cell_angle_gamma   109.29902547
_symmetry_Int_Tables_number   1
_chemical_formula_structural   Pr10C4I15
_chemical_formula_sum   'Pr10 C4 I15'
_cell_volume   1049.61094646
_cell_formula_units_Z   1
loop_
 _symmetry_equiv_pos_site_id
 _symmetry_equiv_pos_as_xyz
  1  'x, y, z'
loop_
 _atom_site_type_symbol
 _atom_site_label
 _atom_site_symmetry_multiplicity
 _atom_site_fract_x
 _atom_site_fract_y
 _atom_site_fract_z
 _atom_site_occupancy
  Pr  Pr0  1  0.596979  0.541687  0.341634  1
  Pr  Pr1  1  0.343670  0.745216  0.164167  1
  Pr  Pr2  1  0.776974  0.883822  0.257475  1
  Pr  Pr3  1  0.528286  0.185025  0.102087  1
  Pr  Pr4  1  0.223026  0.116178  0.742525  1
  Pr  Pr5  1  0.403021  0.458313  0.658366  1
  Pr  Pr6  1  0.471714  0.814975  0.897913  1
  Pr  Pr7  1  0.704997  0.567650  0.044451  1
  Pr  Pr8  1  0.295003  0.432350  0.955549  1
  Pr  Pr9  1  0.656330  0.254784  0.835833  1
  C  C10  1  0.482388  0.301262  0.938362  1
  C  C11  1  0.517612  0.698738  0.061638  1
  C  C12  1  0.453476  0.363368  0.835673  1
  C  C13  1  0.546524  0.636632  0.164327  1
  I  I14  1  0.206420  0.906082  0.937312  1
  I  I15  1  0.104773  0.188255  0.468358  1
  I  I16  1  0.152099  0.555570  0.703953  1
  I  I17  1  0.406327  0.970255  0.647940  1
  I  I18  1  0.713321  0.733820  0.821791  1
  I  I19  1  0.286679  0.266180  0.178209  1
  I  I20  1  0.847901  0.444430  0.296047  1
  I  I21  1  0.895227  0.811745  0.531642  1
  I  I22  1  0.358984  0.630798  0.412126  1
  I  I23  1  0.052345  0.832765  0.220101  1
  I  I24  1  0.793580  0.093918  0.062688  1
  I  I25  1  0.641016  0.369202  0.587874  1
  I  I26  1  0.947655  0.167235  0.779899  1
  I  I27  1  0.593673  0.029745  0.352060  1
  I  I28  1  0.000000  0.500000  0.000000  1
