# generated using pymatgen
data_Dy2Lu3(FeB3)2
_symmetry_space_group_name_H-M   'P 1'
_cell_length_a   5.37448162
_cell_length_b   5.37448078
_cell_length_c   8.16170926
_cell_angle_alpha   70.77675664
_cell_angle_beta   70.77676233
_cell_angle_gamma   60.00000659
_symmetry_Int_Tables_number   1
_chemical_formula_structural   Dy2Lu3(FeB3)2
_chemical_formula_sum   'Dy2 Lu3 Fe2 B6'
_cell_volume   188.83591982
_cell_formula_units_Z   1
loop_
 _symmetry_equiv_pos_site_id
 _symmetry_equiv_pos_as_xyz
  1  'x, y, z'
loop_
 _atom_site_type_symbol
 _atom_site_label
 _atom_site_symmetry_multiplicity
 _atom_site_fract_x
 _atom_site_fract_y
 _atom_site_fract_z
 _atom_site_occupancy
  Dy  Dy0  1  0.999402  0.999402  0.001793  1
  Dy  Dy1  1  0.747601  0.747601  0.757198  1
  Lu  Lu2  1  0.250571  0.250571  0.248286  1
  Lu  Lu3  1  0.582239  0.582239  0.253284  1
  Lu  Lu4  1  0.418049  0.418049  0.745852  1
  Fe  Fe5  1  0.883600  0.883600  0.349199  1
  Fe  Fe6  1  0.116280  0.116280  0.651159  1
  B  B7  1  0.499692  0.168925  0.498871  1
  B  B8  1  0.832511  0.499692  0.498871  1
  B  B9  1  0.168925  0.832511  0.498871  1
  B  B10  1  0.168925  0.499692  0.498871  1
  B  B11  1  0.832511  0.168925  0.498871  1
  B  B12  1  0.499692  0.832511  0.498871  1
