# generated using pymatgen
data_Cd3FeRu3PbO14
_symmetry_space_group_name_H-M   'P 1'
_cell_length_a   7.27207998
_cell_length_b   7.27185980
_cell_length_c   7.27208100
_cell_angle_alpha   59.99899829
_cell_angle_beta   59.99999993
_cell_angle_gamma   59.99900357
_symmetry_Int_Tables_number   1
_chemical_formula_structural   Cd3FeRu3PbO14
_chemical_formula_sum   'Cd3 Fe1 Ru3 Pb1 O14'
_cell_volume   271.92008988
_cell_formula_units_Z   1
loop_
 _symmetry_equiv_pos_site_id
 _symmetry_equiv_pos_as_xyz
  1  'x, y, z'
loop_
 _atom_site_type_symbol
 _atom_site_label
 _atom_site_symmetry_multiplicity
 _atom_site_fract_x
 _atom_site_fract_y
 _atom_site_fract_z
 _atom_site_occupancy
  Cd  Cd0  1  0.125000  0.125000  0.625000  1
  Cd  Cd1  1  0.625000  0.125000  0.125000  1
  Cd  Cd2  1  0.125000  0.125000  0.125000  1
  Fe  Fe3  1  0.625000  0.125000  0.625000  1
  Ru  Ru4  1  0.625000  0.625000  0.125000  1
  Ru  Ru5  1  0.125000  0.625000  0.625000  1
  Ru  Ru6  1  0.625000  0.625000  0.625000  1
  Pb  Pb7  1  0.125000  0.625000  0.125000  1
  O  O8  1  0.709040  0.683368  0.303796  1
  O  O9  1  0.946204  0.566632  0.540960  1
  O  O10  1  0.553792  0.938373  0.954044  1
  O  O11  1  0.954044  0.938373  0.553792  1
  O  O12  1  0.946204  0.566632  0.946204  1
  O  O13  1  0.553792  0.938373  0.553792  1
  O  O14  1  0.303796  0.683368  0.303796  1
  O  O15  1  0.303796  0.683368  0.709040  1
  O  O16  1  0.696208  0.311627  0.295956  1
  O  O17  1  0.696208  0.311627  0.696208  1
  O  O18  1  0.540960  0.566632  0.946204  1
  O  O19  1  0.295956  0.311627  0.696208  1
  O  O20  1  0.255054  0.234837  0.255054  1
  O  O21  1  0.994946  0.015163  0.994946  1
