# generated using pymatgen
data_Yb3Tm2Pb3Cl
_symmetry_space_group_name_H-M   'P 1'
_cell_length_a   9.19515700
_cell_length_b   9.19515677
_cell_length_c   6.80614800
_cell_angle_alpha   90.00000000
_cell_angle_beta   90.00000000
_cell_angle_gamma   120.00000442
_symmetry_Int_Tables_number   1
_chemical_formula_structural   Yb3Tm2Pb3Cl
_chemical_formula_sum   'Yb6 Tm4 Pb6 Cl2'
_cell_volume   498.36815970
_cell_formula_units_Z   2
loop_
 _symmetry_equiv_pos_site_id
 _symmetry_equiv_pos_as_xyz
  1  'x, y, z'
loop_
 _atom_site_type_symbol
 _atom_site_label
 _atom_site_symmetry_multiplicity
 _atom_site_fract_x
 _atom_site_fract_y
 _atom_site_fract_z
 _atom_site_occupancy
  Yb  Yb0  1  0.252515  0.000000  0.250000  1
  Yb  Yb1  1  0.747485  0.000000  0.750000  1
  Yb  Yb2  1  0.000000  0.252515  0.250000  1
  Yb  Yb3  1  0.000000  0.747485  0.750000  1
  Yb  Yb4  1  0.747485  0.747485  0.250000  1
  Yb  Yb5  1  0.252515  0.252515  0.750000  1
  Tm  Tm6  1  0.333333  0.666667  0.000000  1
  Tm  Tm7  1  0.666667  0.333333  0.000000  1
  Tm  Tm8  1  0.666667  0.333333  0.500000  1
  Tm  Tm9  1  0.333333  0.666667  0.500000  1
  Pb  Pb10  1  0.598625  0.000000  0.250000  1
  Pb  Pb11  1  0.401375  0.000000  0.750000  1
  Pb  Pb12  1  0.000000  0.598625  0.250000  1
  Pb  Pb13  1  0.000000  0.401375  0.750000  1
  Pb  Pb14  1  0.401375  0.401375  0.250000  1
  Pb  Pb15  1  0.598625  0.598625  0.750000  1
  Cl  Cl16  1  0.000000  0.000000  0.000000  1
  Cl  Cl17  1  0.000000  0.000000  0.500000  1
