# generated using pymatgen
data_K3Sr3AlAs4
_symmetry_space_group_name_H-M   'P 1'
_cell_length_a   10.25517800
_cell_length_b   10.25517829
_cell_length_c   7.64151300
_cell_angle_alpha   90.00000000
_cell_angle_beta   90.00000000
_cell_angle_gamma   119.99999907
_symmetry_Int_Tables_number   1
_chemical_formula_structural   K3Sr3AlAs4
_chemical_formula_sum   'K6 Sr6 Al2 As8'
_cell_volume   695.97943944
_cell_formula_units_Z   2
loop_
 _symmetry_equiv_pos_site_id
 _symmetry_equiv_pos_as_xyz
  1  'x, y, z'
loop_
 _atom_site_type_symbol
 _atom_site_label
 _atom_site_symmetry_multiplicity
 _atom_site_fract_x
 _atom_site_fract_y
 _atom_site_fract_z
 _atom_site_occupancy
  K  K0  1  0.729118  0.864559  0.175508  1
  K  K1  1  0.864559  0.135441  0.675508  1
  K  K2  1  0.864559  0.729118  0.675508  1
  K  K3  1  0.135441  0.270882  0.175508  1
  K  K4  1  0.135441  0.864559  0.175508  1
  K  K5  1  0.270882  0.135441  0.675508  1
  Sr  Sr6  1  0.053148  0.526575  0.498451  1
  Sr  Sr7  1  0.473425  0.946852  0.498451  1
  Sr  Sr8  1  0.473425  0.526575  0.498451  1
  Sr  Sr9  1  0.526575  0.473425  0.998451  1
  Sr  Sr10  1  0.526575  0.053148  0.998451  1
  Sr  Sr11  1  0.946852  0.473425  0.998451  1
  Al  Al12  1  0.333333  0.666667  0.879019  1
  Al  Al13  1  0.666667  0.333333  0.379019  1
  As  As14  1  0.666667  0.333333  0.716794  1
  As  As15  1  0.600009  0.800005  0.770503  1
  As  As16  1  0.800005  0.199995  0.270503  1
  As  As17  1  0.800005  0.600009  0.270503  1
  As  As18  1  0.333333  0.666667  0.216794  1
  As  As19  1  0.199995  0.399991  0.770503  1
  As  As20  1  0.199995  0.800005  0.770503  1
  As  As21  1  0.399991  0.199995  0.270503  1
