# generated using pymatgen
data_Ba3DyHoWO9
_symmetry_space_group_name_H-M   'P 1'
_cell_length_a   6.10070000
_cell_length_b   6.10069884
_cell_length_c   7.45699800
_cell_angle_alpha   90.00000000
_cell_angle_beta   90.00000000
_cell_angle_gamma   119.99998458
_symmetry_Int_Tables_number   1
_chemical_formula_structural   Ba3DyHoWO9
_chemical_formula_sum   'Ba3 Dy1 Ho1 W1 O9'
_cell_volume   240.35545431
_cell_formula_units_Z   1
loop_
 _symmetry_equiv_pos_site_id
 _symmetry_equiv_pos_as_xyz
  1  'x, y, z'
loop_
 _atom_site_type_symbol
 _atom_site_label
 _atom_site_symmetry_multiplicity
 _atom_site_fract_x
 _atom_site_fract_y
 _atom_site_fract_z
 _atom_site_occupancy
  Ba  Ba0  1  0.000000  0.000000  0.499857  1
  Ba  Ba1  1  0.666667  0.333333  0.813330  1
  Ba  Ba2  1  0.333333  0.666667  0.186757  1
  Dy  Dy3  1  0.333333  0.666667  0.669761  1
  Ho  Ho4  1  0.666667  0.333333  0.330338  1
  W  W5  1  0.000000  0.000000  0.000519  1
  O  O6  1  0.695481  0.847740  0.849604  1
  O  O7  1  0.305274  0.152638  0.150755  1
  O  O8  1  0.999128  0.499564  0.499454  1
  O  O9  1  0.500436  0.000872  0.499454  1
  O  O10  1  0.152260  0.304519  0.849604  1
  O  O11  1  0.847362  0.694726  0.150755  1
  O  O12  1  0.500436  0.499564  0.499454  1
  O  O13  1  0.152260  0.847740  0.849604  1
  O  O14  1  0.847362  0.152638  0.150755  1
