# generated using pymatgen
data_Tb3Ho7Si5P
_symmetry_space_group_name_H-M   'P 1'
_cell_length_a   8.40626900
_cell_length_b   8.41131168
_cell_length_c   6.29629300
_cell_angle_alpha   90.00000000
_cell_angle_beta   90.00000000
_cell_angle_gamma   119.98016635
_symmetry_Int_Tables_number   1
_chemical_formula_structural   Tb3Ho7Si5P
_chemical_formula_sum   'Tb3 Ho7 Si5 P1'
_cell_volume   385.62868644
_cell_formula_units_Z   1
loop_
 _symmetry_equiv_pos_site_id
 _symmetry_equiv_pos_as_xyz
  1  'x, y, z'
loop_
 _atom_site_type_symbol
 _atom_site_label
 _atom_site_symmetry_multiplicity
 _atom_site_fract_x
 _atom_site_fract_y
 _atom_site_fract_z
 _atom_site_occupancy
  Tb  Tb0  1  0.000871  0.756677  0.750000  1
  Tb  Tb1  1  0.754772  0.000000  0.750000  1
  Tb  Tb2  1  0.244194  0.243323  0.750000  1
  Ho  Ho3  1  0.000994  0.244271  0.250000  1
  Ho  Ho4  1  0.756722  0.755729  0.250000  1
  Ho  Ho5  1  0.243742  0.000000  0.250000  1
  Ho  Ho6  1  0.333826  0.667563  0.500173  1
  Ho  Ho7  1  0.666263  0.332437  0.999827  1
  Ho  Ho8  1  0.666263  0.332437  0.500173  1
  Ho  Ho9  1  0.333826  0.667563  0.999827  1
  Si  Si10  1  0.394329  0.393697  0.250000  1
  Si  Si11  1  0.000632  0.606303  0.250000  1
  Si  Si12  1  0.000123  0.394058  0.750000  1
  Si  Si13  1  0.606065  0.605942  0.750000  1
  Si  Si14  1  0.607196  0.000000  0.250000  1
  P  P15  1  0.390181  0.000000  0.750000  1
