# generated using pymatgen
data_NdPdF7
_symmetry_space_group_name_H-M   'P 1'
_cell_length_a   5.72188100
_cell_length_b   6.11202308
_cell_length_c   8.31959997
_cell_angle_alpha   101.39898191
_cell_angle_beta   90.00000000
_cell_angle_gamma   90.00000000
_symmetry_Int_Tables_number   1
_chemical_formula_structural   NdPdF7
_chemical_formula_sum   'Nd2 Pd2 F14'
_cell_volume   285.21610173
_cell_formula_units_Z   2
loop_
 _symmetry_equiv_pos_site_id
 _symmetry_equiv_pos_as_xyz
  1  'x, y, z'
loop_
 _atom_site_type_symbol
 _atom_site_label
 _atom_site_symmetry_multiplicity
 _atom_site_fract_x
 _atom_site_fract_y
 _atom_site_fract_z
 _atom_site_occupancy
  Nd  Nd0  1  0.701540  0.662135  0.688369  1
  Nd  Nd1  1  0.201540  0.337865  0.311631  1
  Pd  Pd2  1  0.711130  0.808340  0.222297  1
  Pd  Pd3  1  0.211130  0.191660  0.777703  1
  F  F4  1  0.884674  0.444702  0.474442  1
  F  F5  1  0.384674  0.555298  0.525558  1
  F  F6  1  0.413056  0.936979  0.777287  1
  F  F7  1  0.913056  0.063021  0.222713  1
  F  F8  1  0.941294  0.993069  0.764235  1
  F  F9  1  0.441294  0.006931  0.235765  1
  F  F10  1  0.009683  0.452113  0.791414  1
  F  F11  1  0.509683  0.547887  0.208586  1
  F  F12  1  0.701603  0.761770  0.984089  1
  F  F13  1  0.201603  0.238230  0.015911  1
  F  F14  1  0.725137  0.869487  0.461375  1
  F  F15  1  0.225137  0.130513  0.538625  1
  F  F16  1  0.488243  0.380713  0.796482  1
  F  F17  1  0.988243  0.619287  0.203518  1
