# generated using pymatgen
data_Dy15TmIn4(IrRh)2
_symmetry_space_group_name_H-M   'P 1'
_cell_length_a   9.67828571
_cell_length_b   9.66529190
_cell_length_c   9.66529047
_cell_angle_alpha   59.84074397
_cell_angle_beta   59.95551753
_cell_angle_gamma   59.95551425
_symmetry_Int_Tables_number   1
_chemical_formula_structural   Dy15TmIn4(IrRh)2
_chemical_formula_sum   'Dy15 Tm1 In4 Ir2 Rh2'
_cell_volume   638.11103604
_cell_formula_units_Z   1
loop_
 _symmetry_equiv_pos_site_id
 _symmetry_equiv_pos_as_xyz
  1  'x, y, z'
loop_
 _atom_site_type_symbol
 _atom_site_label
 _atom_site_symmetry_multiplicity
 _atom_site_fract_x
 _atom_site_fract_y
 _atom_site_fract_z
 _atom_site_occupancy
  Dy  Dy0  1  0.689477  0.689525  0.310890  1
  Dy  Dy1  1  0.310109  0.689525  0.310890  1
  Dy  Dy2  1  0.937899  0.940123  0.560399  1
  Dy  Dy3  1  0.150706  0.149508  0.549078  1
  Dy  Dy4  1  0.561579  0.940123  0.560399  1
  Dy  Dy5  1  0.150913  0.150642  0.150642  1
  Dy  Dy6  1  0.310109  0.310890  0.689525  1
  Dy  Dy7  1  0.940009  0.559991  0.559991  1
  Dy  Dy8  1  0.561579  0.560399  0.940123  1
  Dy  Dy9  1  0.562420  0.937580  0.937580  1
  Dy  Dy10  1  0.937899  0.560399  0.940123  1
  Dy  Dy11  1  0.150706  0.549078  0.149508  1
  Dy  Dy12  1  0.310240  0.689760  0.689760  1
  Dy  Dy13  1  0.689477  0.310890  0.689525  1
  Dy  Dy14  1  0.547803  0.150642  0.150642  1
  Tm  Tm15  1  0.689676  0.310324  0.310324  1
  In  In16  1  0.916865  0.917459  0.248809  1
  In  In17  1  0.249068  0.917219  0.917219  1
  In  In18  1  0.916865  0.248809  0.917459  1
  In  In19  1  0.916494  0.917219  0.917219  1
  Ir  Ir20  1  0.359401  0.357758  0.357758  1
  Ir  Ir21  1  0.925084  0.357758  0.357758  1
  Rh  Rh22  1  0.357811  0.358541  0.925837  1
  Rh  Rh23  1  0.357811  0.925837  0.358541  1
