# generated using pymatgen
data_CaGd4HoSi4
_symmetry_space_group_name_H-M   'P 1'
_cell_length_a   7.48704300
_cell_length_b   7.48704300
_cell_length_c   4.29891900
_cell_angle_alpha   90.00000000
_cell_angle_beta   90.00000000
_cell_angle_gamma   90.00000000
_symmetry_Int_Tables_number   1
_chemical_formula_structural   CaGd4HoSi4
_chemical_formula_sum   'Ca1 Gd4 Ho1 Si4'
_cell_volume   240.97939907
_cell_formula_units_Z   1
loop_
 _symmetry_equiv_pos_site_id
 _symmetry_equiv_pos_as_xyz
  1  'x, y, z'
loop_
 _atom_site_type_symbol
 _atom_site_label
 _atom_site_symmetry_multiplicity
 _atom_site_fract_x
 _atom_site_fract_y
 _atom_site_fract_z
 _atom_site_occupancy
  Ca  Ca0  1  0.500000  0.500000  0.000000  1
  Gd  Gd1  1  0.676759  0.176284  0.500000  1
  Gd  Gd2  1  0.323241  0.823716  0.500000  1
  Gd  Gd3  1  0.176284  0.323241  0.500000  1
  Gd  Gd4  1  0.823716  0.676759  0.500000  1
  Ho  Ho5  1  0.000000  0.000000  0.000000  1
  Si  Si6  1  0.107999  0.619956  0.000000  1
  Si  Si7  1  0.892001  0.380044  0.000000  1
  Si  Si8  1  0.619956  0.892001  0.000000  1
  Si  Si9  1  0.380044  0.107999  0.000000  1
