# generated using pymatgen
data_Tb6Al20Si4NiOs7
_symmetry_space_group_name_H-M   'P 1'
_cell_length_a   8.69690300
_cell_length_b   8.69690367
_cell_length_c   9.58806000
_cell_angle_alpha   90.00000000
_cell_angle_beta   90.00000000
_cell_angle_gamma   119.99999363
_symmetry_Int_Tables_number   1
_chemical_formula_structural   Tb6Al20Si4NiOs7
_chemical_formula_sum   'Tb6 Al20 Si4 Ni1 Os7'
_cell_volume   628.04489355
_cell_formula_units_Z   1
loop_
 _symmetry_equiv_pos_site_id
 _symmetry_equiv_pos_as_xyz
  1  'x, y, z'
loop_
 _atom_site_type_symbol
 _atom_site_label
 _atom_site_symmetry_multiplicity
 _atom_site_fract_x
 _atom_site_fract_y
 _atom_site_fract_z
 _atom_site_occupancy
  Tb  Tb0  1  0.194946  0.389891  0.249500  1
  Tb  Tb1  1  0.805054  0.610109  0.750500  1
  Tb  Tb2  1  0.610109  0.805054  0.249500  1
  Tb  Tb3  1  0.389891  0.194946  0.750500  1
  Tb  Tb4  1  0.194946  0.805054  0.249500  1
  Tb  Tb5  1  0.805054  0.194946  0.750500  1
  Al  Al6  1  0.164175  0.328348  0.576025  1
  Al  Al7  1  0.835825  0.671652  0.423975  1
  Al  Al8  1  0.671652  0.835825  0.576025  1
  Al  Al9  1  0.836375  0.672752  0.076604  1
  Al  Al10  1  0.328348  0.164175  0.423975  1
  Al  Al11  1  0.163625  0.327248  0.923396  1
  Al  Al12  1  0.164175  0.835825  0.576025  1
  Al  Al13  1  0.327248  0.163625  0.076604  1
  Al  Al14  1  0.835825  0.164175  0.423975  1
  Al  Al15  1  0.672752  0.836375  0.923396  1
  Al  Al16  1  0.836375  0.163625  0.076604  1
  Al  Al17  1  0.163625  0.836375  0.923396  1
  Al  Al18  1  0.563511  0.127023  0.250078  1
  Al  Al19  1  0.436489  0.872977  0.749922  1
  Al  Al20  1  0.872977  0.436489  0.250078  1
  Al  Al21  1  0.127023  0.563511  0.749922  1
  Al  Al22  1  0.563511  0.436489  0.250078  1
  Al  Al23  1  0.436489  0.563511  0.749922  1
  Al  Al24  1  0.000000  0.000000  0.243052  1
  Al  Al25  1  0.000000  0.000000  0.756948  1
  Si  Si26  1  0.333333  0.666667  0.034309  1
  Si  Si27  1  0.666667  0.333333  0.965691  1
  Si  Si28  1  0.666667  0.333333  0.537356  1
  Si  Si29  1  0.333333  0.666667  0.462644  1
  Ni  Ni30  1  0.000000  0.000000  0.000000  1
  Os  Os31  1  0.500000  0.000000  0.000000  1
  Os  Os32  1  0.000000  0.500000  0.000000  1
  Os  Os33  1  0.500000  0.000000  0.500000  1
  Os  Os34  1  0.500000  0.500000  0.000000  1
  Os  Os35  1  0.000000  0.500000  0.500000  1
  Os  Os36  1  0.500000  0.500000  0.500000  1
  Os  Os37  1  0.000000  0.000000  0.500000  1
