# generated using pymatgen
data_K2NiAuO4
_symmetry_space_group_name_H-M   'P 1'
_cell_length_a   6.38303626
_cell_length_b   6.38303701
_cell_length_c   5.77882200
_cell_angle_alpha   90.00000000
_cell_angle_beta   90.00000000
_cell_angle_gamma   139.62205303
_symmetry_Int_Tables_number   1
_chemical_formula_structural   K2NiAuO4
_chemical_formula_sum   'K2 Ni1 Au1 O4'
_cell_volume   152.52915367
_cell_formula_units_Z   1
loop_
 _symmetry_equiv_pos_site_id
 _symmetry_equiv_pos_as_xyz
  1  'x, y, z'
loop_
 _atom_site_type_symbol
 _atom_site_label
 _atom_site_symmetry_multiplicity
 _atom_site_fract_x
 _atom_site_fract_y
 _atom_site_fract_z
 _atom_site_occupancy
  K  K0  1  0.704624  0.295376  0.250000  1
  K  K1  1  0.297321  0.702679  0.750000  1
  Ni  Ni2  1  0.002100  0.997900  0.750000  1
  Au  Au3  1  0.997075  0.002925  0.250000  1
  O  O4  1  0.107282  0.892718  0.516795  1
  O  O5  1  0.892158  0.107842  0.526379  1
  O  O6  1  0.892158  0.107842  0.973621  1
  O  O7  1  0.107282  0.892718  0.983205  1
