# generated using pymatgen
data_YTmFeB6
_symmetry_space_group_name_H-M   'P 1'
_cell_length_a   3.53249600
_cell_length_b   9.04817800
_cell_length_c   11.42381000
_cell_angle_alpha   90.00000000
_cell_angle_beta   90.00000000
_cell_angle_gamma   90.00000000
_symmetry_Int_Tables_number   1
_chemical_formula_structural   YTmFeB6
_chemical_formula_sum   'Y4 Tm4 Fe4 B24'
_cell_volume   365.13527031
_cell_formula_units_Z   4
loop_
 _symmetry_equiv_pos_site_id
 _symmetry_equiv_pos_as_xyz
  1  'x, y, z'
loop_
 _atom_site_type_symbol
 _atom_site_label
 _atom_site_symmetry_multiplicity
 _atom_site_fract_x
 _atom_site_fract_y
 _atom_site_fract_z
 _atom_site_occupancy
  Y  Y0  1  0.000000  0.823621  0.085668  1
  Y  Y1  1  0.000000  0.176379  0.914332  1
  Y  Y2  1  0.000000  0.323621  0.414332  1
  Y  Y3  1  0.000000  0.676379  0.585668  1
  Tm  Tm4  1  0.000000  0.443221  0.129400  1
  Tm  Tm5  1  0.000000  0.556779  0.870600  1
  Tm  Tm6  1  0.000000  0.943221  0.370600  1
  Tm  Tm7  1  0.000000  0.056779  0.629400  1
  Fe  Fe8  1  0.000000  0.139129  0.180299  1
  Fe  Fe9  1  0.000000  0.860871  0.819701  1
  Fe  Fe10  1  0.000000  0.639129  0.319701  1
  Fe  Fe11  1  0.000000  0.360871  0.680299  1
  B  B12  1  0.500000  0.054811  0.068651  1
  B  B13  1  0.500000  0.945189  0.931349  1
  B  B14  1  0.500000  0.554811  0.431349  1
  B  B15  1  0.500000  0.445189  0.568651  1
  B  B16  1  0.500000  0.247528  0.082044  1
  B  B17  1  0.500000  0.752472  0.917956  1
  B  B18  1  0.500000  0.747528  0.417956  1
  B  B19  1  0.500000  0.252472  0.582044  1
  B  B20  1  0.500000  0.289582  0.233430  1
  B  B21  1  0.500000  0.710418  0.766570  1
  B  B22  1  0.500000  0.789582  0.266570  1
  B  B23  1  0.500000  0.210418  0.733430  1
  B  B24  1  0.500000  0.131484  0.314329  1
  B  B25  1  0.500000  0.868516  0.685671  1
  B  B26  1  0.500000  0.631484  0.185671  1
  B  B27  1  0.500000  0.368516  0.814329  1
  B  B28  1  0.500000  0.485931  0.287656  1
  B  B29  1  0.500000  0.514069  0.712344  1
  B  B30  1  0.500000  0.985931  0.212344  1
  B  B31  1  0.500000  0.014069  0.787656  1
  B  B32  1  0.500000  0.106776  0.470784  1
  B  B33  1  0.500000  0.893224  0.529216  1
  B  B34  1  0.500000  0.606776  0.029216  1
  B  B35  1  0.500000  0.393224  0.970784  1
