# generated using pymatgen
data_Tm3ThHgIr
_symmetry_space_group_name_H-M   'P 1'
_cell_length_a   9.63271900
_cell_length_b   9.63272840
_cell_length_c   9.64621100
_cell_angle_alpha   59.95358052
_cell_angle_beta   59.95366773
_cell_angle_gamma   59.91904219
_symmetry_Int_Tables_number   1
_chemical_formula_structural   Tm3ThHgIr
_chemical_formula_sum   'Tm12 Th4 Hg4 Ir4'
_cell_volume   632.07575547
_cell_formula_units_Z   4
loop_
 _symmetry_equiv_pos_site_id
 _symmetry_equiv_pos_as_xyz
  1  'x, y, z'
loop_
 _atom_site_type_symbol
 _atom_site_label
 _atom_site_symmetry_multiplicity
 _atom_site_fract_x
 _atom_site_fract_y
 _atom_site_fract_z
 _atom_site_occupancy
  Tm  Tm0  1  0.063016  0.436954  0.436987  1
  Tm  Tm1  1  0.436951  0.063017  0.063044  1
  Tm  Tm2  1  0.436954  0.063015  0.436989  1
  Tm  Tm3  1  0.063015  0.436953  0.063044  1
  Tm  Tm4  1  0.437441  0.437441  0.062561  1
  Tm  Tm5  1  0.063438  0.063440  0.436562  1
  Tm  Tm6  1  0.185854  0.815574  0.814518  1
  Tm  Tm7  1  0.815579  0.185854  0.184051  1
  Tm  Tm8  1  0.815573  0.185856  0.814516  1
  Tm  Tm9  1  0.185856  0.815575  0.184052  1
  Tm  Tm10  1  0.815473  0.815471  0.184528  1
  Tm  Tm11  1  0.185373  0.185373  0.814625  1
  Th  Th12  1  0.602189  0.602192  0.601200  1
  Th  Th13  1  0.602191  0.602190  0.194418  1
  Th  Th14  1  0.603338  0.192118  0.602274  1
  Th  Th15  1  0.192119  0.603338  0.602272  1
  Hg  Hg16  1  0.837547  0.837547  0.839507  1
  Hg  Hg17  1  0.837547  0.837548  0.485395  1
  Hg  Hg18  1  0.837057  0.485071  0.838934  1
  Hg  Hg19  1  0.485072  0.837057  0.838934  1
  Ir  Ir20  1  0.392235  0.392234  0.393647  1
  Ir  Ir21  1  0.392236  0.392236  0.821885  1
  Ir  Ir22  1  0.391745  0.822199  0.393027  1
  Ir  Ir23  1  0.822199  0.391746  0.393028  1
