# generated using pymatgen
data_Th8Si13As
_symmetry_space_group_name_H-M   'P 1'
_cell_length_a   7.98591531
_cell_length_b   7.96048096
_cell_length_c   8.63387900
_cell_angle_alpha   90.00000000
_cell_angle_beta   90.00000000
_cell_angle_gamma   120.06640161
_symmetry_Int_Tables_number   1
_chemical_formula_structural   Th8Si13As
_chemical_formula_sum   'Th8 Si13 As1'
_cell_volume   475.01751079
_cell_formula_units_Z   1
loop_
 _symmetry_equiv_pos_site_id
 _symmetry_equiv_pos_as_xyz
  1  'x, y, z'
loop_
 _atom_site_type_symbol
 _atom_site_label
 _atom_site_symmetry_multiplicity
 _atom_site_fract_x
 _atom_site_fract_y
 _atom_site_fract_z
 _atom_site_occupancy
  Th  Th0  1  0.259812  0.260133  0.999843  1
  Th  Th1  1  0.745187  0.747029  0.000163  1
  Th  Th2  1  0.745187  0.747029  0.499837  1
  Th  Th3  1  0.259812  0.260133  0.500157  1
  Th  Th4  1  0.253808  0.753130  0.498777  1
  Th  Th5  1  0.746918  0.254161  0.503913  1
  Th  Th6  1  0.746918  0.254161  0.996087  1
  Th  Th7  1  0.253808  0.753130  0.001223  1
  Si  Si8  1  0.946646  0.641382  0.750000  1
  Si  Si9  1  0.586763  0.420991  0.250000  1
  Si  Si10  1  0.417181  0.586798  0.750000  1
  Si  Si11  1  0.408258  0.592416  0.250000  1
  Si  Si12  1  0.594889  0.417806  0.750000  1
  Si  Si13  1  0.062343  0.938088  0.250000  1
  Si  Si14  1  0.937326  0.065563  0.750000  1
  Si  Si15  1  0.634955  0.944087  0.250000  1
  Si  Si16  1  0.373462  0.063984  0.750000  1
  Si  Si17  1  0.932963  0.588253  0.250000  1
  Si  Si18  1  0.072665  0.416495  0.750000  1
  Si  Si19  1  0.413708  0.074671  0.250000  1
  Si  Si20  1  0.590763  0.931559  0.750000  1
  As  As21  1  0.016628  0.289002  0.250000  1
