# generated using pymatgen
data_Tb3Ce2Bi3
_symmetry_space_group_name_H-M   'P 1'
_cell_length_a   9.40313400
_cell_length_b   9.40313544
_cell_length_c   6.32239400
_cell_angle_alpha   90.00000000
_cell_angle_beta   90.00000000
_cell_angle_gamma   120.00000198
_symmetry_Int_Tables_number   1
_chemical_formula_structural   Tb3Ce2Bi3
_chemical_formula_sum   'Tb6 Ce4 Bi6'
_cell_volume   484.12498475
_cell_formula_units_Z   2
loop_
 _symmetry_equiv_pos_site_id
 _symmetry_equiv_pos_as_xyz
  1  'x, y, z'
loop_
 _atom_site_type_symbol
 _atom_site_label
 _atom_site_symmetry_multiplicity
 _atom_site_fract_x
 _atom_site_fract_y
 _atom_site_fract_z
 _atom_site_occupancy
  Tb  Tb0  1  0.748645  0.748645  0.750000  1
  Tb  Tb1  1  0.251355  0.000000  0.750000  1
  Tb  Tb2  1  0.000000  0.251355  0.750000  1
  Tb  Tb3  1  0.251355  0.251355  0.250000  1
  Tb  Tb4  1  0.748645  0.000000  0.250000  1
  Tb  Tb5  1  0.000000  0.748645  0.250000  1
  Ce  Ce6  1  0.666667  0.333333  0.000000  1
  Ce  Ce7  1  0.333333  0.666667  0.000000  1
  Ce  Ce8  1  0.333333  0.666667  0.500000  1
  Ce  Ce9  1  0.666667  0.333333  0.500000  1
  Bi  Bi10  1  0.379401  0.379401  0.750000  1
  Bi  Bi11  1  0.620599  0.000000  0.750000  1
  Bi  Bi12  1  0.000000  0.620599  0.750000  1
  Bi  Bi13  1  0.620599  0.620599  0.250000  1
  Bi  Bi14  1  0.379401  0.000000  0.250000  1
  Bi  Bi15  1  0.000000  0.379401  0.250000  1
