# generated using pymatgen
data_LiTlP6(WO6)4
_symmetry_space_group_name_H-M   'P 1'
_cell_length_a   8.56763319
_cell_length_b   8.64784566
_cell_length_c   9.39717821
_cell_angle_alpha   90.10977950
_cell_angle_beta   116.75732281
_cell_angle_gamma   119.95676488
_symmetry_Int_Tables_number   1
_chemical_formula_structural   LiTlP6(WO6)4
_chemical_formula_sum   'Li1 Tl1 P6 W4 O24'
_cell_volume   514.98941922
_cell_formula_units_Z   1
loop_
 _symmetry_equiv_pos_site_id
 _symmetry_equiv_pos_as_xyz
  1  'x, y, z'
loop_
 _atom_site_type_symbol
 _atom_site_label
 _atom_site_symmetry_multiplicity
 _atom_site_fract_x
 _atom_site_fract_y
 _atom_site_fract_z
 _atom_site_occupancy
  Li  Li0  1  0.678806  0.262642  0.348721  1
  Tl  Tl1  1  0.462871  0.959987  0.512247  1
  P  P2  1  0.996627  0.526625  0.256231  1
  P  P3  1  0.709163  0.735963  0.761515  1
  P  P4  1  0.278613  0.025814  0.753522  1
  P  P5  1  0.711549  0.962698  0.254008  1
  P  P6  1  0.288154  0.253624  0.252375  1
  P  P7  1  0.988406  0.452387  0.746389  1
  W  W8  1  0.797449  0.136123  0.949629  1
  W  W9  1  0.800510  0.649351  0.459797  1
  W  W10  1  0.193860  0.343938  0.552438  1
  W  W11  1  0.193322  0.849484  0.057274  1
  O  O12  1  0.665811  0.885882  0.778923  1
  O  O13  1  0.171399  0.523123  0.410686  1
  O  O14  1  0.869089  0.362438  0.103910  1
  O  O15  1  0.108338  0.712213  0.218826  1
  O  O16  1  0.504874  0.090293  0.803102  1
  O  O17  1  0.894026  0.776534  0.933391  1
  O  O18  1  0.840130  0.517570  0.304897  1
  O  O19  1  0.225914  0.223865  0.386106  1
  O  O20  1  0.128564  0.838408  0.613579  1
  O  O21  1  0.518698  0.538396  0.708620  1
  O  O22  1  0.265348  0.009820  0.912345  1
  O  O23  1  0.229820  0.168357  0.689069  1
  O  O24  1  0.767612  0.827176  0.324421  1
  O  O25  1  0.725429  0.976734  0.096613  1
  O  O26  1  0.476985  0.453906  0.301547  1
  O  O27  1  0.855265  0.156338  0.388900  1
  O  O28  1  0.778758  0.764424  0.630770  1
  O  O29  1  0.148465  0.454877  0.709408  1
  O  O30  1  0.099981  0.209682  0.081237  1
  O  O31  1  0.485459  0.897633  0.206375  1
  O  O32  1  0.870969  0.269325  0.784511  1
  O  O33  1  0.103822  0.620215  0.892144  1
  O  O34  1  0.815406  0.448740  0.581146  1
  O  O35  1  0.350511  0.115416  0.235330  1
