# generated using pymatgen
data_ScZn2CdNi2
_symmetry_space_group_name_H-M   'P 1'
_cell_length_a   5.09534817
_cell_length_b   4.99863288
_cell_length_c   4.99863291
_cell_angle_alpha   60.42426968
_cell_angle_beta   59.35786776
_cell_angle_gamma   59.35787513
_symmetry_Int_Tables_number   1
_chemical_formula_structural   ScZn2CdNi2
_chemical_formula_sum   'Sc1 Zn2 Cd1 Ni2'
_cell_volume   89.41749643
_cell_formula_units_Z   1
loop_
 _symmetry_equiv_pos_site_id
 _symmetry_equiv_pos_as_xyz
  1  'x, y, z'
loop_
 _atom_site_type_symbol
 _atom_site_label
 _atom_site_symmetry_multiplicity
 _atom_site_fract_x
 _atom_site_fract_y
 _atom_site_fract_z
 _atom_site_occupancy
  Sc  Sc0  1  0.241305  0.258695  0.258695  1
  Zn  Zn1  1  0.626660  0.623591  0.123088  1
  Zn  Zn2  1  0.626660  0.123088  0.623591  1
  Cd  Cd3  1  0.002564  0.997436  0.997436  1
  Ni  Ni4  1  0.124662  0.623595  0.623595  1
  Ni  Ni5  1  0.628148  0.623595  0.623595  1
