# generated using pymatgen
data_Ho6CrFe9(Co2P3)4
_symmetry_space_group_name_H-M   'P 1'
_cell_length_a   3.70225500
_cell_length_b   10.54797300
_cell_length_c   12.07071800
_cell_angle_alpha   90.00000000
_cell_angle_beta   90.00000000
_cell_angle_gamma   90.00000000
_symmetry_Int_Tables_number   1
_chemical_formula_structural   Ho6CrFe9(Co2P3)4
_chemical_formula_sum   'Ho6 Cr1 Fe9 Co8 P12'
_cell_volume   471.37705818
_cell_formula_units_Z   1
loop_
 _symmetry_equiv_pos_site_id
 _symmetry_equiv_pos_as_xyz
  1  'x, y, z'
loop_
 _atom_site_type_symbol
 _atom_site_label
 _atom_site_symmetry_multiplicity
 _atom_site_fract_x
 _atom_site_fract_y
 _atom_site_fract_z
 _atom_site_occupancy
  Ho  Ho0  1  0.000000  0.500000  0.524733  1
  Ho  Ho1  1  0.500000  0.000000  0.474921  1
  Ho  Ho2  1  0.500000  0.819882  0.205231  1
  Ho  Ho3  1  0.500000  0.180118  0.205231  1
  Ho  Ho4  1  0.000000  0.680970  0.796451  1
  Ho  Ho5  1  0.000000  0.319030  0.796451  1
  Cr  Cr6  1  0.500000  0.500000  0.151151  1
  Fe  Fe7  1  0.000000  0.500000  0.987315  1
  Fe  Fe8  1  0.500000  0.000000  0.011368  1
  Fe  Fe9  1  0.500000  0.297045  0.430762  1
  Fe  Fe10  1  0.500000  0.702955  0.430762  1
  Fe  Fe11  1  0.500000  0.881772  0.708420  1
  Fe  Fe12  1  0.500000  0.118228  0.708420  1
  Fe  Fe13  1  0.500000  0.328773  0.994773  1
  Fe  Fe14  1  0.500000  0.671227  0.994773  1
  Fe  Fe15  1  0.000000  0.000000  0.845785  1
  Co  Co16  1  0.000000  0.201050  0.570790  1
  Co  Co17  1  0.000000  0.798950  0.570790  1
  Co  Co18  1  0.000000  0.619921  0.290010  1
  Co  Co19  1  0.000000  0.380079  0.290010  1
  Co  Co20  1  0.000000  0.166353  0.005844  1
  Co  Co21  1  0.000000  0.833647  0.005844  1
  Co  Co22  1  0.500000  0.500000  0.699455  1
  Co  Co23  1  0.000000  0.000000  0.300110  1
  P  P24  1  0.500000  0.307632  0.616665  1
  P  P25  1  0.500000  0.692368  0.616665  1
  P  P26  1  0.000000  0.193223  0.385015  1
  P  P27  1  0.000000  0.806777  0.385015  1
  P  P28  1  0.500000  0.500000  0.885119  1
  P  P29  1  0.000000  0.000000  0.115654  1
  P  P30  1  0.500000  0.849006  0.890797  1
  P  P31  1  0.500000  0.150994  0.890797  1
  P  P32  1  0.000000  0.654157  0.104367  1
  P  P33  1  0.000000  0.345843  0.104367  1
  P  P34  1  0.500000  0.500000  0.345556  1
  P  P35  1  0.000000  0.000000  0.660579  1
