# generated using pymatgen
data_TbYTm2Ni2C5
_symmetry_space_group_name_H-M   'P 1'
_cell_length_a   3.60909100
_cell_length_b   3.67699800
_cell_length_c   11.58809900
_cell_angle_alpha   90.00000000
_cell_angle_beta   90.00000000
_cell_angle_gamma   90.00000000
_symmetry_Int_Tables_number   1
_chemical_formula_structural   TbYTm2Ni2C5
_chemical_formula_sum   'Tb1 Y1 Tm2 Ni2 C5'
_cell_volume   153.78126286
_cell_formula_units_Z   1
loop_
 _symmetry_equiv_pos_site_id
 _symmetry_equiv_pos_as_xyz
  1  'x, y, z'
loop_
 _atom_site_type_symbol
 _atom_site_label
 _atom_site_symmetry_multiplicity
 _atom_site_fract_x
 _atom_site_fract_y
 _atom_site_fract_z
 _atom_site_occupancy
  Tb  Tb0  1  0.500000  0.208631  0.500000  1
  Y  Y1  1  0.000000  0.998255  0.000000  1
  Tm  Tm2  1  0.500000  0.501617  0.202183  1
  Tm  Tm3  1  0.500000  0.501617  0.797817  1
  Ni  Ni4  1  0.000000  0.698953  0.381825  1
  Ni  Ni5  1  0.000000  0.698953  0.618175  1
  C  C6  1  0.000000  0.999770  0.228223  1
  C  C7  1  0.000000  0.999770  0.771777  1
  C  C8  1  0.000000  0.199911  0.330166  1
  C  C9  1  0.000000  0.199911  0.669834  1
  C  C10  1  0.500000  0.494112  0.000000  1
