# generated using pymatgen
data_NdTh13Au20
_symmetry_space_group_name_H-M   'P 1'
_cell_length_a   9.05352191
_cell_length_b   9.05352211
_cell_length_c   10.72081542
_cell_angle_alpha   89.98140702
_cell_angle_beta   89.98141015
_cell_angle_gamma   107.33179459
_symmetry_Int_Tables_number   1
_chemical_formula_structural   NdTh13Au20
_chemical_formula_sum   'Nd1 Th13 Au20'
_cell_volume   838.84615926
_cell_formula_units_Z   1
loop_
 _symmetry_equiv_pos_site_id
 _symmetry_equiv_pos_as_xyz
  1  'x, y, z'
loop_
 _atom_site_type_symbol
 _atom_site_label
 _atom_site_symmetry_multiplicity
 _atom_site_fract_x
 _atom_site_fract_y
 _atom_site_fract_z
 _atom_site_occupancy
  Nd  Nd0  1  0.806538  0.806538  0.306211  1
  Th  Th1  1  0.690791  0.310285  0.000040  1
  Th  Th2  1  0.310285  0.690791  0.000040  1
  Th  Th3  1  0.810002  0.188140  0.499253  1
  Th  Th4  1  0.188140  0.810002  0.499253  1
  Th  Th5  1  0.999223  0.999223  0.000639  1
  Th  Th6  1  0.500859  0.500859  0.500037  1
  Th  Th7  1  0.003689  0.501634  0.250372  1
  Th  Th8  1  0.997385  0.497429  0.750292  1
  Th  Th9  1  0.497429  0.997385  0.750292  1
  Th  Th10  1  0.501634  0.003689  0.250372  1
  Th  Th11  1  0.308824  0.308824  0.192127  1
  Th  Th12  1  0.692828  0.692828  0.807412  1
  Th  Th13  1  0.191829  0.191829  0.692058  1
  Au  Au14  1  0.855246  0.151399  0.206084  1
  Au  Au15  1  0.144362  0.849623  0.793982  1
  Au  Au16  1  0.644374  0.349815  0.706085  1
  Au  Au17  1  0.650392  0.356035  0.293548  1
  Au  Au18  1  0.356035  0.650392  0.293548  1
  Au  Au19  1  0.349815  0.644374  0.706085  1
  Au  Au20  1  0.849623  0.144362  0.793982  1
  Au  Au21  1  0.151399  0.855246  0.206084  1
  Au  Au22  1  0.937976  0.645384  0.002805  1
  Au  Au23  1  0.062435  0.353580  0.997517  1
  Au  Au24  1  0.560858  0.854929  0.502452  1
  Au  Au25  1  0.145954  0.438049  0.498651  1
  Au  Au26  1  0.438049  0.145954  0.498651  1
  Au  Au27  1  0.854929  0.560858  0.502452  1
  Au  Au28  1  0.353580  0.062435  0.997517  1
  Au  Au29  1  0.645384  0.937976  0.002805  1
  Au  Au30  1  0.101869  0.101869  0.400713  1
  Au  Au31  1  0.901566  0.901566  0.602292  1
  Au  Au32  1  0.399339  0.399339  0.898185  1
  Au  Au33  1  0.597360  0.597360  0.098160  1
