# generated using pymatgen
data_La10Bi6RhSe
_symmetry_space_group_name_H-M   'P 1'
_cell_length_a   9.80876300
_cell_length_b   9.80876194
_cell_length_c   6.88138500
_cell_angle_alpha   90.00000000
_cell_angle_beta   90.00000000
_cell_angle_gamma   120.00000021
_symmetry_Int_Tables_number   1
_chemical_formula_structural   La10Bi6RhSe
_chemical_formula_sum   'La10 Bi6 Rh1 Se1'
_cell_volume   573.36994280
_cell_formula_units_Z   1
loop_
 _symmetry_equiv_pos_site_id
 _symmetry_equiv_pos_as_xyz
  1  'x, y, z'
loop_
 _atom_site_type_symbol
 _atom_site_label
 _atom_site_symmetry_multiplicity
 _atom_site_fract_x
 _atom_site_fract_y
 _atom_site_fract_z
 _atom_site_occupancy
  La  La0  1  0.666667  0.333333  0.000000  1
  La  La1  1  0.333333  0.666667  0.000000  1
  La  La2  1  0.333333  0.666667  0.500000  1
  La  La3  1  0.666667  0.333333  0.500000  1
  La  La4  1  0.752723  0.752723  0.739459  1
  La  La5  1  0.247277  0.000000  0.739459  1
  La  La6  1  0.000000  0.247277  0.739459  1
  La  La7  1  0.247277  0.247277  0.260541  1
  La  La8  1  0.752723  0.000000  0.260541  1
  La  La9  1  0.000000  0.752723  0.260541  1
  Bi  Bi10  1  0.392193  0.392193  0.750243  1
  Bi  Bi11  1  0.607807  0.000000  0.750243  1
  Bi  Bi12  1  0.000000  0.607807  0.750243  1
  Bi  Bi13  1  0.607807  0.607807  0.249757  1
  Bi  Bi14  1  0.392193  0.000000  0.249757  1
  Bi  Bi15  1  0.000000  0.392193  0.249757  1
  Rh  Rh16  1  0.000000  0.000000  0.500000  1
  Se  Se17  1  0.000000  0.000000  0.000000  1
