# generated using pymatgen
data_Ho7PS7
_symmetry_space_group_name_H-M   'P 1'
_cell_length_a   7.83191889
_cell_length_b   7.83279313
_cell_length_c   7.83192000
_cell_angle_alpha   120.01209130
_cell_angle_beta   89.97261742
_cell_angle_gamma   120.01214153
_symmetry_Int_Tables_number   1
_chemical_formula_structural   Ho7PS7
_chemical_formula_sum   'Ho7 P1 S7'
_cell_volume   339.68998155
_cell_formula_units_Z   1
loop_
 _symmetry_equiv_pos_site_id
 _symmetry_equiv_pos_as_xyz
  1  'x, y, z'
loop_
 _atom_site_type_symbol
 _atom_site_label
 _atom_site_symmetry_multiplicity
 _atom_site_fract_x
 _atom_site_fract_y
 _atom_site_fract_z
 _atom_site_occupancy
  Ho  Ho0  1  0.246769  0.000000  0.246769  1
  Ho  Ho1  1  0.246785  0.493574  0.246788  1
  Ho  Ho2  1  0.753176  0.999998  0.246820  1
  Ho  Ho3  1  0.250006  0.500001  0.750007  1
  Ho  Ho4  1  0.246823  0.000002  0.753178  1
  Ho  Ho5  1  0.753232  0.000000  0.753232  1
  Ho  Ho6  1  0.753214  0.506425  0.753210  1
  P  P7  1  0.999995  0.000000  0.999995  1
  S  S8  1  0.500004  0.000000  0.500004  1
  S  S9  1  0.001491  0.002953  0.501463  1
  S  S10  1  0.001480  0.500001  0.501482  1
  S  S11  1  0.498514  0.499977  0.501464  1
  S  S12  1  0.001488  0.500025  0.998536  1
  S  S13  1  0.498519  0.500001  0.998520  1
  S  S14  1  0.498508  0.997046  0.998539  1
