# generated using pymatgen
data_Ho7LuSc11Si16W
_symmetry_space_group_name_H-M   'P 1'
_cell_length_a   7.01792447
_cell_length_b   7.33456952
_cell_length_c   13.86351016
_cell_angle_alpha   89.95248595
_cell_angle_beta   89.98844075
_cell_angle_gamma   90.17924047
_symmetry_Int_Tables_number   1
_chemical_formula_structural   Ho7LuSc11Si16W
_chemical_formula_sum   'Ho7 Lu1 Sc11 Si16 W1'
_cell_volume   713.59901299
_cell_formula_units_Z   1
loop_
 _symmetry_equiv_pos_site_id
 _symmetry_equiv_pos_as_xyz
  1  'x, y, z'
loop_
 _atom_site_type_symbol
 _atom_site_label
 _atom_site_symmetry_multiplicity
 _atom_site_fract_x
 _atom_site_fract_y
 _atom_site_fract_z
 _atom_site_occupancy
  Ho  Ho0  1  0.992144  0.819591  0.901591  1
  Ho  Ho1  1  0.486175  0.673362  0.902083  1
  Ho  Ho2  1  0.992298  0.819689  0.598990  1
  Ho  Ho3  1  0.511365  0.323238  0.095496  1
  Ho  Ho4  1  0.012287  0.176987  0.406184  1
  Ho  Ho5  1  0.511424  0.323250  0.403970  1
  Ho  Ho6  1  0.486328  0.673574  0.598502  1
  Lu  Lu7  1  0.012457  0.178501  0.094739  1
  Sc  Sc8  1  0.841598  0.495967  0.249607  1
  Sc  Sc9  1  0.342262  0.004031  0.249572  1
  Sc  Sc10  1  0.657622  0.994869  0.750145  1
  Sc  Sc11  1  0.327272  0.178383  0.627564  1
  Sc  Sc12  1  0.671482  0.823650  0.373993  1
  Sc  Sc13  1  0.172351  0.673724  0.375973  1
  Sc  Sc14  1  0.671475  0.824032  0.125273  1
  Sc  Sc15  1  0.828039  0.330161  0.628301  1
  Sc  Sc16  1  0.326538  0.178379  0.872666  1
  Sc  Sc17  1  0.828600  0.329214  0.871976  1
  Sc  Sc18  1  0.172613  0.674302  0.123491  1
  Si  Si19  1  0.030344  0.122609  0.750041  1
  Si  Si20  1  0.972405  0.886751  0.249473  1
  Si  Si21  1  0.469041  0.615137  0.249707  1
  Si  Si22  1  0.520983  0.394441  0.750248  1
  Si  Si23  1  0.283035  0.859895  0.750191  1
  Si  Si24  1  0.718293  0.129795  0.249151  1
  Si  Si25  1  0.213770  0.369758  0.249316  1
  Si  Si26  1  0.794398  0.628561  0.750310  1
  Si  Si27  1  0.155154  0.467022  0.548125  1
  Si  Si28  1  0.842829  0.535253  0.462509  1
  Si  Si29  1  0.345340  0.964708  0.462433  1
  Si  Si30  1  0.843420  0.533800  0.037909  1
  Si  Si31  1  0.658053  0.034737  0.539374  1
  Si  Si32  1  0.155258  0.465953  0.952460  1
  Si  Si33  1  0.657895  0.034726  0.960629  1
  Si  Si34  1  0.343437  0.966076  0.037772  1
  W  W35  1  0.152016  0.495873  0.750235  1
