# generated using pymatgen
data_La5Yb(Pr7Ir6)2
_symmetry_space_group_name_H-M   'P 1'
_cell_length_a   11.37146385
_cell_length_b   11.39334774
_cell_length_c   6.58600498
_cell_angle_alpha   89.91470985
_cell_angle_beta   89.97549837
_cell_angle_gamma   89.93936480
_symmetry_Int_Tables_number   1
_chemical_formula_structural   La5Yb(Pr7Ir6)2
_chemical_formula_sum   'La5 Yb1 Pr14 Ir12'
_cell_volume   853.27499493
_cell_formula_units_Z   1
loop_
 _symmetry_equiv_pos_site_id
 _symmetry_equiv_pos_as_xyz
  1  'x, y, z'
loop_
 _atom_site_type_symbol
 _atom_site_label
 _atom_site_symmetry_multiplicity
 _atom_site_fract_x
 _atom_site_fract_y
 _atom_site_fract_z
 _atom_site_occupancy
  La  La0  1  0.287253  0.089374  0.386577  1
  La  La1  1  0.290130  0.909595  0.886150  1
  La  La2  1  0.709687  0.091281  0.886067  1
  La  La3  1  0.713349  0.911163  0.386959  1
  La  La4  1  0.591088  0.789961  0.884467  1
  Yb  Yb5  1  0.999949  0.000020  0.500114  1
  Pr  Pr6  1  0.589059  0.209346  0.382296  1
  Pr  Pr7  1  0.410438  0.790374  0.382168  1
  Pr  Pr8  1  0.409397  0.210498  0.882991  1
  Pr  Pr9  1  0.208002  0.411647  0.617413  1
  Pr  Pr10  1  0.208646  0.589606  0.116845  1
  Pr  Pr11  1  0.791416  0.410073  0.116514  1
  Pr  Pr12  1  0.792355  0.587798  0.616727  1
  Pr  Pr13  1  0.910951  0.708829  0.115392  1
  Pr  Pr14  1  0.911816  0.287648  0.614562  1
  Pr  Pr15  1  0.088165  0.712248  0.614493  1
  Pr  Pr16  1  0.089287  0.291100  0.114887  1
  Pr  Pr17  1  0.999963  0.000254  0.999879  1
  Pr  Pr18  1  0.499706  0.499416  0.001217  1
  Pr  Pr19  1  0.500203  0.499843  0.500615  1
  Ir  Ir20  1  0.844620  0.154078  0.245848  1
  Ir  Ir21  1  0.844202  0.845736  0.750815  1
  Ir  Ir22  1  0.155520  0.154065  0.750118  1
  Ir  Ir23  1  0.155390  0.845941  0.245781  1
  Ir  Ir24  1  0.654622  0.345473  0.748853  1
  Ir  Ir25  1  0.653607  0.655817  0.250058  1
  Ir  Ir26  1  0.346015  0.344899  0.251687  1
  Ir  Ir27  1  0.345091  0.654545  0.748551  1
  Ir  Ir28  1  0.499880  0.000004  0.117024  1
  Ir  Ir29  1  0.500236  0.999213  0.617516  1
  Ir  Ir30  1  0.000143  0.500083  0.882852  1
  Ir  Ir31  1  0.999813  0.500074  0.384567  1
