# generated using pymatgen
data_TbDy2Y3(B7W)2
_symmetry_space_group_name_H-M   'P 1'
_cell_length_a   8.20414398
_cell_length_b   8.20414486
_cell_length_c   9.50943300
_cell_angle_alpha   90.04986888
_cell_angle_beta   89.95012980
_cell_angle_gamma   155.61828149
_symmetry_Int_Tables_number   1
_chemical_formula_structural   TbDy2Y3(B7W)2
_chemical_formula_sum   'Tb1 Dy2 Y3 B14 W2'
_cell_volume   264.22584039
_cell_formula_units_Z   1
loop_
 _symmetry_equiv_pos_site_id
 _symmetry_equiv_pos_as_xyz
  1  'x, y, z'
loop_
 _atom_site_type_symbol
 _atom_site_label
 _atom_site_symmetry_multiplicity
 _atom_site_fract_x
 _atom_site_fract_y
 _atom_site_fract_z
 _atom_site_occupancy
  Tb  Tb0  1  0.107344  0.892656  0.938921  1
  Dy  Dy1  1  0.107181  0.892819  0.560598  1
  Dy  Dy2  1  0.892839  0.107161  0.060620  1
  Y  Y3  1  0.892777  0.107223  0.439120  1
  Y  Y4  1  0.244869  0.755131  0.249917  1
  Y  Y5  1  0.755277  0.244723  0.749895  1
  B  B6  1  0.727523  0.272477  0.467147  1
  B  B7  1  0.272389  0.727611  0.532853  1
  B  B8  1  0.727778  0.272222  0.033084  1
  B  B9  1  0.272646  0.727354  0.967263  1
  B  B10  1  0.635018  0.364982  0.147248  1
  B  B11  1  0.365025  0.634975  0.853316  1
  B  B12  1  0.634971  0.365029  0.353128  1
  B  B13  1  0.365061  0.634939  0.646857  1
  B  B14  1  0.519740  0.480260  0.091800  1
  B  B15  1  0.479862  0.520138  0.908367  1
  B  B16  1  0.519967  0.480033  0.408547  1
  B  B17  1  0.480093  0.519907  0.591601  1
  B  B18  1  0.456097  0.543903  0.250010  1
  B  B19  1  0.543643  0.456357  0.749633  1
  W  W20  1  0.053349  0.946651  0.250104  1
  W  W21  1  0.946550  0.053450  0.749971  1
