# generated using pymatgen
data_CsRbNiAs2
_symmetry_space_group_name_H-M   'P 1'
_cell_length_a   7.96737254
_cell_length_b   7.96737304
_cell_length_c   6.12346700
_cell_angle_alpha   90.00000000
_cell_angle_beta   90.00000000
_cell_angle_gamma   125.77258595
_symmetry_Int_Tables_number   1
_chemical_formula_structural   CsRbNiAs2
_chemical_formula_sum   'Cs2 Rb2 Ni2 As4'
_cell_volume   315.37878620
_cell_formula_units_Z   2
loop_
 _symmetry_equiv_pos_site_id
 _symmetry_equiv_pos_as_xyz
  1  'x, y, z'
loop_
 _atom_site_type_symbol
 _atom_site_label
 _atom_site_symmetry_multiplicity
 _atom_site_fract_x
 _atom_site_fract_y
 _atom_site_fract_z
 _atom_site_occupancy
  Cs  Cs0  1  0.402377  0.597623  0.250000  1
  Cs  Cs1  1  0.597623  0.402377  0.750000  1
  Rb  Rb2  1  0.792401  0.207599  0.250000  1
  Rb  Rb3  1  0.207599  0.792401  0.750000  1
  Ni  Ni4  1  0.000000  0.000000  0.000000  1
  Ni  Ni5  1  0.000000  0.000000  0.500000  1
  As  As6  1  0.926358  0.736806  0.250000  1
  As  As7  1  0.073642  0.263194  0.750000  1
  As  As8  1  0.263194  0.073642  0.250000  1
  As  As9  1  0.736806  0.926358  0.750000  1
