# generated using pymatgen
data_ScPaCoB6
_symmetry_space_group_name_H-M   'P 1'
_cell_length_a   3.49092400
_cell_length_b   8.97028300
_cell_length_c   11.34065800
_cell_angle_alpha   90.00000000
_cell_angle_beta   90.00000000
_cell_angle_gamma   90.00000000
_symmetry_Int_Tables_number   1
_chemical_formula_structural   ScPaCoB6
_chemical_formula_sum   'Sc4 Pa4 Co4 B24'
_cell_volume   355.12789923
_cell_formula_units_Z   4
loop_
 _symmetry_equiv_pos_site_id
 _symmetry_equiv_pos_as_xyz
  1  'x, y, z'
loop_
 _atom_site_type_symbol
 _atom_site_label
 _atom_site_symmetry_multiplicity
 _atom_site_fract_x
 _atom_site_fract_y
 _atom_site_fract_z
 _atom_site_occupancy
  Sc  Sc0  1  0.000000  0.944816  0.372004  1
  Sc  Sc1  1  0.000000  0.055184  0.627996  1
  Sc  Sc2  1  0.000000  0.444816  0.127996  1
  Sc  Sc3  1  0.000000  0.555184  0.872004  1
  Pa  Pa4  1  0.000000  0.323984  0.414534  1
  Pa  Pa5  1  0.000000  0.676016  0.585466  1
  Pa  Pa6  1  0.000000  0.823984  0.085466  1
  Pa  Pa7  1  0.000000  0.176016  0.914534  1
  Co  Co8  1  0.000000  0.643450  0.317174  1
  Co  Co9  1  0.000000  0.356550  0.682826  1
  Co  Co10  1  0.000000  0.143450  0.182826  1
  Co  Co11  1  0.000000  0.856550  0.817174  1
  B  B12  1  0.500000  0.553385  0.432725  1
  B  B13  1  0.500000  0.446615  0.567275  1
  B  B14  1  0.500000  0.053385  0.067275  1
  B  B15  1  0.500000  0.946615  0.932725  1
  B  B16  1  0.500000  0.752187  0.417899  1
  B  B17  1  0.500000  0.247813  0.582101  1
  B  B18  1  0.500000  0.252187  0.082101  1
  B  B19  1  0.500000  0.747813  0.917899  1
  B  B20  1  0.500000  0.795352  0.265709  1
  B  B21  1  0.500000  0.204648  0.734291  1
  B  B22  1  0.500000  0.295352  0.234291  1
  B  B23  1  0.500000  0.704648  0.765709  1
  B  B24  1  0.500000  0.631439  0.182894  1
  B  B25  1  0.500000  0.368561  0.817106  1
  B  B26  1  0.500000  0.131439  0.317106  1
  B  B27  1  0.500000  0.868561  0.682894  1
  B  B28  1  0.500000  0.983860  0.214538  1
  B  B29  1  0.500000  0.016140  0.785462  1
  B  B30  1  0.500000  0.483860  0.285462  1
  B  B31  1  0.500000  0.516140  0.714538  1
  B  B32  1  0.500000  0.600292  0.026937  1
  B  B33  1  0.500000  0.399708  0.973063  1
  B  B34  1  0.500000  0.100292  0.473063  1
  B  B35  1  0.500000  0.899708  0.526937  1
