# generated using pymatgen
data_Pr4Al5Ga19Cu2
_symmetry_space_group_name_H-M   'P 1'
_cell_length_a   6.14819764
_cell_length_b   6.14819739
_cell_length_c   15.49801107
_cell_angle_alpha   89.98744753
_cell_angle_beta   89.98744878
_cell_angle_gamma   90.35780691
_symmetry_Int_Tables_number   1
_chemical_formula_structural   Pr4Al5Ga19Cu2
_chemical_formula_sum   'Pr4 Al5 Ga19 Cu2'
_cell_volume   585.81852265
_cell_formula_units_Z   1
loop_
 _symmetry_equiv_pos_site_id
 _symmetry_equiv_pos_as_xyz
  1  'x, y, z'
loop_
 _atom_site_type_symbol
 _atom_site_label
 _atom_site_symmetry_multiplicity
 _atom_site_fract_x
 _atom_site_fract_y
 _atom_site_fract_z
 _atom_site_occupancy
  Pr  Pr0  1  0.749642  0.249642  0.248490  1
  Pr  Pr1  1  0.250173  0.750173  0.248675  1
  Pr  Pr2  1  0.250295  0.750295  0.750852  1
  Pr  Pr3  1  0.749908  0.249908  0.750760  1
  Al  Al4  1  0.500272  0.000272  0.914196  1
  Al  Al5  1  0.000020  0.000016  0.915677  1
  Al  Al6  1  0.500016  0.500020  0.915677  1
  Al  Al7  1  0.000372  0.500372  0.915618  1
  Al  Al8  1  0.500265  0.000265  0.085042  1
  Ga  Ga9  1  0.251338  0.248332  0.182174  1
  Ga  Ga10  1  0.748332  0.751338  0.182174  1
  Ga  Ga11  1  0.750190  0.749590  0.818365  1
  Ga  Ga12  1  0.249590  0.250190  0.818365  1
  Ga  Ga13  1  0.249829  0.250001  0.342732  1
  Ga  Ga14  1  0.750001  0.749829  0.342732  1
  Ga  Ga15  1  0.749738  0.750106  0.657164  1
  Ga  Ga16  1  0.250106  0.249738  0.657164  1
  Ga  Ga17  1  0.999654  0.000143  0.085894  1
  Ga  Ga18  1  0.500143  0.499654  0.085894  1
  Ga  Ga19  1  0.000419  0.500419  0.086358  1
  Ga  Ga20  1  0.579165  0.079165  0.430077  1
  Ga  Ga21  1  0.080172  0.919304  0.430598  1
  Ga  Ga22  1  0.419304  0.580172  0.430598  1
  Ga  Ga23  1  0.919530  0.419530  0.430338  1
  Ga  Ga24  1  0.423269  0.923269  0.569305  1
  Ga  Ga25  1  0.923105  0.077055  0.568982  1
  Ga  Ga26  1  0.577055  0.423105  0.568982  1
  Ga  Ga27  1  0.076635  0.576635  0.569278  1
  Cu  Cu28  1  0.750168  0.250168  0.998808  1
  Cu  Cu29  1  0.251296  0.751296  0.999030  1
