# generated using pymatgen
data_TbDy3BCl6
_symmetry_space_group_name_H-M   'P 1'
_cell_length_a   3.87063900
_cell_length_b   12.66898737
_cell_length_c   13.13984842
_cell_angle_alpha   90.05329347
_cell_angle_beta   90.00000000
_cell_angle_gamma   90.00000000
_symmetry_Int_Tables_number   1
_chemical_formula_structural   TbDy3BCl6
_chemical_formula_sum   'Tb2 Dy6 B2 Cl12'
_cell_volume   644.33947487
_cell_formula_units_Z   2
loop_
 _symmetry_equiv_pos_site_id
 _symmetry_equiv_pos_as_xyz
  1  'x, y, z'
loop_
 _atom_site_type_symbol
 _atom_site_label
 _atom_site_symmetry_multiplicity
 _atom_site_fract_x
 _atom_site_fract_y
 _atom_site_fract_z
 _atom_site_occupancy
  Tb  Tb0  1  0.500000  0.126715  0.850909  1
  Tb  Tb1  1  0.500000  0.873285  0.149091  1
  Dy  Dy2  1  0.000000  0.106420  0.084293  1
  Dy  Dy3  1  0.000000  0.893580  0.915707  1
  Dy  Dy4  1  0.000000  0.606420  0.415721  1
  Dy  Dy5  1  0.000000  0.393580  0.584279  1
  Dy  Dy6  1  0.500000  0.626477  0.648809  1
  Dy  Dy7  1  0.500000  0.373523  0.351191  1
  B  B8  1  0.500000  0.000000  0.000000  1
  B  B9  1  0.500000  0.500000  0.500000  1
  Cl  Cl10  1  0.500000  0.268225  0.682125  1
  Cl  Cl11  1  0.500000  0.731775  0.317875  1
  Cl  Cl12  1  0.500000  0.767852  0.817443  1
  Cl  Cl13  1  0.500000  0.232148  0.182557  1
  Cl  Cl14  1  0.000000  0.256740  0.929921  1
  Cl  Cl15  1  0.000000  0.743260  0.070079  1
  Cl  Cl16  1  0.000000  0.478270  0.243811  1
  Cl  Cl17  1  0.000000  0.521730  0.756189  1
  Cl  Cl18  1  0.000000  0.978841  0.256583  1
  Cl  Cl19  1  0.000000  0.021159  0.743417  1
  Cl  Cl20  1  0.000000  0.243774  0.429457  1
  Cl  Cl21  1  0.000000  0.756226  0.570543  1
