# generated using pymatgen
data_Ta6Mn3Os3C2
_symmetry_space_group_name_H-M   'P 1'
_cell_length_a   8.22531470
_cell_length_b   8.22531373
_cell_length_c   8.22531416
_cell_angle_alpha   119.94209152
_cell_angle_beta   120.02187784
_cell_angle_gamma   90.03121876
_symmetry_Int_Tables_number   1
_chemical_formula_structural   Ta6Mn3Os3C2
_chemical_formula_sum   'Ta12 Mn6 Os6 C4'
_cell_volume   393.60481876
_cell_formula_units_Z   2
loop_
 _symmetry_equiv_pos_site_id
 _symmetry_equiv_pos_as_xyz
  1  'x, y, z'
loop_
 _atom_site_type_symbol
 _atom_site_label
 _atom_site_symmetry_multiplicity
 _atom_site_fract_x
 _atom_site_fract_y
 _atom_site_fract_z
 _atom_site_occupancy
  Ta  Ta0  1  0.179199  0.179199  0.000000  1
  Ta  Ta1  1  0.567820  0.567820  0.000000  1
  Ta  Ta2  1  0.180760  0.568236  0.000888  1
  Ta  Ta3  1  0.567348  0.179872  0.999112  1
  Ta  Ta4  1  0.180760  0.179872  0.612524  1
  Ta  Ta5  1  0.567348  0.568236  0.387476  1
  Ta  Ta6  1  0.318247  0.818247  0.500000  1
  Ta  Ta7  1  0.933704  0.433704  0.500000  1
  Ta  Ta8  1  0.314355  0.429373  0.498031  1
  Ta  Ta9  1  0.931342  0.816323  0.501969  1
  Ta  Ta10  1  0.314355  0.816323  0.884981  1
  Ta  Ta11  1  0.931342  0.429373  0.115019  1
  Mn  Mn12  1  0.756775  0.008025  0.251251  1
  Mn  Mn13  1  0.756775  0.505524  0.748749  1
  Mn  Mn14  1  0.761869  0.000905  0.760964  1
  Mn  Mn15  1  0.239941  0.000905  0.239036  1
  Mn  Mn16  1  0.956660  0.796569  0.839908  1
  Mn  Mn17  1  0.956660  0.116753  0.160092  1
  Os  Os18  1  0.958115  0.795651  0.162465  1
  Os  Os19  1  0.633184  0.795651  0.837535  1
  Os  Os20  1  0.542910  0.205968  0.663059  1
  Os  Os21  1  0.542910  0.879851  0.336941  1
  Os  Os22  1  0.542465  0.206139  0.336327  1
  Os  Os23  1  0.869811  0.206139  0.663673  1
  C  C24  1  0.248769  0.498506  0.249737  1
  C  C25  1  0.248769  0.999032  0.750263  1
  C  C26  1  0.249149  0.498903  0.750246  1
  C  C27  1  0.748657  0.498903  0.249754  1
