# generated using pymatgen
data_Sr4TaCr2SbO12
_symmetry_space_group_name_H-M   'P 1'
_cell_length_a   5.67220004
_cell_length_b   5.63346400
_cell_length_c   7.94597114
_cell_angle_alpha   90.00000000
_cell_angle_beta   90.01751021
_cell_angle_gamma   90.00000000
_symmetry_Int_Tables_number   1
_chemical_formula_structural   Sr4TaCr2SbO12
_chemical_formula_sum   'Sr4 Ta1 Cr2 Sb1 O12'
_cell_volume   253.90662046
_cell_formula_units_Z   1
loop_
 _symmetry_equiv_pos_site_id
 _symmetry_equiv_pos_as_xyz
  1  'x, y, z'
loop_
 _atom_site_type_symbol
 _atom_site_label
 _atom_site_symmetry_multiplicity
 _atom_site_fract_x
 _atom_site_fract_y
 _atom_site_fract_z
 _atom_site_occupancy
  Sr  Sr0  1  0.494095  0.000000  0.249415  1
  Sr  Sr1  1  0.002237  0.500000  0.248551  1
  Sr  Sr2  1  0.997762  0.500000  0.751448  1
  Sr  Sr3  1  0.505905  0.000000  0.750585  1
  Ta  Ta4  1  0.500000  0.500000  0.000000  1
  Cr  Cr5  1  0.000000  0.000000  0.000000  1
  Cr  Cr6  1  0.500000  0.500000  0.500000  1
  Sb  Sb7  1  0.000000  0.000000  0.500000  1
  O  O8  1  0.251482  0.251108  0.027082  1
  O  O9  1  0.251482  0.748892  0.027082  1
  O  O10  1  0.552315  0.500000  0.248801  1
  O  O11  1  0.937414  0.000000  0.252443  1
  O  O12  1  0.247199  0.248639  0.465859  1
  O  O13  1  0.247199  0.751361  0.465859  1
  O  O14  1  0.752802  0.248639  0.534142  1
  O  O15  1  0.752802  0.751361  0.534142  1
  O  O16  1  0.062585  0.000000  0.747556  1
  O  O17  1  0.447686  0.500000  0.751199  1
  O  O18  1  0.748518  0.251108  0.972918  1
  O  O19  1  0.748518  0.748892  0.972918  1
