# generated using pymatgen
data_DyHo4ReRuO12
_symmetry_space_group_name_H-M   'P 1'
_cell_length_a   6.83180416
_cell_length_b   6.83104386
_cell_length_c   7.49164039
_cell_angle_alpha   73.76825446
_cell_angle_beta   73.77711219
_cell_angle_gamma   48.95946131
_symmetry_Int_Tables_number   1
_chemical_formula_structural   DyHo4ReRuO12
_chemical_formula_sum   'Dy1 Ho4 Re1 Ru1 O12'
_cell_volume   250.96257532
_cell_formula_units_Z   1
loop_
 _symmetry_equiv_pos_site_id
 _symmetry_equiv_pos_as_xyz
  1  'x, y, z'
loop_
 _atom_site_type_symbol
 _atom_site_label
 _atom_site_symmetry_multiplicity
 _atom_site_fract_x
 _atom_site_fract_y
 _atom_site_fract_z
 _atom_site_occupancy
  Dy  Dy0  1  0.309514  0.319201  0.825890  1
  Ho  Ho1  1  0.680713  0.690502  0.174449  1
  Ho  Ho2  1  0.990407  0.009702  0.499807  1
  Ho  Ho3  1  0.682518  0.712516  0.641659  1
  Ho  Ho4  1  0.287369  0.317691  0.357729  1
  Re  Re5  1  0.797387  0.202680  0.000121  1
  Ru  Ru6  1  0.231817  0.768174  0.000155  1
  O  O7  1  0.513249  0.485375  0.176797  1
  O  O8  1  0.514894  0.487012  0.823628  1
  O  O9  1  0.000674  0.003820  0.203269  1
  O  O10  1  0.996041  0.999468  0.796859  1
  O  O11  1  0.910641  0.406750  0.915166  1
  O  O12  1  0.593815  0.088712  0.085477  1
  O  O13  1  0.085716  0.565811  0.086898  1
  O  O14  1  0.590966  0.107950  0.567306  1
  O  O15  1  0.891515  0.409339  0.431720  1
  O  O16  1  0.399529  0.911978  0.423022  1
  O  O17  1  0.087536  0.600868  0.575806  1
  O  O18  1  0.435700  0.912448  0.914243  1
