# generated using pymatgen
data_Dy4HoTm3(WO6)4
_symmetry_space_group_name_H-M   'P 1'
_cell_length_a   5.38206316
_cell_length_b   7.68208918
_cell_length_c   11.40340604
_cell_angle_alpha   75.47205779
_cell_angle_beta   90.00233563
_cell_angle_gamma   90.02760178
_symmetry_Int_Tables_number   1
_chemical_formula_structural   Dy4HoTm3(WO6)4
_chemical_formula_sum   'Dy4 Ho1 Tm3 W4 O24'
_cell_volume   456.40399027
_cell_formula_units_Z   1
loop_
 _symmetry_equiv_pos_site_id
 _symmetry_equiv_pos_as_xyz
  1  'x, y, z'
loop_
 _atom_site_type_symbol
 _atom_site_label
 _atom_site_symmetry_multiplicity
 _atom_site_fract_x
 _atom_site_fract_y
 _atom_site_fract_z
 _atom_site_occupancy
  Dy  Dy0  1  0.741258  0.000300  0.750495  1
  Dy  Dy1  1  0.258826  0.000264  0.249604  1
  Dy  Dy2  1  0.683946  0.499586  0.750375  1
  Dy  Dy3  1  0.316249  0.499870  0.249935  1
  Ho  Ho4  1  0.183838  0.794632  0.578379  1
  Tm  Tm5  1  0.816296  0.794017  0.078790  1
  Tm  Tm6  1  0.183629  0.206017  0.921095  1
  Tm  Tm7  1  0.816068  0.206383  0.420948  1
  W  W8  1  0.255833  0.723293  0.886408  1
  W  W9  1  0.744563  0.723199  0.385558  1
  W  W10  1  0.255642  0.276426  0.613959  1
  W  W11  1  0.744418  0.276569  0.113963  1
  O  O12  1  0.046210  0.940866  0.896948  1
  O  O13  1  0.536632  0.844650  0.932936  1
  O  O14  1  0.953518  0.941207  0.396306  1
  O  O15  1  0.458385  0.790499  0.727462  1
  O  O16  1  0.465151  0.845448  0.431203  1
  O  O17  1  0.980843  0.711439  0.771720  1
  O  O18  1  0.543318  0.790656  0.226048  1
  O  O19  1  0.850421  0.633882  0.549259  1
  O  O20  1  0.358825  0.488470  0.886626  1
  O  O21  1  0.018975  0.711768  0.270664  1
  O  O22  1  0.360553  0.510420  0.613522  1
  O  O23  1  0.852905  0.364992  0.950576  1
  O  O24  1  0.147107  0.634815  0.049663  1
  O  O25  1  0.640638  0.488277  0.386280  1
  O  O26  1  0.981662  0.288586  0.729511  1
  O  O27  1  0.641088  0.511336  0.113398  1
  O  O28  1  0.147262  0.365233  0.450479  1
  O  O29  1  0.456623  0.208786  0.773773  1
  O  O30  1  0.018543  0.288234  0.229244  1
  O  O31  1  0.536179  0.155035  0.567542  1
  O  O32  1  0.543208  0.209127  0.273597  1
  O  O33  1  0.044098  0.060895  0.603174  1
  O  O34  1  0.463309  0.155591  0.067510  1
  O  O35  1  0.953979  0.059232  0.103051  1
