# generated using pymatgen
data_Hf3Ti2GaSiGe
_symmetry_space_group_name_H-M   'P 1'
_cell_length_a   7.82145060
_cell_length_b   7.82379415
_cell_length_c   5.36477500
_cell_angle_alpha   90.00000000
_cell_angle_beta   90.00000000
_cell_angle_gamma   120.08828890
_symmetry_Int_Tables_number   1
_chemical_formula_structural   Hf3Ti2GaSiGe
_chemical_formula_sum   'Hf6 Ti4 Ga2 Si2 Ge2'
_cell_volume   284.05327748
_cell_formula_units_Z   2
loop_
 _symmetry_equiv_pos_site_id
 _symmetry_equiv_pos_as_xyz
  1  'x, y, z'
loop_
 _atom_site_type_symbol
 _atom_site_label
 _atom_site_symmetry_multiplicity
 _atom_site_fract_x
 _atom_site_fract_y
 _atom_site_fract_z
 _atom_site_occupancy
  Hf  Hf0  1  0.246841  0.997965  0.250000  1
  Hf  Hf1  1  0.753159  0.002035  0.750000  1
  Hf  Hf2  1  0.001557  0.254496  0.250000  1
  Hf  Hf3  1  0.998443  0.745504  0.750000  1
  Hf  Hf4  1  0.758003  0.754373  0.250000  1
  Hf  Hf5  1  0.241997  0.245627  0.750000  1
  Ti  Ti6  1  0.326751  0.665252  0.999824  1
  Ti  Ti7  1  0.673249  0.334748  0.000176  1
  Ti  Ti8  1  0.673249  0.334748  0.499824  1
  Ti  Ti9  1  0.326751  0.665252  0.500176  1
  Ga  Ga10  1  0.401303  0.399953  0.250000  1
  Ga  Ga11  1  0.598697  0.600047  0.750000  1
  Si  Si12  1  0.999165  0.603785  0.250000  1
  Si  Si13  1  0.000835  0.396215  0.750000  1
  Ge  Ge14  1  0.603673  0.997517  0.250000  1
  Ge  Ge15  1  0.396327  0.002483  0.750000  1
