# generated using pymatgen
data_Zr2TiSi2Mo
_symmetry_space_group_name_H-M   'P 1'
_cell_length_a   3.60573000
_cell_length_b   6.93045400
_cell_length_c   8.32290400
_cell_angle_alpha   90.00000000
_cell_angle_beta   90.00000000
_cell_angle_gamma   90.00000000
_symmetry_Int_Tables_number   1
_chemical_formula_structural   Zr2TiSi2Mo
_chemical_formula_sum   'Zr4 Ti2 Si4 Mo2'
_cell_volume   207.98392696
_cell_formula_units_Z   2
loop_
 _symmetry_equiv_pos_site_id
 _symmetry_equiv_pos_as_xyz
  1  'x, y, z'
loop_
 _atom_site_type_symbol
 _atom_site_label
 _atom_site_symmetry_multiplicity
 _atom_site_fract_x
 _atom_site_fract_y
 _atom_site_fract_z
 _atom_site_occupancy
  Zr  Zr0  1  0.250000  0.049884  0.333904  1
  Zr  Zr1  1  0.250000  0.549884  0.166096  1
  Zr  Zr2  1  0.750000  0.956681  0.666380  1
  Zr  Zr3  1  0.750000  0.456681  0.833620  1
  Ti  Ti4  1  0.250000  0.124196  0.941376  1
  Ti  Ti5  1  0.250000  0.624196  0.558624  1
  Si  Si6  1  0.250000  0.254552  0.637522  1
  Si  Si7  1  0.250000  0.754552  0.862478  1
  Si  Si8  1  0.750000  0.745671  0.361428  1
  Si  Si9  1  0.750000  0.245671  0.138572  1
  Mo  Mo10  1  0.750000  0.869016  0.058859  1
  Mo  Mo11  1  0.750000  0.369016  0.441141  1
