# generated using pymatgen
data_Yb6DyHoBi6
_symmetry_space_group_name_H-M   'P 1'
_cell_length_a   8.17415827
_cell_length_b   8.36576017
_cell_length_c   8.36575905
_cell_angle_alpha   109.93051338
_cell_angle_beta   109.00792803
_cell_angle_gamma   109.00792306
_symmetry_Int_Tables_number   1
_chemical_formula_structural   Yb6DyHoBi6
_chemical_formula_sum   'Yb6 Dy1 Ho1 Bi6'
_cell_volume   442.87707454
_cell_formula_units_Z   1
loop_
 _symmetry_equiv_pos_site_id
 _symmetry_equiv_pos_as_xyz
  1  'x, y, z'
loop_
 _atom_site_type_symbol
 _atom_site_label
 _atom_site_symmetry_multiplicity
 _atom_site_fract_x
 _atom_site_fract_y
 _atom_site_fract_z
 _atom_site_occupancy
  Yb  Yb0  1  0.500979  0.999045  0.646674  1
  Yb  Yb1  1  0.354369  0.352363  0.353404  1
  Yb  Yb2  1  0.502005  0.001041  0.147637  1
  Yb  Yb3  1  0.001934  0.647629  0.500955  1
  Yb  Yb4  1  0.854306  0.853326  0.852371  1
  Yb  Yb5  1  0.000964  0.146596  0.498959  1
  Dy  Dy6  1  0.141534  0.500000  0.000000  1
  Ho  Ho7  1  0.641406  0.500000  0.000000  1
  Bi  Bi8  1  0.377020  0.622790  0.756464  1
  Bi  Bi9  1  0.876629  0.256314  0.122882  1
  Bi  Bi10  1  0.620557  0.743536  0.366325  1
  Bi  Bi11  1  0.120316  0.866568  0.243686  1
  Bi  Bi12  1  0.254231  0.133675  0.877210  1
  Bi  Bi13  1  0.753747  0.377118  0.633432  1
