# generated using pymatgen
data_Ti6Re5Ge6Ru
_symmetry_space_group_name_H-M   'P 1'
_cell_length_a   7.69258597
_cell_length_b   7.68083711
_cell_length_c   7.69058280
_cell_angle_alpha   126.32309368
_cell_angle_beta   129.37218063
_cell_angle_gamma   76.91992020
_symmetry_Int_Tables_number   1
_chemical_formula_structural   Ti6Re5Ge6Ru
_chemical_formula_sum   'Ti6 Re5 Ge6 Ru1'
_cell_volume   274.74860167
_cell_formula_units_Z   1
loop_
 _symmetry_equiv_pos_site_id
 _symmetry_equiv_pos_as_xyz
  1  'x, y, z'
loop_
 _atom_site_type_symbol
 _atom_site_label
 _atom_site_symmetry_multiplicity
 _atom_site_fract_x
 _atom_site_fract_y
 _atom_site_fract_z
 _atom_site_occupancy
  Ti  Ti0  1  0.549725  0.086840  0.039373  1
  Ti  Ti1  1  0.449180  0.496729  0.552572  1
  Ti  Ti2  1  0.944103  0.496701  0.047242  1
  Ti  Ti3  1  0.047181  0.086836  0.536964  1
  Ti  Ti4  1  0.756145  0.907136  0.655708  1
  Ti  Ti5  1  0.251227  0.907136  0.150988  1
  Re  Re6  1  0.500362  0.232764  0.732472  1
  Re  Re7  1  0.001506  0.233644  0.232344  1
  Re  Re8  1  0.132972  0.760613  0.628225  1
  Re  Re9  1  0.866868  0.496340  0.629325  1
  Re  Re10  1  0.632615  0.759924  0.127769  1
  Ge  Ge11  1  0.745865  0.496700  0.248681  1
  Ge  Ge12  1  0.247990  0.496935  0.751254  1
  Ge  Ge13  1  0.334133  0.825273  0.491140  1
  Ge  Ge14  1  0.667949  0.164654  0.496365  1
  Ge  Ge15  1  0.834257  0.828428  0.993820  1
  Ge  Ge16  1  0.170381  0.168671  0.998259  1
  Ru  Ru17  1  0.367541  0.496677  0.129501  1
