# generated using pymatgen
data_Ba3AcIr2O9
_symmetry_space_group_name_H-M   'P 1'
_cell_length_a   6.05613890
_cell_length_b   6.05613769
_cell_length_c   15.38778574
_cell_angle_alpha   88.81363010
_cell_angle_beta   88.81363323
_cell_angle_gamma   119.39734744
_symmetry_Int_Tables_number   1
_chemical_formula_structural   Ba3AcIr2O9
_chemical_formula_sum   'Ba6 Ac2 Ir4 O18'
_cell_volume   491.28986660
_cell_formula_units_Z   2
loop_
 _symmetry_equiv_pos_site_id
 _symmetry_equiv_pos_as_xyz
  1  'x, y, z'
loop_
 _atom_site_type_symbol
 _atom_site_label
 _atom_site_symmetry_multiplicity
 _atom_site_fract_x
 _atom_site_fract_y
 _atom_site_fract_z
 _atom_site_occupancy
  Ba  Ba0  1  0.991634  0.008366  0.250000  1
  Ba  Ba1  1  0.008366  0.991634  0.750000  1
  Ba  Ba2  1  0.327195  0.656997  0.102649  1
  Ba  Ba3  1  0.343003  0.672805  0.397351  1
  Ba  Ba4  1  0.672805  0.343003  0.897351  1
  Ba  Ba5  1  0.656997  0.327195  0.602649  1
  Ac  Ac6  1  0.000000  0.000000  0.000000  1
  Ac  Ac7  1  0.000000  0.000000  0.500000  1
  Ir  Ir8  1  0.356272  0.685023  0.831545  1
  Ir  Ir9  1  0.314977  0.643728  0.668455  1
  Ir  Ir10  1  0.643728  0.314977  0.168455  1
  Ir  Ir11  1  0.685023  0.356272  0.331545  1
  O  O12  1  0.506588  0.493412  0.250000  1
  O  O13  1  0.493412  0.506588  0.750000  1
  O  O14  1  0.779977  0.136246  0.098084  1
  O  O15  1  0.863754  0.220023  0.401916  1
  O  O16  1  0.220023  0.863754  0.901916  1
  O  O17  1  0.136246  0.779977  0.598084  1
  O  O18  1  0.972267  0.495748  0.236607  1
  O  O19  1  0.504252  0.027733  0.263393  1
  O  O20  1  0.027733  0.504252  0.763393  1
  O  O21  1  0.495748  0.972267  0.736607  1
  O  O22  1  0.321488  0.139024  0.107180  1
  O  O23  1  0.860976  0.678512  0.392820  1
  O  O24  1  0.678512  0.860976  0.892820  1
  O  O25  1  0.139024  0.321488  0.607180  1
  O  O26  1  0.409201  0.223990  0.421853  1
  O  O27  1  0.776010  0.590799  0.078147  1
  O  O28  1  0.590799  0.776010  0.578147  1
  O  O29  1  0.223990  0.409201  0.921853  1
