# generated using pymatgen
data_HfSc(Ni2As)4
_symmetry_space_group_name_H-M   'P 1'
_cell_length_a   7.06986665
_cell_length_b   7.06986665
_cell_length_c   3.75655800
_cell_angle_alpha   90.00000000
_cell_angle_beta   90.00000000
_cell_angle_gamma   89.85508024
_symmetry_Int_Tables_number   1
_chemical_formula_structural   HfSc(Ni2As)4
_chemical_formula_sum   'Hf1 Sc1 Ni8 As4'
_cell_volume   187.76349238
_cell_formula_units_Z   1
loop_
 _symmetry_equiv_pos_site_id
 _symmetry_equiv_pos_as_xyz
  1  'x, y, z'
loop_
 _atom_site_type_symbol
 _atom_site_label
 _atom_site_symmetry_multiplicity
 _atom_site_fract_x
 _atom_site_fract_y
 _atom_site_fract_z
 _atom_site_occupancy
  Hf  Hf0  1  0.000000  0.000000  0.500000  1
  Sc  Sc1  1  0.500000  0.500000  0.000000  1
  Ni  Ni2  1  0.590704  0.155056  0.500000  1
  Ni  Ni3  1  0.409296  0.844944  0.500000  1
  Ni  Ni4  1  0.090164  0.344086  0.000000  1
  Ni  Ni5  1  0.909836  0.655914  0.000000  1
  Ni  Ni6  1  0.155056  0.590704  0.500000  1
  Ni  Ni7  1  0.844944  0.409296  0.500000  1
  Ni  Ni8  1  0.344086  0.090164  0.000000  1
  Ni  Ni9  1  0.655914  0.909836  0.000000  1
  As  As10  1  0.717123  0.717123  0.500000  1
  As  As11  1  0.282877  0.282877  0.500000  1
  As  As12  1  0.215686  0.784314  0.000000  1
  As  As13  1  0.784314  0.215686  0.000000  1
