# generated using pymatgen
data_Ho2TmIn3Ga2Pt
_symmetry_space_group_name_H-M   'P 1'
_cell_length_a   7.22917549
_cell_length_b   7.23379814
_cell_length_c   4.40524100
_cell_angle_alpha   90.00000000
_cell_angle_beta   90.00000000
_cell_angle_gamma   120.02115285
_symmetry_Int_Tables_number   1
_chemical_formula_structural   Ho2TmIn3Ga2Pt
_chemical_formula_sum   'Ho2 Tm1 In3 Ga2 Pt1'
_cell_volume   199.46323037
_cell_formula_units_Z   1
loop_
 _symmetry_equiv_pos_site_id
 _symmetry_equiv_pos_as_xyz
  1  'x, y, z'
loop_
 _atom_site_type_symbol
 _atom_site_label
 _atom_site_symmetry_multiplicity
 _atom_site_fract_x
 _atom_site_fract_y
 _atom_site_fract_z
 _atom_site_occupancy
  Ho  Ho0  1  0.408572  0.408679  0.500000  1
  Ho  Ho1  1  0.591428  0.000107  0.500000  1
  Tm  Tm2  1  0.000000  0.591977  0.500000  1
  In  In3  1  0.000000  0.251597  0.000000  1
  In  In4  1  0.748752  0.748550  0.000000  1
  In  In5  1  0.251248  0.999798  0.000000  1
  Ga  Ga6  1  0.667214  0.333697  0.000000  1
  Ga  Ga7  1  0.332786  0.666483  0.000000  1
  Pt  Pt8  1  0.000000  0.999112  0.500000  1
