# generated using pymatgen
data_CaYb4Pr15Sn16
_symmetry_space_group_name_H-M   'P 1'
_cell_length_a   8.12531725
_cell_length_b   8.53563859
_cell_length_c   16.21566184
_cell_angle_alpha   90.04567550
_cell_angle_beta   89.42796641
_cell_angle_gamma   89.97972230
_symmetry_Int_Tables_number   1
_chemical_formula_structural   CaYb4Pr15Sn16
_chemical_formula_sum   'Ca1 Yb4 Pr15 Sn16'
_cell_volume   1124.57704085
_cell_formula_units_Z   1
loop_
 _symmetry_equiv_pos_site_id
 _symmetry_equiv_pos_as_xyz
  1  'x, y, z'
loop_
 _atom_site_type_symbol
 _atom_site_label
 _atom_site_symmetry_multiplicity
 _atom_site_fract_x
 _atom_site_fract_y
 _atom_site_fract_z
 _atom_site_occupancy
  Ca  Ca0  1  0.328683  0.993675  0.250663  1
  Yb  Yb1  1  0.334629  0.830053  0.876306  1
  Yb  Yb2  1  0.171805  0.498847  0.750099  1
  Yb  Yb3  1  0.670540  0.004839  0.750235  1
  Yb  Yb4  1  0.828901  0.504058  0.251163  1
  Pr  Pr5  1  0.845115  0.670994  0.623683  1
  Pr  Pr6  1  0.654700  0.169713  0.375804  1
  Pr  Pr7  1  0.162123  0.326148  0.123959  1
  Pr  Pr8  1  0.663027  0.172085  0.124101  1
  Pr  Pr9  1  0.155102  0.329537  0.376182  1
  Pr  Pr10  1  0.346719  0.829552  0.625184  1
  Pr  Pr11  1  0.838922  0.674886  0.874870  1
  Pr  Pr12  1  0.492725  0.317082  0.903470  1
  Pr  Pr13  1  0.998576  0.184279  0.595989  1
  Pr  Pr14  1  0.504789  0.682252  0.404330  1
  Pr  Pr15  1  0.005824  0.814708  0.096258  1
  Pr  Pr16  1  0.504440  0.681873  0.095592  1
  Pr  Pr17  1  0.003613  0.817156  0.403680  1
  Pr  Pr18  1  0.495980  0.315657  0.596082  1
  Pr  Pr19  1  0.993901  0.184378  0.903010  1
  Sn  Sn20  1  0.327489  0.033644  0.038061  1
  Sn  Sn21  1  0.815129  0.459750  0.463505  1
  Sn  Sn22  1  0.686924  0.962045  0.536975  1
  Sn  Sn23  1  0.173863  0.535709  0.960713  1
  Sn  Sn24  1  0.671194  0.963291  0.961696  1
  Sn  Sn25  1  0.187514  0.540750  0.536708  1
  Sn  Sn26  1  0.314395  0.038189  0.464068  1
  Sn  Sn27  1  0.824826  0.463758  0.037284  1
  Sn  Sn28  1  0.539216  0.603089  0.750591  1
  Sn  Sn29  1  0.040283  0.896382  0.749790  1
  Sn  Sn30  1  0.460831  0.395877  0.250015  1
  Sn  Sn31  1  0.960788  0.103715  0.250363  1
  Sn  Sn32  1  0.297177  0.142784  0.750544  1
  Sn  Sn33  1  0.798219  0.361707  0.750502  1
  Sn  Sn34  1  0.701732  0.857802  0.249198  1
  Sn  Sn35  1  0.200306  0.639734  0.249325  1
