# generated using pymatgen
data_Tb2AlIrRu
_symmetry_space_group_name_H-M   'P 1'
_cell_length_a   5.60049467
_cell_length_b   5.60049484
_cell_length_c   5.60049423
_cell_angle_alpha   138.03854827
_cell_angle_beta   116.42716548
_cell_angle_gamma   79.12571850
_symmetry_Int_Tables_number   1
_chemical_formula_structural   Tb2AlIrRu
_chemical_formula_sum   'Tb2 Al1 Ir1 Ru1'
_cell_volume   102.16648545
_cell_formula_units_Z   1
loop_
 _symmetry_equiv_pos_site_id
 _symmetry_equiv_pos_as_xyz
  1  'x, y, z'
loop_
 _atom_site_type_symbol
 _atom_site_label
 _atom_site_symmetry_multiplicity
 _atom_site_fract_x
 _atom_site_fract_y
 _atom_site_fract_z
 _atom_site_occupancy
  Tb  Tb0  1  0.700420  0.203285  0.497134  1
  Tb  Tb1  1  0.293849  0.796715  0.497134  1
  Al  Al2  1  0.002160  0.000000  0.002160  1
  Ir  Ir3  1  0.734722  0.500000  0.234722  1
  Ru  Ru4  1  0.268850  0.500000  0.768850  1
