# generated using pymatgen
data_Nd3ZnIn3Ir2
_symmetry_space_group_name_H-M   'P 1'
_cell_length_a   7.78275200
_cell_length_b   7.78275068
_cell_length_c   4.02539100
_cell_angle_alpha   90.00000000
_cell_angle_beta   90.00000000
_cell_angle_gamma   119.99999710
_symmetry_Int_Tables_number   1
_chemical_formula_structural   Nd3ZnIn3Ir2
_chemical_formula_sum   'Nd3 Zn1 In3 Ir2'
_cell_volume   211.15677755
_cell_formula_units_Z   1
loop_
 _symmetry_equiv_pos_site_id
 _symmetry_equiv_pos_as_xyz
  1  'x, y, z'
loop_
 _atom_site_type_symbol
 _atom_site_label
 _atom_site_symmetry_multiplicity
 _atom_site_fract_x
 _atom_site_fract_y
 _atom_site_fract_z
 _atom_site_occupancy
  Nd  Nd0  1  0.607159  0.022000  0.000000  1
  Nd  Nd1  1  0.978000  0.585158  0.000000  1
  Nd  Nd2  1  0.414842  0.392841  0.000000  1
  Zn  Zn3  1  0.333333  0.666667  0.500000  1
  In  In4  1  0.250824  0.996253  0.500000  1
  In  In5  1  0.003747  0.254571  0.500000  1
  In  In6  1  0.745429  0.749176  0.500000  1
  Ir  Ir7  1  0.666667  0.333333  0.500000  1
  Ir  Ir8  1  0.000000  0.000000  0.000000  1
