# generated using pymatgen
data_Dy3ErHf3AlPt4
_symmetry_space_group_name_H-M   'P 1'
_cell_length_a   4.56887700
_cell_length_b   7.07921810
_cell_length_c   8.14829711
_cell_angle_alpha   87.05811331
_cell_angle_beta   90.00000000
_cell_angle_gamma   90.00000000
_symmetry_Int_Tables_number   1
_chemical_formula_structural   Dy3ErHf3AlPt4
_chemical_formula_sum   'Dy3 Er1 Hf3 Al1 Pt4'
_cell_volume   263.20181686
_cell_formula_units_Z   1
loop_
 _symmetry_equiv_pos_site_id
 _symmetry_equiv_pos_as_xyz
  1  'x, y, z'
loop_
 _atom_site_type_symbol
 _atom_site_label
 _atom_site_symmetry_multiplicity
 _atom_site_fract_x
 _atom_site_fract_y
 _atom_site_fract_z
 _atom_site_occupancy
  Dy  Dy0  1  0.750000  0.517027  0.815340  1
  Dy  Dy1  1  0.750000  0.039319  0.671252  1
  Dy  Dy2  1  0.250000  0.988293  0.337087  1
  Er  Er3  1  0.250000  0.471971  0.186892  1
  Hf  Hf4  1  0.250000  0.855305  0.923820  1
  Hf  Hf5  1  0.750000  0.138152  0.070805  1
  Hf  Hf6  1  0.750000  0.640336  0.435034  1
  Al  Al7  1  0.250000  0.358512  0.571881  1
  Pt  Pt8  1  0.250000  0.725967  0.610009  1
  Pt  Pt9  1  0.750000  0.270766  0.381009  1
  Pt  Pt10  1  0.750000  0.764383  0.102444  1
  Pt  Pt11  1  0.250000  0.229970  0.894428  1
