# generated using pymatgen
data_CeNd3(C2Cl)2
_symmetry_space_group_name_H-M   'P 1'
_cell_length_a   7.63066382
_cell_length_b   7.63448106
_cell_length_c   6.64294202
_cell_angle_alpha   78.67529497
_cell_angle_beta   78.56196854
_cell_angle_gamma   31.56919898
_symmetry_Int_Tables_number   1
_chemical_formula_structural   CeNd3(C2Cl)2
_chemical_formula_sum   'Ce1 Nd3 C4 Cl2'
_cell_volume   198.29408039
_cell_formula_units_Z   1
loop_
 _symmetry_equiv_pos_site_id
 _symmetry_equiv_pos_as_xyz
  1  'x, y, z'
loop_
 _atom_site_type_symbol
 _atom_site_label
 _atom_site_symmetry_multiplicity
 _atom_site_fract_x
 _atom_site_fract_y
 _atom_site_fract_z
 _atom_site_occupancy
  Ce  Ce0  1  0.464153  0.843766  0.849043  1
  Nd  Nd1  1  0.843714  0.455710  0.350914  1
  Nd  Nd2  1  0.537458  0.157608  0.149712  1
  Nd  Nd3  1  0.156568  0.544136  0.648816  1
  C  C4  1  0.355408  0.084125  0.476930  1
  C  C5  1  0.912689  0.642984  0.023982  1
  C  C6  1  0.640434  0.916805  0.529074  1
  C  C7  1  0.089720  0.351620  0.971053  1
  Cl  Cl8  1  0.217231  0.783208  0.249171  1
  Cl  Cl9  1  0.782624  0.220037  0.751304  1
