# generated using pymatgen
data_La3Mg2CdPt3
_symmetry_space_group_name_H-M   'P 1'
_cell_length_a   7.66812209
_cell_length_b   7.73411277
_cell_length_c   4.17838200
_cell_angle_alpha   90.00000000
_cell_angle_beta   90.00000000
_cell_angle_gamma   120.28510337
_symmetry_Int_Tables_number   1
_chemical_formula_structural   La3Mg2CdPt3
_chemical_formula_sum   'La3 Mg2 Cd1 Pt3'
_cell_volume   213.98504850
_cell_formula_units_Z   1
loop_
 _symmetry_equiv_pos_site_id
 _symmetry_equiv_pos_as_xyz
  1  'x, y, z'
loop_
 _atom_site_type_symbol
 _atom_site_label
 _atom_site_symmetry_multiplicity
 _atom_site_fract_x
 _atom_site_fract_y
 _atom_site_fract_z
 _atom_site_occupancy
  La  La0  1  0.407934  0.411038  0.000000  1
  La  La1  1  0.592066  0.003103  0.000000  1
  La  La2  1  0.000000  0.585713  0.000000  1
  Mg  Mg3  1  0.760209  0.760500  0.500000  1
  Mg  Mg4  1  0.239791  0.000291  0.500000  1
  Cd  Cd5  1  0.000000  0.243595  0.500000  1
  Pt  Pt6  1  0.341786  0.677429  0.500000  1
  Pt  Pt7  1  0.000000  0.982688  0.000000  1
  Pt  Pt8  1  0.658214  0.335642  0.500000  1
