# generated using pymatgen
data_Hf3AlZn5
_symmetry_space_group_name_H-M   'P 1'
_cell_length_a   22.04560961
_cell_length_b   22.04560990
_cell_length_c   4.81160600
_cell_angle_alpha   90.00000000
_cell_angle_beta   90.00000000
_cell_angle_gamma   172.56515128
_symmetry_Int_Tables_number   1
_chemical_formula_structural   Hf3AlZn5
_chemical_formula_sum   'Hf6 Al2 Zn10'
_cell_volume   302.59678437
_cell_formula_units_Z   2
loop_
 _symmetry_equiv_pos_site_id
 _symmetry_equiv_pos_as_xyz
  1  'x, y, z'
loop_
 _atom_site_type_symbol
 _atom_site_label
 _atom_site_symmetry_multiplicity
 _atom_site_fract_x
 _atom_site_fract_y
 _atom_site_fract_z
 _atom_site_occupancy
  Hf  Hf0  1  0.133837  0.866163  0.500000  1
  Hf  Hf1  1  0.802535  0.197465  0.500000  1
  Hf  Hf2  1  0.469032  0.530968  0.500000  1
  Hf  Hf3  1  0.533090  0.466910  0.000000  1
  Hf  Hf4  1  0.197730  0.802270  0.000000  1
  Hf  Hf5  1  0.864426  0.135574  0.000000  1
  Al  Al6  1  0.754736  0.245264  0.000000  1
  Al  Al7  1  0.421795  0.578205  0.000000  1
  Zn  Zn8  1  0.575842  0.424158  0.500000  1
  Zn  Zn9  1  0.244440  0.755560  0.500000  1
  Zn  Zn10  1  0.911248  0.088752  0.500000  1
  Zn  Zn11  1  0.090983  0.909017  0.000000  1
  Zn  Zn12  1  0.025455  0.974545  0.500000  1
  Zn  Zn13  1  0.691656  0.308344  0.500000  1
  Zn  Zn14  1  0.359356  0.640644  0.500000  1
  Zn  Zn15  1  0.641191  0.358809  0.000000  1
  Zn  Zn16  1  0.307359  0.692641  0.000000  1
  Zn  Zn17  1  0.975281  0.024719  0.000000  1
