# generated using pymatgen
data_Sm2TmSi2
_symmetry_space_group_name_H-M   'P 1'
_cell_length_a   7.52072200
_cell_length_b   7.52072200
_cell_length_c   4.32356600
_cell_angle_alpha   90.00000000
_cell_angle_beta   90.00000000
_cell_angle_gamma   90.00000000
_symmetry_Int_Tables_number   1
_chemical_formula_structural   Sm2TmSi2
_chemical_formula_sum   'Sm4 Tm2 Si4'
_cell_volume   244.54633806
_cell_formula_units_Z   2
loop_
 _symmetry_equiv_pos_site_id
 _symmetry_equiv_pos_as_xyz
  1  'x, y, z'
loop_
 _atom_site_type_symbol
 _atom_site_label
 _atom_site_symmetry_multiplicity
 _atom_site_fract_x
 _atom_site_fract_y
 _atom_site_fract_z
 _atom_site_occupancy
  Sm  Sm0  1  0.676910  0.176910  0.500000  1
  Sm  Sm1  1  0.323090  0.823090  0.500000  1
  Sm  Sm2  1  0.176910  0.323090  0.500000  1
  Sm  Sm3  1  0.823090  0.676910  0.500000  1
  Tm  Tm4  1  0.000000  0.000000  0.000000  1
  Tm  Tm5  1  0.500000  0.500000  0.000000  1
  Si  Si6  1  0.115163  0.615163  0.000000  1
  Si  Si7  1  0.884837  0.384837  0.000000  1
  Si  Si8  1  0.615163  0.884837  0.000000  1
  Si  Si9  1  0.384837  0.115163  0.000000  1
