# generated using pymatgen
data_Tb4Ho8Co4BiIr
_symmetry_space_group_name_H-M   'P 1'
_cell_length_a   8.34260118
_cell_length_b   8.34260843
_cell_length_c   8.34260146
_cell_angle_alpha   110.99170715
_cell_angle_beta   110.55752267
_cell_angle_gamma   106.89501876
_symmetry_Int_Tables_number   1
_chemical_formula_structural   Tb4Ho8Co4BiIr
_chemical_formula_sum   'Tb4 Ho8 Co4 Bi1 Ir1'
_cell_volume   446.29428396
_cell_formula_units_Z   1
loop_
 _symmetry_equiv_pos_site_id
 _symmetry_equiv_pos_as_xyz
  1  'x, y, z'
loop_
 _atom_site_type_symbol
 _atom_site_label
 _atom_site_symmetry_multiplicity
 _atom_site_fract_x
 _atom_site_fract_y
 _atom_site_fract_z
 _atom_site_occupancy
  Tb  Tb0  1  0.817124  0.713707  0.530831  1
  Tb  Tb1  1  0.182876  0.286293  0.469169  1
  Tb  Tb2  1  0.182877  0.713707  0.896584  1
  Tb  Tb3  1  0.817123  0.286293  0.103416  1
  Ho  Ho4  1  0.687674  0.377297  0.689625  1
  Ho  Ho5  1  0.312326  0.622703  0.310375  1
  Ho  Ho6  1  0.687673  0.998046  0.310373  1
  Ho  Ho7  1  0.312327  0.001954  0.689627  1
  Ho  Ho8  1  0.592368  0.789399  0.802972  1
  Ho  Ho9  1  0.407632  0.210601  0.197028  1
  Ho  Ho10  1  0.986428  0.789399  0.197031  1
  Ho  Ho11  1  0.013572  0.210601  0.802969  1
  Co  Co12  1  0.622696  0.000000  0.622696  1
  Co  Co13  1  0.377304  0.000000  0.377304  1
  Co  Co14  1  0.110981  0.610982  0.500001  1
  Co  Co15  1  0.889019  0.389018  0.499999  1
  Bi  Bi16  1  0.500000  0.500000  0.000000  1
  Ir  Ir17  1  0.000000  0.000000  0.000000  1
