# generated using pymatgen
data_Zr2MnIrRh4
_symmetry_space_group_name_H-M   'P 1'
_cell_length_a   5.57880894
_cell_length_b   5.57880845
_cell_length_c   8.17776600
_cell_angle_alpha   90.00000000
_cell_angle_beta   90.00000000
_cell_angle_gamma   95.66149267
_symmetry_Int_Tables_number   1
_chemical_formula_structural   Zr2MnIrRh4
_chemical_formula_sum   'Zr4 Mn2 Ir2 Rh8'
_cell_volume   253.27596972
_cell_formula_units_Z   2
loop_
 _symmetry_equiv_pos_site_id
 _symmetry_equiv_pos_as_xyz
  1  'x, y, z'
loop_
 _atom_site_type_symbol
 _atom_site_label
 _atom_site_symmetry_multiplicity
 _atom_site_fract_x
 _atom_site_fract_y
 _atom_site_fract_z
 _atom_site_occupancy
  Zr  Zr0  1  0.776154  0.224380  0.500038  1
  Zr  Zr1  1  0.224380  0.776154  0.999962  1
  Zr  Zr2  1  0.224380  0.776154  0.500038  1
  Zr  Zr3  1  0.776154  0.224380  0.999962  1
  Mn  Mn4  1  0.503983  0.503983  0.750000  1
  Mn  Mn5  1  0.496997  0.496997  0.250000  1
  Ir  Ir6  1  0.722442  0.722442  0.001556  1
  Ir  Ir7  1  0.722442  0.722442  0.498444  1
  Rh  Rh8  1  0.276454  0.276454  0.998372  1
  Rh  Rh9  1  0.276454  0.276454  0.501628  1
  Rh  Rh10  1  0.499854  0.000378  0.750000  1
  Rh  Rh11  1  0.500048  0.999197  0.250000  1
  Rh  Rh12  1  0.001209  0.001209  0.250000  1
  Rh  Rh13  1  0.999474  0.999474  0.750000  1
  Rh  Rh14  1  0.000378  0.499854  0.750000  1
  Rh  Rh15  1  0.999197  0.500048  0.250000  1
