# generated using pymatgen
data_Yb3NpInRu7
_symmetry_space_group_name_H-M   'P 1'
_cell_length_a   5.58095005
_cell_length_b   5.58095115
_cell_length_c   8.04305700
_cell_angle_alpha   90.00755600
_cell_angle_beta   89.99243373
_cell_angle_gamma   119.98413396
_symmetry_Int_Tables_number   1
_chemical_formula_structural   Yb3NpInRu7
_chemical_formula_sum   'Yb3 Np1 In1 Ru7'
_cell_volume   216.98891157
_cell_formula_units_Z   1
loop_
 _symmetry_equiv_pos_site_id
 _symmetry_equiv_pos_as_xyz
  1  'x, y, z'
loop_
 _atom_site_type_symbol
 _atom_site_label
 _atom_site_symmetry_multiplicity
 _atom_site_fract_x
 _atom_site_fract_y
 _atom_site_fract_z
 _atom_site_occupancy
  Yb  Yb0  1  0.333320  0.666680  0.426432  1
  Yb  Yb1  1  0.333403  0.666597  0.057942  1
  Yb  Yb2  1  0.666635  0.333365  0.946467  1
  Np  Np3  1  0.999966  0.000034  0.499484  1
  In  In4  1  0.666621  0.333379  0.572642  1
  Ru  Ru5  1  0.999997  0.000003  0.998750  1
  Ru  Ru6  1  0.173316  0.346485  0.738789  1
  Ru  Ru7  1  0.173334  0.826666  0.738989  1
  Ru  Ru8  1  0.653515  0.826684  0.738789  1
  Ru  Ru9  1  0.828126  0.656310  0.260520  1
  Ru  Ru10  1  0.828079  0.171921  0.260676  1
  Ru  Ru11  1  0.343690  0.171874  0.260520  1
