# generated using pymatgen
data_Pr7Nd(InIr)2
_symmetry_space_group_name_H-M   'P 1'
_cell_length_a   10.05464775
_cell_length_b   10.05463866
_cell_length_c   10.05513900
_cell_angle_alpha   59.99845846
_cell_angle_beta   59.99841732
_cell_angle_gamma   59.99685432
_symmetry_Int_Tables_number   1
_chemical_formula_structural   Pr7Nd(InIr)2
_chemical_formula_sum   'Pr14 Nd2 In4 Ir4'
_cell_volume   718.76319176
_cell_formula_units_Z   2
loop_
 _symmetry_equiv_pos_site_id
 _symmetry_equiv_pos_as_xyz
  1  'x, y, z'
loop_
 _atom_site_type_symbol
 _atom_site_label
 _atom_site_symmetry_multiplicity
 _atom_site_fract_x
 _atom_site_fract_y
 _atom_site_fract_z
 _atom_site_occupancy
  Pr  Pr0  1  0.348233  0.955611  0.348080  1
  Pr  Pr1  1  0.955610  0.348233  0.348080  1
  Pr  Pr2  1  0.807957  0.191847  0.191876  1
  Pr  Pr3  1  0.191847  0.807960  0.808317  1
  Pr  Pr4  1  0.191848  0.807958  0.191876  1
  Pr  Pr5  1  0.807959  0.191848  0.808317  1
  Pr  Pr6  1  0.191929  0.191929  0.808068  1
  Pr  Pr7  1  0.808204  0.808204  0.191795  1
  Pr  Pr8  1  0.940204  0.559847  0.559828  1
  Pr  Pr9  1  0.559850  0.940204  0.940119  1
  Pr  Pr10  1  0.559848  0.940204  0.559828  1
  Pr  Pr11  1  0.940204  0.559850  0.940119  1
  Pr  Pr12  1  0.559751  0.559751  0.940248  1
  Pr  Pr13  1  0.940076  0.940075  0.559925  1
  Nd  Nd14  1  0.348005  0.348004  0.347862  1
  Nd  Nd15  1  0.348006  0.348005  0.956127  1
  In  In16  1  0.580639  0.580639  0.580949  1
  In  In17  1  0.580639  0.580639  0.257772  1
  In  In18  1  0.580535  0.257770  0.580847  1
  In  In19  1  0.257770  0.580534  0.580847  1
  Ir  Ir20  1  0.141683  0.141683  0.140872  1
  Ir  Ir21  1  0.141683  0.141683  0.575762  1
  Ir  Ir22  1  0.142050  0.575470  0.141241  1
  Ir  Ir23  1  0.575470  0.142051  0.141240  1
