# generated using pymatgen
data_Nb2V2Co2NiSe12
_symmetry_space_group_name_H-M   'P 1'
_cell_length_a   7.01741307
_cell_length_b   7.01741328
_cell_length_c   18.89707373
_cell_angle_alpha   70.98560790
_cell_angle_beta   70.98560674
_cell_angle_gamma   27.65892192
_symmetry_Int_Tables_number   1
_chemical_formula_structural   Nb2V2Co2NiSe12
_chemical_formula_sum   'Nb2 V2 Co2 Ni1 Se12'
_cell_volume   406.93460248
_cell_formula_units_Z   1
loop_
 _symmetry_equiv_pos_site_id
 _symmetry_equiv_pos_as_xyz
  1  'x, y, z'
loop_
 _atom_site_type_symbol
 _atom_site_label
 _atom_site_symmetry_multiplicity
 _atom_site_fract_x
 _atom_site_fract_y
 _atom_site_fract_z
 _atom_site_occupancy
  Nb  Nb0  1  0.617061  0.617061  0.851871  1
  Nb  Nb1  1  0.382939  0.382939  0.148129  1
  V  V2  1  0.741808  0.741808  0.593867  1
  V  V3  1  0.258192  0.258192  0.406133  1
  Co  Co4  1  0.773090  0.773090  0.281357  1
  Co  Co5  1  0.226910  0.226910  0.718643  1
  Ni  Ni6  1  0.000000  0.000000  0.000000  1
  Se  Se7  1  0.859072  0.859072  0.455259  1
  Se  Se8  1  0.038477  0.038477  0.111399  1
  Se  Se9  1  0.807573  0.807573  0.767590  1
  Se  Se10  1  0.397545  0.397545  0.284073  1
  Se  Se11  1  0.179431  0.179431  0.933433  1
  Se  Se12  1  0.602455  0.602455  0.715927  1
  Se  Se13  1  0.140928  0.140928  0.544741  1
  Se  Se14  1  0.820569  0.820569  0.066567  1
  Se  Se15  1  0.366989  0.366989  0.606813  1
  Se  Se16  1  0.961523  0.961523  0.888601  1
  Se  Se17  1  0.192427  0.192427  0.232410  1
  Se  Se18  1  0.633011  0.633011  0.393187  1
