# generated using pymatgen
data_Lu3ZnSiAg3Ge
_symmetry_space_group_name_H-M   'P 1'
_cell_length_a   7.06520300
_cell_length_b   7.06520387
_cell_length_c   4.09297800
_cell_angle_alpha   90.00000000
_cell_angle_beta   90.00000000
_cell_angle_gamma   120.00000060
_symmetry_Int_Tables_number   1
_chemical_formula_structural   Lu3ZnSiAg3Ge
_chemical_formula_sum   'Lu3 Zn1 Si1 Ag3 Ge1'
_cell_volume   176.93729453
_cell_formula_units_Z   1
loop_
 _symmetry_equiv_pos_site_id
 _symmetry_equiv_pos_as_xyz
  1  'x, y, z'
loop_
 _atom_site_type_symbol
 _atom_site_label
 _atom_site_symmetry_multiplicity
 _atom_site_fract_x
 _atom_site_fract_y
 _atom_site_fract_z
 _atom_site_occupancy
  Lu  Lu0  1  0.419890  0.421880  0.500000  1
  Lu  Lu1  1  0.578120  0.998010  0.500000  1
  Lu  Lu2  1  0.001990  0.580110  0.500000  1
  Zn  Zn3  1  0.000000  0.000000  0.500000  1
  Si  Si4  1  0.333333  0.666667  0.000000  1
  Ag  Ag5  1  0.746402  0.750569  0.000000  1
  Ag  Ag6  1  0.249431  0.995833  0.000000  1
  Ag  Ag7  1  0.004167  0.253598  0.000000  1
  Ge  Ge8  1  0.666667  0.333333  0.000000  1
