# generated using pymatgen
data_Rb2Mn3(AsO3)4
_symmetry_space_group_name_H-M   'P 1'
_cell_length_a   6.03451097
_cell_length_b   6.03454984
_cell_length_c   11.75612813
_cell_angle_alpha   75.34485263
_cell_angle_beta   75.34488287
_cell_angle_gamma   56.49583794
_symmetry_Int_Tables_number   1
_chemical_formula_structural   Rb2Mn3(AsO3)4
_chemical_formula_sum   'Rb2 Mn3 As4 O12'
_cell_volume   341.93477819
_cell_formula_units_Z   1
loop_
 _symmetry_equiv_pos_site_id
 _symmetry_equiv_pos_as_xyz
  1  'x, y, z'
loop_
 _atom_site_type_symbol
 _atom_site_label
 _atom_site_symmetry_multiplicity
 _atom_site_fract_x
 _atom_site_fract_y
 _atom_site_fract_z
 _atom_site_occupancy
  Rb  Rb0  1  0.370659  0.370658  0.418855  1
  Rb  Rb1  1  0.629341  0.629342  0.581145  1
  Mn  Mn2  1  0.224862  0.224875  0.755178  1
  Mn  Mn3  1  0.000000  0.000000  0.000000  1
  Mn  Mn4  1  0.775138  0.775125  0.244822  1
  As  As5  1  0.081735  0.081724  0.299477  1
  As  As6  1  0.918265  0.918276  0.700523  1
  As  As7  1  0.318751  0.318749  0.048806  1
  As  As8  1  0.681249  0.681251  0.951194  1
  O  O9  1  0.894369  0.388947  0.347827  1
  O  O10  1  0.871018  0.382061  0.884824  1
  O  O11  1  0.388953  0.894364  0.347827  1
  O  O12  1  0.133771  0.133772  0.140042  1
  O  O13  1  0.105631  0.611053  0.652173  1
  O  O14  1  0.913609  0.913609  0.344765  1
  O  O15  1  0.611047  0.105636  0.652173  1
  O  O16  1  0.617942  0.128975  0.115177  1
  O  O17  1  0.128982  0.617939  0.115176  1
  O  O18  1  0.382058  0.871025  0.884823  1
  O  O19  1  0.086391  0.086391  0.655235  1
  O  O20  1  0.866229  0.866228  0.859958  1
