# generated using pymatgen
data_Sm2CdHgRh
_symmetry_space_group_name_H-M   'P 1'
_cell_length_a   8.04181915
_cell_length_b   8.04181915
_cell_length_c   3.84606200
_cell_angle_alpha   90.00000000
_cell_angle_beta   90.00000000
_cell_angle_gamma   87.77406628
_symmetry_Int_Tables_number   1
_chemical_formula_structural   Sm2CdHgRh
_chemical_formula_sum   'Sm4 Cd2 Hg2 Rh2'
_cell_volume   248.54043851
_cell_formula_units_Z   2
loop_
 _symmetry_equiv_pos_site_id
 _symmetry_equiv_pos_as_xyz
  1  'x, y, z'
loop_
 _atom_site_type_symbol
 _atom_site_label
 _atom_site_symmetry_multiplicity
 _atom_site_fract_x
 _atom_site_fract_y
 _atom_site_fract_z
 _atom_site_occupancy
  Sm  Sm0  1  0.651274  0.151274  0.500000  1
  Sm  Sm1  1  0.348726  0.848726  0.500000  1
  Sm  Sm2  1  0.191275  0.308725  0.500000  1
  Sm  Sm3  1  0.808725  0.691275  0.500000  1
  Cd  Cd4  1  0.000000  0.000000  0.000000  1
  Cd  Cd5  1  0.500000  0.500000  0.000000  1
  Hg  Hg6  1  0.131895  0.631895  0.000000  1
  Hg  Hg7  1  0.868105  0.368105  0.000000  1
  Rh  Rh8  1  0.630301  0.869699  0.000000  1
  Rh  Rh9  1  0.369699  0.130301  0.000000  1
