# generated using pymatgen
data_Ni5B2PdO10
_symmetry_space_group_name_H-M   'P 1'
_cell_length_a   3.06970000
_cell_length_b   9.29883100
_cell_length_c   12.34469700
_cell_angle_alpha   90.00000000
_cell_angle_beta   90.00000000
_cell_angle_gamma   90.00000000
_symmetry_Int_Tables_number   1
_chemical_formula_structural   Ni5B2PdO10
_chemical_formula_sum   'Ni10 B4 Pd2 O20'
_cell_volume   352.37470365
_cell_formula_units_Z   2
loop_
 _symmetry_equiv_pos_site_id
 _symmetry_equiv_pos_as_xyz
  1  'x, y, z'
loop_
 _atom_site_type_symbol
 _atom_site_label
 _atom_site_symmetry_multiplicity
 _atom_site_fract_x
 _atom_site_fract_y
 _atom_site_fract_z
 _atom_site_occupancy
  Ni  Ni0  1  0.500000  0.260651  0.219813  1
  Ni  Ni1  1  0.500000  0.255591  0.782992  1
  Ni  Ni2  1  0.500000  0.744409  0.282992  1
  Ni  Ni3  1  0.500000  0.739349  0.719813  1
  Ni  Ni4  1  0.500000  0.259203  0.497385  1
  Ni  Ni5  1  0.500000  0.740797  0.997385  1
  Ni  Ni6  1  0.000000  0.739022  0.496763  1
  Ni  Ni7  1  0.000000  0.260978  0.996763  1
  Ni  Ni8  1  0.000000  0.489635  0.385211  1
  Ni  Ni9  1  0.000000  0.510365  0.885211  1
  B  B10  1  0.000000  0.527615  0.139516  1
  B  B11  1  0.000000  0.979784  0.860992  1
  B  B12  1  0.000000  0.020216  0.360992  1
  B  B13  1  0.000000  0.472385  0.639516  1
  Pd  Pd14  1  0.000000  0.007047  0.613321  1
  Pd  Pd15  1  0.000000  0.992953  0.113321  1
  O  O16  1  0.000000  0.376868  0.140492  1
  O  O17  1  0.000000  0.126385  0.859500  1
  O  O18  1  0.000000  0.873615  0.359500  1
  O  O19  1  0.000000  0.623132  0.640492  1
  O  O20  1  0.000000  0.397348  0.542593  1
  O  O21  1  0.000000  0.102195  0.456639  1
  O  O22  1  0.000000  0.897805  0.956639  1
  O  O23  1  0.000000  0.602652  0.042593  1
  O  O24  1  0.500000  0.358723  0.356761  1
  O  O25  1  0.500000  0.145302  0.641334  1
  O  O26  1  0.500000  0.854698  0.141334  1
  O  O27  1  0.500000  0.641277  0.856761  1
  O  O28  1  0.000000  0.602525  0.236563  1
  O  O29  1  0.000000  0.899706  0.764858  1
  O  O30  1  0.000000  0.100294  0.264858  1
  O  O31  1  0.000000  0.397475  0.736563  1
  O  O32  1  0.500000  0.637762  0.423291  1
  O  O33  1  0.500000  0.863025  0.581978  1
  O  O34  1  0.500000  0.136975  0.081978  1
  O  O35  1  0.500000  0.362238  0.923291  1
