# generated using pymatgen
data_NaAc3Hg4
_symmetry_space_group_name_H-M   'P 1'
_cell_length_a   6.98152608
_cell_length_b   6.98152560
_cell_length_c   5.59251600
_cell_angle_alpha   90.00000000
_cell_angle_beta   90.00000000
_cell_angle_gamma   70.43184166
_symmetry_Int_Tables_number   1
_chemical_formula_structural   NaAc3Hg4
_chemical_formula_sum   'Na1 Ac3 Hg4'
_cell_volume   256.84504515
_cell_formula_units_Z   1
loop_
 _symmetry_equiv_pos_site_id
 _symmetry_equiv_pos_as_xyz
  1  'x, y, z'
loop_
 _atom_site_type_symbol
 _atom_site_label
 _atom_site_symmetry_multiplicity
 _atom_site_fract_x
 _atom_site_fract_y
 _atom_site_fract_z
 _atom_site_occupancy
  Na  Na0  1  0.874004  0.874004  0.249998  1
  Ac  Ac1  1  0.643196  0.643196  0.749999  1
  Ac  Ac2  1  0.373491  0.373491  0.249998  1
  Ac  Ac3  1  0.112370  0.112370  0.749999  1
  Hg  Hg4  1  0.870647  0.368110  0.249998  1
  Hg  Hg5  1  0.141469  0.616715  0.749999  1
  Hg  Hg6  1  0.616715  0.141469  0.749999  1
  Hg  Hg7  1  0.368110  0.870647  0.249998  1
