# generated using pymatgen
data_Th3Ga3CuNiOs
_symmetry_space_group_name_H-M   'P 1'
_cell_length_a   7.22413100
_cell_length_b   7.22413178
_cell_length_c   4.02378500
_cell_angle_alpha   90.00000000
_cell_angle_beta   90.00000000
_cell_angle_gamma   120.00001017
_symmetry_Int_Tables_number   1
_chemical_formula_structural   Th3Ga3CuNiOs
_chemical_formula_sum   'Th3 Ga3 Cu1 Ni1 Os1'
_cell_volume   181.85976553
_cell_formula_units_Z   1
loop_
 _symmetry_equiv_pos_site_id
 _symmetry_equiv_pos_as_xyz
  1  'x, y, z'
loop_
 _atom_site_type_symbol
 _atom_site_label
 _atom_site_symmetry_multiplicity
 _atom_site_fract_x
 _atom_site_fract_y
 _atom_site_fract_z
 _atom_site_occupancy
  Th  Th0  1  0.999115  0.421547  0.500000  1
  Th  Th1  1  0.578453  0.577569  0.500000  1
  Th  Th2  1  0.422431  0.000885  0.500000  1
  Ga  Ga3  1  0.000812  0.762246  0.000000  1
  Ga  Ga4  1  0.237754  0.238566  0.000000  1
  Ga  Ga5  1  0.761434  0.999188  0.000000  1
  Cu  Cu6  1  0.000000  0.000000  0.500000  1
  Ni  Ni7  1  0.666667  0.333333  0.000000  1
  Os  Os8  1  0.333333  0.666667  0.000000  1
