# generated using pymatgen
data_TbTm5Al24Ru7Rh
_symmetry_space_group_name_H-M   'P 1'
_cell_length_a   8.75314835
_cell_length_b   8.76775270
_cell_length_c   9.56671425
_cell_angle_alpha   90.00661104
_cell_angle_beta   89.85795625
_cell_angle_gamma   120.04723763
_symmetry_Int_Tables_number   1
_chemical_formula_structural   TbTm5Al24Ru7Rh
_chemical_formula_sum   'Tb1 Tm5 Al24 Ru7 Rh1'
_cell_volume   635.53195581
_cell_formula_units_Z   1
loop_
 _symmetry_equiv_pos_site_id
 _symmetry_equiv_pos_as_xyz
  1  'x, y, z'
loop_
 _atom_site_type_symbol
 _atom_site_label
 _atom_site_symmetry_multiplicity
 _atom_site_fract_x
 _atom_site_fract_y
 _atom_site_fract_z
 _atom_site_occupancy
  Tb  Tb0  1  0.805571  0.191040  0.749091  1
  Tm  Tm1  1  0.195531  0.808056  0.251190  1
  Tm  Tm2  1  0.388599  0.194430  0.749626  1
  Tm  Tm3  1  0.611160  0.805577  0.250376  1
  Tm  Tm4  1  0.804353  0.612627  0.748810  1
  Tm  Tm5  1  0.195615  0.387671  0.251175  1
  Al  Al6  1  0.665087  0.333024  0.980158  1
  Al  Al7  1  0.334524  0.667279  0.020507  1
  Al  Al8  1  0.333155  0.666598  0.480344  1
  Al  Al9  1  0.666568  0.333741  0.518947  1
  Al  Al10  1  0.838009  0.163423  0.421497  1
  Al  Al11  1  0.162049  0.836632  0.577681  1
  Al  Al12  1  0.326262  0.163091  0.422550  1
  Al  Al13  1  0.163686  0.838740  0.922232  1
  Al  Al14  1  0.673462  0.836330  0.577113  1
  Al  Al15  1  0.836297  0.161204  0.078575  1
  Al  Al16  1  0.838003  0.674563  0.422028  1
  Al  Al17  1  0.674188  0.836723  0.922528  1
  Al  Al18  1  0.162601  0.325747  0.577591  1
  Al  Al19  1  0.325486  0.162685  0.077825  1
  Al  Al20  1  0.164177  0.325205  0.922269  1
  Al  Al21  1  0.836357  0.675019  0.078082  1
  Al  Al22  1  0.437638  0.560948  0.750244  1
  Al  Al23  1  0.562434  0.439063  0.249751  1
  Al  Al24  1  0.123219  0.562231  0.749257  1
  Al  Al25  1  0.877682  0.438887  0.250676  1
  Al  Al26  1  0.436494  0.875644  0.750261  1
  Al  Al27  1  0.562417  0.123434  0.249765  1
  Al  Al28  1  0.000210  0.999226  0.749934  1
  Al  Al29  1  0.000329  0.000263  0.250020  1
  Ru  Ru30  1  0.499830  0.500181  0.000159  1
  Ru  Ru31  1  0.499813  0.500120  0.499846  1
  Ru  Ru32  1  0.499222  0.999624  0.000556  1
  Ru  Ru33  1  0.000369  0.500762  0.499461  1
  Ru  Ru34  1  0.499392  0.999706  0.499531  1
  Ru  Ru35  1  0.999952  0.999951  0.000054  1
  Ru  Ru36  1  0.999979  0.999982  0.499907  1
  Rh  Rh37  1  0.000278  0.500572  0.000381  1
