# generated using pymatgen
data_ErLu9(Hg2Pt)4
_symmetry_space_group_name_H-M   'P 1'
_cell_length_a   3.54394600
_cell_length_b   7.88832210
_cell_length_c   18.06632922
_cell_angle_alpha   89.98193444
_cell_angle_beta   90.00000000
_cell_angle_gamma   90.00000000
_symmetry_Int_Tables_number   1
_chemical_formula_structural   ErLu9(Hg2Pt)4
_chemical_formula_sum   'Er1 Lu9 Hg8 Pt4'
_cell_volume   505.05843643
_cell_formula_units_Z   1
loop_
 _symmetry_equiv_pos_site_id
 _symmetry_equiv_pos_as_xyz
  1  'x, y, z'
loop_
 _atom_site_type_symbol
 _atom_site_label
 _atom_site_symmetry_multiplicity
 _atom_site_fract_x
 _atom_site_fract_y
 _atom_site_fract_z
 _atom_site_occupancy
  Er  Er0  1  0.000000  0.000000  0.000000  1
  Lu  Lu1  1  0.000000  0.114098  0.414921  1
  Lu  Lu2  1  0.000000  0.885902  0.585079  1
  Lu  Lu3  1  0.000000  0.386018  0.914846  1
  Lu  Lu4  1  0.000000  0.613982  0.085154  1
  Lu  Lu5  1  0.000000  0.242642  0.217850  1
  Lu  Lu6  1  0.000000  0.757358  0.782150  1
  Lu  Lu7  1  0.000000  0.257293  0.717682  1
  Lu  Lu8  1  0.000000  0.742707  0.282318  1
  Lu  Lu9  1  0.000000  0.500000  0.500000  1
  Hg  Hg10  1  0.500000  0.424115  0.354957  1
  Hg  Hg11  1  0.500000  0.575885  0.645043  1
  Hg  Hg12  1  0.500000  0.075876  0.854425  1
  Hg  Hg13  1  0.500000  0.924124  0.145575  1
  Hg  Hg14  1  0.500000  0.289209  0.063106  1
  Hg  Hg15  1  0.500000  0.710791  0.936894  1
  Hg  Hg16  1  0.500000  0.211973  0.562653  1
  Hg  Hg17  1  0.500000  0.788027  0.437347  1
  Pt  Pt18  1  0.500000  0.028213  0.303545  1
  Pt  Pt19  1  0.500000  0.971787  0.696455  1
  Pt  Pt20  1  0.500000  0.471813  0.803531  1
  Pt  Pt21  1  0.500000  0.528187  0.196469  1
