# generated using pymatgen
data_CeY5Ir18
_symmetry_space_group_name_H-M   'P 1'
_cell_length_a   5.32618100
_cell_length_b   5.32589925
_cell_length_c   17.51322800
_cell_angle_alpha   90.00000000
_cell_angle_beta   90.00000000
_cell_angle_gamma   120.00174378
_symmetry_Int_Tables_number   1
_chemical_formula_structural   CeY5Ir18
_chemical_formula_sum   'Ce1 Y5 Ir18'
_cell_volume   430.22740354
_cell_formula_units_Z   1
loop_
 _symmetry_equiv_pos_site_id
 _symmetry_equiv_pos_as_xyz
  1  'x, y, z'
loop_
 _atom_site_type_symbol
 _atom_site_label
 _atom_site_symmetry_multiplicity
 _atom_site_fract_x
 _atom_site_fract_y
 _atom_site_fract_z
 _atom_site_occupancy
  Ce  Ce0  1  0.333332  0.666665  0.750000  1
  Y  Y1  1  0.666669  0.333339  0.041275  1
  Y  Y2  1  0.666676  0.333353  0.250000  1
  Y  Y3  1  0.666669  0.333339  0.458725  1
  Y  Y4  1  0.333332  0.666664  0.539943  1
  Y  Y5  1  0.333332  0.666664  0.960057  1
  Ir  Ir6  1  0.999979  0.999958  0.000013  1
  Ir  Ir7  1  0.167267  0.334533  0.126503  1
  Ir  Ir8  1  0.665481  0.832757  0.126559  1
  Ir  Ir9  1  0.167277  0.832757  0.126559  1
  Ir  Ir10  1  0.000161  0.000322  0.250000  1
  Ir  Ir11  1  0.333199  0.666398  0.250000  1
  Ir  Ir12  1  0.665481  0.832757  0.373441  1
  Ir  Ir13  1  0.167277  0.832757  0.373441  1
  Ir  Ir14  1  0.167267  0.334533  0.373497  1
  Ir  Ir15  1  0.999979  0.999958  0.499987  1
  Ir  Ir16  1  0.832904  0.665807  0.625870  1
  Ir  Ir17  1  0.832896  0.167072  0.625881  1
  Ir  Ir18  1  0.334177  0.167072  0.625881  1
  Ir  Ir19  1  0.999974  0.999949  0.750000  1
  Ir  Ir20  1  0.666695  0.333391  0.750000  1
  Ir  Ir21  1  0.832896  0.167072  0.874119  1
  Ir  Ir22  1  0.334177  0.167072  0.874119  1
  Ir  Ir23  1  0.832904  0.665807  0.874130  1
