# generated using pymatgen
data_SmY5(SiI3)2
_symmetry_space_group_name_H-M   'P 1'
_cell_length_a   10.54433445
_cell_length_b   10.54433475
_cell_length_c   10.54933413
_cell_angle_alpha   109.49578370
_cell_angle_beta   109.46422414
_cell_angle_gamma   109.43443839
_symmetry_Int_Tables_number   1
_chemical_formula_structural   SmY5(SiI3)2
_chemical_formula_sum   'Sm2 Y10 Si4 I12'
_cell_volume   903.11773477
_cell_formula_units_Z   2
loop_
 _symmetry_equiv_pos_site_id
 _symmetry_equiv_pos_as_xyz
  1  'x, y, z'
loop_
 _atom_site_type_symbol
 _atom_site_label
 _atom_site_symmetry_multiplicity
 _atom_site_fract_x
 _atom_site_fract_y
 _atom_site_fract_z
 _atom_site_occupancy
  Sm  Sm0  1  0.463497  0.481456  0.231789  1
  Sm  Sm1  1  0.749667  0.231707  0.268211  1
  Y  Y2  1  0.749704  0.019666  0.479760  1
  Y  Y3  1  0.230021  0.459804  0.479752  1
  Y  Y4  1  0.269122  0.749016  0.229945  1
  Y  Y5  1  0.039905  0.269944  0.020240  1
  Y  Y6  1  0.019071  0.039176  0.270055  1
  Y  Y7  1  0.480052  0.750270  0.020248  1
  Y  Y8  1  0.479836  0.229802  0.459875  1
  Y  Y9  1  0.018838  0.479711  0.748806  1
  Y  Y10  1  0.269928  0.019962  0.040125  1
  Y  Y11  1  0.230905  0.270032  0.751194  1
  Si  Si12  1  0.248240  0.248198  0.249898  1
  Si  Si13  1  0.498300  0.998342  0.250102  1
  Si  Si14  1  0.001525  0.249827  0.501602  1
  Si  Si15  1  0.248224  0.499923  0.998398  1
  I  I16  1  0.249898  0.756031  0.743885  1
  I  I17  1  0.512148  0.506013  0.756115  1
  I  I18  1  0.987837  0.743879  0.993958  1
  I  I19  1  0.743821  0.250011  0.756131  1
  I  I20  1  0.993880  0.987689  0.743869  1
  I  I21  1  0.249921  0.993881  0.506042  1
  I  I22  1  0.758295  0.515311  0.512024  1
  I  I23  1  0.503286  0.246272  0.987976  1
  I  I24  1  0.758434  0.745841  0.249692  1
  I  I25  1  0.743908  0.990577  0.984986  1
  I  I26  1  0.996149  0.508741  0.250308  1
  I  I27  1  0.505591  0.758922  0.515014  1
