# generated using pymatgen
data_Sc4Fe2B4IrRh9
_symmetry_space_group_name_H-M   'P 1'
_cell_length_a   9.32360803
_cell_length_b   9.32042103
_cell_length_c   3.08810000
_cell_angle_alpha   90.00000000
_cell_angle_beta   90.00000000
_cell_angle_gamma   90.00944070
_symmetry_Int_Tables_number   1
_chemical_formula_structural   Sc4Fe2B4IrRh9
_chemical_formula_sum   'Sc4 Fe2 B4 Ir1 Rh9'
_cell_volume   268.35573933
_cell_formula_units_Z   1
loop_
 _symmetry_equiv_pos_site_id
 _symmetry_equiv_pos_as_xyz
  1  'x, y, z'
loop_
 _atom_site_type_symbol
 _atom_site_label
 _atom_site_symmetry_multiplicity
 _atom_site_fract_x
 _atom_site_fract_y
 _atom_site_fract_z
 _atom_site_occupancy
  Sc  Sc0  1  0.674992  0.175086  0.000000  1
  Sc  Sc1  1  0.174825  0.325285  0.000000  1
  Sc  Sc2  1  0.824833  0.675091  0.000000  1
  Sc  Sc3  1  0.324914  0.825045  0.000000  1
  Fe  Fe4  1  0.999876  0.999965  0.000000  1
  Fe  Fe5  1  0.500097  0.500105  0.000000  1
  B  B6  1  0.375169  0.123459  0.000000  1
  B  B7  1  0.876071  0.376439  0.000000  1
  B  B8  1  0.124018  0.623654  0.000000  1
  B  B9  1  0.623579  0.876032  0.000000  1
  Ir  Ir10  1  0.215276  0.070355  0.500001  1
  Rh  Rh11  1  0.500777  0.999886  0.500001  1
  Rh  Rh12  1  0.929368  0.215805  0.500001  1
  Rh  Rh13  1  0.429837  0.284855  0.500001  1
  Rh  Rh14  1  0.715668  0.428782  0.500001  1
  Rh  Rh15  1  0.999802  0.500391  0.500001  1
  Rh  Rh16  1  0.284459  0.570889  0.500001  1
  Rh  Rh17  1  0.571031  0.715318  0.500001  1
  Rh  Rh18  1  0.070872  0.784353  0.500001  1
  Rh  Rh19  1  0.784534  0.929206  0.500001  1
