# generated using pymatgen
data_Tb4TcIr2Ru5
_symmetry_space_group_name_H-M   'P 1'
_cell_length_a   5.39470300
_cell_length_b   5.22051249
_cell_length_c   9.03754100
_cell_angle_alpha   90.00000000
_cell_angle_beta   90.00000000
_cell_angle_gamma   121.11002765
_symmetry_Int_Tables_number   1
_chemical_formula_structural   Tb4TcIr2Ru5
_chemical_formula_sum   'Tb4 Tc1 Ir2 Ru5'
_cell_volume   217.91862467
_cell_formula_units_Z   1
loop_
 _symmetry_equiv_pos_site_id
 _symmetry_equiv_pos_as_xyz
  1  'x, y, z'
loop_
 _atom_site_type_symbol
 _atom_site_label
 _atom_site_symmetry_multiplicity
 _atom_site_fract_x
 _atom_site_fract_y
 _atom_site_fract_z
 _atom_site_occupancy
  Tb  Tb0  1  0.669090  0.338179  0.066975  1
  Tb  Tb1  1  0.669090  0.338179  0.433025  1
  Tb  Tb2  1  0.335965  0.671931  0.568921  1
  Tb  Tb3  1  0.335965  0.671931  0.931079  1
  Tc  Tc4  1  0.165719  0.331438  0.250000  1
  Ir  Ir5  1  0.003292  0.006585  0.998961  1
  Ir  Ir6  1  0.003292  0.006585  0.501039  1
  Ru  Ru7  1  0.168506  0.822967  0.250000  1
  Ru  Ru8  1  0.654462  0.822967  0.250000  1
  Ru  Ru9  1  0.334593  0.170266  0.750000  1
  Ru  Ru10  1  0.835672  0.170266  0.750000  1
  Ru  Ru11  1  0.824354  0.648708  0.750000  1
