# generated using pymatgen
data_Pu5PaO20
_symmetry_space_group_name_H-M   'P 1'
_cell_length_a   8.14782134
_cell_length_b   8.16223453
_cell_length_c   8.01597600
_cell_angle_alpha   88.92271978
_cell_angle_beta   90.96321642
_cell_angle_gamma   119.41530160
_symmetry_Int_Tables_number   1
_chemical_formula_structural   Pu5PaO20
_chemical_formula_sum   'Pu5 Pa1 O20'
_cell_volume   464.27270074
_cell_formula_units_Z   1
loop_
 _symmetry_equiv_pos_site_id
 _symmetry_equiv_pos_as_xyz
  1  'x, y, z'
loop_
 _atom_site_type_symbol
 _atom_site_label
 _atom_site_symmetry_multiplicity
 _atom_site_fract_x
 _atom_site_fract_y
 _atom_site_fract_z
 _atom_site_occupancy
  Pu  Pu0  1  0.018299  0.982532  0.500566  1
  Pu  Pu1  1  0.514806  0.483911  0.999721  1
  Pu  Pu2  1  0.268686  0.734168  0.749105  1
  Pu  Pu3  1  0.264519  0.732100  0.249173  1
  Pu  Pu4  1  0.768697  0.234274  0.750992  1
  Pa  Pa5  1  0.764632  0.232121  0.250686  1
  O  O6  1  0.136245  0.860718  0.296360  1
  O  O7  1  0.120480  0.884569  0.677373  1
  O  O8  1  0.618367  0.374307  0.179926  1
  O  O9  1  0.641262  0.361750  0.805044  1
  O  O10  1  0.897251  0.107631  0.697942  1
  O  O11  1  0.908775  0.087930  0.322286  1
  O  O12  1  0.418764  0.585420  0.820590  1
  O  O13  1  0.390847  0.601683  0.201683  1
  O  O14  1  0.035314  0.500928  0.748345  1
  O  O15  1  0.501993  0.968113  0.247786  1
  O  O16  1  0.502324  0.967234  0.750888  1
  O  O17  1  0.026843  0.496266  0.251229  1
  O  O18  1  0.306662  0.698004  0.520825  1
  O  O19  1  0.808201  0.196237  0.989185  1
  O  O20  1  0.727745  0.271524  0.512917  1
  O  O21  1  0.229061  0.769863  0.977115  1
  O  O22  1  0.233639  0.198971  0.494972  1
  O  O23  1  0.801029  0.768010  0.502419  1
  O  O24  1  0.731905  0.698647  0.004999  1
  O  O25  1  0.299655  0.267085  0.997868  1
