# generated using pymatgen
data_NpScCrB6
_symmetry_space_group_name_H-M   'P 1'
_cell_length_a   3.45804800
_cell_length_b   8.96623900
_cell_length_c   11.33090000
_cell_angle_alpha   90.00000000
_cell_angle_beta   90.00000000
_cell_angle_gamma   90.00000000
_symmetry_Int_Tables_number   1
_chemical_formula_structural   NpScCrB6
_chemical_formula_sum   'Np4 Sc4 Cr4 B24'
_cell_volume   351.32231437
_cell_formula_units_Z   4
loop_
 _symmetry_equiv_pos_site_id
 _symmetry_equiv_pos_as_xyz
  1  'x, y, z'
loop_
 _atom_site_type_symbol
 _atom_site_label
 _atom_site_symmetry_multiplicity
 _atom_site_fract_x
 _atom_site_fract_y
 _atom_site_fract_z
 _atom_site_occupancy
  Np  Np0  1  0.000000  0.822010  0.085032  1
  Np  Np1  1  0.000000  0.177990  0.914968  1
  Np  Np2  1  0.000000  0.322010  0.414968  1
  Np  Np3  1  0.000000  0.677990  0.585032  1
  Sc  Sc4  1  0.000000  0.444229  0.129108  1
  Sc  Sc5  1  0.000000  0.555771  0.870892  1
  Sc  Sc6  1  0.000000  0.944229  0.370892  1
  Sc  Sc7  1  0.000000  0.055771  0.629108  1
  Cr  Cr8  1  0.000000  0.140020  0.179788  1
  Cr  Cr9  1  0.000000  0.859980  0.820212  1
  Cr  Cr10  1  0.000000  0.640020  0.320212  1
  Cr  Cr11  1  0.000000  0.359980  0.679788  1
  B  B12  1  0.500000  0.053546  0.067294  1
  B  B13  1  0.500000  0.946454  0.932706  1
  B  B14  1  0.500000  0.553546  0.432706  1
  B  B15  1  0.500000  0.446454  0.567294  1
  B  B16  1  0.500000  0.252350  0.081339  1
  B  B17  1  0.500000  0.747650  0.918661  1
  B  B18  1  0.500000  0.752350  0.418661  1
  B  B19  1  0.500000  0.247650  0.581339  1
  B  B20  1  0.500000  0.294510  0.235067  1
  B  B21  1  0.500000  0.705490  0.764933  1
  B  B22  1  0.500000  0.794510  0.264933  1
  B  B23  1  0.500000  0.205490  0.735067  1
  B  B24  1  0.500000  0.130715  0.316720  1
  B  B25  1  0.500000  0.869285  0.683280  1
  B  B26  1  0.500000  0.630715  0.183280  1
  B  B27  1  0.500000  0.369285  0.816720  1
  B  B28  1  0.500000  0.481541  0.286518  1
  B  B29  1  0.500000  0.518459  0.713482  1
  B  B30  1  0.500000  0.981541  0.213482  1
  B  B31  1  0.500000  0.018459  0.786518  1
  B  B32  1  0.500000  0.099403  0.472757  1
  B  B33  1  0.500000  0.900597  0.527243  1
  B  B34  1  0.500000  0.599403  0.027243  1
  B  B35  1  0.500000  0.400597  0.972757  1
