# generated using pymatgen
data_V6Ga3IrN2
_symmetry_space_group_name_H-M   'P 1'
_cell_length_a   6.62053498
_cell_length_b   6.61579301
_cell_length_c   6.63246400
_cell_angle_alpha   90.00000000
_cell_angle_beta   90.00000000
_cell_angle_gamma   90.33921294
_symmetry_Int_Tables_number   1
_chemical_formula_structural   V6Ga3IrN2
_chemical_formula_sum   'V12 Ga6 Ir2 N4'
_cell_volume   290.49742274
_cell_formula_units_Z   2
loop_
 _symmetry_equiv_pos_site_id
 _symmetry_equiv_pos_as_xyz
  1  'x, y, z'
loop_
 _atom_site_type_symbol
 _atom_site_label
 _atom_site_symmetry_multiplicity
 _atom_site_fract_x
 _atom_site_fract_y
 _atom_site_fract_z
 _atom_site_occupancy
  V  V0  1  0.791722  0.960432  0.374786  1
  V  V1  1  0.708278  0.039568  0.874786  1
  V  V2  1  0.214110  0.457378  0.123311  1
  V  V3  1  0.285890  0.542622  0.623311  1
  V  V4  1  0.961535  0.381871  0.788361  1
  V  V5  1  0.045768  0.877245  0.709393  1
  V  V6  1  0.454232  0.122755  0.209393  1
  V  V7  1  0.538465  0.618129  0.288361  1
  V  V8  1  0.379060  0.792078  0.961305  1
  V  V9  1  0.875988  0.710534  0.042199  1
  V  V10  1  0.120940  0.207922  0.461305  1
  V  V11  1  0.624012  0.289466  0.542199  1
  Ga  Ga12  1  0.819615  0.320499  0.178556  1
  Ga  Ga13  1  0.680385  0.679501  0.678556  1
  Ga  Ga14  1  0.568026  0.431612  0.930396  1
  Ga  Ga15  1  0.432532  0.930213  0.567037  1
  Ga  Ga16  1  0.931974  0.568388  0.430396  1
  Ga  Ga17  1  0.067468  0.069787  0.067037  1
  Ir  Ir18  1  0.179146  0.822294  0.318780  1
  Ir  Ir19  1  0.320854  0.177706  0.818780  1
  N  N20  1  0.875155  0.123638  0.628547  1
  N  N21  1  0.624845  0.876362  0.128547  1
  N  N22  1  0.129133  0.629323  0.877330  1
  N  N23  1  0.370867  0.370677  0.377330  1
