# generated using pymatgen
data_Rb6InSb3
_symmetry_space_group_name_H-M   'P 1'
_cell_length_a   6.35591700
_cell_length_b   11.07410796
_cell_length_c   12.93147398
_cell_angle_alpha   78.85086311
_cell_angle_beta   90.00000000
_cell_angle_gamma   90.00000000
_symmetry_Int_Tables_number   1
_chemical_formula_structural   Rb6InSb3
_chemical_formula_sum   'Rb12 In2 Sb6'
_cell_volume   893.01820989
_cell_formula_units_Z   2
loop_
 _symmetry_equiv_pos_site_id
 _symmetry_equiv_pos_as_xyz
  1  'x, y, z'
loop_
 _atom_site_type_symbol
 _atom_site_label
 _atom_site_symmetry_multiplicity
 _atom_site_fract_x
 _atom_site_fract_y
 _atom_site_fract_z
 _atom_site_occupancy
  Rb  Rb0  1  0.750000  0.463583  0.075439  1
  Rb  Rb1  1  0.250000  0.536417  0.924561  1
  Rb  Rb2  1  0.750000  0.739767  0.226197  1
  Rb  Rb3  1  0.250000  0.260233  0.773803  1
  Rb  Rb4  1  0.250000  0.565837  0.531110  1
  Rb  Rb5  1  0.750000  0.434163  0.468890  1
  Rb  Rb6  1  0.250000  0.866948  0.017734  1
  Rb  Rb7  1  0.750000  0.133052  0.982266  1
  Rb  Rb8  1  0.250000  0.878003  0.673850  1
  Rb  Rb9  1  0.750000  0.121997  0.326150  1
  Rb  Rb10  1  0.250000  0.920113  0.366572  1
  Rb  Rb11  1  0.750000  0.079887  0.633428  1
  In  In12  1  0.250000  0.322952  0.278675  1
  In  In13  1  0.750000  0.677048  0.721325  1
  Sb  Sb14  1  0.250000  0.170879  0.121933  1
  Sb  Sb15  1  0.750000  0.829121  0.878067  1
  Sb  Sb16  1  0.250000  0.210627  0.494723  1
  Sb  Sb17  1  0.750000  0.789373  0.505277  1
  Sb  Sb18  1  0.250000  0.580119  0.221158  1
  Sb  Sb19  1  0.750000  0.419881  0.778842  1
