# generated using pymatgen
data_AcTbRh2F14
_symmetry_space_group_name_H-M   'P 1'
_cell_length_a   5.68246740
_cell_length_b   9.24562811
_cell_length_c   12.33918665
_cell_angle_alpha   61.96999885
_cell_angle_beta   89.57166890
_cell_angle_gamma   89.64646026
_symmetry_Int_Tables_number   1
_chemical_formula_structural   AcTbRh2F14
_chemical_formula_sum   'Ac2 Tb2 Rh4 F28'
_cell_volume   572.21566149
_cell_formula_units_Z   2
loop_
 _symmetry_equiv_pos_site_id
 _symmetry_equiv_pos_as_xyz
  1  'x, y, z'
loop_
 _atom_site_type_symbol
 _atom_site_label
 _atom_site_symmetry_multiplicity
 _atom_site_fract_x
 _atom_site_fract_y
 _atom_site_fract_z
 _atom_site_occupancy
  Ac  Ac0  1  0.260796  0.814101  0.265151  1
  Ac  Ac1  1  0.739204  0.185899  0.734849  1
  Tb  Tb2  1  0.764059  0.194884  0.234255  1
  Tb  Tb3  1  0.235941  0.805116  0.765745  1
  Rh  Rh4  1  0.756458  0.717060  0.039792  1
  Rh  Rh5  1  0.243542  0.282940  0.960208  1
  Rh  Rh6  1  0.257617  0.266382  0.451675  1
  Rh  Rh7  1  0.742383  0.733618  0.548325  1
  F  F8  1  0.929254  0.710743  0.423894  1
  F  F9  1  0.070746  0.289257  0.576106  1
  F  F10  1  0.435361  0.294342  0.085865  1
  F  F11  1  0.564639  0.705658  0.914135  1
  F  F12  1  0.472643  0.721093  0.127146  1
  F  F13  1  0.527357  0.278907  0.872854  1
  F  F14  1  0.969291  0.264896  0.365009  1
  F  F15  1  0.030709  0.735104  0.634991  1
  F  F16  1  0.939019  0.730304  0.167867  1
  F  F17  1  0.060981  0.269696  0.832133  1
  F  F18  1  0.451176  0.248623  0.325760  1
  F  F19  1  0.548824  0.751377  0.674240  1
  F  F20  1  0.765427  0.478951  0.134127  1
  F  F21  1  0.234573  0.521049  0.865873  1
  F  F22  1  0.265478  0.502357  0.358048  1
  F  F23  1  0.734522  0.497643  0.641952  1
  F  F24  1  0.950011  0.284861  0.045390  1
  F  F25  1  0.049989  0.715139  0.954610  1
  F  F26  1  0.455214  0.720487  0.467321  1
  F  F27  1  0.544786  0.279513  0.532679  1
  F  F28  1  0.739340  0.969228  0.452046  1
  F  F29  1  0.260660  0.030772  0.547954  1
  F  F30  1  0.242736  0.045576  0.045492  1
  F  F31  1  0.757264  0.954424  0.954508  1
  F  F32  1  0.610013  0.983223  0.229028  1
  F  F33  1  0.389987  0.016777  0.770972  1
  F  F34  1  0.082983  0.047194  0.269963  1
  F  F35  1  0.917017  0.952806  0.730037  1
