# generated using pymatgen
data_LuThMn12P7
_symmetry_space_group_name_H-M   'P 1'
_cell_length_a   9.31059200
_cell_length_b   9.31059320
_cell_length_c   3.62501700
_cell_angle_alpha   90.00000000
_cell_angle_beta   90.00000000
_cell_angle_gamma   120.00000286
_symmetry_Int_Tables_number   1
_chemical_formula_structural   LuThMn12P7
_chemical_formula_sum   'Lu1 Th1 Mn12 P7'
_cell_volume   272.14183838
_cell_formula_units_Z   1
loop_
 _symmetry_equiv_pos_site_id
 _symmetry_equiv_pos_as_xyz
  1  'x, y, z'
loop_
 _atom_site_type_symbol
 _atom_site_label
 _atom_site_symmetry_multiplicity
 _atom_site_fract_x
 _atom_site_fract_y
 _atom_site_fract_z
 _atom_site_occupancy
  Lu  Lu0  1  0.666667  0.333333  0.000000  1
  Th  Th1  1  0.000000  0.000000  0.500000  1
  Mn  Mn2  1  0.759302  0.713949  0.000000  1
  Mn  Mn3  1  0.286051  0.045354  0.000000  1
  Mn  Mn4  1  0.954646  0.240698  0.000000  1
  Mn  Mn5  1  0.487155  0.943314  0.000000  1
  Mn  Mn6  1  0.056686  0.543841  0.000000  1
  Mn  Mn7  1  0.456159  0.512845  0.000000  1
  Mn  Mn8  1  0.724171  0.105221  0.500000  1
  Mn  Mn9  1  0.894779  0.618951  0.500000  1
  Mn  Mn10  1  0.381049  0.275829  0.500000  1
  Mn  Mn11  1  0.558136  0.768094  0.500000  1
  Mn  Mn12  1  0.231906  0.790043  0.500000  1
  Mn  Mn13  1  0.209957  0.441864  0.500000  1
  P  P14  1  0.462360  0.077692  0.500000  1
  P  P15  1  0.922308  0.384668  0.500000  1
  P  P16  1  0.615332  0.537640  0.500000  1
  P  P17  1  0.735487  0.955359  0.000000  1
  P  P18  1  0.044641  0.780128  0.000000  1
  P  P19  1  0.219872  0.264513  0.000000  1
  P  P20  1  0.333333  0.666667  0.000000  1
