# generated using pymatgen
data_Ti17V2Si16Tc
_symmetry_space_group_name_H-M   'P 1'
_cell_length_a   6.64458127
_cell_length_b   6.64595815
_cell_length_c   12.12800615
_cell_angle_alpha   89.89083071
_cell_angle_beta   90.03958396
_cell_angle_gamma   89.96904579
_symmetry_Int_Tables_number   1
_chemical_formula_structural   Ti17V2Si16Tc
_chemical_formula_sum   'Ti17 V2 Si16 Tc1'
_cell_volume   535.56683114
_cell_formula_units_Z   1
loop_
 _symmetry_equiv_pos_site_id
 _symmetry_equiv_pos_as_xyz
  1  'x, y, z'
loop_
 _atom_site_type_symbol
 _atom_site_label
 _atom_site_symmetry_multiplicity
 _atom_site_fract_x
 _atom_site_fract_y
 _atom_site_fract_z
 _atom_site_occupancy
  Ti  Ti0  1  0.998325  0.148430  0.622329  1
  Ti  Ti1  1  0.349807  0.495182  0.872664  1
  Ti  Ti2  1  0.647800  0.505021  0.372446  1
  Ti  Ti3  1  0.495231  0.352020  0.127155  1
  Ti  Ti4  1  0.505125  0.650103  0.627847  1
  Ti  Ti5  1  0.005365  0.850774  0.121028  1
  Ti  Ti6  1  0.149199  0.996354  0.376411  1
  Ti  Ti7  1  0.852035  0.003282  0.880192  1
  Ti  Ti8  1  0.001647  0.343247  0.219907  1
  Ti  Ti9  1  0.157273  0.501092  0.470753  1
  Ti  Ti10  1  0.842860  0.499185  0.972375  1
  Ti  Ti11  1  0.500497  0.155236  0.528199  1
  Ti  Ti12  1  0.498365  0.840746  0.028799  1
  Ti  Ti13  1  0.001348  0.660132  0.721080  1
  Ti  Ti14  1  0.339882  0.999018  0.779182  1
  Ti  Ti15  1  0.657233  0.999264  0.279574  1
  Ti  Ti16  1  0.828524  0.829299  0.500481  1
  V  V17  1  0.170586  0.171448  0.999395  1
  V  V18  1  0.328646  0.671087  0.248805  1
  Si  Si19  1  0.042527  0.301412  0.816362  1
  Si  Si20  1  0.197672  0.541452  0.065706  1
  Si  Si21  1  0.801659  0.454453  0.565835  1
  Si  Si22  1  0.540922  0.196944  0.935594  1
  Si  Si23  1  0.453872  0.801100  0.432871  1
  Si  Si24  1  0.959514  0.696825  0.313850  1
  Si  Si25  1  0.302197  0.042624  0.183745  1
  Si  Si26  1  0.697738  0.959669  0.686004  1
  Si  Si27  1  0.295686  0.358598  0.672906  1
  Si  Si28  1  0.143985  0.796460  0.924529  1
  Si  Si29  1  0.857438  0.205616  0.424093  1
  Si  Si30  1  0.797004  0.143583  0.076408  1
  Si  Si31  1  0.205738  0.856975  0.574915  1
  Si  Si32  1  0.703390  0.643347  0.174630  1
  Si  Si33  1  0.357287  0.296813  0.325106  1
  Si  Si34  1  0.641610  0.705169  0.827493  1
  Tc  Tc35  1  0.672013  0.328041  0.751335  1
