# generated using pymatgen
data_Li4Ac16Si15Ge
_symmetry_space_group_name_H-M   'P 1'
_cell_length_a   7.77572761
_cell_length_b   8.39540661
_cell_length_c   16.06262200
_cell_angle_alpha   90.02904575
_cell_angle_beta   89.94476540
_cell_angle_gamma   90.02050197
_symmetry_Int_Tables_number   1
_chemical_formula_structural   Li4Ac16Si15Ge
_chemical_formula_sum   'Li4 Ac16 Si15 Ge1'
_cell_volume   1048.57362058
_cell_formula_units_Z   1
loop_
 _symmetry_equiv_pos_site_id
 _symmetry_equiv_pos_as_xyz
  1  'x, y, z'
loop_
 _atom_site_type_symbol
 _atom_site_label
 _atom_site_symmetry_multiplicity
 _atom_site_fract_x
 _atom_site_fract_y
 _atom_site_fract_z
 _atom_site_occupancy
  Li  Li0  1  0.665362  0.959095  0.751199  1
  Li  Li1  1  0.164474  0.540992  0.750092  1
  Li  Li2  1  0.335249  0.040989  0.249492  1
  Li  Li3  1  0.835401  0.459379  0.250247  1
  Ac  Ac4  1  0.534375  0.307411  0.103589  1
  Ac  Ac5  1  0.033522  0.192352  0.396040  1
  Ac  Ac6  1  0.468195  0.693879  0.603699  1
  Ac  Ac7  1  0.965589  0.806930  0.896791  1
  Ac  Ac8  1  0.465350  0.692580  0.896500  1
  Ac  Ac9  1  0.965335  0.808098  0.603445  1
  Ac  Ac10  1  0.533693  0.307146  0.396084  1
  Ac  Ac11  1  0.034332  0.193090  0.103357  1
  Ac  Ac12  1  0.819750  0.316116  0.628589  1
  Ac  Ac13  1  0.320047  0.183166  0.871293  1
  Ac  Ac14  1  0.179611  0.683642  0.128684  1
  Ac  Ac15  1  0.678843  0.817171  0.370631  1
  Ac  Ac16  1  0.178496  0.684071  0.370813  1
  Ac  Ac17  1  0.679596  0.816792  0.128742  1
  Ac  Ac18  1  0.820146  0.316428  0.871197  1
  Ac  Ac19  1  0.322153  0.180512  0.629834  1
  Si  Si20  1  0.641952  0.028156  0.532643  1
  Si  Si21  1  0.141241  0.472554  0.966365  1
  Si  Si22  1  0.358729  0.972590  0.033757  1
  Si  Si23  1  0.854285  0.528300  0.465691  1
  Si  Si24  1  0.358249  0.972314  0.466413  1
  Si  Si25  1  0.858570  0.527481  0.033682  1
  Si  Si26  1  0.641137  0.027564  0.966313  1
  Si  Si27  1  0.513612  0.431568  0.749979  1
  Si  Si28  1  0.013273  0.068342  0.750122  1
  Si  Si29  1  0.485700  0.568872  0.249872  1
  Si  Si30  1  0.986296  0.931894  0.249737  1
  Si  Si31  1  0.751360  0.623824  0.750127  1
  Si  Si32  1  0.249647  0.874729  0.750310  1
  Si  Si33  1  0.248718  0.376157  0.249885  1
  Si  Si34  1  0.749455  0.124643  0.249680  1
  Ge  Ge35  1  0.148259  0.471173  0.535106  1
