# generated using pymatgen
data_TbYbY5RuI12
_symmetry_space_group_name_H-M   'P 1'
_cell_length_a   9.80042346
_cell_length_b   9.79905486
_cell_length_c   9.88697085
_cell_angle_alpha   107.34138016
_cell_angle_beta   107.18650067
_cell_angle_gamma   106.70790828
_symmetry_Int_Tables_number   1
_chemical_formula_structural   TbYbY5RuI12
_chemical_formula_sum   'Tb1 Yb1 Y5 Ru1 I12'
_cell_volume   789.02604537
_cell_formula_units_Z   1
loop_
 _symmetry_equiv_pos_site_id
 _symmetry_equiv_pos_as_xyz
  1  'x, y, z'
loop_
 _atom_site_type_symbol
 _atom_site_label
 _atom_site_symmetry_multiplicity
 _atom_site_fract_x
 _atom_site_fract_y
 _atom_site_fract_z
 _atom_site_occupancy
  Tb  Tb0  1  0.293640  0.025071  0.094766  1
  Yb  Yb1  1  0.499933  0.500059  0.500032  1
  Y  Y2  1  0.903360  0.704386  0.976632  1
  Y  Y3  1  0.974785  0.902534  0.694401  1
  Y  Y4  1  0.706330  0.974666  0.905321  1
  Y  Y5  1  0.096509  0.295542  0.023291  1
  Y  Y6  1  0.025162  0.097478  0.305422  1
  Ru  Ru7  1  0.000624  0.999966  0.000067  1
  I  I8  1  0.619191  0.848165  0.544021  1
  I  I9  1  0.541757  0.620088  0.846358  1
  I  I10  1  0.849178  0.543862  0.622596  1
  I  I11  1  0.380652  0.152240  0.456734  1
  I  I12  1  0.458133  0.380350  0.153713  1
  I  I13  1  0.150683  0.456150  0.377342  1
  I  I14  1  0.680713  0.073369  0.222903  1
  I  I15  1  0.223888  0.681279  0.073691  1
  I  I16  1  0.073807  0.225955  0.679884  1
  I  I17  1  0.319934  0.926674  0.776615  1
  I  I18  1  0.775689  0.318163  0.926159  1
  I  I19  1  0.926032  0.774003  0.320053  1
