# generated using pymatgen
data_Li7Tb6Dy2ZnSn8
_symmetry_space_group_name_H-M   'P 1'
_cell_length_a   9.40027600
_cell_length_b   9.38953389
_cell_length_c   7.32320713
_cell_angle_alpha   89.94843792
_cell_angle_beta   90.00000000
_cell_angle_gamma   120.03784510
_symmetry_Int_Tables_number   1
_chemical_formula_structural   Li7Tb6Dy2ZnSn8
_chemical_formula_sum   'Li7 Tb6 Dy2 Zn1 Sn8'
_cell_volume   559.56508480
_cell_formula_units_Z   1
loop_
 _symmetry_equiv_pos_site_id
 _symmetry_equiv_pos_as_xyz
  1  'x, y, z'
loop_
 _atom_site_type_symbol
 _atom_site_label
 _atom_site_symmetry_multiplicity
 _atom_site_fract_x
 _atom_site_fract_y
 _atom_site_fract_z
 _atom_site_occupancy
  Li  Li0  1  0.164983  0.832534  0.289265  1
  Li  Li1  1  0.667551  0.832534  0.289265  1
  Li  Li2  1  0.833399  0.666798  0.789302  1
  Li  Li3  1  0.832441  0.166132  0.788776  1
  Li  Li4  1  0.333692  0.166132  0.788776  1
  Li  Li5  1  0.334116  0.668232  0.676110  1
  Li  Li6  1  0.667865  0.335730  0.173254  1
  Tb  Tb7  1  0.511835  0.023670  0.497637  1
  Tb  Tb8  1  0.511580  0.488329  0.493725  1
  Tb  Tb9  1  0.976750  0.488329  0.493725  1
  Tb  Tb10  1  0.488388  0.976777  0.990196  1
  Tb  Tb11  1  0.487156  0.510754  0.993076  1
  Tb  Tb12  1  0.023597  0.510754  0.993076  1
  Dy  Dy13  1  0.999402  0.998804  0.499434  1
  Dy  Dy14  1  0.000777  0.001553  0.998383  1
  Zn  Zn15  1  0.166345  0.332688  0.298090  1
  Sn  Sn16  1  0.165945  0.331891  0.728788  1
  Sn  Sn17  1  0.165447  0.833198  0.728398  1
  Sn  Sn18  1  0.667752  0.833198  0.728398  1
  Sn  Sn19  1  0.834029  0.668057  0.229774  1
  Sn  Sn20  1  0.832397  0.165629  0.226715  1
  Sn  Sn21  1  0.333231  0.165629  0.226715  1
  Sn  Sn22  1  0.334375  0.668750  0.259399  1
  Sn  Sn23  1  0.666948  0.333894  0.761720  1
