# generated using pymatgen
data_Y13Th3MgCd(HgRh2)2
_symmetry_space_group_name_H-M   'P 1'
_cell_length_a   9.72493261
_cell_length_b   9.74852086
_cell_length_c   9.74852000
_cell_angle_alpha   59.99999613
_cell_angle_beta   59.91972729
_cell_angle_gamma   59.91972662
_symmetry_Int_Tables_number   1
_chemical_formula_structural   Y13Th3MgCd(HgRh2)2
_chemical_formula_sum   'Y13 Th3 Mg1 Cd1 Hg2 Rh4'
_cell_volume   652.71109388
_cell_formula_units_Z   1
loop_
 _symmetry_equiv_pos_site_id
 _symmetry_equiv_pos_as_xyz
  1  'x, y, z'
loop_
 _atom_site_type_symbol
 _atom_site_label
 _atom_site_symmetry_multiplicity
 _atom_site_fract_x
 _atom_site_fract_y
 _atom_site_fract_z
 _atom_site_occupancy
  Y  Y0  1  0.186944  0.604157  0.604157  1
  Y  Y1  1  0.059499  0.440753  0.440753  1
  Y  Y2  1  0.435990  0.063587  0.063587  1
  Y  Y3  1  0.435727  0.063495  0.437469  1
  Y  Y4  1  0.060161  0.440499  0.059457  1
  Y  Y5  1  0.435727  0.437469  0.063495  1
  Y  Y6  1  0.060161  0.059457  0.440499  1
  Y  Y7  1  0.185582  0.815195  0.815195  1
  Y  Y8  1  0.813706  0.185474  0.185474  1
  Y  Y9  1  0.813870  0.186297  0.815901  1
  Y  Y10  1  0.184670  0.814759  0.186057  1
  Y  Y11  1  0.813870  0.815901  0.186297  1
  Y  Y12  1  0.184670  0.186057  0.814759  1
  Th  Th13  1  0.598089  0.599504  0.599504  1
  Th  Th14  1  0.597569  0.599165  0.203641  1
  Th  Th15  1  0.597569  0.203641  0.599165  1
  Mg  Mg16  1  0.526452  0.824169  0.824169  1
  Cd  Cd17  1  0.833847  0.833704  0.833704  1
  Hg  Hg18  1  0.835767  0.837998  0.490057  1
  Hg  Hg19  1  0.835767  0.490057  0.837998  1
  Rh  Rh20  1  0.396269  0.393033  0.393033  1
  Rh  Rh21  1  0.395973  0.393098  0.817903  1
  Rh  Rh22  1  0.395973  0.817903  0.393098  1
  Rh  Rh23  1  0.816147  0.394626  0.394626  1
