# generated using pymatgen
data_Tb17Y3Cd3Hg3Ru2
_symmetry_space_group_name_H-M   'P 1'
_cell_length_a   9.65817400
_cell_length_b   9.65817310
_cell_length_c   9.83602100
_cell_angle_alpha   90.00000000
_cell_angle_beta   90.00000000
_cell_angle_gamma   120.00000308
_symmetry_Int_Tables_number   1
_chemical_formula_structural   Tb17Y3Cd3Hg3Ru2
_chemical_formula_sum   'Tb17 Y3 Cd3 Hg3 Ru2'
_cell_volume   794.58447567
_cell_formula_units_Z   1
loop_
 _symmetry_equiv_pos_site_id
 _symmetry_equiv_pos_as_xyz
  1  'x, y, z'
loop_
 _atom_site_type_symbol
 _atom_site_label
 _atom_site_symmetry_multiplicity
 _atom_site_fract_x
 _atom_site_fract_y
 _atom_site_fract_z
 _atom_site_occupancy
  Tb  Tb0  1  0.000000  0.000000  0.491618  1
  Tb  Tb1  1  0.000000  0.000000  0.008382  1
  Tb  Tb2  1  0.209417  0.790583  0.439185  1
  Tb  Tb3  1  0.209417  0.418835  0.439185  1
  Tb  Tb4  1  0.581165  0.790583  0.439185  1
  Tb  Tb5  1  0.790317  0.209683  0.559834  1
  Tb  Tb6  1  0.790317  0.580633  0.559834  1
  Tb  Tb7  1  0.419367  0.209683  0.559834  1
  Tb  Tb8  1  0.790317  0.209683  0.940166  1
  Tb  Tb9  1  0.790317  0.580633  0.940166  1
  Tb  Tb10  1  0.419367  0.209683  0.940166  1
  Tb  Tb11  1  0.209417  0.790583  0.060815  1
  Tb  Tb12  1  0.209417  0.418835  0.060815  1
  Tb  Tb13  1  0.581165  0.790583  0.060815  1
  Tb  Tb14  1  0.541317  0.458683  0.250000  1
  Tb  Tb15  1  0.541317  0.082636  0.250000  1
  Tb  Tb16  1  0.917364  0.458683  0.250000  1
  Y  Y17  1  0.458729  0.541271  0.750000  1
  Y  Y18  1  0.458729  0.917458  0.750000  1
  Y  Y19  1  0.082542  0.541271  0.750000  1
  Cd  Cd20  1  0.113513  0.886487  0.750000  1
  Cd  Cd21  1  0.113513  0.227026  0.750000  1
  Cd  Cd22  1  0.772974  0.886487  0.750000  1
  Hg  Hg23  1  0.879883  0.120117  0.250000  1
  Hg  Hg24  1  0.879883  0.759768  0.250000  1
  Hg  Hg25  1  0.240232  0.120117  0.250000  1
  Ru  Ru26  1  0.333333  0.666667  0.250000  1
  Ru  Ru27  1  0.666667  0.333333  0.750000  1
