# generated using pymatgen
data_YbPa3(ZnIr)4
_symmetry_space_group_name_H-M   'P 1'
_cell_length_a   3.92336400
_cell_length_b   7.08219119
_cell_length_c   8.32086806
_cell_angle_alpha   90.09265502
_cell_angle_beta   90.00000000
_cell_angle_gamma   90.00000000
_symmetry_Int_Tables_number   1
_chemical_formula_structural   YbPa3(ZnIr)4
_chemical_formula_sum   'Yb1 Pa3 Zn4 Ir4'
_cell_volume   231.20345388
_cell_formula_units_Z   1
loop_
 _symmetry_equiv_pos_site_id
 _symmetry_equiv_pos_as_xyz
  1  'x, y, z'
loop_
 _atom_site_type_symbol
 _atom_site_label
 _atom_site_symmetry_multiplicity
 _atom_site_fract_x
 _atom_site_fract_y
 _atom_site_fract_z
 _atom_site_occupancy
  Yb  Yb0  1  0.250000  0.057144  0.312733  1
  Pa  Pa1  1  0.250000  0.557930  0.189795  1
  Pa  Pa2  1  0.750000  0.449040  0.814542  1
  Pa  Pa3  1  0.750000  0.948259  0.682412  1
  Zn  Zn4  1  0.250000  0.617879  0.556707  1
  Zn  Zn5  1  0.750000  0.363483  0.440538  1
  Zn  Zn6  1  0.750000  0.886452  0.063694  1
  Zn  Zn7  1  0.250000  0.117815  0.946897  1
  Ir  Ir8  1  0.250000  0.734623  0.864160  1
  Ir  Ir9  1  0.750000  0.286106  0.117593  1
  Ir  Ir10  1  0.750000  0.746857  0.366711  1
  Ir  Ir11  1  0.250000  0.234413  0.644215  1
