# generated using pymatgen
data_Tm4Sc4Cr3NiB24
_symmetry_space_group_name_H-M   'P 1'
_cell_length_a   3.43458900
_cell_length_b   8.94963297
_cell_length_c   11.30523651
_cell_angle_alpha   89.86779402
_cell_angle_beta   90.00000000
_cell_angle_gamma   90.00000000
_symmetry_Int_Tables_number   1
_chemical_formula_structural   Tm4Sc4Cr3NiB24
_chemical_formula_sum   'Tm4 Sc4 Cr3 Ni1 B24'
_cell_volume   347.50295004
_cell_formula_units_Z   1
loop_
 _symmetry_equiv_pos_site_id
 _symmetry_equiv_pos_as_xyz
  1  'x, y, z'
loop_
 _atom_site_type_symbol
 _atom_site_label
 _atom_site_symmetry_multiplicity
 _atom_site_fract_x
 _atom_site_fract_y
 _atom_site_fract_z
 _atom_site_occupancy
  Tm  Tm0  1  0.000000  0.819855  0.084299  1
  Tm  Tm1  1  0.000000  0.177695  0.912950  1
  Tm  Tm2  1  0.000000  0.324143  0.416758  1
  Tm  Tm3  1  0.000000  0.678133  0.585520  1
  Sc  Sc4  1  0.000000  0.443986  0.130463  1
  Sc  Sc5  1  0.000000  0.555638  0.870581  1
  Sc  Sc6  1  0.000000  0.942823  0.370164  1
  Sc  Sc7  1  0.000000  0.056259  0.629338  1
  Cr  Cr8  1  0.000000  0.858737  0.819126  1
  Cr  Cr9  1  0.000000  0.641893  0.317476  1
  Cr  Cr10  1  0.000000  0.358443  0.681877  1
  Ni  Ni11  1  0.000000  0.141032  0.180970  1
  B  B12  1  0.500000  0.053935  0.065956  1
  B  B13  1  0.500000  0.945632  0.933143  1
  B  B14  1  0.500000  0.554933  0.432868  1
  B  B15  1  0.500000  0.446640  0.567719  1
  B  B16  1  0.500000  0.250192  0.082228  1
  B  B17  1  0.500000  0.746662  0.918042  1
  B  B18  1  0.500000  0.753040  0.417570  1
  B  B19  1  0.500000  0.247943  0.582027  1
  B  B20  1  0.500000  0.293651  0.237371  1
  B  B21  1  0.500000  0.705384  0.764601  1
  B  B22  1  0.500000  0.795662  0.263202  1
  B  B23  1  0.500000  0.205184  0.735464  1
  B  B24  1  0.500000  0.131608  0.318273  1
  B  B25  1  0.500000  0.870390  0.683415  1
  B  B26  1  0.500000  0.630321  0.182693  1
  B  B27  1  0.500000  0.369371  0.816964  1
  B  B28  1  0.500000  0.482060  0.286904  1
  B  B29  1  0.500000  0.518088  0.713757  1
  B  B30  1  0.500000  0.985180  0.212068  1
  B  B31  1  0.500000  0.018133  0.786532  1
  B  B32  1  0.500000  0.098096  0.472758  1
  B  B33  1  0.500000  0.902758  0.525946  1
  B  B34  1  0.500000  0.596306  0.026604  1
  B  B35  1  0.500000  0.400195  0.974373  1
