# generated using pymatgen
data_Dy3Er3TcOs
_symmetry_space_group_name_H-M   'P 1'
_cell_length_a   6.28192105
_cell_length_b   7.41276300
_cell_length_c   9.04319772
_cell_angle_alpha   90.00000000
_cell_angle_beta   90.15909774
_cell_angle_gamma   90.00000000
_symmetry_Int_Tables_number   1
_chemical_formula_structural   Dy3Er3TcOs
_chemical_formula_sum   'Dy6 Er6 Tc2 Os2'
_cell_volume   421.10746595
_cell_formula_units_Z   2
loop_
 _symmetry_equiv_pos_site_id
 _symmetry_equiv_pos_as_xyz
  1  'x, y, z'
loop_
 _atom_site_type_symbol
 _atom_site_label
 _atom_site_symmetry_multiplicity
 _atom_site_fract_x
 _atom_site_fract_y
 _atom_site_fract_z
 _atom_site_occupancy
  Dy  Dy0  1  0.337558  0.675147  0.062128  1
  Dy  Dy1  1  0.162442  0.175147  0.437872  1
  Dy  Dy2  1  0.875572  0.539411  0.250112  1
  Dy  Dy3  1  0.624428  0.039411  0.249888  1
  Dy  Dy4  1  0.128363  0.459433  0.749925  1
  Dy  Dy5  1  0.371637  0.959433  0.750075  1
  Er  Er6  1  0.664191  0.325241  0.563545  1
  Er  Er7  1  0.835809  0.825241  0.936455  1
  Er  Er8  1  0.664622  0.324726  0.936434  1
  Er  Er9  1  0.835378  0.824726  0.563566  1
  Er  Er10  1  0.338089  0.674735  0.438200  1
  Er  Er11  1  0.161911  0.174735  0.061800  1
  Tc  Tc12  1  0.038568  0.883949  0.250268  1
  Tc  Tc13  1  0.461432  0.383949  0.249732  1
  Os  Os14  1  0.957277  0.117359  0.750961  1
  Os  Os15  1  0.542723  0.617359  0.749039  1
