# generated using pymatgen
data_Cs12NaHoTe8
_symmetry_space_group_name_H-M   'P 1'
_cell_length_a   12.18013600
_cell_length_b   12.18013583
_cell_length_c   9.21931600
_cell_angle_alpha   90.00000000
_cell_angle_beta   90.00000000
_cell_angle_gamma   120.00000046
_symmetry_Int_Tables_number   1
_chemical_formula_structural   Cs12NaHoTe8
_chemical_formula_sum   'Cs12 Na1 Ho1 Te8'
_cell_volume   1184.49600332
_cell_formula_units_Z   1
loop_
 _symmetry_equiv_pos_site_id
 _symmetry_equiv_pos_as_xyz
  1  'x, y, z'
loop_
 _atom_site_type_symbol
 _atom_site_label
 _atom_site_symmetry_multiplicity
 _atom_site_fract_x
 _atom_site_fract_y
 _atom_site_fract_z
 _atom_site_occupancy
  Cs  Cs0  1  0.143638  0.856362  0.542748  1
  Cs  Cs1  1  0.301112  0.150557  0.048472  1
  Cs  Cs2  1  0.849443  0.698888  0.048472  1
  Cs  Cs3  1  0.143638  0.287276  0.542748  1
  Cs  Cs4  1  0.712724  0.856362  0.542748  1
  Cs  Cs5  1  0.849443  0.150557  0.048472  1
  Cs  Cs6  1  0.534705  0.465295  0.379207  1
  Cs  Cs7  1  0.039768  0.519884  0.852904  1
  Cs  Cs8  1  0.480116  0.960232  0.852904  1
  Cs  Cs9  1  0.534705  0.069410  0.379207  1
  Cs  Cs10  1  0.930590  0.465295  0.379207  1
  Cs  Cs11  1  0.480116  0.519884  0.852904  1
  Na  Na12  1  0.666667  0.333333  0.751743  1
  Ho  Ho13  1  0.333333  0.666667  0.246042  1
  Te  Te14  1  0.333333  0.666667  0.566992  1
  Te  Te15  1  0.666667  0.333333  0.093283  1
  Te  Te16  1  0.200684  0.799316  0.145766  1
  Te  Te17  1  0.376596  0.188299  0.651352  1
  Te  Te18  1  0.811701  0.623404  0.651352  1
  Te  Te19  1  0.200684  0.401367  0.145766  1
  Te  Te20  1  0.598633  0.799316  0.145766  1
  Te  Te21  1  0.811701  0.188299  0.651352  1
