# generated using pymatgen
data_Na2NdCo(P3Ir4)2
_symmetry_space_group_name_H-M   'P 1'
_cell_length_a   3.96258700
_cell_length_b   11.25835300
_cell_length_c   12.52557500
_cell_angle_alpha   90.00000000
_cell_angle_beta   90.00000000
_cell_angle_gamma   90.00000000
_symmetry_Int_Tables_number   1
_chemical_formula_structural   Na2NdCo(P3Ir4)2
_chemical_formula_sum   'Na4 Nd2 Co2 P12 Ir16'
_cell_volume   558.79349759
_cell_formula_units_Z   2
loop_
 _symmetry_equiv_pos_site_id
 _symmetry_equiv_pos_as_xyz
  1  'x, y, z'
loop_
 _atom_site_type_symbol
 _atom_site_label
 _atom_site_symmetry_multiplicity
 _atom_site_fract_x
 _atom_site_fract_y
 _atom_site_fract_z
 _atom_site_occupancy
  Na  Na0  1  0.500000  0.819990  0.201780  1
  Na  Na1  1  0.500000  0.180010  0.201780  1
  Na  Na2  1  0.000000  0.680010  0.798220  1
  Na  Na3  1  0.000000  0.319990  0.798220  1
  Nd  Nd4  1  0.000000  0.500000  0.531429  1
  Nd  Nd5  1  0.500000  0.000000  0.468571  1
  Co  Co6  1  0.000000  0.500000  0.990318  1
  Co  Co7  1  0.500000  0.000000  0.009682  1
  P  P8  1  0.500000  0.500000  0.885720  1
  P  P9  1  0.000000  0.000000  0.114280  1
  P  P10  1  0.500000  0.500000  0.349322  1
  P  P11  1  0.000000  0.000000  0.650678  1
  P  P12  1  0.500000  0.310235  0.623737  1
  P  P13  1  0.500000  0.689765  0.623737  1
  P  P14  1  0.000000  0.189765  0.376263  1
  P  P15  1  0.000000  0.810235  0.376263  1
  P  P16  1  0.500000  0.848870  0.896045  1
  P  P17  1  0.500000  0.151130  0.896045  1
  P  P18  1  0.000000  0.651130  0.103955  1
  P  P19  1  0.000000  0.348870  0.103955  1
  Ir  Ir20  1  0.500000  0.500000  0.166272  1
  Ir  Ir21  1  0.000000  0.000000  0.833728  1
  Ir  Ir22  1  0.500000  0.500000  0.701846  1
  Ir  Ir23  1  0.000000  0.000000  0.298154  1
  Ir  Ir24  1  0.500000  0.334342  0.994974  1
  Ir  Ir25  1  0.500000  0.665658  0.994974  1
  Ir  Ir26  1  0.000000  0.165658  0.005026  1
  Ir  Ir27  1  0.000000  0.834342  0.005026  1
  Ir  Ir28  1  0.500000  0.294873  0.429383  1
  Ir  Ir29  1  0.500000  0.705127  0.429383  1
  Ir  Ir30  1  0.000000  0.205127  0.570617  1
  Ir  Ir31  1  0.000000  0.794873  0.570617  1
  Ir  Ir32  1  0.500000  0.873893  0.713857  1
  Ir  Ir33  1  0.500000  0.126107  0.713857  1
  Ir  Ir34  1  0.000000  0.626107  0.286143  1
  Ir  Ir35  1  0.000000  0.373893  0.286143  1
