# generated using pymatgen
data_K3Rb3Tb2F12
_symmetry_space_group_name_H-M   'P 1'
_cell_length_a   6.75497867
_cell_length_b   6.52165371
_cell_length_c   11.30272177
_cell_angle_alpha   55.35552989
_cell_angle_beta   90.02061369
_cell_angle_gamma   89.92956059
_symmetry_Int_Tables_number   1
_chemical_formula_structural   K3Rb3Tb2F12
_chemical_formula_sum   'K3 Rb3 Tb2 F12'
_cell_volume   409.64072749
_cell_formula_units_Z   1
loop_
 _symmetry_equiv_pos_site_id
 _symmetry_equiv_pos_as_xyz
  1  'x, y, z'
loop_
 _atom_site_type_symbol
 _atom_site_label
 _atom_site_symmetry_multiplicity
 _atom_site_fract_x
 _atom_site_fract_y
 _atom_site_fract_z
 _atom_site_occupancy
  K  K0  1  0.499507  0.498535  0.001674  1
  K  K1  1  0.999273  0.500443  0.498959  1
  K  K2  1  0.449605  0.732605  0.254882  1
  Rb  Rb3  1  0.050704  0.730777  0.753240  1
  Rb  Rb4  1  0.950390  0.265383  0.247220  1
  Rb  Rb5  1  0.548235  0.268096  0.747236  1
  Tb  Tb6  1  0.499145  0.002157  0.497535  1
  Tb  Tb7  1  0.000165  0.998128  0.002139  1
  F  F8  1  0.768671  0.769338  0.559084  1
  F  F9  1  0.233276  0.240607  0.436632  1
  F  F10  1  0.265862  0.235948  0.939368  1
  F  F11  1  0.728375  0.766114  0.067103  1
  F  F12  1  0.456031  0.873846  0.723530  1
  F  F13  1  0.544645  0.111921  0.274832  1
  F  F14  1  0.953609  0.124018  0.776574  1
  F  F15  1  0.059318  0.871029  0.226204  1
  F  F16  1  0.317780  0.684357  0.542583  1
  F  F17  1  0.674426  0.328305  0.448686  1
  F  F18  1  0.820217  0.317258  0.958416  1
  F  F19  1  0.180763  0.681133  0.044106  1
