# generated using pymatgen
data_Er8Ti3Re9Si15Ge
_symmetry_space_group_name_H-M   'P 1'
_cell_length_a   6.76034418
_cell_length_b   6.75633290
_cell_length_c   12.95526436
_cell_angle_alpha   90.04104664
_cell_angle_beta   89.91419676
_cell_angle_gamma   89.44194486
_symmetry_Int_Tables_number   1
_chemical_formula_structural   Er8Ti3Re9Si15Ge
_chemical_formula_sum   'Er8 Ti3 Re9 Si15 Ge1'
_cell_volume   591.70456965
_cell_formula_units_Z   1
loop_
 _symmetry_equiv_pos_site_id
 _symmetry_equiv_pos_as_xyz
  1  'x, y, z'
loop_
 _atom_site_type_symbol
 _atom_site_label
 _atom_site_symmetry_multiplicity
 _atom_site_fract_x
 _atom_site_fract_y
 _atom_site_fract_z
 _atom_site_occupancy
  Er  Er0  1  0.337121  0.992755  0.468037  1
  Er  Er1  1  0.509356  0.834784  0.718948  1
  Er  Er2  1  0.487523  0.167583  0.216293  1
  Er  Er3  1  0.834175  0.509214  0.281517  1
  Er  Er4  1  0.167813  0.488255  0.784292  1
  Er  Er5  1  0.660415  0.009617  0.970252  1
  Er  Er6  1  0.991341  0.338176  0.529609  1
  Er  Er7  1  0.010049  0.660369  0.029987  1
  Ti  Ti8  1  0.155355  0.845081  0.248581  1
  Ti  Ti9  1  0.843064  0.155271  0.751924  1
  Ti  Ti10  1  0.655779  0.656332  0.500044  1
  Re  Re11  1  0.339721  0.339827  0.000026  1
  Re  Re12  1  0.184423  0.986711  0.865080  1
  Re  Re13  1  0.498016  0.697679  0.117442  1
  Re  Re14  1  0.508086  0.319475  0.616477  1
  Re  Re15  1  0.697983  0.497894  0.883155  1
  Re  Re16  1  0.314776  0.501578  0.382747  1
  Re  Re17  1  0.816295  0.002066  0.363615  1
  Re  Re18  1  0.989301  0.184149  0.137560  1
  Re  Re19  1  0.997692  0.808680  0.635387  1
  Si  Si20  1  0.389545  0.694476  0.930302  1
  Si  Si21  1  0.619723  0.296455  0.429800  1
  Si  Si22  1  0.694485  0.388951  0.070092  1
  Si  Si23  1  0.296348  0.619581  0.569896  1
  Si  Si24  1  0.793828  0.882228  0.179937  1
  Si  Si25  1  0.119649  0.206151  0.320354  1
  Si  Si26  1  0.882319  0.793882  0.820412  1
  Si  Si27  1  0.267085  0.987588  0.054092  1
  Si  Si28  1  0.517842  0.782753  0.307602  1
  Si  Si29  1  0.483552  0.221709  0.810431  1
  Si  Si30  1  0.783875  0.517608  0.692813  1
  Si  Si31  1  0.220620  0.482457  0.190682  1
  Si  Si32  1  0.725314  0.017182  0.555204  1
  Si  Si33  1  0.987912  0.267139  0.946538  1
  Si  Si34  1  0.017110  0.725235  0.444297  1
  Ge  Ge35  1  0.202509  0.121113  0.676577  1
