# generated using pymatgen
data_Pr5HoU4O20
_symmetry_space_group_name_H-M   'P 1'
_cell_length_a   6.77443239
_cell_length_b   7.72319260
_cell_length_c   8.63826224
_cell_angle_alpha   101.66816579
_cell_angle_beta   97.67790583
_cell_angle_gamma   107.13225476
_symmetry_Int_Tables_number   1
_chemical_formula_structural   Pr5HoU4O20
_chemical_formula_sum   'Pr5 Ho1 U4 O20'
_cell_volume   413.86733022
_cell_formula_units_Z   1
loop_
 _symmetry_equiv_pos_site_id
 _symmetry_equiv_pos_as_xyz
  1  'x, y, z'
loop_
 _atom_site_type_symbol
 _atom_site_label
 _atom_site_symmetry_multiplicity
 _atom_site_fract_x
 _atom_site_fract_y
 _atom_site_fract_z
 _atom_site_occupancy
  Pr  Pr0  1  0.612542  0.704031  0.699487  1
  Pr  Pr1  1  0.387458  0.295969  0.300513  1
  Pr  Pr2  1  0.198816  0.897988  0.892339  1
  Pr  Pr3  1  0.000000  0.500000  0.500000  1
  Pr  Pr4  1  0.801184  0.102012  0.107661  1
  Ho  Ho5  1  0.000000  0.000000  0.500000  1
  U  U6  1  0.401527  0.804751  0.301903  1
  U  U7  1  0.198394  0.400994  0.900755  1
  U  U8  1  0.801606  0.599006  0.099245  1
  U  U9  1  0.598473  0.195249  0.698097  1
  O  O10  1  0.437963  0.535182  0.132445  1
  O  O11  1  0.557510  0.994119  0.837403  1
  O  O12  1  0.272991  0.151158  0.740727  1
  O  O13  1  0.360077  0.600539  0.437552  1
  O  O14  1  0.053945  0.734546  0.326277  1
  O  O15  1  0.442490  0.005881  0.162597  1
  O  O16  1  0.150933  0.189902  0.028697  1
  O  O17  1  0.562037  0.464818  0.867555  1
  O  O18  1  0.856232  0.341822  0.949253  1
  O  O19  1  0.254872  0.600885  0.763502  1
  O  O20  1  0.955203  0.780898  0.645339  1
  O  O21  1  0.352206  0.055787  0.455436  1
  O  O22  1  0.647794  0.944213  0.544564  1
  O  O23  1  0.044797  0.219102  0.354661  1
  O  O24  1  0.745128  0.399115  0.236498  1
  O  O25  1  0.143768  0.658178  0.050747  1
  O  O26  1  0.849067  0.810098  0.971303  1
  O  O27  1  0.946055  0.265454  0.673723  1
  O  O28  1  0.639923  0.399461  0.562448  1
  O  O29  1  0.727009  0.848842  0.259273  1
