# generated using pymatgen
data_KBa4(POs)10
_symmetry_space_group_name_H-M   'P 1'
_cell_length_a   8.95381397
_cell_length_b   8.95381481
_cell_length_c   8.95381502
_cell_angle_alpha   119.19469239
_cell_angle_beta   119.19470424
_cell_angle_gamma   91.40057807
_symmetry_Int_Tables_number   1
_chemical_formula_structural   KBa4(POs)10
_chemical_formula_sum   'K1 Ba4 P10 Os10'
_cell_volume   513.59792091
_cell_formula_units_Z   1
loop_
 _symmetry_equiv_pos_site_id
 _symmetry_equiv_pos_as_xyz
  1  'x, y, z'
loop_
 _atom_site_type_symbol
 _atom_site_label
 _atom_site_symmetry_multiplicity
 _atom_site_fract_x
 _atom_site_fract_y
 _atom_site_fract_z
 _atom_site_occupancy
  K  K0  1  0.000000  0.000000  0.000000  1
  Ba  Ba1  1  0.392599  0.802700  0.195300  1
  Ba  Ba2  1  0.802700  0.607401  0.410101  1
  Ba  Ba3  1  0.197300  0.392599  0.589899  1
  Ba  Ba4  1  0.607401  0.197300  0.804700  1
  P  P5  1  0.945044  0.544777  0.800036  1
  P  P6  1  0.344866  0.344866  0.000000  1
  P  P7  1  0.744741  0.145007  0.199964  1
  P  P8  1  0.145007  0.945044  0.400267  1
  P  P9  1  0.544777  0.744741  0.599733  1
  P  P10  1  0.655134  0.655134  0.000000  1
  P  P11  1  0.054956  0.455223  0.199964  1
  P  P12  1  0.455223  0.255259  0.400267  1
  P  P13  1  0.854993  0.054956  0.599733  1
  P  P14  1  0.255259  0.854993  0.800036  1
  Os  Os15  1  0.949595  0.649907  0.100234  1
  Os  Os16  1  0.350093  0.450328  0.299688  1
  Os  Os17  1  0.750000  0.250000  0.500000  1
  Os  Os18  1  0.150638  0.050404  0.700312  1
  Os  Os19  1  0.549672  0.849362  0.899766  1
  Os  Os20  1  0.649907  0.549672  0.700312  1
  Os  Os21  1  0.050404  0.350093  0.899766  1
  Os  Os22  1  0.450328  0.150638  0.100234  1
  Os  Os23  1  0.849362  0.949596  0.299688  1
  Os  Os24  1  0.250000  0.750000  0.500000  1
