# generated using pymatgen
data_Rb8TiMnS8
_symmetry_space_group_name_H-M   'P 1'
_cell_length_a   8.33101430
_cell_length_b   9.80765400
_cell_length_c   14.58262400
_cell_angle_alpha   90.00000000
_cell_angle_beta   89.68325939
_cell_angle_gamma   90.00000000
_symmetry_Int_Tables_number   1
_chemical_formula_structural   Rb8TiMnS8
_chemical_formula_sum   'Rb16 Ti2 Mn2 S16'
_cell_volume   1191.49454385
_cell_formula_units_Z   2
loop_
 _symmetry_equiv_pos_site_id
 _symmetry_equiv_pos_as_xyz
  1  'x, y, z'
loop_
 _atom_site_type_symbol
 _atom_site_label
 _atom_site_symmetry_multiplicity
 _atom_site_fract_x
 _atom_site_fract_y
 _atom_site_fract_z
 _atom_site_occupancy
  Rb  Rb0  1  0.000000  0.000000  0.000000  1
  Rb  Rb1  1  0.500000  0.000000  0.500000  1
  Rb  Rb2  1  0.000000  0.500000  0.000000  1
  Rb  Rb3  1  0.500000  0.500000  0.500000  1
  Rb  Rb4  1  0.990377  0.750000  0.425217  1
  Rb  Rb5  1  0.490261  0.250000  0.074763  1
  Rb  Rb6  1  0.009623  0.250000  0.574783  1
  Rb  Rb7  1  0.509739  0.750000  0.925237  1
  Rb  Rb8  1  0.836761  0.059055  0.281401  1
  Rb  Rb9  1  0.337034  0.946380  0.221312  1
  Rb  Rb10  1  0.163239  0.559055  0.718599  1
  Rb  Rb11  1  0.662966  0.446380  0.778688  1
  Rb  Rb12  1  0.163239  0.940945  0.718599  1
  Rb  Rb13  1  0.662966  0.053620  0.778688  1
  Rb  Rb14  1  0.836761  0.440945  0.281401  1
  Rb  Rb15  1  0.337034  0.553620  0.221312  1
  Ti  Ti16  1  0.741162  0.750000  0.166401  1
  Ti  Ti17  1  0.258838  0.250000  0.833599  1
  Mn  Mn18  1  0.760644  0.750000  0.663409  1
  Mn  Mn19  1  0.239356  0.250000  0.336591  1
  S  S20  1  0.984486  0.250000  0.825807  1
  S  S21  1  0.505118  0.250000  0.324015  1
  S  S22  1  0.494882  0.750000  0.675985  1
  S  S23  1  0.015514  0.750000  0.174193  1
  S  S24  1  0.657641  0.560212  0.091946  1
  S  S25  1  0.153136  0.433356  0.407678  1
  S  S26  1  0.342359  0.060212  0.908054  1
  S  S27  1  0.846864  0.933356  0.592322  1
  S  S28  1  0.342359  0.439788  0.908054  1
  S  S29  1  0.846864  0.566644  0.592322  1
  S  S30  1  0.657641  0.939788  0.091946  1
  S  S31  1  0.153136  0.066644  0.407678  1
  S  S32  1  0.632511  0.750000  0.311671  1
  S  S33  1  0.138111  0.250000  0.196338  1
  S  S34  1  0.367489  0.250000  0.688329  1
  S  S35  1  0.861889  0.750000  0.803662  1
