# generated using pymatgen
data_La8Sc11Si16Hg
_symmetry_space_group_name_H-M   'P 1'
_cell_length_a   7.27151999
_cell_length_b   7.63305430
_cell_length_c   14.36134100
_cell_angle_alpha   90.00000000
_cell_angle_beta   90.00000000
_cell_angle_gamma   90.34475201
_symmetry_Int_Tables_number   1
_chemical_formula_structural   La8Sc11Si16Hg
_chemical_formula_sum   'La8 Sc11 Si16 Hg1'
_cell_volume   797.09610452
_cell_formula_units_Z   1
loop_
 _symmetry_equiv_pos_site_id
 _symmetry_equiv_pos_as_xyz
  1  'x, y, z'
loop_
 _atom_site_type_symbol
 _atom_site_label
 _atom_site_symmetry_multiplicity
 _atom_site_fract_x
 _atom_site_fract_y
 _atom_site_fract_z
 _atom_site_occupancy
  La  La0  1  0.012159  0.172456  0.401783  1
  La  La1  1  0.509738  0.332186  0.401541  1
  La  La2  1  0.492551  0.679301  0.899463  1
  La  La3  1  0.492551  0.679301  0.600537  1
  La  La4  1  0.980032  0.829093  0.601181  1
  La  La5  1  0.980032  0.829093  0.898819  1
  La  La6  1  0.509738  0.332186  0.098459  1
  La  La7  1  0.012159  0.172456  0.098217  1
  Sc  Sc8  1  0.337622  0.174246  0.624589  1
  Sc  Sc9  1  0.671411  0.821614  0.373280  1
  Sc  Sc10  1  0.171128  0.676058  0.375668  1
  Sc  Sc11  1  0.827177  0.314549  0.875349  1
  Sc  Sc12  1  0.827177  0.314549  0.624651  1
  Sc  Sc13  1  0.840813  0.503711  0.250000  1
  Sc  Sc14  1  0.340210  0.995248  0.250000  1
  Sc  Sc15  1  0.337622  0.174246  0.875411  1
  Sc  Sc16  1  0.171128  0.676058  0.124332  1
  Sc  Sc17  1  0.671411  0.821614  0.126720  1
  Sc  Sc18  1  0.157945  0.493724  0.750000  1
  Si  Si19  1  0.271613  0.885614  0.750000  1
  Si  Si20  1  0.465964  0.627357  0.250000  1
  Si  Si21  1  0.051146  0.131055  0.750000  1
  Si  Si22  1  0.530846  0.388557  0.750000  1
  Si  Si23  1  0.151587  0.466141  0.541998  1
  Si  Si24  1  0.968451  0.871135  0.250000  1
  Si  Si25  1  0.708103  0.114188  0.250000  1
  Si  Si26  1  0.850554  0.535904  0.038480  1
  Si  Si27  1  0.349667  0.963370  0.039670  1
  Si  Si28  1  0.151587  0.466141  0.958002  1
  Si  Si29  1  0.651633  0.041543  0.528208  1
  Si  Si30  1  0.349667  0.963370  0.460330  1
  Si  Si31  1  0.850554  0.535904  0.461520  1
  Si  Si32  1  0.794919  0.586269  0.750000  1
  Si  Si33  1  0.207514  0.388397  0.250000  1
  Si  Si34  1  0.651633  0.041543  0.971792  1
  Hg  Hg35  1  0.651962  0.001823  0.750000  1
