# generated using pymatgen
data_La4Yb(Pr5Ir4)3
_symmetry_space_group_name_H-M   'P 1'
_cell_length_a   11.36519100
_cell_length_b   11.38803400
_cell_length_c   6.58308800
_cell_angle_alpha   90.00000000
_cell_angle_beta   90.00000000
_cell_angle_gamma   90.00319803
_symmetry_Int_Tables_number   1
_chemical_formula_structural   La4Yb(Pr5Ir4)3
_chemical_formula_sum   'La4 Yb1 Pr15 Ir12'
_cell_volume   852.03052490
_cell_formula_units_Z   1
loop_
 _symmetry_equiv_pos_site_id
 _symmetry_equiv_pos_as_xyz
  1  'x, y, z'
loop_
 _atom_site_type_symbol
 _atom_site_label
 _atom_site_symmetry_multiplicity
 _atom_site_fract_x
 _atom_site_fract_y
 _atom_site_fract_z
 _atom_site_occupancy
  La  La0  1  0.287084  0.089051  0.385819  1
  La  La1  1  0.290473  0.909785  0.885340  1
  La  La2  1  0.709527  0.090215  0.885340  1
  La  La3  1  0.712916  0.910949  0.385819  1
  Yb  Yb4  1  0.000000  0.000000  0.500000  1
  Pr  Pr5  1  0.590479  0.789917  0.882785  1
  Pr  Pr6  1  0.589051  0.209343  0.382005  1
  Pr  Pr7  1  0.410949  0.790657  0.382005  1
  Pr  Pr8  1  0.409521  0.210083  0.882785  1
  Pr  Pr9  1  0.208183  0.411534  0.617730  1
  Pr  Pr10  1  0.208819  0.589748  0.117056  1
  Pr  Pr11  1  0.791181  0.410252  0.117056  1
  Pr  Pr12  1  0.791817  0.588466  0.617730  1
  Pr  Pr13  1  0.910725  0.709184  0.115649  1
  Pr  Pr14  1  0.911828  0.287574  0.615239  1
  Pr  Pr15  1  0.088172  0.712426  0.615239  1
  Pr  Pr16  1  0.089275  0.290816  0.115649  1
  Pr  Pr17  1  0.000000  0.000000  0.999824  1
  Pr  Pr18  1  0.500000  0.500000  0.000595  1
  Pr  Pr19  1  0.500000  0.500000  0.500678  1
  Ir  Ir20  1  0.844833  0.154205  0.246468  1
  Ir  Ir21  1  0.844820  0.845708  0.750768  1
  Ir  Ir22  1  0.155180  0.154292  0.750768  1
  Ir  Ir23  1  0.155167  0.845795  0.246468  1
  Ir  Ir24  1  0.654734  0.345565  0.748819  1
  Ir  Ir25  1  0.654142  0.654923  0.251429  1
  Ir  Ir26  1  0.345858  0.345077  0.251429  1
  Ir  Ir27  1  0.345266  0.654435  0.748819  1
  Ir  Ir28  1  0.500000  0.000000  0.117024  1
  Ir  Ir29  1  0.500000  0.000000  0.616454  1
  Ir  Ir30  1  0.000000  0.500000  0.882944  1
  Ir  Ir31  1  0.000000  0.500000  0.384269  1
