# generated using pymatgen
data_Nd9Y(Sn3Br)2
_symmetry_space_group_name_H-M   'P 1'
_cell_length_a   9.49838100
_cell_length_b   9.49838191
_cell_length_c   6.81015100
_cell_angle_alpha   90.00000000
_cell_angle_beta   90.00000000
_cell_angle_gamma   120.00000032
_symmetry_Int_Tables_number   1
_chemical_formula_structural   Nd9Y(Sn3Br)2
_chemical_formula_sum   'Nd9 Y1 Sn6 Br2'
_cell_volume   532.09182366
_cell_formula_units_Z   1
loop_
 _symmetry_equiv_pos_site_id
 _symmetry_equiv_pos_as_xyz
  1  'x, y, z'
loop_
 _atom_site_type_symbol
 _atom_site_label
 _atom_site_symmetry_multiplicity
 _atom_site_fract_x
 _atom_site_fract_y
 _atom_site_fract_z
 _atom_site_occupancy
  Nd  Nd0  1  0.267024  0.267687  0.749372  1
  Nd  Nd1  1  0.000663  0.732976  0.749372  1
  Nd  Nd2  1  0.732313  0.999337  0.749372  1
  Nd  Nd3  1  0.000663  0.267687  0.250628  1
  Nd  Nd4  1  0.732313  0.732976  0.250628  1
  Nd  Nd5  1  0.666667  0.333333  0.500000  1
  Nd  Nd6  1  0.267024  0.999337  0.250628  1
  Nd  Nd7  1  0.333333  0.666667  0.000000  1
  Nd  Nd8  1  0.666667  0.333333  0.000000  1
  Y  Y9  1  0.333333  0.666667  0.500000  1
  Sn  Sn10  1  0.610562  0.997271  0.251767  1
  Sn  Sn11  1  0.002729  0.389438  0.748233  1
  Sn  Sn12  1  0.386709  0.997271  0.748233  1
  Sn  Sn13  1  0.610562  0.613291  0.748233  1
  Sn  Sn14  1  0.002729  0.613291  0.251767  1
  Sn  Sn15  1  0.386709  0.389438  0.251767  1
  Br  Br16  1  0.000000  0.000000  0.000000  1
  Br  Br17  1  0.000000  0.000000  0.500000  1
