# generated using pymatgen
data_Yb6Al24Os3Ru3Pt2
_symmetry_space_group_name_H-M   'P 1'
_cell_length_a   8.84662020
_cell_length_b   8.85471832
_cell_length_c   9.61330717
_cell_angle_alpha   90.13606290
_cell_angle_beta   89.59519239
_cell_angle_gamma   120.05606528
_symmetry_Int_Tables_number   1
_chemical_formula_structural   Yb6Al24Os3Ru3Pt2
_chemical_formula_sum   'Yb6 Al24 Os3 Ru3 Pt2'
_cell_volume   651.77653257
_cell_formula_units_Z   1
loop_
 _symmetry_equiv_pos_site_id
 _symmetry_equiv_pos_as_xyz
  1  'x, y, z'
loop_
 _atom_site_type_symbol
 _atom_site_label
 _atom_site_symmetry_multiplicity
 _atom_site_fract_x
 _atom_site_fract_y
 _atom_site_fract_z
 _atom_site_occupancy
  Yb  Yb0  1  0.193838  0.384839  0.248787  1
  Yb  Yb1  1  0.806162  0.615161  0.751213  1
  Yb  Yb2  1  0.609907  0.806616  0.249485  1
  Yb  Yb3  1  0.390093  0.193384  0.750515  1
  Yb  Yb4  1  0.197901  0.808841  0.249824  1
  Yb  Yb5  1  0.802099  0.191159  0.750176  1
  Al  Al6  1  0.338235  0.668404  0.003240  1
  Al  Al7  1  0.661765  0.331596  0.996760  1
  Al  Al8  1  0.668828  0.332344  0.502726  1
  Al  Al9  1  0.331172  0.667656  0.497274  1
  Al  Al10  1  0.156209  0.320858  0.577806  1
  Al  Al11  1  0.843791  0.679142  0.422194  1
  Al  Al12  1  0.677712  0.842749  0.576411  1
  Al  Al13  1  0.833119  0.678264  0.078444  1
  Al  Al14  1  0.322288  0.157251  0.423589  1
  Al  Al15  1  0.166881  0.321736  0.921556  1
  Al  Al16  1  0.161868  0.839196  0.576543  1
  Al  Al17  1  0.323120  0.162239  0.076442  1
  Al  Al18  1  0.838132  0.160804  0.423457  1
  Al  Al19  1  0.676880  0.837761  0.923558  1
  Al  Al20  1  0.832782  0.155405  0.076259  1
  Al  Al21  1  0.167218  0.844595  0.923741  1
  Al  Al22  1  0.561722  0.124142  0.250121  1
  Al  Al23  1  0.438278  0.875858  0.749879  1
  Al  Al24  1  0.877126  0.439016  0.253157  1
  Al  Al25  1  0.122874  0.560984  0.746843  1
  Al  Al26  1  0.562695  0.437171  0.247635  1
  Al  Al27  1  0.437305  0.562829  0.752365  1
  Al  Al28  1  0.998745  0.998413  0.249847  1
  Al  Al29  1  0.001255  0.001587  0.750153  1
  Os  Os30  1  0.500000  0.000000  0.000000  1
  Os  Os31  1  0.500000  0.000000  0.500000  1
  Os  Os32  1  0.500000  0.500000  0.000000  1
  Ru  Ru33  1  0.000000  0.500000  0.500000  1
  Ru  Ru34  1  0.000000  0.000000  0.000000  1
  Ru  Ru35  1  0.000000  0.000000  0.500000  1
  Pt  Pt36  1  0.000000  0.500000  0.000000  1
  Pt  Pt37  1  0.500000  0.500000  0.500000  1
