# generated using pymatgen
data_Hf12Tc6Ru5Pt
_symmetry_space_group_name_H-M   'P 1'
_cell_length_a   4.60357800
_cell_length_b   6.49916700
_cell_length_c   13.81228200
_cell_angle_alpha   90.00005548
_cell_angle_beta   89.99997926
_cell_angle_gamma   90.00002126
_symmetry_Int_Tables_number   1
_chemical_formula_structural   Hf12Tc6Ru5Pt
_chemical_formula_sum   'Hf12 Tc6 Ru5 Pt1'
_cell_volume   413.25549697
_cell_formula_units_Z   1
loop_
 _symmetry_equiv_pos_site_id
 _symmetry_equiv_pos_as_xyz
  1  'x, y, z'
loop_
 _atom_site_type_symbol
 _atom_site_label
 _atom_site_symmetry_multiplicity
 _atom_site_fract_x
 _atom_site_fract_y
 _atom_site_fract_z
 _atom_site_occupancy
  Hf  Hf0  1  0.500001  0.244518  0.000001  1
  Hf  Hf1  1  0.500001  0.755482  0.000001  1
  Hf  Hf2  1  0.999987  0.246976  0.169874  1
  Hf  Hf3  1  0.999987  0.753024  0.169874  1
  Hf  Hf4  1  0.499993  0.250286  0.333757  1
  Hf  Hf5  1  0.499992  0.749715  0.333757  1
  Hf  Hf6  1  0.000002  0.250120  0.500000  1
  Hf  Hf7  1  0.000000  0.749881  0.500000  1
  Hf  Hf8  1  0.500009  0.250284  0.666242  1
  Hf  Hf9  1  0.500008  0.749717  0.666242  1
  Hf  Hf10  1  0.000013  0.246975  0.830126  1
  Hf  Hf11  1  0.000014  0.753026  0.830126  1
  Tc  Tc12  1  0.000001  0.000000  0.000001  1
  Tc  Tc13  1  0.499984  0.500001  0.165047  1
  Tc  Tc14  1  0.999992  0.000000  0.333020  1
  Tc  Tc15  1  0.500002  0.500000  0.499999  1
  Tc  Tc16  1  0.000008  0.000000  0.666980  1
  Tc  Tc17  1  0.500016  0.500000  0.834953  1
  Ru  Ru18  1  0.499994  0.000000  0.165892  1
  Ru  Ru19  1  0.999991  0.500001  0.332602  1
  Ru  Ru20  1  0.500001  0.000000  0.500000  1
  Ru  Ru21  1  0.000009  0.500000  0.667396  1
  Ru  Ru22  1  0.500007  0.000000  0.834108  1
  Pt  Pt23  1  0.000000  0.500001  0.000001  1
