# generated using pymatgen
data_Nd2Tm3Se7
_symmetry_space_group_name_H-M   'P 1'
_cell_length_a   6.89438980
_cell_length_b   6.89439001
_cell_length_c   12.28484300
_cell_angle_alpha   75.82922828
_cell_angle_beta   75.82922783
_cell_angle_gamma   34.02150781
_symmetry_Int_Tables_number   1
_chemical_formula_structural   Nd2Tm3Se7
_chemical_formula_sum   'Nd2 Tm3 Se7'
_cell_volume   315.82334644
_cell_formula_units_Z   1
loop_
 _symmetry_equiv_pos_site_id
 _symmetry_equiv_pos_as_xyz
  1  'x, y, z'
loop_
 _atom_site_type_symbol
 _atom_site_label
 _atom_site_symmetry_multiplicity
 _atom_site_fract_x
 _atom_site_fract_y
 _atom_site_fract_z
 _atom_site_occupancy
  Nd  Nd0  1  0.301542  0.301542  0.805847  1
  Nd  Nd1  1  0.698458  0.698458  0.194153  1
  Tm  Tm2  1  0.112534  0.112534  0.574211  1
  Tm  Tm3  1  0.887466  0.887466  0.425789  1
  Tm  Tm4  1  0.000000  0.000000  0.000000  1
  Se  Se5  1  0.262621  0.262621  0.358514  1
  Se  Se6  1  0.737379  0.737379  0.641486  1
  Se  Se7  1  0.970915  0.970915  0.783608  1
  Se  Se8  1  0.029085  0.029085  0.216392  1
  Se  Se9  1  0.656029  0.656029  0.951300  1
  Se  Se10  1  0.500000  0.500000  0.500000  1
  Se  Se11  1  0.343971  0.343971  0.048700  1
