# generated using pymatgen
data_Tm4Si4RuRh
_symmetry_space_group_name_H-M   'P 1'
_cell_length_a   5.62634007
_cell_length_b   5.62634012
_cell_length_c   9.98499112
_cell_angle_alpha   63.46681728
_cell_angle_beta   63.46681890
_cell_angle_gamma   43.64346066
_symmetry_Int_Tables_number   1
_chemical_formula_structural   Tm4Si4RuRh
_chemical_formula_sum   'Tm4 Si4 Ru1 Rh1'
_cell_volume   191.23296073
_cell_formula_units_Z   1
loop_
 _symmetry_equiv_pos_site_id
 _symmetry_equiv_pos_as_xyz
  1  'x, y, z'
loop_
 _atom_site_type_symbol
 _atom_site_label
 _atom_site_symmetry_multiplicity
 _atom_site_fract_x
 _atom_site_fract_y
 _atom_site_fract_z
 _atom_site_occupancy
  Tm  Tm0  1  0.002379  0.002379  0.323923  1
  Tm  Tm1  1  0.997498  0.997498  0.676331  1
  Tm  Tm2  1  0.814099  0.814099  0.106767  1
  Tm  Tm3  1  0.184957  0.184957  0.890758  1
  Si  Si4  1  0.644121  0.644121  0.433960  1
  Si  Si5  1  0.361571  0.361571  0.563723  1
  Si  Si6  1  0.507912  0.507912  0.122340  1
  Si  Si7  1  0.486887  0.486887  0.879473  1
  Ru  Ru8  1  0.273302  0.273302  0.375372  1
  Rh  Rh9  1  0.727273  0.727273  0.627354  1
