# generated using pymatgen
data_Er4Cu5P6Pd
_symmetry_space_group_name_H-M   'P 1'
_cell_length_a   3.83932700
_cell_length_b   10.63703700
_cell_length_c   12.99013900
_cell_angle_alpha   90.00000000
_cell_angle_beta   90.00000000
_cell_angle_gamma   90.00000000
_symmetry_Int_Tables_number   1
_chemical_formula_structural   Er4Cu5P6Pd
_chemical_formula_sum   'Er8 Cu10 P12 Pd2'
_cell_volume   530.50510960
_cell_formula_units_Z   2
loop_
 _symmetry_equiv_pos_site_id
 _symmetry_equiv_pos_as_xyz
  1  'x, y, z'
loop_
 _atom_site_type_symbol
 _atom_site_label
 _atom_site_symmetry_multiplicity
 _atom_site_fract_x
 _atom_site_fract_y
 _atom_site_fract_z
 _atom_site_occupancy
  Er  Er0  1  0.250000  0.932231  0.791344  1
  Er  Er1  1  0.750000  0.432231  0.708656  1
  Er  Er2  1  0.250000  0.568131  0.292630  1
  Er  Er3  1  0.750000  0.068131  0.207370  1
  Er  Er4  1  0.250000  0.841236  0.503286  1
  Er  Er5  1  0.750000  0.341236  0.996714  1
  Er  Er6  1  0.250000  0.660868  0.003259  1
  Er  Er7  1  0.750000  0.160868  0.496741  1
  Cu  Cu8  1  0.250000  0.097693  0.013334  1
  Cu  Cu9  1  0.750000  0.597693  0.486666  1
  Cu  Cu10  1  0.250000  0.269776  0.329183  1
  Cu  Cu11  1  0.750000  0.769776  0.170817  1
  Cu  Cu12  1  0.250000  0.228021  0.831028  1
  Cu  Cu13  1  0.750000  0.728021  0.668972  1
  Cu  Cu14  1  0.250000  0.859706  0.282897  1
  Cu  Cu15  1  0.750000  0.359706  0.217103  1
  Cu  Cu16  1  0.250000  0.639345  0.781672  1
  Cu  Cu17  1  0.750000  0.139345  0.718328  1
  P  P18  1  0.250000  0.238277  0.644985  1
  P  P19  1  0.750000  0.738277  0.855015  1
  P  P20  1  0.250000  0.256366  0.141017  1
  P  P21  1  0.750000  0.756366  0.358983  1
  P  P22  1  0.250000  0.609626  0.602883  1
  P  P23  1  0.750000  0.109626  0.897117  1
  P  P24  1  0.250000  0.893725  0.107119  1
  P  P25  1  0.750000  0.393725  0.392881  1
  P  P26  1  0.250000  0.055361  0.370355  1
  P  P27  1  0.750000  0.555361  0.129645  1
  P  P28  1  0.250000  0.443749  0.870216  1
  P  P29  1  0.750000  0.943749  0.629784  1
  Pd  Pd30  1  0.250000  0.405890  0.514603  1
  Pd  Pd31  1  0.750000  0.905890  0.985397  1
