# generated using pymatgen
data_Zr5Fe15(P3Ru)4
_symmetry_space_group_name_H-M   'P 1'
_cell_length_a   11.86289363
_cell_length_b   11.87840932
_cell_length_c   3.69219600
_cell_angle_alpha   90.00000000
_cell_angle_beta   90.00000000
_cell_angle_gamma   119.75279306
_symmetry_Int_Tables_number   1
_chemical_formula_structural   Zr5Fe15(P3Ru)4
_chemical_formula_sum   'Zr5 Fe15 P12 Ru4'
_cell_volume   451.69029323
_cell_formula_units_Z   1
loop_
 _symmetry_equiv_pos_site_id
 _symmetry_equiv_pos_as_xyz
  1  'x, y, z'
loop_
 _atom_site_type_symbol
 _atom_site_label
 _atom_site_symmetry_multiplicity
 _atom_site_fract_x
 _atom_site_fract_y
 _atom_site_fract_z
 _atom_site_occupancy
  Zr  Zr0  1  0.662478  0.333753  0.000000  1
  Zr  Zr1  1  0.332131  0.666697  0.000000  1
  Zr  Zr2  1  0.815182  0.995140  0.500000  1
  Zr  Zr3  1  0.187726  0.186060  0.500000  1
  Zr  Zr4  1  0.999705  0.815723  0.500000  1
  Fe  Fe5  1  0.622476  0.801664  0.000000  1
  Fe  Fe6  1  0.184257  0.377583  0.000000  1
  Fe  Fe7  1  0.374834  0.180138  0.000000  1
  Fe  Fe8  1  0.194029  0.819594  0.000000  1
  Fe  Fe9  1  0.804740  0.623776  0.000000  1
  Fe  Fe10  1  0.876193  0.517726  0.500000  1
  Fe  Fe11  1  0.485041  0.359747  0.500000  1
  Fe  Fe12  1  0.635574  0.123847  0.500000  1
  Fe  Fe13  1  0.126656  0.642566  0.500000  1
  Fe  Fe14  1  0.360288  0.485358  0.500000  1
  Fe  Fe15  1  0.513337  0.872775  0.500000  1
  Fe  Fe16  1  0.999124  0.998577  0.000000  1
  Fe  Fe17  1  0.718249  0.717954  0.500000  1
  Fe  Fe18  1  0.005508  0.284118  0.500000  1
  Fe  Fe19  1  0.279975  0.000133  0.500000  1
  P  P20  1  0.630371  0.991945  0.000000  1
  P  P21  1  0.363591  0.362481  0.000000  1
  P  P22  1  0.000346  0.639271  0.000000  1
  P  P23  1  0.689516  0.520167  0.500000  1
  P  P24  1  0.831845  0.316690  0.500000  1
  P  P25  1  0.309896  0.831206  0.500000  1
  P  P26  1  0.519303  0.688137  0.500000  1
  P  P27  1  0.180028  0.000001  0.000000  1
  P  P28  1  0.818933  0.818226  0.000000  1
  P  P29  1  0.008093  0.182393  0.000000  1
  P  P30  1  0.477840  0.169037  0.500000  1
  P  P31  1  0.171128  0.481870  0.500000  1
  Ru  Ru32  1  0.441906  0.998223  0.000000  1
  Ru  Ru33  1  0.555481  0.553983  0.000000  1
  Ru  Ru34  1  0.006042  0.450039  0.000000  1
  Ru  Ru35  1  0.818181  0.193400  0.000000  1
