# generated using pymatgen
data_NaNd2SmB24
_symmetry_space_group_name_H-M   'P 1'
_cell_length_a   7.17034208
_cell_length_b   7.17034078
_cell_length_c   5.84404500
_cell_angle_alpha   90.00000000
_cell_angle_beta   90.00000000
_cell_angle_gamma   109.50574516
_symmetry_Int_Tables_number   1
_chemical_formula_structural   NaNd2SmB24
_chemical_formula_sum   'Na1 Nd2 Sm1 B24'
_cell_volume   283.22028231
_cell_formula_units_Z   1
loop_
 _symmetry_equiv_pos_site_id
 _symmetry_equiv_pos_as_xyz
  1  'x, y, z'
loop_
 _atom_site_type_symbol
 _atom_site_label
 _atom_site_symmetry_multiplicity
 _atom_site_fract_x
 _atom_site_fract_y
 _atom_site_fract_z
 _atom_site_occupancy
  Na  Na0  1  0.000000  0.000000  0.000000  1
  Nd  Nd1  1  0.749382  0.250618  0.500000  1
  Nd  Nd2  1  0.250618  0.749382  0.500000  1
  Sm  Sm3  1  0.500000  0.500000  0.000000  1
  B  B4  1  0.175562  0.324612  0.650528  1
  B  B5  1  0.925006  0.575070  0.149547  1
  B  B6  1  0.675388  0.824438  0.650528  1
  B  B7  1  0.424930  0.074994  0.149547  1
  B  B8  1  0.175562  0.324612  0.349472  1
  B  B9  1  0.925006  0.575070  0.850453  1
  B  B10  1  0.675388  0.824438  0.349472  1
  B  B11  1  0.424930  0.074994  0.850453  1
  B  B12  1  0.399932  0.399932  0.500000  1
  B  B13  1  0.149010  0.650632  0.000000  1
  B  B14  1  0.899597  0.899597  0.500000  1
  B  B15  1  0.650632  0.149010  0.000000  1
  B  B16  1  0.324612  0.175562  0.650528  1
  B  B17  1  0.074994  0.424930  0.149547  1
  B  B18  1  0.824438  0.675388  0.650528  1
  B  B19  1  0.575070  0.925006  0.149547  1
  B  B20  1  0.100403  0.100403  0.500000  1
  B  B21  1  0.850990  0.349368  0.000000  1
  B  B22  1  0.600068  0.600068  0.500000  1
  B  B23  1  0.349368  0.850990  0.000000  1
  B  B24  1  0.324612  0.175562  0.349472  1
  B  B25  1  0.074994  0.424930  0.850453  1
  B  B26  1  0.824438  0.675388  0.349472  1
  B  B27  1  0.575070  0.925006  0.850453  1
