# generated using pymatgen
data_SiGe7B24
_symmetry_space_group_name_H-M   'P 1'
_cell_length_a   6.30075404
_cell_length_b   8.30664518
_cell_length_c   8.30664480
_cell_angle_alpha   101.10775099
_cell_angle_beta   112.32809689
_cell_angle_gamma   112.32809546
_symmetry_Int_Tables_number   1
_chemical_formula_structural   SiGe7B24
_chemical_formula_sum   'Si1 Ge7 B24'
_cell_volume   341.94159255
_cell_formula_units_Z   1
loop_
 _symmetry_equiv_pos_site_id
 _symmetry_equiv_pos_as_xyz
  1  'x, y, z'
loop_
 _atom_site_type_symbol
 _atom_site_label
 _atom_site_symmetry_multiplicity
 _atom_site_fract_x
 _atom_site_fract_y
 _atom_site_fract_z
 _atom_site_occupancy
  Si  Si0  1  0.786344  0.474359  0.974360  1
  Ge  Ge1  1  0.210519  0.524536  0.024535  1
  Ge  Ge2  1  0.993881  0.845952  0.149106  1
  Ge  Ge3  1  0.993881  0.649106  0.345952  1
  Ge  Ge4  1  0.665919  0.975091  0.475090  1
  Ge  Ge5  1  0.333213  0.023853  0.523854  1
  Ge  Ge6  1  0.003707  0.348628  0.651515  1
  Ge  Ge7  1  0.003707  0.151515  0.848628  1
  B  B8  1  0.387819  0.781681  0.000643  1
  B  B9  1  0.275750  0.933190  0.066608  1
  B  B10  1  0.718672  0.928443  0.071414  1
  B  B11  1  0.521464  0.177471  0.173882  1
  B  B12  1  0.830139  0.174382  0.176863  1
  B  B13  1  0.605975  0.999436  0.218201  1
  B  B14  1  0.387819  0.500643  0.281681  1
  B  B15  1  0.479008  0.326053  0.323527  1
  B  B16  1  0.170616  0.323019  0.326774  1
  B  B17  1  0.718672  0.571414  0.428443  1
  B  B18  1  0.275750  0.566608  0.433191  1
  B  B19  1  0.605975  0.718201  0.499436  1
  B  B20  1  0.394344  0.281394  0.501406  1
  B  B21  1  0.724561  0.432925  0.567781  1
  B  B22  1  0.282152  0.428364  0.572709  1
  B  B23  1  0.830138  0.676863  0.674381  1
  B  B24  1  0.521464  0.673881  0.677471  1
  B  B25  1  0.613913  0.498929  0.721858  1
  B  B26  1  0.394344  0.001406  0.781394  1
  B  B27  1  0.170615  0.826773  0.823019  1
  B  B28  1  0.479008  0.823527  0.826052  1
  B  B29  1  0.282152  0.072709  0.928364  1
  B  B30  1  0.724561  0.067781  0.932924  1
  B  B31  1  0.613913  0.221858  0.998929  1
