# generated using pymatgen
data_DyY3Er2(Si3Ru)8
_symmetry_space_group_name_H-M   'P 1'
_cell_length_a   10.12062384
_cell_length_b   10.12060512
_cell_length_c   8.14275600
_cell_angle_alpha   90.03113118
_cell_angle_beta   89.96929870
_cell_angle_gamma   132.61036830
_symmetry_Int_Tables_number   1
_chemical_formula_structural   DyY3Er2(Si3Ru)8
_chemical_formula_sum   'Dy1 Y3 Er2 Si24 Ru8'
_cell_volume   613.82974220
_cell_formula_units_Z   1
loop_
 _symmetry_equiv_pos_site_id
 _symmetry_equiv_pos_as_xyz
  1  'x, y, z'
loop_
 _atom_site_type_symbol
 _atom_site_label
 _atom_site_symmetry_multiplicity
 _atom_site_fract_x
 _atom_site_fract_y
 _atom_site_fract_z
 _atom_site_occupancy
  Dy  Dy0  1  0.497399  0.997395  0.249997  1
  Y  Y1  1  0.002513  0.502513  0.750005  1
  Y  Y2  1  0.502503  0.002503  0.750008  1
  Y  Y3  1  0.997574  0.497579  0.249991  1
  Er  Er4  1  0.500009  0.500039  0.499948  1
  Er  Er5  1  0.999984  0.999993  0.000084  1
  Si  Si6  1  0.387818  0.154451  0.004868  1
  Si  Si7  1  0.654446  0.887810  0.495130  1
  Si  Si8  1  0.111916  0.344597  0.504528  1
  Si  Si9  1  0.844589  0.611911  0.995471  1
  Si  Si10  1  0.612195  0.845592  0.995330  1
  Si  Si11  1  0.345608  0.112204  0.504670  1
  Si  Si12  1  0.888080  0.655413  0.495412  1
  Si  Si13  1  0.155419  0.388088  0.004588  1
  Si  Si14  1  0.612242  0.378139  0.228619  1
  Si  Si15  1  0.878136  0.112230  0.271390  1
  Si  Si16  1  0.886810  0.120572  0.728658  1
  Si  Si17  1  0.620567  0.386801  0.771331  1
  Si  Si18  1  0.387759  0.621666  0.771578  1
  Si  Si19  1  0.121671  0.887767  0.728410  1
  Si  Si20  1  0.704893  0.294090  0.000146  1
  Si  Si21  1  0.794088  0.204902  0.499852  1
  Si  Si22  1  0.295072  0.705868  0.000232  1
  Si  Si23  1  0.205873  0.795062  0.499770  1
  Si  Si24  1  0.167852  0.167743  0.333184  1
  Si  Si25  1  0.667746  0.667851  0.166829  1
  Si  Si26  1  0.332233  0.332166  0.833215  1
  Si  Si27  1  0.832166  0.832231  0.666771  1
  Si  Si28  1  0.379297  0.613445  0.228810  1
  Si  Si29  1  0.113434  0.879292  0.271193  1
  Ru  Ru30  1  0.625837  0.625988  0.872825  1
  Ru  Ru31  1  0.125985  0.125835  0.627193  1
  Ru  Ru32  1  0.874186  0.874136  0.372711  1
  Ru  Ru33  1  0.374144  0.374181  0.127258  1
  Ru  Ru34  1  0.330449  0.667703  0.500217  1
  Ru  Ru35  1  0.167695  0.830460  0.999771  1
  Ru  Ru36  1  0.669544  0.332266  0.499703  1
  Ru  Ru37  1  0.832269  0.169523  0.000303  1
