# generated using pymatgen
data_Nd2Cr3O12
_symmetry_space_group_name_H-M   'P 1'
_cell_length_a   5.20302518
_cell_length_b   7.01728824
_cell_length_c   14.55035622
_cell_angle_alpha   84.05706590
_cell_angle_beta   79.77997737
_cell_angle_gamma   68.73985699
_symmetry_Int_Tables_number   1
_chemical_formula_structural   Nd2Cr3O12
_chemical_formula_sum   'Nd4 Cr6 O24'
_cell_volume   486.79437819
_cell_formula_units_Z   2
loop_
 _symmetry_equiv_pos_site_id
 _symmetry_equiv_pos_as_xyz
  1  'x, y, z'
loop_
 _atom_site_type_symbol
 _atom_site_label
 _atom_site_symmetry_multiplicity
 _atom_site_fract_x
 _atom_site_fract_y
 _atom_site_fract_z
 _atom_site_occupancy
  Nd  Nd0  1  0.358748  0.132167  0.126707  1
  Nd  Nd1  1  0.380989  0.793943  0.450218  1
  Nd  Nd2  1  0.641252  0.867833  0.873293  1
  Nd  Nd3  1  0.619011  0.206057  0.549782  1
  Cr  Cr4  1  0.910112  0.273055  0.952638  1
  Cr  Cr5  1  0.846640  0.980872  0.299017  1
  Cr  Cr6  1  0.869424  0.623067  0.619984  1
  Cr  Cr7  1  0.153360  0.019128  0.700983  1
  Cr  Cr8  1  0.089888  0.726945  0.047362  1
  Cr  Cr9  1  0.130576  0.376933  0.380016  1
  O  O10  1  0.843960  0.187656  0.682560  1
  O  O11  1  0.747393  0.856343  0.033642  1
  O  O12  1  0.830811  0.560709  0.371706  1
  O  O13  1  0.867045  0.508040  0.908867  1
  O  O14  1  0.902528  0.180779  0.243467  1
  O  O15  1  0.940237  0.823327  0.557359  1
  O  O16  1  0.329875  0.100020  0.762802  1
  O  O17  1  0.189709  0.852708  0.115257  1
  O  O18  1  0.329290  0.454385  0.439200  1
  O  O19  1  0.701005  0.690133  0.724274  1
  O  O20  1  0.721483  0.276292  0.057386  1
  O  O21  1  0.648279  0.024539  0.408434  1
  O  O22  1  0.278517  0.723708  0.942614  1
  O  O23  1  0.298995  0.309867  0.275726  1
  O  O24  1  0.351721  0.975461  0.591566  1
  O  O25  1  0.097472  0.819221  0.756533  1
  O  O26  1  0.132955  0.491960  0.091133  1
  O  O27  1  0.059763  0.176673  0.442641  1
  O  O28  1  0.252607  0.143657  0.966358  1
  O  O29  1  0.156040  0.812344  0.317440  1
  O  O30  1  0.169189  0.439291  0.628294  1
  O  O31  1  0.810291  0.147292  0.884743  1
  O  O32  1  0.670125  0.899980  0.237198  1
  O  O33  1  0.670710  0.545615  0.560800  1
