# generated using pymatgen
data_TbTm3InPt11
_symmetry_space_group_name_H-M   'P 1'
_cell_length_a   4.17519100
_cell_length_b   5.83152862
_cell_length_c   11.64731121
_cell_angle_alpha   87.92272353
_cell_angle_beta   90.00000000
_cell_angle_gamma   90.00000000
_symmetry_Int_Tables_number   1
_chemical_formula_structural   TbTm3InPt11
_chemical_formula_sum   'Tb1 Tm3 In1 Pt11'
_cell_volume   283.39941400
_cell_formula_units_Z   1
loop_
 _symmetry_equiv_pos_site_id
 _symmetry_equiv_pos_as_xyz
  1  'x, y, z'
loop_
 _atom_site_type_symbol
 _atom_site_label
 _atom_site_symmetry_multiplicity
 _atom_site_fract_x
 _atom_site_fract_y
 _atom_site_fract_z
 _atom_site_occupancy
  Tb  Tb0  1  0.500000  0.754467  0.375877  1
  Tm  Tm1  1  0.500000  0.719077  0.862408  1
  Tm  Tm2  1  0.500000  0.280845  0.137368  1
  Tm  Tm3  1  0.500000  0.245570  0.624429  1
  In  In4  1  0.000000  0.000229  0.999488  1
  Pt  Pt5  1  0.000000  0.015724  0.248099  1
  Pt  Pt6  1  0.000000  0.986125  0.750955  1
  Pt  Pt7  1  0.000000  0.499824  0.999570  1
  Pt  Pt8  1  0.000000  0.498086  0.501432  1
  Pt  Pt9  1  0.000000  0.514496  0.248780  1
  Pt  Pt10  1  0.000000  0.483714  0.750314  1
  Pt  Pt11  1  0.500000  0.253557  0.377565  1
  Pt  Pt12  1  0.500000  0.230551  0.880019  1
  Pt  Pt13  1  0.500000  0.769478  0.118413  1
  Pt  Pt14  1  0.500000  0.746690  0.623948  1
  Pt  Pt15  1  0.000000  0.001567  0.501336  1
