# generated using pymatgen
data_Ta12Be4ReB8Ru11
_symmetry_space_group_name_H-M   'P 1'
_cell_length_a   3.18743300
_cell_length_b   9.04461170
_cell_length_c   15.65606922
_cell_angle_alpha   90.04513376
_cell_angle_beta   90.00000000
_cell_angle_gamma   90.00000000
_symmetry_Int_Tables_number   1
_chemical_formula_structural   Ta12Be4ReB8Ru11
_chemical_formula_sum   'Ta12 Be4 Re1 B8 Ru11'
_cell_volume   451.35014804
_cell_formula_units_Z   1
loop_
 _symmetry_equiv_pos_site_id
 _symmetry_equiv_pos_as_xyz
  1  'x, y, z'
loop_
 _atom_site_type_symbol
 _atom_site_label
 _atom_site_symmetry_multiplicity
 _atom_site_fract_x
 _atom_site_fract_y
 _atom_site_fract_z
 _atom_site_occupancy
  Ta  Ta0  1  0.000000  0.799904  0.494282  1
  Ta  Ta1  1  0.000000  0.198010  0.504926  1
  Ta  Ta2  1  0.000000  0.301218  0.004505  1
  Ta  Ta3  1  0.000000  0.699310  0.995793  1
  Ta  Ta4  1  0.000000  0.514931  0.595028  1
  Ta  Ta5  1  0.000000  0.484807  0.405226  1
  Ta  Ta6  1  0.000000  0.014431  0.904830  1
  Ta  Ta7  1  0.000000  0.986049  0.094756  1
  Ta  Ta8  1  0.000000  0.684612  0.206778  1
  Ta  Ta9  1  0.000000  0.314933  0.795910  1
  Ta  Ta10  1  0.000000  0.184130  0.295722  1
  Ta  Ta11  1  0.000000  0.815038  0.703584  1
  Be  Be12  1  0.000000  0.609638  0.832557  1
  Be  Be13  1  0.000000  0.391283  0.167203  1
  Be  Be14  1  0.000000  0.109099  0.667420  1
  Be  Be15  1  0.000000  0.893209  0.331925  1
  Re  Re16  1  0.500000  0.714357  0.357921  1
  B  B17  1  0.500000  0.603404  0.496052  1
  B  B18  1  0.500000  0.394522  0.504536  1
  B  B19  1  0.500000  0.104272  0.003282  1
  B  B20  1  0.500000  0.895874  0.996078  1
  B  B21  1  0.500000  0.712960  0.599840  1
  B  B22  1  0.500000  0.285170  0.400314  1
  B  B23  1  0.500000  0.213485  0.900214  1
  B  B24  1  0.500000  0.787032  0.100491  1
  Ru  Ru25  1  0.500000  0.285611  0.642541  1
  Ru  Ru26  1  0.500000  0.215262  0.140569  1
  Ru  Ru27  1  0.500000  0.785616  0.858250  1
  Ru  Ru28  1  0.500000  0.522797  0.093669  1
  Ru  Ru29  1  0.500000  0.477522  0.905956  1
  Ru  Ru30  1  0.500000  0.023777  0.406833  1
  Ru  Ru31  1  0.500000  0.977755  0.593794  1
  Ru  Ru32  1  0.500000  0.567899  0.730761  1
  Ru  Ru33  1  0.500000  0.428992  0.269080  1
  Ru  Ru34  1  0.500000  0.067473  0.769475  1
  Ru  Ru35  1  0.500000  0.935617  0.229898  1
