# generated using pymatgen
data_ReTe2F18
_symmetry_space_group_name_H-M   'P 1'
_cell_length_a   9.36046800
_cell_length_b   9.36046707
_cell_length_c   5.41464500
_cell_angle_alpha   90.00000000
_cell_angle_beta   90.00000000
_cell_angle_gamma   120.00000330
_symmetry_Int_Tables_number   1
_chemical_formula_structural   ReTe2F18
_chemical_formula_sum   'Re1 Te2 F18'
_cell_volume   410.86172764
_cell_formula_units_Z   1
loop_
 _symmetry_equiv_pos_site_id
 _symmetry_equiv_pos_as_xyz
  1  'x, y, z'
loop_
 _atom_site_type_symbol
 _atom_site_label
 _atom_site_symmetry_multiplicity
 _atom_site_fract_x
 _atom_site_fract_y
 _atom_site_fract_z
 _atom_site_occupancy
  Re  Re0  1  0.000000  0.000000  0.000000  1
  Te  Te1  1  0.666667  0.333333  0.446575  1
  Te  Te2  1  0.333333  0.666667  0.553425  1
  F  F3  1  0.239398  0.760602  0.354382  1
  F  F4  1  0.239398  0.478799  0.354382  1
  F  F5  1  0.521201  0.760602  0.354382  1
  F  F6  1  0.093829  0.906171  0.799702  1
  F  F7  1  0.093829  0.187656  0.799702  1
  F  F8  1  0.812344  0.906171  0.799702  1
  F  F9  1  0.187656  0.093829  0.200298  1
  F  F10  1  0.906171  0.812344  0.200298  1
  F  F11  1  0.906171  0.093829  0.200298  1
  F  F12  1  0.427260  0.572740  0.752482  1
  F  F13  1  0.427260  0.854520  0.752482  1
  F  F14  1  0.145480  0.572740  0.752482  1
  F  F15  1  0.854520  0.427260  0.247518  1
  F  F16  1  0.572740  0.145480  0.247518  1
  F  F17  1  0.572740  0.427260  0.247518  1
  F  F18  1  0.760602  0.239398  0.645618  1
  F  F19  1  0.760602  0.521201  0.645618  1
  F  F20  1  0.478799  0.239398  0.645618  1
