# generated using pymatgen
data_Rb4Zr6CoI18
_symmetry_space_group_name_H-M   'P 1'
_cell_length_a   11.74322066
_cell_length_b   11.74322181
_cell_length_c   11.42435587
_cell_angle_alpha   77.51833737
_cell_angle_beta   77.51833836
_cell_angle_gamma   117.56447971
_symmetry_Int_Tables_number   1
_chemical_formula_structural   Rb4Zr6CoI18
_chemical_formula_sum   'Rb4 Zr6 Co1 I18'
_cell_volume   1269.40395736
_cell_formula_units_Z   1
loop_
 _symmetry_equiv_pos_site_id
 _symmetry_equiv_pos_as_xyz
  1  'x, y, z'
loop_
 _atom_site_type_symbol
 _atom_site_label
 _atom_site_symmetry_multiplicity
 _atom_site_fract_x
 _atom_site_fract_y
 _atom_site_fract_z
 _atom_site_occupancy
  Rb  Rb0  1  0.771135  0.445768  0.677713  1
  Rb  Rb1  1  0.554232  0.228865  0.322287  1
  Rb  Rb2  1  0.228865  0.554232  0.322287  1
  Rb  Rb3  1  0.445768  0.771135  0.677713  1
  Zr  Zr4  1  0.119994  0.119994  0.136093  1
  Zr  Zr5  1  0.880006  0.880006  0.863907  1
  Zr  Zr6  1  0.951146  0.772108  0.143281  1
  Zr  Zr7  1  0.227892  0.048854  0.856719  1
  Zr  Zr8  1  0.048854  0.227892  0.856719  1
  Zr  Zr9  1  0.772108  0.951146  0.143281  1
  Co  Co10  1  0.000000  0.000000  0.000000  1
  I  I11  1  0.807363  0.600427  0.008363  1
  I  I12  1  0.399574  0.192637  0.991637  1
  I  I13  1  0.192637  0.399574  0.991637  1
  I  I14  1  0.600426  0.807363  0.008363  1
  I  I15  1  0.205715  0.794285  0.000000  1
  I  I16  1  0.794285  0.205715  0.000000  1
  I  I17  1  0.317539  0.317539  0.673899  1
  I  I18  1  0.682461  0.682461  0.326101  1
  I  I19  1  0.889109  0.492807  0.324343  1
  I  I20  1  0.507193  0.110891  0.675657  1
  I  I21  1  0.110891  0.507193  0.675657  1
  I  I22  1  0.492807  0.889109  0.324343  1
  I  I23  1  0.263900  0.263900  0.300781  1
  I  I24  1  0.736100  0.736100  0.699219  1
  I  I25  1  0.079203  0.875640  0.319453  1
  I  I26  1  0.124360  0.920797  0.680547  1
  I  I27  1  0.920797  0.124360  0.680547  1
  I  I28  1  0.875640  0.079203  0.319453  1
