# generated using pymatgen
data_TbZr(Mn2P)4
_symmetry_space_group_name_H-M   'P 1'
_cell_length_a   6.99094917
_cell_length_b   6.99094883
_cell_length_c   3.69735600
_cell_angle_alpha   90.00000000
_cell_angle_beta   90.00000000
_cell_angle_gamma   90.80809568
_symmetry_Int_Tables_number   1
_chemical_formula_structural   TbZr(Mn2P)4
_chemical_formula_sum   'Tb1 Zr1 Mn8 P4'
_cell_volume   180.68426773
_cell_formula_units_Z   1
loop_
 _symmetry_equiv_pos_site_id
 _symmetry_equiv_pos_as_xyz
  1  'x, y, z'
loop_
 _atom_site_type_symbol
 _atom_site_label
 _atom_site_symmetry_multiplicity
 _atom_site_fract_x
 _atom_site_fract_y
 _atom_site_fract_z
 _atom_site_occupancy
  Tb  Tb0  1  0.000000  0.000000  0.500000  1
  Zr  Zr1  1  0.500000  0.500000  0.000000  1
  Mn  Mn2  1  0.582390  0.158287  0.500000  1
  Mn  Mn3  1  0.417610  0.841713  0.500000  1
  Mn  Mn4  1  0.088184  0.349207  0.000000  1
  Mn  Mn5  1  0.911816  0.650793  0.000000  1
  Mn  Mn6  1  0.158287  0.582390  0.500000  1
  Mn  Mn7  1  0.841713  0.417610  0.500000  1
  Mn  Mn8  1  0.349207  0.088184  0.000000  1
  Mn  Mn9  1  0.650793  0.911816  0.000000  1
  P  P10  1  0.711358  0.711358  0.500000  1
  P  P11  1  0.288642  0.288642  0.500000  1
  P  P12  1  0.220025  0.779975  0.000000  1
  P  P13  1  0.779975  0.220025  0.000000  1
