# generated using pymatgen
data_Dy2TmPa3(Co3P2)6
_symmetry_space_group_name_H-M   'P 1'
_cell_length_a   3.72389800
_cell_length_b   10.45291743
_cell_length_c   12.17588928
_cell_angle_alpha   90.07611867
_cell_angle_beta   90.00000000
_cell_angle_gamma   90.00000000
_symmetry_Int_Tables_number   1
_chemical_formula_structural   Dy2TmPa3(Co3P2)6
_chemical_formula_sum   'Dy2 Tm1 Pa3 Co18 P12'
_cell_volume   473.95335677
_cell_formula_units_Z   1
loop_
 _symmetry_equiv_pos_site_id
 _symmetry_equiv_pos_as_xyz
  1  'x, y, z'
loop_
 _atom_site_type_symbol
 _atom_site_label
 _atom_site_symmetry_multiplicity
 _atom_site_fract_x
 _atom_site_fract_y
 _atom_site_fract_z
 _atom_site_occupancy
  Dy  Dy0  1  0.500000  0.186742  0.205096  1
  Dy  Dy1  1  0.000000  0.684987  0.794654  1
  Tm  Tm2  1  0.000000  0.314627  0.792934  1
  Pa  Pa3  1  0.000000  0.498898  0.528843  1
  Pa  Pa4  1  0.500000  0.001482  0.474441  1
  Pa  Pa5  1  0.500000  0.818072  0.208037  1
  Co  Co6  1  0.500000  0.499868  0.159561  1
  Co  Co7  1  0.000000  0.999646  0.843361  1
  Co  Co8  1  0.500000  0.498434  0.696112  1
  Co  Co9  1  0.000000  0.993900  0.299933  1
  Co  Co10  1  0.000000  0.499234  0.980730  1
  Co  Co11  1  0.500000  0.000756  0.015439  1
  Co  Co12  1  0.500000  0.335116  0.992160  1
  Co  Co13  1  0.500000  0.665489  0.994270  1
  Co  Co14  1  0.000000  0.168360  0.005355  1
  Co  Co15  1  0.000000  0.834562  0.007827  1
  Co  Co16  1  0.500000  0.300892  0.431226  1
  Co  Co17  1  0.500000  0.696624  0.430906  1
  Co  Co18  1  0.000000  0.196095  0.567981  1
  Co  Co19  1  0.000000  0.803024  0.571573  1
  Co  Co20  1  0.500000  0.881064  0.712907  1
  Co  Co21  1  0.500000  0.120209  0.712411  1
  Co  Co22  1  0.000000  0.622528  0.286624  1
  Co  Co23  1  0.000000  0.380885  0.288164  1
  P  P24  1  0.500000  0.499076  0.876633  1
  P  P25  1  0.000000  0.003523  0.118380  1
  P  P26  1  0.500000  0.498603  0.343533  1
  P  P27  1  0.000000  0.999538  0.659081  1
  P  P28  1  0.500000  0.305749  0.617078  1
  P  P29  1  0.500000  0.692845  0.617843  1
  P  P30  1  0.000000  0.190863  0.381824  1
  P  P31  1  0.000000  0.806327  0.389174  1
  P  P32  1  0.500000  0.847615  0.894927  1
  P  P33  1  0.500000  0.154501  0.893860  1
  P  P34  1  0.000000  0.649955  0.102516  1
  P  P35  1  0.000000  0.349912  0.104606  1
