# generated using pymatgen
data_SmHo2MoO7
_symmetry_space_group_name_H-M   'P 1'
_cell_length_a   6.45141158
_cell_length_b   6.45141028
_cell_length_c   7.55473800
_cell_angle_alpha   90.00000000
_cell_angle_beta   90.00000000
_cell_angle_gamma   109.20982515
_symmetry_Int_Tables_number   1
_chemical_formula_structural   SmHo2MoO7
_chemical_formula_sum   'Sm2 Ho4 Mo2 O14'
_cell_volume   296.92583675
_cell_formula_units_Z   2
loop_
 _symmetry_equiv_pos_site_id
 _symmetry_equiv_pos_as_xyz
  1  'x, y, z'
loop_
 _atom_site_type_symbol
 _atom_site_label
 _atom_site_symmetry_multiplicity
 _atom_site_fract_x
 _atom_site_fract_y
 _atom_site_fract_z
 _atom_site_occupancy
  Sm  Sm0  1  0.500000  0.500000  0.500000  1
  Sm  Sm1  1  0.500000  0.500000  0.000000  1
  Ho  Ho2  1  0.534998  0.000872  0.750000  1
  Ho  Ho3  1  0.000872  0.534998  0.250000  1
  Ho  Ho4  1  0.465002  0.999128  0.250000  1
  Ho  Ho5  1  0.999128  0.465002  0.750000  1
  Mo  Mo6  1  0.000000  0.000000  0.500000  1
  Mo  Mo7  1  0.000000  0.000000  0.000000  1
  O  O8  1  0.677593  0.927433  0.470056  1
  O  O9  1  0.927433  0.677593  0.529944  1
  O  O10  1  0.677593  0.927433  0.029944  1
  O  O11  1  0.927433  0.677593  0.970056  1
  O  O12  1  0.322407  0.072567  0.529944  1
  O  O13  1  0.072567  0.322407  0.470056  1
  O  O14  1  0.322407  0.072567  0.970056  1
  O  O15  1  0.072567  0.322407  0.029944  1
  O  O16  1  0.928419  0.071581  0.750000  1
  O  O17  1  0.071581  0.928419  0.250000  1
  O  O18  1  0.365195  0.634804  0.750000  1
  O  O19  1  0.634804  0.365195  0.250000  1
  O  O20  1  0.640416  0.359584  0.750000  1
  O  O21  1  0.359584  0.640416  0.250000  1
