# generated using pymatgen
data_TmZrBIrRh5
_symmetry_space_group_name_H-M   'P 1'
_cell_length_a   5.76501127
_cell_length_b   5.75643192
_cell_length_c   5.75643124
_cell_angle_alpha   60.03422168
_cell_angle_beta   59.95068333
_cell_angle_gamma   59.95068883
_symmetry_Int_Tables_number   1
_chemical_formula_structural   TmZrBIrRh5
_chemical_formula_sum   'Tm1 Zr1 B1 Ir1 Rh5'
_cell_volume   135.01429977
_cell_formula_units_Z   1
loop_
 _symmetry_equiv_pos_site_id
 _symmetry_equiv_pos_as_xyz
  1  'x, y, z'
loop_
 _atom_site_type_symbol
 _atom_site_label
 _atom_site_symmetry_multiplicity
 _atom_site_fract_x
 _atom_site_fract_y
 _atom_site_fract_z
 _atom_site_occupancy
  Tm  Tm0  1  0.749977  0.750023  0.750023  1
  Zr  Zr1  1  0.249928  0.250072  0.250072  1
  B  B2  1  0.999958  0.000042  0.000042  1
  Ir  Ir3  1  0.257492  0.742508  0.742508  1
  Rh  Rh4  1  0.742493  0.742550  0.257791  1
  Rh  Rh5  1  0.257166  0.742550  0.257791  1
  Rh  Rh6  1  0.743326  0.256674  0.256674  1
  Rh  Rh7  1  0.257166  0.257791  0.742550  1
  Rh  Rh8  1  0.742493  0.257791  0.742550  1
