# generated using pymatgen
data_Tb8Mg4Sc8Si15Sn
_symmetry_space_group_name_H-M   'P 1'
_cell_length_a   7.01750284
_cell_length_b   7.49892185
_cell_length_c   14.02641780
_cell_angle_alpha   90.06585226
_cell_angle_beta   89.70118859
_cell_angle_gamma   90.06454511
_symmetry_Int_Tables_number   1
_chemical_formula_structural   Tb8Mg4Sc8Si15Sn
_chemical_formula_sum   'Tb8 Mg4 Sc8 Si15 Sn1'
_cell_volume   738.11108840
_cell_formula_units_Z   1
loop_
 _symmetry_equiv_pos_site_id
 _symmetry_equiv_pos_as_xyz
  1  'x, y, z'
loop_
 _atom_site_type_symbol
 _atom_site_label
 _atom_site_symmetry_multiplicity
 _atom_site_fract_x
 _atom_site_fract_y
 _atom_site_fract_z
 _atom_site_occupancy
  Tb  Tb0  1  0.012174  0.179089  0.097111  1
  Tb  Tb1  1  0.987926  0.821254  0.903559  1
  Tb  Tb2  1  0.488024  0.677661  0.903281  1
  Tb  Tb3  1  0.987419  0.828330  0.598611  1
  Tb  Tb4  1  0.511675  0.322744  0.097542  1
  Tb  Tb5  1  0.008003  0.172025  0.398645  1
  Tb  Tb6  1  0.514211  0.319069  0.398211  1
  Tb  Tb7  1  0.499906  0.687250  0.600683  1
  Mg  Mg8  1  0.159344  0.504193  0.754375  1
  Mg  Mg9  1  0.840759  0.495841  0.249113  1
  Mg  Mg10  1  0.340877  0.005076  0.248262  1
  Mg  Mg11  1  0.661330  0.994511  0.753790  1
  Sc  Sc12  1  0.341905  0.167147  0.630643  1
  Sc  Sc13  1  0.664993  0.820693  0.372378  1
  Sc  Sc14  1  0.164659  0.687485  0.369853  1
  Sc  Sc15  1  0.667816  0.818325  0.124331  1
  Sc  Sc16  1  0.822758  0.318074  0.626346  1
  Sc  Sc17  1  0.329938  0.180216  0.875780  1
  Sc  Sc18  1  0.831426  0.319781  0.875328  1
  Sc  Sc19  1  0.168946  0.680382  0.124752  1
  Si  Si20  1  0.036073  0.107737  0.751160  1
  Si  Si21  1  0.962287  0.893810  0.247349  1
  Si  Si22  1  0.463395  0.606440  0.248656  1
  Si  Si23  1  0.534752  0.394440  0.752072  1
  Si  Si24  1  0.282054  0.880592  0.752539  1
  Si  Si25  1  0.715300  0.116530  0.247364  1
  Si  Si26  1  0.215738  0.383523  0.249298  1
  Si  Si27  1  0.785178  0.616518  0.751540  1
  Si  Si28  1  0.829288  0.540494  0.463039  1
  Si  Si29  1  0.338617  0.961946  0.465731  1
  Si  Si30  1  0.840471  0.536480  0.034538  1
  Si  Si31  1  0.661008  0.039004  0.531626  1
  Si  Si32  1  0.159286  0.463002  0.966105  1
  Si  Si33  1  0.658873  0.037056  0.965488  1
  Si  Si34  1  0.341048  0.963570  0.034921  1
  Sn  Sn35  1  0.172542  0.459711  0.535981  1
