# generated using pymatgen
data_ErIn2AuO7
_symmetry_space_group_name_H-M   'P 1'
_cell_length_a   6.36743475
_cell_length_b   6.36743450
_cell_length_c   7.32910100
_cell_angle_alpha   90.00000000
_cell_angle_beta   90.00000000
_cell_angle_gamma   109.64514025
_symmetry_Int_Tables_number   1
_chemical_formula_structural   ErIn2AuO7
_chemical_formula_sum   'Er2 In4 Au2 O14'
_cell_volume   279.85630552
_cell_formula_units_Z   2
loop_
 _symmetry_equiv_pos_site_id
 _symmetry_equiv_pos_as_xyz
  1  'x, y, z'
loop_
 _atom_site_type_symbol
 _atom_site_label
 _atom_site_symmetry_multiplicity
 _atom_site_fract_x
 _atom_site_fract_y
 _atom_site_fract_z
 _atom_site_occupancy
  Er  Er0  1  0.500252  0.500252  0.500000  1
  Er  Er1  1  0.499748  0.499748  0.000000  1
  In  In2  1  0.002873  0.476162  0.749924  1
  In  In3  1  0.997127  0.523838  0.249924  1
  In  In4  1  0.523838  0.997127  0.750076  1
  In  In5  1  0.476162  0.002873  0.250076  1
  Au  Au6  1  0.999977  0.999977  0.500000  1
  Au  Au7  1  0.000023  0.000023  0.000000  1
  O  O8  1  0.642748  0.357252  0.750000  1
  O  O9  1  0.357252  0.642748  0.250000  1
  O  O10  1  0.919715  0.080285  0.750000  1
  O  O11  1  0.080285  0.919715  0.250000  1
  O  O12  1  0.913055  0.662761  0.523638  1
  O  O13  1  0.086945  0.337239  0.023638  1
  O  O14  1  0.337239  0.086945  0.976362  1
  O  O15  1  0.662761  0.913055  0.476362  1
  O  O16  1  0.364025  0.635975  0.750000  1
  O  O17  1  0.635975  0.364025  0.250000  1
  O  O18  1  0.913162  0.662822  0.976256  1
  O  O19  1  0.086838  0.337178  0.476256  1
  O  O20  1  0.337178  0.086838  0.523744  1
  O  O21  1  0.662822  0.913162  0.023744  1
