# generated using pymatgen
data_HoTmFe3Co9P7
_symmetry_space_group_name_H-M   'P 1'
_cell_length_a   8.97420600
_cell_length_b   8.97420568
_cell_length_c   3.60283000
_cell_angle_alpha   90.00000000
_cell_angle_beta   90.00000000
_cell_angle_gamma   120.00000120
_symmetry_Int_Tables_number   1
_chemical_formula_structural   HoTmFe3Co9P7
_chemical_formula_sum   'Ho1 Tm1 Fe3 Co9 P7'
_cell_volume   251.28493344
_cell_formula_units_Z   1
loop_
 _symmetry_equiv_pos_site_id
 _symmetry_equiv_pos_as_xyz
  1  'x, y, z'
loop_
 _atom_site_type_symbol
 _atom_site_label
 _atom_site_symmetry_multiplicity
 _atom_site_fract_x
 _atom_site_fract_y
 _atom_site_fract_z
 _atom_site_occupancy
  Ho  Ho0  1  0.000000  0.000000  0.000000  1
  Tm  Tm1  1  0.333333  0.666667  0.500000  1
  Fe  Fe2  1  0.542692  0.115636  0.500000  1
  Fe  Fe3  1  0.572944  0.457308  0.500000  1
  Fe  Fe4  1  0.884364  0.427056  0.500000  1
  Co  Co5  1  0.295868  0.901402  0.000000  1
  Co  Co6  1  0.605534  0.704132  0.000000  1
  Co  Co7  1  0.098598  0.394466  0.000000  1
  Co  Co8  1  0.783713  0.175530  0.000000  1
  Co  Co9  1  0.391815  0.216287  0.000000  1
  Co  Co10  1  0.824470  0.608185  0.000000  1
  Co  Co11  1  0.715755  0.948125  0.500000  1
  Co  Co12  1  0.232371  0.284245  0.500000  1
  Co  Co13  1  0.051875  0.767629  0.500000  1
  P  P14  1  0.552578  0.922577  0.000000  1
  P  P15  1  0.369999  0.447422  0.000000  1
  P  P16  1  0.077423  0.630001  0.000000  1
  P  P17  1  0.956284  0.220567  0.500000  1
  P  P18  1  0.264283  0.043716  0.500000  1
  P  P19  1  0.779433  0.735717  0.500000  1
  P  P20  1  0.666667  0.333333  0.000000  1
