# generated using pymatgen
data_Er2ScV2Si7Pt9
_symmetry_space_group_name_H-M   'P 1'
_cell_length_a   9.91399502
_cell_length_b   9.93791335
_cell_length_c   3.92721300
_cell_angle_alpha   90.00000000
_cell_angle_beta   90.00000000
_cell_angle_gamma   120.00985492
_symmetry_Int_Tables_number   1
_chemical_formula_structural   Er2ScV2Si7Pt9
_chemical_formula_sum   'Er2 Sc1 V2 Si7 Pt9'
_cell_volume   335.05480816
_cell_formula_units_Z   1
loop_
 _symmetry_equiv_pos_site_id
 _symmetry_equiv_pos_as_xyz
  1  'x, y, z'
loop_
 _atom_site_type_symbol
 _atom_site_label
 _atom_site_symmetry_multiplicity
 _atom_site_fract_x
 _atom_site_fract_y
 _atom_site_fract_z
 _atom_site_occupancy
  Er  Er0  1  0.997276  0.995939  0.000000  1
  Er  Er1  1  0.332602  0.668195  0.500000  1
  Sc  Sc2  1  0.548053  0.434482  0.500000  1
  V  V3  1  0.883089  0.450138  0.500000  1
  V  V4  1  0.570029  0.117324  0.500000  1
  Si  Si5  1  0.244872  0.200201  0.500000  1
  Si  Si6  1  0.790163  0.047491  0.500000  1
  Si  Si7  1  0.954455  0.740810  0.500000  1
  Si  Si8  1  0.553639  0.642873  0.000000  1
  Si  Si9  1  0.366069  0.919791  0.000000  1
  Si  Si10  1  0.082139  0.448507  0.000000  1
  Si  Si11  1  0.670769  0.328101  0.000000  1
  Pt  Pt12  1  0.223294  0.941294  0.500000  1
  Pt  Pt13  1  0.056794  0.281322  0.500000  1
  Pt  Pt14  1  0.723807  0.780832  0.500000  1
  Pt  Pt15  1  0.307248  0.411579  0.000000  1
  Pt  Pt16  1  0.591548  0.900775  0.000000  1
  Pt  Pt17  1  0.101878  0.693967  0.000000  1
  Pt  Pt18  1  0.388806  0.175402  0.000000  1
  Pt  Pt19  1  0.828352  0.213216  0.000000  1
  Pt  Pt20  1  0.785115  0.607765  0.000000  1
