# generated using pymatgen
data_SmErTm3(In2Pt)2
_symmetry_space_group_name_H-M   'P 1'
_cell_length_a   3.59429200
_cell_length_b   8.15200929
_cell_length_c   18.23791188
_cell_angle_alpha   89.93560164
_cell_angle_beta   90.00000000
_cell_angle_gamma   90.00000000
_symmetry_Int_Tables_number   1
_chemical_formula_structural   SmErTm3(In2Pt)2
_chemical_formula_sum   'Sm2 Er2 Tm6 In8 Pt4'
_cell_volume   534.38327927
_cell_formula_units_Z   2
loop_
 _symmetry_equiv_pos_site_id
 _symmetry_equiv_pos_as_xyz
  1  'x, y, z'
loop_
 _atom_site_type_symbol
 _atom_site_label
 _atom_site_symmetry_multiplicity
 _atom_site_fract_x
 _atom_site_fract_y
 _atom_site_fract_z
 _atom_site_occupancy
  Sm  Sm0  1  0.000000  0.000000  0.000000  1
  Sm  Sm1  1  0.000000  0.500000  0.500000  1
  Er  Er2  1  0.000000  0.257109  0.720218  1
  Er  Er3  1  0.000000  0.742891  0.279782  1
  Tm  Tm4  1  0.000000  0.117425  0.413737  1
  Tm  Tm5  1  0.000000  0.882575  0.586263  1
  Tm  Tm6  1  0.000000  0.382685  0.913746  1
  Tm  Tm7  1  0.000000  0.617315  0.086254  1
  Tm  Tm8  1  0.000000  0.243021  0.220316  1
  Tm  Tm9  1  0.000000  0.756979  0.779684  1
  In  In10  1  0.500000  0.422016  0.349523  1
  In  In11  1  0.500000  0.577984  0.650477  1
  In  In12  1  0.500000  0.077614  0.849564  1
  In  In13  1  0.500000  0.922386  0.150436  1
  In  In14  1  0.500000  0.296278  0.067172  1
  In  In15  1  0.500000  0.703722  0.932828  1
  In  In16  1  0.500000  0.203561  0.567055  1
  In  In17  1  0.500000  0.796439  0.432945  1
  Pt  Pt18  1  0.500000  0.025463  0.303475  1
  Pt  Pt19  1  0.500000  0.974537  0.696525  1
  Pt  Pt20  1  0.500000  0.476002  0.803681  1
  Pt  Pt21  1  0.500000  0.523998  0.196319  1
