# generated using pymatgen
data_La8Tb11DySi16
_symmetry_space_group_name_H-M   'P 1'
_cell_length_a   7.84585596
_cell_length_b   7.84585643
_cell_length_c   14.65332900
_cell_angle_alpha   90.02837091
_cell_angle_beta   89.97162909
_cell_angle_gamma   89.98024570
_symmetry_Int_Tables_number   1
_chemical_formula_structural   La8Tb11DySi16
_chemical_formula_sum   'La8 Tb11 Dy1 Si16'
_cell_volume   902.02143070
_cell_formula_units_Z   1
loop_
 _symmetry_equiv_pos_site_id
 _symmetry_equiv_pos_as_xyz
  1  'x, y, z'
loop_
 _atom_site_type_symbol
 _atom_site_label
 _atom_site_symmetry_multiplicity
 _atom_site_fract_x
 _atom_site_fract_y
 _atom_site_fract_z
 _atom_site_occupancy
  La  La0  1  0.989341  0.636880  0.044368  1
  La  La1  1  0.010753  0.363420  0.544137  1
  La  La2  1  0.636880  0.989341  0.955632  1
  La  La3  1  0.136657  0.510348  0.794255  1
  La  La4  1  0.863179  0.489267  0.294280  1
  La  La5  1  0.510348  0.136657  0.205745  1
  La  La6  1  0.489267  0.863179  0.705720  1
  La  La7  1  0.363420  0.010753  0.455863  1
  Tb  Tb8  1  0.364500  0.489223  0.374493  1
  Tb  Tb9  1  0.864479  0.010710  0.375359  1
  Tb  Tb10  1  0.989266  0.135522  0.124542  1
  Tb  Tb11  1  0.010710  0.864479  0.624641  1
  Tb  Tb12  1  0.635592  0.510585  0.874631  1
  Tb  Tb13  1  0.489223  0.364500  0.625507  1
  Tb  Tb14  1  0.510585  0.635592  0.125369  1
  Tb  Tb15  1  0.135522  0.989266  0.875458  1
  Tb  Tb16  1  0.685157  0.685157  0.500000  1
  Tb  Tb17  1  0.815103  0.185018  0.749970  1
  Tb  Tb18  1  0.185018  0.815103  0.250030  1
  Dy  Dy19  1  0.315146  0.315146  0.000000  1
  Si  Si20  1  0.069655  0.713018  0.438304  1
  Si  Si21  1  0.930926  0.287200  0.938371  1
  Si  Si22  1  0.713018  0.069655  0.561696  1
  Si  Si23  1  0.213238  0.429964  0.187674  1
  Si  Si24  1  0.786820  0.569616  0.688384  1
  Si  Si25  1  0.429964  0.213238  0.812326  1
  Si  Si26  1  0.569616  0.786820  0.311616  1
  Si  Si27  1  0.287200  0.930926  0.061629  1
  Si  Si28  1  0.841678  0.799311  0.805423  1
  Si  Si29  1  0.158579  0.200427  0.305149  1
  Si  Si30  1  0.799311  0.841678  0.194577  1
  Si  Si31  1  0.299429  0.658328  0.555418  1
  Si  Si32  1  0.700163  0.341503  0.055238  1
  Si  Si33  1  0.658328  0.299429  0.444582  1
  Si  Si34  1  0.341503  0.700163  0.944762  1
  Si  Si35  1  0.200427  0.158579  0.694851  1
