# generated using pymatgen
data_Ba7Fe5PdO19
_symmetry_space_group_name_H-M   'P 1'
_cell_length_a   7.98189382
_cell_length_b   7.98189488
_cell_length_c   11.04633970
_cell_angle_alpha   81.07824561
_cell_angle_beta   81.07823643
_cell_angle_gamma   42.76892408
_symmetry_Int_Tables_number   1
_chemical_formula_structural   Ba7Fe5PdO19
_chemical_formula_sum   'Ba7 Fe5 Pd1 O19'
_cell_volume   471.21498556
_cell_formula_units_Z   1
loop_
 _symmetry_equiv_pos_site_id
 _symmetry_equiv_pos_as_xyz
  1  'x, y, z'
loop_
 _atom_site_type_symbol
 _atom_site_label
 _atom_site_symmetry_multiplicity
 _atom_site_fract_x
 _atom_site_fract_y
 _atom_site_fract_z
 _atom_site_occupancy
  Ba  Ba0  1  0.500238  0.500238  0.503176  1
  Ba  Ba1  1  0.849683  0.849683  0.947351  1
  Ba  Ba2  1  0.155720  0.155720  0.048540  1
  Ba  Ba3  1  0.573532  0.573532  0.833481  1
  Ba  Ba4  1  0.427037  0.427037  0.163674  1
  Ba  Ba5  1  0.799691  0.799691  0.597511  1
  Ba  Ba6  1  0.199589  0.199589  0.406992  1
  Fe  Fe7  1  0.815500  0.815500  0.268733  1
  Fe  Fe8  1  0.351683  0.351683  0.783303  1
  Fe  Fe9  1  0.648007  0.648007  0.217968  1
  Fe  Fe10  1  0.018201  0.018201  0.672056  1
  Fe  Fe11  1  0.980632  0.980632  0.328912  1
  Pd  Pd12  1  0.183833  0.183833  0.730447  1
  O  O13  1  0.996237  0.996237  0.501045  1
  O  O14  1  0.702571  0.702571  0.376859  1
  O  O15  1  0.306380  0.306380  0.619213  1
  O  O16  1  0.059507  0.059507  0.843048  1
  O  O17  1  0.930128  0.930128  0.160546  1
  O  O18  1  0.388036  0.388036  0.936697  1
  O  O19  1  0.615280  0.615280  0.063420  1
  O  O20  1  0.821253  0.311030  0.280524  1
  O  O21  1  0.686585  0.180331  0.719484  1
  O  O22  1  0.180331  0.686585  0.719484  1
  O  O23  1  0.311030  0.821253  0.280524  1
  O  O24  1  0.539797  0.984720  0.177025  1
  O  O25  1  0.015676  0.472934  0.829000  1
  O  O26  1  0.649555  0.089061  0.362867  1
  O  O27  1  0.894913  0.352660  0.629614  1
  O  O28  1  0.352660  0.894913  0.629614  1
  O  O29  1  0.089061  0.649555  0.362867  1
  O  O30  1  0.984720  0.539797  0.177025  1
  O  O31  1  0.472934  0.015676  0.829000  1
