# generated using pymatgen
data_KTlF3
_symmetry_space_group_name_H-M   'P 1'
_cell_length_a   6.40847318
_cell_length_b   6.51447634
_cell_length_c   9.45574600
_cell_angle_alpha   89.99897097
_cell_angle_beta   88.93205159
_cell_angle_gamma   89.98149663
_symmetry_Int_Tables_number   1
_chemical_formula_structural   KTlF3
_chemical_formula_sum   'K4 Tl4 F12'
_cell_volume   394.68844476
_cell_formula_units_Z   4
loop_
 _symmetry_equiv_pos_site_id
 _symmetry_equiv_pos_as_xyz
  1  'x, y, z'
loop_
 _atom_site_type_symbol
 _atom_site_label
 _atom_site_symmetry_multiplicity
 _atom_site_fract_x
 _atom_site_fract_y
 _atom_site_fract_z
 _atom_site_occupancy
  K  K0  1  0.012365  0.554473  0.252326  1
  K  K1  1  0.487723  0.054753  0.247600  1
  K  K2  1  0.512276  0.945247  0.752400  1
  K  K3  1  0.987635  0.445526  0.747674  1
  Tl  Tl4  1  0.500000  0.500000  0.000000  1
  Tl  Tl5  1  0.000000  0.000000  0.500000  1
  Tl  Tl6  1  0.000000  0.000000  0.000000  1
  Tl  Tl7  1  0.500000  0.499999  0.500000  1
  F  F8  1  0.151599  0.286468  0.067346  1
  F  F9  1  0.286780  0.837118  0.056613  1
  F  F10  1  0.883673  0.945496  0.219145  1
  F  F11  1  0.616265  0.445561  0.280684  1
  F  F12  1  0.213138  0.336899  0.443339  1
  F  F13  1  0.348158  0.786663  0.432827  1
  F  F14  1  0.651841  0.213337  0.567173  1
  F  F15  1  0.786862  0.663101  0.556660  1
  F  F16  1  0.383734  0.554439  0.719315  1
  F  F17  1  0.116327  0.054504  0.780855  1
  F  F18  1  0.713221  0.162882  0.943386  1
  F  F19  1  0.848400  0.713532  0.932654  1
