# generated using pymatgen
data_Lu2CrFe8MoP6
_symmetry_space_group_name_H-M   'P 1'
_cell_length_a   3.66529300
_cell_length_b   10.37239700
_cell_length_c   11.84570500
_cell_angle_alpha   90.00000000
_cell_angle_beta   90.00000000
_cell_angle_gamma   90.00000000
_symmetry_Int_Tables_number   1
_chemical_formula_structural   Lu2CrFe8MoP6
_chemical_formula_sum   'Lu4 Cr2 Fe16 Mo2 P12'
_cell_volume   450.34852152
_cell_formula_units_Z   2
loop_
 _symmetry_equiv_pos_site_id
 _symmetry_equiv_pos_as_xyz
  1  'x, y, z'
loop_
 _atom_site_type_symbol
 _atom_site_label
 _atom_site_symmetry_multiplicity
 _atom_site_fract_x
 _atom_site_fract_y
 _atom_site_fract_z
 _atom_site_occupancy
  Lu  Lu0  1  0.250000  0.578175  0.704598  1
  Lu  Lu1  1  0.250000  0.921825  0.204598  1
  Lu  Lu2  1  0.750000  0.416575  0.293991  1
  Lu  Lu3  1  0.750000  0.083425  0.793991  1
  Cr  Cr4  1  0.750000  0.298045  0.010470  1
  Cr  Cr5  1  0.750000  0.201955  0.510470  1
  Fe  Fe6  1  0.250000  0.401844  0.491678  1
  Fe  Fe7  1  0.250000  0.098156  0.991678  1
  Fe  Fe8  1  0.750000  0.588961  0.510498  1
  Fe  Fe9  1  0.750000  0.911039  0.010498  1
  Fe  Fe10  1  0.250000  0.219832  0.175768  1
  Fe  Fe11  1  0.250000  0.280168  0.675768  1
  Fe  Fe12  1  0.750000  0.783361  0.821677  1
  Fe  Fe13  1  0.750000  0.716639  0.321677  1
  Fe  Fe14  1  0.250000  0.875932  0.703487  1
  Fe  Fe15  1  0.250000  0.624068  0.203487  1
  Fe  Fe16  1  0.750000  0.125485  0.298676  1
  Fe  Fe17  1  0.750000  0.374515  0.798676  1
  Fe  Fe18  1  0.250000  0.461329  0.932820  1
  Fe  Fe19  1  0.250000  0.038671  0.432820  1
  Fe  Fe20  1  0.750000  0.535561  0.068676  1
  Fe  Fe21  1  0.750000  0.964439  0.568676  1
  Mo  Mo22  1  0.250000  0.705985  0.987389  1
  Mo  Mo23  1  0.250000  0.794015  0.487389  1
  P  P24  1  0.250000  0.422235  0.114083  1
  P  P25  1  0.250000  0.077765  0.614083  1
  P  P26  1  0.750000  0.571840  0.884571  1
  P  P27  1  0.750000  0.928160  0.384571  1
  P  P28  1  0.250000  0.263643  0.868460  1
  P  P29  1  0.250000  0.236357  0.368460  1
  P  P30  1  0.750000  0.738577  0.130515  1
  P  P31  1  0.750000  0.761423  0.630515  1
  P  P32  1  0.250000  0.587286  0.394374  1
  P  P33  1  0.250000  0.912714  0.894374  1
  P  P34  1  0.750000  0.400049  0.608269  1
  P  P35  1  0.750000  0.099951  0.108269  1
