# generated using pymatgen
data_Dy4InRu
_symmetry_space_group_name_H-M   'P 1'
_cell_length_a   9.63978191
_cell_length_b   9.63978186
_cell_length_c   9.63978200
_cell_angle_alpha   59.99999951
_cell_angle_beta   59.99999971
_cell_angle_gamma   60.00000159
_symmetry_Int_Tables_number   1
_chemical_formula_structural   Dy4InRu
_chemical_formula_sum   'Dy16 In4 Ru4'
_cell_volume   633.41250405
_cell_formula_units_Z   4
loop_
 _symmetry_equiv_pos_site_id
 _symmetry_equiv_pos_as_xyz
  1  'x, y, z'
loop_
 _atom_site_type_symbol
 _atom_site_label
 _atom_site_symmetry_multiplicity
 _atom_site_fract_x
 _atom_site_fract_y
 _atom_site_fract_z
 _atom_site_occupancy
  Dy  Dy0  1  0.441808  0.441808  0.058192  1
  Dy  Dy1  1  0.058192  0.441808  0.058192  1
  Dy  Dy2  1  0.441808  0.058192  0.058192  1
  Dy  Dy3  1  0.058192  0.058192  0.441808  1
  Dy  Dy4  1  0.441808  0.058192  0.441808  1
  Dy  Dy5  1  0.058192  0.441808  0.441808  1
  Dy  Dy6  1  0.808525  0.808525  0.191475  1
  Dy  Dy7  1  0.191475  0.808525  0.191475  1
  Dy  Dy8  1  0.808525  0.191475  0.191475  1
  Dy  Dy9  1  0.191475  0.191475  0.808525  1
  Dy  Dy10  1  0.808525  0.191475  0.808525  1
  Dy  Dy11  1  0.191475  0.808525  0.808525  1
  Dy  Dy12  1  0.652016  0.652016  0.043952  1
  Dy  Dy13  1  0.652016  0.043952  0.652016  1
  Dy  Dy14  1  0.043952  0.652016  0.652016  1
  Dy  Dy15  1  0.652016  0.652016  0.652016  1
  In  In16  1  0.417660  0.417660  0.747020  1
  In  In17  1  0.417660  0.747020  0.417660  1
  In  In18  1  0.747020  0.417660  0.417660  1
  In  In19  1  0.417660  0.417660  0.417660  1
  Ru  Ru20  1  0.861242  0.861242  0.416274  1
  Ru  Ru21  1  0.861242  0.416274  0.861242  1
  Ru  Ru22  1  0.416274  0.861242  0.861242  1
  Ru  Ru23  1  0.861242  0.861242  0.861242  1
