# generated using pymatgen
data_Pr14Nd2MgIn3Rh4
_symmetry_space_group_name_H-M   'P 1'
_cell_length_a   10.04358099
_cell_length_b   10.04293868
_cell_length_c   10.05740625
_cell_angle_alpha   60.02474936
_cell_angle_beta   60.03326829
_cell_angle_gamma   60.05123631
_symmetry_Int_Tables_number   1
_chemical_formula_structural   Pr14Nd2MgIn3Rh4
_chemical_formula_sum   'Pr14 Nd2 Mg1 In3 Rh4'
_cell_volume   717.92438535
_cell_formula_units_Z   1
loop_
 _symmetry_equiv_pos_site_id
 _symmetry_equiv_pos_as_xyz
  1  'x, y, z'
loop_
 _atom_site_type_symbol
 _atom_site_label
 _atom_site_symmetry_multiplicity
 _atom_site_fract_x
 _atom_site_fract_y
 _atom_site_fract_z
 _atom_site_occupancy
  Pr  Pr0  1  0.351372  0.953547  0.348211  1
  Pr  Pr1  1  0.951376  0.350390  0.350552  1
  Pr  Pr2  1  0.807883  0.192689  0.192123  1
  Pr  Pr3  1  0.187920  0.810274  0.810871  1
  Pr  Pr4  1  0.189085  0.809917  0.189460  1
  Pr  Pr5  1  0.807461  0.192239  0.806844  1
  Pr  Pr6  1  0.188700  0.190441  0.810148  1
  Pr  Pr7  1  0.807077  0.807828  0.191723  1
  Pr  Pr8  1  0.939550  0.562562  0.561409  1
  Pr  Pr9  1  0.561312  0.939517  0.938895  1
  Pr  Pr10  1  0.561143  0.941419  0.561375  1
  Pr  Pr11  1  0.938090  0.561464  0.939089  1
  Pr  Pr12  1  0.560928  0.560906  0.941570  1
  Pr  Pr13  1  0.937210  0.939012  0.561946  1
  Nd  Nd14  1  0.348478  0.346136  0.346144  1
  Nd  Nd15  1  0.350755  0.347917  0.955398  1
  Mg  Mg16  1  0.274132  0.573894  0.575465  1
  In  In17  1  0.580396  0.580461  0.581358  1
  In  In18  1  0.578243  0.581496  0.257438  1
  In  In19  1  0.578390  0.256950  0.582453  1
  Rh  Rh20  1  0.142296  0.142142  0.140917  1
  Rh  Rh21  1  0.142617  0.141822  0.573648  1
  Rh  Rh22  1  0.143143  0.573489  0.141203  1
  Rh  Rh23  1  0.572447  0.143490  0.141758  1
