# generated using pymatgen
data_Ho6LuCoI12
_symmetry_space_group_name_H-M   'P 1'
_cell_length_a   9.68656620
_cell_length_b   9.70555011
_cell_length_c   9.69634613
_cell_angle_alpha   106.83802382
_cell_angle_beta   106.82127562
_cell_angle_gamma   106.77946533
_symmetry_Int_Tables_number   1
_chemical_formula_structural   Ho6LuCoI12
_chemical_formula_sum   'Ho6 Lu1 Co1 I12'
_cell_volume   763.01935762
_cell_formula_units_Z   1
loop_
 _symmetry_equiv_pos_site_id
 _symmetry_equiv_pos_as_xyz
  1  'x, y, z'
loop_
 _atom_site_type_symbol
 _atom_site_label
 _atom_site_symmetry_multiplicity
 _atom_site_fract_x
 _atom_site_fract_y
 _atom_site_fract_z
 _atom_site_occupancy
  Ho  Ho0  1  0.500007  0.500074  0.500144  1
  Ho  Ho1  1  0.019796  0.091472  0.285869  1
  Ho  Ho2  1  0.090058  0.285805  0.020544  1
  Ho  Ho3  1  0.286360  0.021030  0.091529  1
  Ho  Ho4  1  0.977214  0.908406  0.713251  1
  Ho  Ho5  1  0.907277  0.713870  0.978555  1
  Lu  Lu6  1  0.719782  0.979828  0.911259  1
  Co  Co7  1  0.999816  0.000009  0.000039  1
  I  I8  1  0.160625  0.463137  0.385970  1
  I  I9  1  0.463169  0.385507  0.160471  1
  I  I10  1  0.386076  0.160587  0.463187  1
  I  I11  1  0.839691  0.536927  0.614004  1
  I  I12  1  0.536636  0.614651  0.839061  1
  I  I13  1  0.613204  0.839067  0.537457  1
  I  I14  1  0.675646  0.070268  0.222178  1
  I  I15  1  0.070689  0.223951  0.676105  1
  I  I16  1  0.224343  0.676868  0.070704  1
  I  I17  1  0.324746  0.929398  0.776499  1
  I  I18  1  0.929494  0.776102  0.323846  1
  I  I19  1  0.775367  0.323042  0.929329  1
