# generated using pymatgen
data_Tm7Lu9(Ga3Co)2
_symmetry_space_group_name_H-M   'P 1'
_cell_length_a   9.82386805
_cell_length_b   9.82386638
_cell_length_c   6.80929300
_cell_angle_alpha   90.00175540
_cell_angle_beta   89.99824428
_cell_angle_gamma   119.98839729
_symmetry_Int_Tables_number   1
_chemical_formula_structural   Tm7Lu9(Ga3Co)2
_chemical_formula_sum   'Tm7 Lu9 Ga6 Co2'
_cell_volume   569.17836708
_cell_formula_units_Z   1
loop_
 _symmetry_equiv_pos_site_id
 _symmetry_equiv_pos_as_xyz
  1  'x, y, z'
loop_
 _atom_site_type_symbol
 _atom_site_label
 _atom_site_symmetry_multiplicity
 _atom_site_fract_x
 _atom_site_fract_y
 _atom_site_fract_z
 _atom_site_occupancy
  Tm  Tm0  1  0.928573  0.464285  0.792082  1
  Tm  Tm1  1  0.535715  0.071427  0.792082  1
  Tm  Tm2  1  0.464288  0.928448  0.292018  1
  Tm  Tm3  1  0.071552  0.535712  0.292018  1
  Tm  Tm4  1  0.535657  0.464343  0.792108  1
  Tm  Tm5  1  0.999997  0.000003  0.268136  1
  Tm  Tm6  1  0.000022  0.999978  0.768140  1
  Lu  Lu7  1  0.173537  0.826463  0.989725  1
  Lu  Lu8  1  0.347164  0.173756  0.489564  1
  Lu  Lu9  1  0.826244  0.652836  0.489564  1
  Lu  Lu10  1  0.173743  0.347264  0.989913  1
  Lu  Lu11  1  0.652736  0.826257  0.989913  1
  Lu  Lu12  1  0.826466  0.173534  0.489705  1
  Lu  Lu13  1  0.333436  0.666564  0.672273  1
  Lu  Lu14  1  0.666578  0.333422  0.172497  1
  Lu  Lu15  1  0.464100  0.535900  0.292105  1
  Ga  Ga16  1  0.163409  0.836591  0.539908  1
  Ga  Ga17  1  0.326836  0.163411  0.039937  1
  Ga  Ga18  1  0.836589  0.673164  0.039937  1
  Ga  Ga19  1  0.163549  0.326942  0.539761  1
  Ga  Ga20  1  0.673058  0.836451  0.539761  1
  Ga  Ga21  1  0.836580  0.163420  0.039844  1
  Co  Co22  1  0.333503  0.666497  0.056612  1
  Co  Co23  1  0.666667  0.333333  0.556407  1
