# generated using pymatgen
data_CaDyEr2(Mo2O7)2
_symmetry_space_group_name_H-M   'P 1'
_cell_length_a   7.30610213
_cell_length_b   7.40955857
_cell_length_c   7.30646700
_cell_angle_alpha   60.45919598
_cell_angle_beta   59.99835249
_cell_angle_gamma   60.45814321
_symmetry_Int_Tables_number   1
_chemical_formula_structural   CaDyEr2(Mo2O7)2
_chemical_formula_sum   'Ca1 Dy1 Er2 Mo4 O14'
_cell_volume   281.60564643
_cell_formula_units_Z   1
loop_
 _symmetry_equiv_pos_site_id
 _symmetry_equiv_pos_as_xyz
  1  'x, y, z'
loop_
 _atom_site_type_symbol
 _atom_site_label
 _atom_site_symmetry_multiplicity
 _atom_site_fract_x
 _atom_site_fract_y
 _atom_site_fract_z
 _atom_site_occupancy
  Ca  Ca0  1  0.125000  0.625000  0.125000  1
  Dy  Dy1  1  0.625000  0.125000  0.125000  1
  Er  Er2  1  0.125000  0.125000  0.625000  1
  Er  Er3  1  0.125000  0.125000  0.125000  1
  Mo  Mo4  1  0.125000  0.625000  0.625000  1
  Mo  Mo5  1  0.625000  0.125000  0.625000  1
  Mo  Mo6  1  0.625000  0.625000  0.125000  1
  Mo  Mo7  1  0.625000  0.625000  0.625000  1
  O  O8  1  0.697404  0.725920  0.288338  1
  O  O9  1  0.296982  0.285459  0.708779  1
  O  O10  1  0.709797  0.285027  0.708491  1
  O  O11  1  0.288105  0.727336  0.288490  1
  O  O12  1  0.288105  0.727336  0.696069  1
  O  O13  1  0.709797  0.285027  0.296685  1
  O  O14  1  0.552596  0.524080  0.961662  1
  O  O15  1  0.953018  0.964541  0.541221  1
  O  O16  1  0.540203  0.964973  0.541509  1
  O  O17  1  0.961895  0.522664  0.961510  1
  O  O18  1  0.961895  0.522664  0.553931  1
  O  O19  1  0.540203  0.964973  0.953315  1
  O  O20  1  0.251388  0.239225  0.254694  1
  O  O21  1  0.998612  0.010775  0.995306  1
