# generated using pymatgen
data_Cs5SrNbAs4
_symmetry_space_group_name_H-M   'P 1'
_cell_length_a   11.18229082
_cell_length_b   11.18229100
_cell_length_c   8.42494221
_cell_angle_alpha   87.18471702
_cell_angle_beta   87.18471817
_cell_angle_gamma   121.32405898
_symmetry_Int_Tables_number   1
_chemical_formula_structural   Cs5SrNbAs4
_chemical_formula_sum   'Cs10 Sr2 Nb2 As8'
_cell_volume   895.39680463
_cell_formula_units_Z   2
loop_
 _symmetry_equiv_pos_site_id
 _symmetry_equiv_pos_as_xyz
  1  'x, y, z'
loop_
 _atom_site_type_symbol
 _atom_site_label
 _atom_site_symmetry_multiplicity
 _atom_site_fract_x
 _atom_site_fract_y
 _atom_site_fract_z
 _atom_site_occupancy
  Cs  Cs0  1  0.462923  0.526216  0.491865  1
  Cs  Cs1  1  0.063353  0.530164  0.500701  1
  Cs  Cs2  1  0.526216  0.462923  0.991865  1
  Cs  Cs3  1  0.530164  0.063353  0.000701  1
  Cs  Cs4  1  0.866981  0.141724  0.681448  1
  Cs  Cs5  1  0.288972  0.149231  0.728628  1
  Cs  Cs6  1  0.856893  0.716096  0.651795  1
  Cs  Cs7  1  0.141724  0.866981  0.181448  1
  Cs  Cs8  1  0.716096  0.856893  0.151795  1
  Cs  Cs9  1  0.149231  0.288972  0.228628  1
  Sr  Sr10  1  0.467695  0.944055  0.502115  1
  Sr  Sr11  1  0.944055  0.467695  0.002115  1
  Nb  Nb12  1  0.672936  0.326483  0.391350  1
  Nb  Nb13  1  0.326483  0.672936  0.891350  1
  As  As14  1  0.688616  0.339143  0.687757  1
  As  As15  1  0.339143  0.688616  0.187757  1
  As  As16  1  0.787871  0.199014  0.286583  1
  As  As17  1  0.416745  0.185888  0.337196  1
  As  As18  1  0.798018  0.570981  0.254851  1
  As  As19  1  0.199014  0.787871  0.786583  1
  As  As20  1  0.570981  0.798018  0.754851  1
  As  As21  1  0.185888  0.416745  0.837196  1
