# generated using pymatgen
data_Tb4TmLu7Os4
_symmetry_space_group_name_H-M   'P 1'
_cell_length_a   6.24254756
_cell_length_b   7.39938011
_cell_length_c   8.86210105
_cell_angle_alpha   89.96121110
_cell_angle_beta   89.81515022
_cell_angle_gamma   89.97041426
_symmetry_Int_Tables_number   1
_chemical_formula_structural   Tb4TmLu7Os4
_chemical_formula_sum   'Tb4 Tm1 Lu7 Os4'
_cell_volume   409.34687428
_cell_formula_units_Z   1
loop_
 _symmetry_equiv_pos_site_id
 _symmetry_equiv_pos_as_xyz
  1  'x, y, z'
loop_
 _atom_site_type_symbol
 _atom_site_label
 _atom_site_symmetry_multiplicity
 _atom_site_fract_x
 _atom_site_fract_y
 _atom_site_fract_z
 _atom_site_occupancy
  Tb  Tb0  1  0.871693  0.539615  0.250543  1
  Tb  Tb1  1  0.629205  0.038999  0.251138  1
  Tb  Tb2  1  0.127055  0.461325  0.748710  1
  Tb  Tb3  1  0.372086  0.960623  0.748935  1
  Tm  Tm4  1  0.164010  0.174438  0.063114  1
  Lu  Lu5  1  0.337399  0.673306  0.063085  1
  Lu  Lu6  1  0.162722  0.172970  0.438085  1
  Lu  Lu7  1  0.662024  0.326479  0.563054  1
  Lu  Lu8  1  0.835990  0.825620  0.935997  1
  Lu  Lu9  1  0.663384  0.326669  0.936437  1
  Lu  Lu10  1  0.836771  0.825850  0.562719  1
  Lu  Lu11  1  0.337216  0.674471  0.436722  1
  Os  Os12  1  0.045285  0.881146  0.251137  1
  Os  Os13  1  0.456626  0.382060  0.251677  1
  Os  Os14  1  0.953753  0.118083  0.747801  1
  Os  Os15  1  0.544780  0.618348  0.750849  1
