# generated using pymatgen
data_TaTi4Co16Si7Mo
_symmetry_space_group_name_H-M   'P 1'
_cell_length_a   7.83212557
_cell_length_b   7.84120570
_cell_length_c   7.84215179
_cell_angle_alpha   59.91941456
_cell_angle_beta   60.01733705
_cell_angle_gamma   60.04629271
_symmetry_Int_Tables_number   1
_chemical_formula_structural   TaTi4Co16Si7Mo
_chemical_formula_sum   'Ta1 Ti4 Co16 Si7 Mo1'
_cell_volume   340.50689373
_cell_formula_units_Z   1
loop_
 _symmetry_equiv_pos_site_id
 _symmetry_equiv_pos_as_xyz
  1  'x, y, z'
loop_
 _atom_site_type_symbol
 _atom_site_label
 _atom_site_symmetry_multiplicity
 _atom_site_fract_x
 _atom_site_fract_y
 _atom_site_fract_z
 _atom_site_occupancy
  Ta  Ta0  1  0.800015  0.799281  0.199985  1
  Ti  Ti1  1  0.795447  0.205187  0.204553  1
  Ti  Ti2  1  0.201792  0.201168  0.798208  1
  Ti  Ti3  1  0.799196  0.201468  0.797890  1
  Ti  Ti4  1  0.202110  0.798554  0.200804  1
  Co  Co5  1  0.619609  0.619285  0.141500  1
  Co  Co6  1  0.165850  0.501506  0.167106  1
  Co  Co7  1  0.858500  0.380394  0.380391  1
  Co  Co8  1  0.497614  0.834385  0.834622  1
  Co  Co9  1  0.502860  0.165677  0.165778  1
  Co  Co10  1  0.834222  0.834317  0.497140  1
  Co  Co11  1  0.165378  0.166619  0.502386  1
  Co  Co12  1  0.144512  0.619322  0.619138  1
  Co  Co13  1  0.165506  0.165529  0.165884  1
  Co  Co14  1  0.380862  0.382972  0.855488  1
  Co  Co15  1  0.616884  0.619106  0.619102  1
  Co  Co16  1  0.380898  0.855091  0.383116  1
  Co  Co17  1  0.380634  0.380209  0.380250  1
  Co  Co18  1  0.832894  0.834463  0.834150  1
  Co  Co19  1  0.619750  0.141094  0.619366  1
  Co  Co20  1  0.834116  0.496920  0.834494  1
  Si  Si21  1  0.499157  0.000218  0.500843  1
  Si  Si22  1  0.500438  0.499658  0.999176  1
  Si  Si23  1  0.502096  0.497200  0.497904  1
  Si  Si24  1  0.000824  0.999272  0.499562  1
  Si  Si25  1  0.001820  0.498173  0.998180  1
  Si  Si26  1  0.000510  0.499208  0.501833  1
  Si  Si27  1  0.498167  0.001551  0.999490  1
  Mo  Mo28  1  0.198336  0.802171  0.801664  1
