# generated using pymatgen
data_Er4Al18Os2Pd3Au
_symmetry_space_group_name_H-M   'P 1'
_cell_length_a   7.61618682
_cell_length_b   7.61618793
_cell_length_c   9.45101792
_cell_angle_alpha   90.02479275
_cell_angle_beta   90.02478986
_cell_angle_gamma   119.39517485
_symmetry_Int_Tables_number   1
_chemical_formula_structural   Er4Al18Os2Pd3Au
_chemical_formula_sum   'Er4 Al18 Os2 Pd3 Au1'
_cell_volume   477.63816894
_cell_formula_units_Z   1
loop_
 _symmetry_equiv_pos_site_id
 _symmetry_equiv_pos_as_xyz
  1  'x, y, z'
loop_
 _atom_site_type_symbol
 _atom_site_label
 _atom_site_symmetry_multiplicity
 _atom_site_fract_x
 _atom_site_fract_y
 _atom_site_fract_z
 _atom_site_occupancy
  Er  Er0  1  0.993557  0.671846  0.250414  1
  Er  Er1  1  0.003953  0.326543  0.749882  1
  Er  Er2  1  0.673457  0.996047  0.250118  1
  Er  Er3  1  0.328154  0.006443  0.749586  1
  Al  Al4  1  0.127136  0.126023  0.251072  1
  Al  Al5  1  0.873977  0.872864  0.748928  1
  Al  Al6  1  0.006321  0.331942  0.078446  1
  Al  Al7  1  0.005046  0.673775  0.921950  1
  Al  Al8  1  0.001645  0.668980  0.575606  1
  Al  Al9  1  0.331020  0.998355  0.424394  1
  Al  Al10  1  0.000121  0.331293  0.423909  1
  Al  Al11  1  0.668707  0.999879  0.576091  1
  Al  Al12  1  0.668058  0.993679  0.921554  1
  Al  Al13  1  0.326225  0.994954  0.078050  1
  Al  Al14  1  0.327593  0.328027  0.553107  1
  Al  Al15  1  0.671973  0.672407  0.446893  1
  Al  Al16  1  0.670936  0.674554  0.056643  1
  Al  Al17  1  0.325446  0.329064  0.943357  1
  Al  Al18  1  0.343239  0.551027  0.251060  1
  Al  Al19  1  0.656910  0.454594  0.744681  1
  Al  Al20  1  0.545406  0.343090  0.255319  1
  Al  Al21  1  0.448973  0.656761  0.748940  1
  Os  Os22  1  0.999823  0.000177  0.000000  1
  Os  Os23  1  0.000245  0.999755  0.500000  1
  Pd  Pd24  1  0.328006  0.671994  0.000000  1
  Pd  Pd25  1  0.327818  0.672182  0.500000  1
  Pd  Pd26  1  0.672949  0.327051  0.500000  1
  Au  Au27  1  0.673308  0.326692  0.000000  1
