# generated using pymatgen
data_TbNdZnIn2Hg
_symmetry_space_group_name_H-M   'P 1'
_cell_length_a   4.80414700
_cell_length_b   4.80414645
_cell_length_c   7.54197100
_cell_angle_alpha   90.00000000
_cell_angle_beta   90.00000000
_cell_angle_gamma   119.99999690
_symmetry_Int_Tables_number   1
_chemical_formula_structural   TbNdZnIn2Hg
_chemical_formula_sum   'Tb1 Nd1 Zn1 In2 Hg1'
_cell_volume   150.74677479
_cell_formula_units_Z   1
loop_
 _symmetry_equiv_pos_site_id
 _symmetry_equiv_pos_as_xyz
  1  'x, y, z'
loop_
 _atom_site_type_symbol
 _atom_site_label
 _atom_site_symmetry_multiplicity
 _atom_site_fract_x
 _atom_site_fract_y
 _atom_site_fract_z
 _atom_site_occupancy
  Tb  Tb0  1  0.000000  0.000000  0.506285  1
  Nd  Nd1  1  0.000000  0.000000  0.012124  1
  Zn  Zn2  1  0.666667  0.333333  0.217277  1
  In  In3  1  0.333333  0.666667  0.279092  1
  In  In4  1  0.666667  0.333333  0.791256  1
  Hg  Hg5  1  0.333333  0.666667  0.693966  1
