# generated using pymatgen
data_Dy3Tm13In4(RuRh)2
_symmetry_space_group_name_H-M   'P 1'
_cell_length_a   9.54114305
_cell_length_b   9.53976595
_cell_length_c   9.55902910
_cell_angle_alpha   59.94271720
_cell_angle_beta   59.92841840
_cell_angle_gamma   59.88484084
_symmetry_Int_Tables_number   1
_chemical_formula_structural   Dy3Tm13In4(RuRh)2
_chemical_formula_sum   'Dy3 Tm13 In4 Ru2 Rh2'
_cell_volume   614.09363137
_cell_formula_units_Z   1
loop_
 _symmetry_equiv_pos_site_id
 _symmetry_equiv_pos_as_xyz
  1  'x, y, z'
loop_
 _atom_site_type_symbol
 _atom_site_label
 _atom_site_symmetry_multiplicity
 _atom_site_fract_x
 _atom_site_fract_y
 _atom_site_fract_z
 _atom_site_occupancy
  Dy  Dy0  1  0.057656  0.057656  0.442344  1
  Dy  Dy1  1  0.442759  0.061188  0.437026  1
  Dy  Dy2  1  0.061188  0.442759  0.059028  1
  Tm  Tm3  1  0.043583  0.651896  0.651940  1
  Tm  Tm4  1  0.438862  0.438862  0.061138  1
  Tm  Tm5  1  0.651896  0.043583  0.652582  1
  Tm  Tm6  1  0.190421  0.808862  0.192927  1
  Tm  Tm7  1  0.192214  0.192214  0.807786  1
  Tm  Tm8  1  0.808849  0.808849  0.191151  1
  Tm  Tm9  1  0.443532  0.060260  0.058149  1
  Tm  Tm10  1  0.808919  0.190370  0.192950  1
  Tm  Tm11  1  0.060260  0.443532  0.438060  1
  Tm  Tm12  1  0.808862  0.190421  0.807791  1
  Tm  Tm13  1  0.190370  0.808919  0.807760  1
  Tm  Tm14  1  0.651207  0.651836  0.046863  1
  Tm  Tm15  1  0.651836  0.651207  0.650095  1
  In  In16  1  0.416701  0.417590  0.417889  1
  In  In17  1  0.749463  0.417024  0.417378  1
  In  In18  1  0.417024  0.749463  0.416134  1
  In  In19  1  0.417590  0.416701  0.747819  1
  Ru  Ru20  1  0.858892  0.858499  0.420436  1
  Ru  Ru21  1  0.858499  0.858892  0.862172  1
  Rh  Rh22  1  0.422043  0.857380  0.860624  1
  Rh  Rh23  1  0.857380  0.422043  0.859953  1
