# generated using pymatgen
data_Tc2MoPd4
_symmetry_space_group_name_H-M   'P 1'
_cell_length_a   7.44650663
_cell_length_b   7.44766921
_cell_length_c   4.41408700
_cell_angle_alpha   90.00000000
_cell_angle_beta   90.00000000
_cell_angle_gamma   60.05064725
_symmetry_Int_Tables_number   1
_chemical_formula_structural   Tc2MoPd4
_chemical_formula_sum   'Tc4 Mo2 Pd8'
_cell_volume   212.11232203
_cell_formula_units_Z   2
loop_
 _symmetry_equiv_pos_site_id
 _symmetry_equiv_pos_as_xyz
  1  'x, y, z'
loop_
 _atom_site_type_symbol
 _atom_site_label
 _atom_site_symmetry_multiplicity
 _atom_site_fract_x
 _atom_site_fract_y
 _atom_site_fract_z
 _atom_site_occupancy
  Tc  Tc0  1  0.426436  0.843412  0.000000  1
  Tc  Tc1  1  0.525559  0.394041  0.500000  1
  Tc  Tc2  1  0.649153  0.671853  0.500000  1
  Tc  Tc3  1  0.251868  0.796548  0.500000  1
  Mo  Mo4  1  0.705448  0.441495  0.000000  1
  Mo  Mo5  1  0.297368  0.568997  0.000000  1
  Pd  Pd6  1  0.572719  0.144541  0.000000  1
  Pd  Pd7  1  0.143411  0.285588  0.000000  1
  Pd  Pd8  1  0.852176  0.715647  0.000000  1
  Pd  Pd9  1  0.004505  0.995485  0.000000  1
  Pd  Pd10  1  0.381431  0.090920  0.500000  1
  Pd  Pd11  1  0.949630  0.241296  0.500000  1
  Pd  Pd12  1  0.096680  0.524105  0.500000  1
  Pd  Pd13  1  0.810178  0.952636  0.500000  1
