# generated using pymatgen
data_DyCoRe2C
_symmetry_space_group_name_H-M   'P 1'
_cell_length_a   5.66403301
_cell_length_b   5.66403422
_cell_length_c   7.47294100
_cell_angle_alpha   90.00000000
_cell_angle_beta   90.00000000
_cell_angle_gamma   140.30250608
_symmetry_Int_Tables_number   1
_chemical_formula_structural   DyCoRe2C
_chemical_formula_sum   'Dy2 Co2 Re4 C2'
_cell_volume   153.13107932
_cell_formula_units_Z   2
loop_
 _symmetry_equiv_pos_site_id
 _symmetry_equiv_pos_as_xyz
  1  'x, y, z'
loop_
 _atom_site_type_symbol
 _atom_site_label
 _atom_site_symmetry_multiplicity
 _atom_site_fract_x
 _atom_site_fract_y
 _atom_site_fract_z
 _atom_site_occupancy
  Dy  Dy0  1  0.534367  0.465633  0.250000  1
  Dy  Dy1  1  0.465633  0.534367  0.750000  1
  Co  Co2  1  0.259570  0.740430  0.250000  1
  Co  Co3  1  0.740430  0.259570  0.750000  1
  Re  Re4  1  0.822498  0.177502  0.065490  1
  Re  Re5  1  0.177502  0.822498  0.934510  1
  Re  Re6  1  0.177502  0.822498  0.565490  1
  Re  Re7  1  0.822498  0.177502  0.434510  1
  C  C8  1  0.000000  0.000000  0.000000  1
  C  C9  1  0.000000  0.000000  0.500000  1
