# generated using pymatgen
data_Hf4ZrP7Pd9
_symmetry_space_group_name_H-M   'P 1'
_cell_length_a   3.79862300
_cell_length_b   6.55344712
_cell_length_c   13.70913904
_cell_angle_alpha   76.22018636
_cell_angle_beta   90.00000000
_cell_angle_gamma   90.00000000
_symmetry_Int_Tables_number   1
_chemical_formula_structural   Hf4ZrP7Pd9
_chemical_formula_sum   'Hf4 Zr1 P7 Pd9'
_cell_volume   331.45380766
_cell_formula_units_Z   1
loop_
 _symmetry_equiv_pos_site_id
 _symmetry_equiv_pos_as_xyz
  1  'x, y, z'
loop_
 _atom_site_type_symbol
 _atom_site_label
 _atom_site_symmetry_multiplicity
 _atom_site_fract_x
 _atom_site_fract_y
 _atom_site_fract_z
 _atom_site_occupancy
  Hf  Hf0  1  0.000000  0.530388  0.999512  1
  Hf  Hf1  1  0.000000  0.822308  0.176235  1
  Hf  Hf2  1  0.500001  0.535358  0.541232  1
  Hf  Hf3  1  0.000000  0.997605  0.824020  1
  Zr  Zr4  1  0.500001  0.076638  0.458021  1
  P  P5  1  0.000000  0.130698  0.999964  1
  P  P6  1  0.500001  0.558118  0.135331  1
  P  P7  1  0.500001  0.962383  0.287267  1
  P  P8  1  0.000000  0.380334  0.430807  1
  P  P9  1  0.000000  0.806721  0.570086  1
  P  P10  1  0.500001  0.251814  0.712278  1
  P  P11  1  0.500001  0.693479  0.865015  1
  Pd  Pd12  1  0.500001  0.884545  0.999965  1
  Pd  Pd13  1  0.500001  0.202755  0.116987  1
  Pd  Pd14  1  0.000000  0.213795  0.279374  1
  Pd  Pd15  1  0.500001  0.536316  0.314093  1
  Pd  Pd16  1  0.000000  0.777289  0.392359  1
  Pd  Pd17  1  0.000000  0.172916  0.607834  1
  Pd  Pd18  1  0.500001  0.849273  0.686586  1
  Pd  Pd19  1  0.000000  0.492095  0.719651  1
  Pd  Pd20  1  0.500001  0.318666  0.883386  1
