# generated using pymatgen
data_HoPa2(Al3Fe)4
_symmetry_space_group_name_H-M   'P 1'
_cell_length_a   8.68639800
_cell_length_b   8.68639757
_cell_length_c   9.22877200
_cell_angle_alpha   90.00000000
_cell_angle_beta   90.00000000
_cell_angle_gamma   119.74213072
_symmetry_Int_Tables_number   1
_chemical_formula_structural   HoPa2(Al3Fe)4
_chemical_formula_sum   'Ho2 Pa4 Al24 Fe8'
_cell_volume   604.61179932
_cell_formula_units_Z   2
loop_
 _symmetry_equiv_pos_site_id
 _symmetry_equiv_pos_as_xyz
  1  'x, y, z'
loop_
 _atom_site_type_symbol
 _atom_site_label
 _atom_site_symmetry_multiplicity
 _atom_site_fract_x
 _atom_site_fract_y
 _atom_site_fract_z
 _atom_site_occupancy
  Ho  Ho0  1  0.802219  0.197781  0.750000  1
  Ho  Ho1  1  0.197781  0.802219  0.250000  1
  Pa  Pa2  1  0.394984  0.199254  0.750000  1
  Pa  Pa3  1  0.605016  0.800746  0.250000  1
  Pa  Pa4  1  0.800746  0.605016  0.750000  1
  Pa  Pa5  1  0.199254  0.394984  0.250000  1
  Al  Al6  1  0.668768  0.331232  0.988305  1
  Al  Al7  1  0.331232  0.668768  0.011695  1
  Al  Al8  1  0.331232  0.668768  0.488305  1
  Al  Al9  1  0.668768  0.331232  0.511695  1
  Al  Al10  1  0.839322  0.160678  0.422331  1
  Al  Al11  1  0.160678  0.839322  0.577669  1
  Al  Al12  1  0.320984  0.158822  0.422793  1
  Al  Al13  1  0.160678  0.839322  0.922331  1
  Al  Al14  1  0.679016  0.841178  0.577207  1
  Al  Al15  1  0.839322  0.160678  0.077669  1
  Al  Al16  1  0.841178  0.679016  0.422793  1
  Al  Al17  1  0.679016  0.841178  0.922793  1
  Al  Al18  1  0.158822  0.320984  0.577207  1
  Al  Al19  1  0.320984  0.158822  0.077207  1
  Al  Al20  1  0.158822  0.320984  0.922793  1
  Al  Al21  1  0.841178  0.679016  0.077207  1
  Al  Al22  1  0.437680  0.562320  0.750000  1
  Al  Al23  1  0.562320  0.437680  0.250000  1
  Al  Al24  1  0.118284  0.558131  0.750000  1
  Al  Al25  1  0.881716  0.441869  0.250000  1
  Al  Al26  1  0.441869  0.881716  0.750000  1
  Al  Al27  1  0.558131  0.118284  0.250000  1
  Al  Al28  1  0.999916  0.000084  0.750000  1
  Al  Al29  1  0.000084  0.999916  0.250000  1
  Fe  Fe30  1  0.500000  0.500000  0.000000  1
  Fe  Fe31  1  0.000000  0.500000  0.000000  1
  Fe  Fe32  1  0.500000  0.500000  0.500000  1
  Fe  Fe33  1  0.500000  0.000000  0.000000  1
  Fe  Fe34  1  0.000000  0.500000  0.500000  1
  Fe  Fe35  1  0.500000  0.000000  0.500000  1
  Fe  Fe36  1  0.000000  0.000000  0.000000  1
  Fe  Fe37  1  0.000000  0.000000  0.500000  1
