# generated using pymatgen
data_Tm(HfH5)3
_symmetry_space_group_name_H-M   'P 1'
_cell_length_a   7.00724385
_cell_length_b   7.01848508
_cell_length_c   7.04588399
_cell_angle_alpha   109.52593898
_cell_angle_beta   109.46149641
_cell_angle_gamma   109.23543417
_symmetry_Int_Tables_number   1
_chemical_formula_structural   Tm(HfH5)3
_chemical_formula_sum   'Tm2 Hf6 H30'
_cell_volume   267.37469756
_cell_formula_units_Z   2
loop_
 _symmetry_equiv_pos_site_id
 _symmetry_equiv_pos_as_xyz
  1  'x, y, z'
loop_
 _atom_site_type_symbol
 _atom_site_label
 _atom_site_symmetry_multiplicity
 _atom_site_fract_x
 _atom_site_fract_y
 _atom_site_fract_z
 _atom_site_occupancy
  Tm  Tm0  1  0.908860  0.907617  0.906782  1
  Tm  Tm1  1  0.502077  0.000834  0.093218  1
  Hf  Hf2  1  0.004058  0.108377  0.504090  1
  Hf  Hf3  1  0.106411  0.498409  0.001428  1
  Hf  Hf4  1  0.999967  0.604286  0.495910  1
  Hf  Hf5  1  0.604982  0.496982  0.998572  1
  Hf  Hf6  1  0.498771  0.000153  0.595386  1
  Hf  Hf7  1  0.403385  0.404767  0.404614  1
  H  H8  1  0.665489  0.977621  0.398805  1
  H  H9  1  0.223982  0.303836  0.847323  1
  H  H10  1  0.194599  0.423980  0.540230  1
  H  H11  1  0.088882  0.285466  0.125135  1
  H  H12  1  0.278954  0.132164  0.101699  1
  H  H13  1  0.126134  0.100025  0.289737  1
  H  H14  1  0.463747  0.160330  0.874865  1
  H  H15  1  0.723347  0.340938  0.809830  1
  H  H16  1  0.624629  0.381149  0.251599  1
  H  H17  1  0.239553  0.622529  0.367856  1
  H  H18  1  0.760334  0.873053  0.139720  1
  H  H19  1  0.120615  0.733334  0.860280  1
  H  H20  1  0.371697  0.254673  0.632144  1
  H  H21  1  0.873031  0.129550  0.748401  1
  H  H22  1  0.766684  0.578816  0.601195  1
  H  H23  1  0.306661  0.834582  0.227776  1
  H  H24  1  0.382484  0.641236  0.970482  1
  H  H25  1  0.974502  0.383317  0.659630  1
  H  H26  1  0.527999  0.194457  0.427787  1
  H  H27  1  0.413518  0.531108  0.190170  1
  H  H28  1  0.859376  0.236113  0.324747  1
  H  H29  1  0.912002  0.670754  0.029518  1
  H  H30  1  0.814871  0.723686  0.340370  1
  H  H31  1  0.154368  0.883750  0.459770  1
  H  H32  1  0.677256  0.030465  0.898301  1
  H  H33  1  0.336398  0.810287  0.710263  1
  H  H34  1  0.876658  0.456513  0.152677  1
  H  H35  1  0.600210  0.766669  0.572213  1
  H  H36  1  0.578883  0.606805  0.772224  1
  H  H37  1  0.034629  0.911365  0.675253  1
