# generated using pymatgen
data_Ac4Au7
_symmetry_space_group_name_H-M   'P 1'
_cell_length_a   6.10916518
_cell_length_b   6.12585891
_cell_length_c   10.75444041
_cell_angle_alpha   109.20598555
_cell_angle_beta   125.29837238
_cell_angle_gamma   86.07036909
_symmetry_Int_Tables_number   1
_chemical_formula_structural   Ac4Au7
_chemical_formula_sum   'Ac4 Au7'
_cell_volume   306.31509034
_cell_formula_units_Z   1
loop_
 _symmetry_equiv_pos_site_id
 _symmetry_equiv_pos_as_xyz
  1  'x, y, z'
loop_
 _atom_site_type_symbol
 _atom_site_label
 _atom_site_symmetry_multiplicity
 _atom_site_fract_x
 _atom_site_fract_y
 _atom_site_fract_z
 _atom_site_occupancy
  Ac  Ac0  1  0.961847  0.287649  0.156963  1
  Ac  Ac1  1  0.186999  0.788529  0.649850  1
  Ac  Ac2  1  0.727433  0.318046  0.654901  1
  Ac  Ac3  1  0.480525  0.799823  0.155054  1
  Au  Au4  1  0.388207  0.788943  0.426137  1
  Au  Au5  1  0.072235  0.155909  0.463930  1
  Au  Au6  1  0.859203  0.720423  0.023739  1
  Au  Au7  1  0.297454  0.210772  0.993554  1
  Au  Au8  1  0.631717  0.405994  0.338969  1
  Au  Au9  1  0.389781  0.377182  0.812532  1
  Au  Au10  1  0.817821  0.884048  0.790196  1
