# generated using pymatgen
data_Ti20Si15Se
_symmetry_space_group_name_H-M   'P 1'
_cell_length_a   6.71458219
_cell_length_b   6.70693568
_cell_length_c   12.21095079
_cell_angle_alpha   89.87515676
_cell_angle_beta   90.40298830
_cell_angle_gamma   90.05272714
_symmetry_Int_Tables_number   1
_chemical_formula_structural   Ti20Si15Se
_chemical_formula_sum   'Ti20 Si15 Se1'
_cell_volume   549.89613279
_cell_formula_units_Z   1
loop_
 _symmetry_equiv_pos_site_id
 _symmetry_equiv_pos_as_xyz
  1  'x, y, z'
loop_
 _atom_site_type_symbol
 _atom_site_label
 _atom_site_symmetry_multiplicity
 _atom_site_fract_x
 _atom_site_fract_y
 _atom_site_fract_z
 _atom_site_occupancy
  Ti  Ti0  1  0.999639  0.149110  0.623097  1
  Ti  Ti1  1  0.347622  0.494396  0.869651  1
  Ti  Ti2  1  0.650355  0.503848  0.371579  1
  Ti  Ti3  1  0.495557  0.350539  0.128318  1
  Ti  Ti4  1  0.506731  0.652714  0.628555  1
  Ti  Ti5  1  0.004494  0.849814  0.121414  1
  Ti  Ti6  1  0.149823  0.996337  0.378072  1
  Ti  Ti7  1  0.848045  0.001743  0.880137  1
  Ti  Ti8  1  0.002517  0.346334  0.218142  1
  Ti  Ti9  1  0.154654  0.502322  0.468692  1
  Ti  Ti10  1  0.836782  0.502303  0.973759  1
  Ti  Ti11  1  0.507097  0.150234  0.529477  1
  Ti  Ti12  1  0.496598  0.844365  0.031746  1
  Ti  Ti13  1  0.996663  0.660093  0.718870  1
  Ti  Ti14  1  0.349923  0.998332  0.778935  1
  Ti  Ti15  1  0.655180  0.997148  0.282634  1
  Ti  Ti16  1  0.170465  0.170821  0.000612  1
  Ti  Ti17  1  0.328783  0.670823  0.250110  1
  Ti  Ti18  1  0.666767  0.328134  0.750025  1
  Ti  Ti19  1  0.829925  0.829031  0.499989  1
  Si  Si20  1  0.199090  0.544987  0.063325  1
  Si  Si21  1  0.800833  0.455147  0.563291  1
  Si  Si22  1  0.543131  0.198625  0.937275  1
  Si  Si23  1  0.455171  0.799527  0.435982  1
  Si  Si24  1  0.955774  0.699206  0.313516  1
  Si  Si25  1  0.301064  0.044046  0.187014  1
  Si  Si26  1  0.702120  0.955268  0.686352  1
  Si  Si27  1  0.306057  0.357127  0.662805  1
  Si  Si28  1  0.144006  0.795948  0.923273  1
  Si  Si29  1  0.858917  0.205247  0.423688  1
  Si  Si30  1  0.793585  0.141798  0.078291  1
  Si  Si31  1  0.205552  0.857175  0.576313  1
  Si  Si32  1  0.704285  0.643467  0.173796  1
  Si  Si33  1  0.357271  0.295227  0.326902  1
  Si  Si34  1  0.639752  0.705289  0.827697  1
  Se  Se35  1  0.035773  0.303475  0.816666  1
