# generated using pymatgen
data_ScNb5Re4(Si3W)2
_symmetry_space_group_name_H-M   'P 1'
_cell_length_a   7.68790414
_cell_length_b   7.64509155
_cell_length_c   7.68790349
_cell_angle_alpha   126.24757563
_cell_angle_beta   128.26171749
_cell_angle_gamma   77.97151702
_symmetry_Int_Tables_number   1
_chemical_formula_structural   ScNb5Re4(Si3W)2
_chemical_formula_sum   'Sc1 Nb5 Re4 Si6 W2'
_cell_volume   277.10771643
_cell_formula_units_Z   1
loop_
 _symmetry_equiv_pos_site_id
 _symmetry_equiv_pos_as_xyz
  1  'x, y, z'
loop_
 _atom_site_type_symbol
 _atom_site_label
 _atom_site_symmetry_multiplicity
 _atom_site_fract_x
 _atom_site_fract_y
 _atom_site_fract_z
 _atom_site_occupancy
  Sc  Sc0  1  0.550752  0.095246  0.044493  1
  Nb  Nb1  1  0.446734  0.487260  0.540526  1
  Nb  Nb2  1  0.948679  0.490866  0.042188  1
  Nb  Nb3  1  0.051929  0.092071  0.540143  1
  Nb  Nb4  1  0.750331  0.907077  0.656746  1
  Nb  Nb5  1  0.248259  0.901982  0.153723  1
  Re  Re6  1  0.126145  0.753949  0.622574  1
  Re  Re7  1  0.873268  0.499096  0.628985  1
  Re  Re8  1  0.631376  0.753949  0.127805  1
  Re  Re9  1  0.370111  0.499096  0.125829  1
  Si  Si10  1  0.749399  0.502012  0.252613  1
  Si  Si11  1  0.250490  0.504092  0.753602  1
  Si  Si12  1  0.333218  0.824275  0.494374  1
  Si  Si13  1  0.668791  0.161415  0.493887  1
  Si  Si14  1  0.829900  0.824275  0.991056  1
  Si  Si15  1  0.167528  0.161415  0.992623  1
  W  W16  1  0.499640  0.242061  0.738610  1
  W  W17  1  0.003451  0.242061  0.242422  1
