# generated using pymatgen
data_Li2Tb3Y(Co3P2)6
_symmetry_space_group_name_H-M   'P 1'
_cell_length_a   3.67943900
_cell_length_b   10.28067702
_cell_length_c   11.84096202
_cell_angle_alpha   90.00664657
_cell_angle_beta   90.00000000
_cell_angle_gamma   90.00000000
_symmetry_Int_Tables_number   1
_chemical_formula_structural   Li2Tb3Y(Co3P2)6
_chemical_formula_sum   'Li2 Tb3 Y1 Co18 P12'
_cell_volume   447.90953516
_cell_formula_units_Z   1
loop_
 _symmetry_equiv_pos_site_id
 _symmetry_equiv_pos_as_xyz
  1  'x, y, z'
loop_
 _atom_site_type_symbol
 _atom_site_label
 _atom_site_symmetry_multiplicity
 _atom_site_fract_x
 _atom_site_fract_y
 _atom_site_fract_z
 _atom_site_occupancy
  Li  Li0  1  0.250000  0.702034  0.990890  1
  Li  Li1  1  0.250000  0.797740  0.491018  1
  Tb  Tb2  1  0.250000  0.920331  0.201882  1
  Tb  Tb3  1  0.750000  0.419881  0.297712  1
  Tb  Tb4  1  0.750000  0.080069  0.797594  1
  Y  Y5  1  0.250000  0.579826  0.701929  1
  Co  Co6  1  0.750000  0.289219  0.008796  1
  Co  Co7  1  0.750000  0.210911  0.509011  1
  Co  Co8  1  0.250000  0.403724  0.487642  1
  Co  Co9  1  0.250000  0.096443  0.987524  1
  Co  Co10  1  0.750000  0.590906  0.514117  1
  Co  Co11  1  0.750000  0.909198  0.013929  1
  Co  Co12  1  0.250000  0.223792  0.174668  1
  Co  Co13  1  0.250000  0.276313  0.674635  1
  Co  Co14  1  0.750000  0.780004  0.826115  1
  Co  Co15  1  0.750000  0.719777  0.326255  1
  Co  Co16  1  0.250000  0.881036  0.698605  1
  Co  Co17  1  0.250000  0.618773  0.198512  1
  Co  Co18  1  0.750000  0.120901  0.300176  1
  Co  Co19  1  0.750000  0.379349  0.799984  1
  Co  Co20  1  0.250000  0.463857  0.931528  1
  Co  Co21  1  0.250000  0.036233  0.431743  1
  Co  Co22  1  0.750000  0.532846  0.066033  1
  Co  Co23  1  0.750000  0.966943  0.566320  1
  P  P24  1  0.250000  0.422090  0.111509  1
  P  P25  1  0.250000  0.077848  0.611702  1
  P  P26  1  0.750000  0.577346  0.884406  1
  P  P27  1  0.750000  0.922644  0.384587  1
  P  P28  1  0.250000  0.268918  0.866944  1
  P  P29  1  0.250000  0.231137  0.367031  1
  P  P30  1  0.750000  0.728529  0.138122  1
  P  P31  1  0.750000  0.771059  0.638103  1
  P  P32  1  0.250000  0.601817  0.393529  1
  P  P33  1  0.250000  0.898172  0.893599  1
  P  P34  1  0.750000  0.395404  0.606918  1
  P  P35  1  0.750000  0.104932  0.106930  1
