# generated using pymatgen
data_ErTm(LuSb5)2
_symmetry_space_group_name_H-M   'P 1'
_cell_length_a   4.20376100
_cell_length_b   13.13695025
_cell_length_c   14.51389500
_cell_angle_alpha   78.53084054
_cell_angle_beta   90.00000000
_cell_angle_gamma   90.00000000
_symmetry_Int_Tables_number   1
_chemical_formula_structural   ErTm(LuSb5)2
_chemical_formula_sum   'Er2 Tm2 Lu4 Sb20'
_cell_volume   785.51910186
_cell_formula_units_Z   2
loop_
 _symmetry_equiv_pos_site_id
 _symmetry_equiv_pos_as_xyz
  1  'x, y, z'
loop_
 _atom_site_type_symbol
 _atom_site_label
 _atom_site_symmetry_multiplicity
 _atom_site_fract_x
 _atom_site_fract_y
 _atom_site_fract_z
 _atom_site_occupancy
  Er  Er0  1  0.250000  0.669464  0.575944  1
  Er  Er1  1  0.750000  0.330536  0.424056  1
  Tm  Tm2  1  0.250000  0.953516  0.358509  1
  Tm  Tm3  1  0.750000  0.046484  0.641491  1
  Lu  Lu4  1  0.250000  0.396054  0.770804  1
  Lu  Lu5  1  0.750000  0.603946  0.229196  1
  Lu  Lu6  1  0.250000  0.661245  0.856111  1
  Lu  Lu7  1  0.750000  0.338755  0.143889  1
  Sb  Sb8  1  0.250000  0.144739  0.778454  1
  Sb  Sb9  1  0.750000  0.855261  0.221546  1
  Sb  Sb10  1  0.250000  0.142832  0.483521  1
  Sb  Sb11  1  0.750000  0.857168  0.516479  1
  Sb  Sb12  1  0.250000  0.154561  0.169572  1
  Sb  Sb13  1  0.750000  0.845439  0.830428  1
  Sb  Sb14  1  0.250000  0.420881  0.975405  1
  Sb  Sb15  1  0.750000  0.579119  0.024595  1
  Sb  Sb16  1  0.750000  0.028827  0.911126  1
  Sb  Sb17  1  0.250000  0.971173  0.088874  1
  Sb  Sb18  1  0.750000  0.139353  0.321528  1
  Sb  Sb19  1  0.250000  0.860647  0.678472  1
  Sb  Sb20  1  0.750000  0.279490  0.936415  1
  Sb  Sb21  1  0.250000  0.720510  0.063585  1
  Sb  Sb22  1  0.750000  0.285581  0.653956  1
  Sb  Sb23  1  0.250000  0.714419  0.346044  1
  Sb  Sb24  1  0.750000  0.576230  0.735791  1
  Sb  Sb25  1  0.250000  0.423770  0.264209  1
  Sb  Sb26  1  0.750000  0.571268  0.446504  1
  Sb  Sb27  1  0.250000  0.428732  0.553496  1
