# generated using pymatgen
data_K3Nd(VS4)2
_symmetry_space_group_name_H-M   'P 1'
_cell_length_a   9.41310977
_cell_length_b   17.46313700
_cell_length_c   9.83577900
_cell_angle_alpha   90.00000000
_cell_angle_beta   90.70261771
_cell_angle_gamma   90.00000000
_symmetry_Int_Tables_number   1
_chemical_formula_structural   K3Nd(VS4)2
_chemical_formula_sum   'K12 Nd4 V8 S32'
_cell_volume   1616.70763970
_cell_formula_units_Z   4
loop_
 _symmetry_equiv_pos_site_id
 _symmetry_equiv_pos_as_xyz
  1  'x, y, z'
loop_
 _atom_site_type_symbol
 _atom_site_label
 _atom_site_symmetry_multiplicity
 _atom_site_fract_x
 _atom_site_fract_y
 _atom_site_fract_z
 _atom_site_occupancy
  K  K0  1  0.731738  0.469570  0.014127  1
  K  K1  1  0.126637  0.292203  0.126418  1
  K  K2  1  0.621008  0.212283  0.124310  1
  K  K3  1  0.378986  0.712273  0.375688  1
  K  K4  1  0.873373  0.792211  0.373612  1
  K  K5  1  0.268260  0.969581  0.485889  1
  K  K6  1  0.731755  0.030451  0.514130  1
  K  K7  1  0.126640  0.207797  0.626399  1
  K  K8  1  0.621006  0.287728  0.624306  1
  K  K9  1  0.378994  0.787736  0.875673  1
  K  K10  1  0.873349  0.707815  0.873607  1
  K  K11  1  0.268265  0.530439  0.985897  1
  Nd  Nd12  1  0.229840  0.013192  0.021203  1
  Nd  Nd13  1  0.770164  0.513181  0.478801  1
  Nd  Nd14  1  0.229832  0.486814  0.521200  1
  Nd  Nd15  1  0.770155  0.986827  0.978801  1
  V  V16  1  0.526218  0.904530  0.214024  1
  V  V17  1  0.994361  0.095287  0.241257  1
  V  V18  1  0.005551  0.595264  0.258563  1
  V  V19  1  0.473783  0.404506  0.285976  1
  V  V20  1  0.526234  0.595472  0.714021  1
  V  V21  1  0.994434  0.404678  0.741312  1
  V  V22  1  0.005613  0.904709  0.758776  1
  V  V23  1  0.473780  0.095445  0.786016  1
  S  S24  1  0.965251  0.115452  0.023942  1
  S  S25  1  0.435394  0.374889  0.078679  1
  S  S26  1  0.668420  0.841854  0.083346  1
  S  S27  1  0.119876  0.674723  0.136083  1
  S  S28  1  0.307226  0.874872  0.169936  1
  S  S29  1  0.549265  0.026176  0.172328  1
  S  S30  1  0.779173  0.608407  0.231591  1
  S  S31  1  0.065284  0.477283  0.233793  1
  S  S32  1  0.934718  0.977306  0.266217  1
  S  S33  1  0.220835  0.108411  0.268434  1
  S  S34  1  0.450714  0.526146  0.327648  1
  S  S35  1  0.692771  0.374856  0.330055  1
  S  S36  1  0.880123  0.174730  0.363930  1
  S  S37  1  0.331564  0.341834  0.416649  1
  S  S38  1  0.564601  0.874925  0.421305  1
  S  S39  1  0.034749  0.615435  0.476051  1
  S  S40  1  0.965248  0.384558  0.523959  1
  S  S41  1  0.435391  0.125097  0.578690  1
  S  S42  1  0.668435  0.658157  0.583349  1
  S  S43  1  0.119907  0.825277  0.636043  1
  S  S44  1  0.307254  0.625132  0.669928  1
  S  S45  1  0.549296  0.473835  0.672331  1
  S  S46  1  0.779191  0.891611  0.731565  1
  S  S47  1  0.065284  0.022697  0.733774  1
  S  S48  1  0.934740  0.522677  0.766243  1
  S  S49  1  0.220832  0.391593  0.768442  1
  S  S50  1  0.450701  0.973841  0.827654  1
  S  S51  1  0.692753  0.125139  0.830057  1
  S  S52  1  0.880101  0.325265  0.863971  1
  S  S53  1  0.331573  0.158164  0.916653  1
  S  S54  1  0.564612  0.625095  0.921310  1
  S  S55  1  0.034745  0.884576  0.976034  1
