# generated using pymatgen
data_Nd5Sn10(IrRh)2
_symmetry_space_group_name_H-M   'P 1'
_cell_length_a   14.20310600
_cell_length_b   14.20597100
_cell_length_c   4.65774300
_cell_angle_alpha   90.00000000
_cell_angle_beta   90.00000000
_cell_angle_gamma   90.00000000
_symmetry_Int_Tables_number   1
_chemical_formula_structural   Nd5Sn10(IrRh)2
_chemical_formula_sum   'Nd10 Sn20 Ir4 Rh4'
_cell_volume   939.78773723
_cell_formula_units_Z   2
loop_
 _symmetry_equiv_pos_site_id
 _symmetry_equiv_pos_as_xyz
  1  'x, y, z'
loop_
 _atom_site_type_symbol
 _atom_site_label
 _atom_site_symmetry_multiplicity
 _atom_site_fract_x
 _atom_site_fract_y
 _atom_site_fract_z
 _atom_site_occupancy
  Nd  Nd0  1  0.500000  0.500000  0.000000  1
  Nd  Nd1  1  0.000000  0.000000  0.000000  1
  Nd  Nd2  1  0.677540  0.178907  0.500000  1
  Nd  Nd3  1  0.322460  0.821093  0.500000  1
  Nd  Nd4  1  0.177540  0.321093  0.500000  1
  Nd  Nd5  1  0.822460  0.678907  0.500000  1
  Nd  Nd6  1  0.888254  0.386621  0.500000  1
  Nd  Nd7  1  0.111746  0.613379  0.500000  1
  Nd  Nd8  1  0.388254  0.113379  0.500000  1
  Nd  Nd9  1  0.611746  0.886621  0.500000  1
  Sn  Sn10  1  0.570192  0.069022  0.000000  1
  Sn  Sn11  1  0.429808  0.930978  0.000000  1
  Sn  Sn12  1  0.070192  0.430978  0.000000  1
  Sn  Sn13  1  0.929808  0.569022  0.000000  1
  Sn  Sn14  1  0.654480  0.698709  0.000000  1
  Sn  Sn15  1  0.345520  0.301291  0.000000  1
  Sn  Sn16  1  0.154480  0.801291  0.000000  1
  Sn  Sn17  1  0.845520  0.198709  0.000000  1
  Sn  Sn18  1  0.301473  0.653542  0.000000  1
  Sn  Sn19  1  0.698527  0.346458  0.000000  1
  Sn  Sn20  1  0.198527  0.153542  0.000000  1
  Sn  Sn21  1  0.801473  0.846458  0.000000  1
  Sn  Sn22  1  0.664021  0.504446  0.500000  1
  Sn  Sn23  1  0.335979  0.495554  0.500000  1
  Sn  Sn24  1  0.164021  0.995554  0.500000  1
  Sn  Sn25  1  0.835979  0.004446  0.500000  1
  Sn  Sn26  1  0.494980  0.662373  0.500000  1
  Sn  Sn27  1  0.505020  0.337627  0.500000  1
  Sn  Sn28  1  0.005020  0.162373  0.500000  1
  Sn  Sn29  1  0.994980  0.837627  0.500000  1
  Ir  Ir30  1  0.471149  0.746678  0.000000  1
  Ir  Ir31  1  0.528851  0.253322  0.000000  1
  Ir  Ir32  1  0.028851  0.246678  0.000000  1
  Ir  Ir33  1  0.971149  0.753322  0.000000  1
  Rh  Rh34  1  0.745390  0.528258  0.000000  1
  Rh  Rh35  1  0.254610  0.471742  0.000000  1
  Rh  Rh36  1  0.245390  0.971742  0.000000  1
  Rh  Rh37  1  0.754610  0.028258  0.000000  1
