# generated using pymatgen
data_Ti9Co10Rh
_symmetry_space_group_name_H-M   'P 1'
_cell_length_a   7.15238464
_cell_length_b   7.15238456
_cell_length_c   7.15238448
_cell_angle_alpha   100.90823135
_cell_angle_beta   100.90823511
_cell_angle_gamma   128.42772221
_symmetry_Int_Tables_number   1
_chemical_formula_structural   Ti9Co10Rh
_chemical_formula_sum   'Ti9 Co10 Rh1'
_cell_volume   258.09479475
_cell_formula_units_Z   1
loop_
 _symmetry_equiv_pos_site_id
 _symmetry_equiv_pos_as_xyz
  1  'x, y, z'
loop_
 _atom_site_type_symbol
 _atom_site_label
 _atom_site_symmetry_multiplicity
 _atom_site_fract_x
 _atom_site_fract_y
 _atom_site_fract_z
 _atom_site_occupancy
  Ti  Ti0  1  0.000000  0.000000  0.000000  1
  Ti  Ti1  1  0.233093  0.592423  0.825516  1
  Ti  Ti2  1  0.407577  0.233093  0.640671  1
  Ti  Ti3  1  0.592423  0.766907  0.359329  1
  Ti  Ti4  1  0.766907  0.407577  0.174484  1
  Ti  Ti5  1  0.310212  0.905285  0.215496  1
  Ti  Ti6  1  0.094715  0.310212  0.404927  1
  Ti  Ti7  1  0.905285  0.689788  0.595073  1
  Ti  Ti8  1  0.689788  0.094715  0.784504  1
  Co  Co9  1  0.750000  0.250000  0.500000  1
  Co  Co10  1  0.250000  0.750000  0.500000  1
  Co  Co11  1  0.324919  0.009943  0.896608  1
  Co  Co12  1  0.428311  0.324919  0.314976  1
  Co  Co13  1  0.009943  0.113335  0.685024  1
  Co  Co14  1  0.113335  0.428311  0.103392  1
  Co  Co15  1  0.675081  0.990057  0.103392  1
  Co  Co16  1  0.571689  0.675081  0.685024  1
  Co  Co17  1  0.990057  0.886665  0.314976  1
  Co  Co18  1  0.886665  0.571689  0.896608  1
  Rh  Rh19  1  0.500000  0.500000  0.000000  1
