# generated using pymatgen
data_HoLu2Fe8Co
_symmetry_space_group_name_H-M   'P 1'
_cell_length_a   5.05385401
_cell_length_b   5.05385436
_cell_length_c   8.57365638
_cell_angle_alpha   72.85856796
_cell_angle_beta   72.85856773
_cell_angle_gamma   60.00000100
_symmetry_Int_Tables_number   1
_chemical_formula_structural   HoLu2Fe8Co
_chemical_formula_sum   'Ho1 Lu2 Fe8 Co1'
_cell_volume   178.32488095
_cell_formula_units_Z   1
loop_
 _symmetry_equiv_pos_site_id
 _symmetry_equiv_pos_as_xyz
  1  'x, y, z'
loop_
 _atom_site_type_symbol
 _atom_site_label
 _atom_site_symmetry_multiplicity
 _atom_site_fract_x
 _atom_site_fract_y
 _atom_site_fract_z
 _atom_site_occupancy
  Ho  Ho0  1  0.000000  0.000000  0.000000  1
  Lu  Lu1  1  0.857877  0.857877  0.426367  1
  Lu  Lu2  1  0.142123  0.142123  0.573633  1
  Fe  Fe3  1  0.417094  0.417094  0.247479  1
  Fe  Fe4  1  0.918335  0.417094  0.247479  1
  Fe  Fe5  1  0.417094  0.918335  0.247479  1
  Fe  Fe6  1  0.582906  0.582906  0.752521  1
  Fe  Fe7  1  0.081665  0.582906  0.752521  1
  Fe  Fe8  1  0.582906  0.081665  0.752521  1
  Fe  Fe9  1  0.667180  0.667180  0.998461  1
  Fe  Fe10  1  0.332820  0.332820  0.001539  1
  Co  Co11  1  0.500000  0.500000  0.500000  1
