# generated using pymatgen
data_Rb3NbSe3S
_symmetry_space_group_name_H-M   'P 1'
_cell_length_a   10.13293000
_cell_length_b   10.10248700
_cell_length_c   11.92161500
_cell_angle_alpha   90.00000000
_cell_angle_beta   90.00000000
_cell_angle_gamma   90.00000000
_symmetry_Int_Tables_number   1
_chemical_formula_structural   Rb3NbSe3S
_chemical_formula_sum   'Rb12 Nb4 Se12 S4'
_cell_volume   1220.38942366
_cell_formula_units_Z   4
loop_
 _symmetry_equiv_pos_site_id
 _symmetry_equiv_pos_as_xyz
  1  'x, y, z'
loop_
 _atom_site_type_symbol
 _atom_site_label
 _atom_site_symmetry_multiplicity
 _atom_site_fract_x
 _atom_site_fract_y
 _atom_site_fract_z
 _atom_site_occupancy
  Rb  Rb0  1  0.550120  0.209473  0.051752  1
  Rb  Rb1  1  0.050120  0.290527  0.448248  1
  Rb  Rb2  1  0.449880  0.790527  0.551752  1
  Rb  Rb3  1  0.949880  0.709473  0.948248  1
  Rb  Rb4  1  0.449880  0.790527  0.948248  1
  Rb  Rb5  1  0.949880  0.709473  0.551752  1
  Rb  Rb6  1  0.550120  0.209473  0.448248  1
  Rb  Rb7  1  0.050120  0.290527  0.051752  1
  Rb  Rb8  1  0.641907  0.419132  0.750000  1
  Rb  Rb9  1  0.141907  0.080868  0.750000  1
  Rb  Rb10  1  0.358093  0.580868  0.250000  1
  Rb  Rb11  1  0.858093  0.919132  0.250000  1
  Nb  Nb12  1  0.720730  0.980352  0.750000  1
  Nb  Nb13  1  0.220730  0.519648  0.750000  1
  Nb  Nb14  1  0.279270  0.019648  0.250000  1
  Nb  Nb15  1  0.779270  0.480352  0.250000  1
  Se  Se16  1  0.835494  0.049524  0.581124  1
  Se  Se17  1  0.335494  0.450476  0.918876  1
  Se  Se18  1  0.164506  0.950476  0.081124  1
  Se  Se19  1  0.664506  0.549524  0.418876  1
  Se  Se20  1  0.164506  0.950476  0.418876  1
  Se  Se21  1  0.664506  0.549524  0.081124  1
  Se  Se22  1  0.835494  0.049524  0.918876  1
  Se  Se23  1  0.335494  0.450476  0.581124  1
  Se  Se24  1  0.500240  0.075506  0.750000  1
  Se  Se25  1  0.000240  0.424494  0.750000  1
  Se  Se26  1  0.499760  0.924494  0.250000  1
  Se  Se27  1  0.999760  0.575506  0.250000  1
  S  S28  1  0.704821  0.754097  0.750000  1
  S  S29  1  0.204821  0.745903  0.750000  1
  S  S30  1  0.295179  0.245903  0.250000  1
  S  S31  1  0.795179  0.254097  0.250000  1
