# generated using pymatgen
data_Er8CdAgPt2
_symmetry_space_group_name_H-M   'P 1'
_cell_length_a   9.55086363
_cell_length_b   9.55086347
_cell_length_c   9.53223300
_cell_angle_alpha   60.06450283
_cell_angle_beta   60.06450340
_cell_angle_gamma   59.97083931
_symmetry_Int_Tables_number   1
_chemical_formula_structural   Er8CdAgPt2
_chemical_formula_sum   'Er16 Cd2 Ag2 Pt4'
_cell_volume   615.30674891
_cell_formula_units_Z   2
loop_
 _symmetry_equiv_pos_site_id
 _symmetry_equiv_pos_as_xyz
  1  'x, y, z'
loop_
 _atom_site_type_symbol
 _atom_site_label
 _atom_site_symmetry_multiplicity
 _atom_site_fract_x
 _atom_site_fract_y
 _atom_site_fract_z
 _atom_site_occupancy
  Er  Er0  1  0.353186  0.353186  0.351785  1
  Er  Er1  1  0.353186  0.353186  0.941845  1
  Er  Er2  1  0.356593  0.935579  0.353915  1
  Er  Er3  1  0.935579  0.356593  0.353915  1
  Er  Er4  1  0.810134  0.190313  0.190894  1
  Er  Er5  1  0.190313  0.810134  0.808659  1
  Er  Er6  1  0.190313  0.810134  0.190894  1
  Er  Er7  1  0.810134  0.190313  0.808659  1
  Er  Er8  1  0.190716  0.190716  0.809284  1
  Er  Er9  1  0.810392  0.810392  0.189608  1
  Er  Er10  1  0.932344  0.564103  0.566101  1
  Er  Er11  1  0.564103  0.932344  0.937452  1
  Er  Er12  1  0.564103  0.932344  0.566101  1
  Er  Er13  1  0.932344  0.564103  0.937452  1
  Er  Er14  1  0.564445  0.564445  0.935555  1
  Er  Er15  1  0.935056  0.935056  0.564944  1
  Cd  Cd16  1  0.581293  0.256032  0.581338  1
  Cd  Cd17  1  0.256032  0.581293  0.581338  1
  Ag  Ag18  1  0.584638  0.584638  0.583353  1
  Ag  Ag19  1  0.584638  0.584638  0.247372  1
  Pt  Pt20  1  0.143861  0.143861  0.144875  1
  Pt  Pt21  1  0.143861  0.143861  0.567402  1
  Pt  Pt22  1  0.142566  0.570173  0.143630  1
  Pt  Pt23  1  0.570173  0.142566  0.143630  1
