# generated using pymatgen
data_K3Tl(GaI4)4
_symmetry_space_group_name_H-M   'P 1'
_cell_length_a   8.54797200
_cell_length_b   9.07002304
_cell_length_c   16.46953400
_cell_angle_alpha   89.91061372
_cell_angle_beta   90.00000000
_cell_angle_gamma   90.00000000
_symmetry_Int_Tables_number   1
_chemical_formula_structural   K3Tl(GaI4)4
_chemical_formula_sum   'K3 Tl1 Ga4 I16'
_cell_volume   1276.88640682
_cell_formula_units_Z   1
loop_
 _symmetry_equiv_pos_site_id
 _symmetry_equiv_pos_as_xyz
  1  'x, y, z'
loop_
 _atom_site_type_symbol
 _atom_site_label
 _atom_site_symmetry_multiplicity
 _atom_site_fract_x
 _atom_site_fract_y
 _atom_site_fract_z
 _atom_site_occupancy
  K  K0  1  0.250000  0.444850  0.149570  1
  K  K1  1  0.750000  0.944500  0.350438  1
  K  K2  1  0.750000  0.556649  0.851617  1
  Tl  Tl3  1  0.250000  0.058006  0.648492  1
  Ga  Ga4  1  0.250000  0.297047  0.896318  1
  Ga  Ga5  1  0.750000  0.792110  0.605413  1
  Ga  Ga6  1  0.750000  0.704093  0.104832  1
  Ga  Ga7  1  0.250000  0.206180  0.393452  1
  I  I8  1  0.250000  0.130001  0.022526  1
  I  I9  1  0.750000  0.628837  0.477897  1
  I  I10  1  0.750000  0.871413  0.978862  1
  I  I11  1  0.250000  0.369307  0.521179  1
  I  I12  1  0.250000  0.930700  0.436018  1
  I  I13  1  0.750000  0.427892  0.064243  1
  I  I14  1  0.750000  0.068927  0.565858  1
  I  I15  1  0.250000  0.573221  0.937204  1
  I  I16  1  0.993744  0.761270  0.194575  1
  I  I17  1  0.005912  0.262386  0.303796  1
  I  I18  1  0.492369  0.238911  0.805598  1
  I  I19  1  0.504596  0.735567  0.694073  1
  I  I20  1  0.007631  0.238911  0.805598  1
  I  I21  1  0.995404  0.735567  0.694073  1
  I  I22  1  0.506256  0.761270  0.194575  1
  I  I23  1  0.494088  0.262386  0.303796  1
