# generated using pymatgen
data_Nd4TcOs7
_symmetry_space_group_name_H-M   'P 1'
_cell_length_a   5.41256000
_cell_length_b   5.33932313
_cell_length_c   9.19870400
_cell_angle_alpha   90.00000000
_cell_angle_beta   90.00000000
_cell_angle_gamma   120.45479774
_symmetry_Int_Tables_number   1
_chemical_formula_structural   Nd4TcOs7
_chemical_formula_sum   'Nd4 Tc1 Os7'
_cell_volume   229.15936067
_cell_formula_units_Z   1
loop_
 _symmetry_equiv_pos_site_id
 _symmetry_equiv_pos_as_xyz
  1  'x, y, z'
loop_
 _atom_site_type_symbol
 _atom_site_label
 _atom_site_symmetry_multiplicity
 _atom_site_fract_x
 _atom_site_fract_y
 _atom_site_fract_z
 _atom_site_occupancy
  Nd  Nd0  1  0.335795  0.671591  0.435117  1
  Nd  Nd1  1  0.668861  0.337722  0.562808  1
  Nd  Nd2  1  0.668861  0.337722  0.937192  1
  Nd  Nd3  1  0.335795  0.671591  0.064883  1
  Tc  Tc4  1  0.163431  0.326862  0.750000  1
  Os  Os5  1  0.169365  0.826338  0.750000  1
  Os  Os6  1  0.328415  0.163509  0.250000  1
  Os  Os7  1  0.821282  0.642566  0.250000  1
  Os  Os8  1  0.656974  0.826338  0.750000  1
  Os  Os9  1  0.008063  0.016126  0.000886  1
  Os  Os10  1  0.835094  0.163509  0.250000  1
  Os  Os11  1  0.008063  0.016126  0.499114  1
