# generated using pymatgen
data_Ta3CrReSi3Mo
_symmetry_space_group_name_H-M   'P 1'
_cell_length_a   6.84047376
_cell_length_b   6.82587065
_cell_length_c   3.32103400
_cell_angle_alpha   90.00000000
_cell_angle_beta   90.00000000
_cell_angle_gamma   120.60319681
_symmetry_Int_Tables_number   1
_chemical_formula_structural   Ta3CrReSi3Mo
_chemical_formula_sum   'Ta3 Cr1 Re1 Si3 Mo1'
_cell_volume   133.46771781
_cell_formula_units_Z   1
loop_
 _symmetry_equiv_pos_site_id
 _symmetry_equiv_pos_as_xyz
  1  'x, y, z'
loop_
 _atom_site_type_symbol
 _atom_site_label
 _atom_site_symmetry_multiplicity
 _atom_site_fract_x
 _atom_site_fract_y
 _atom_site_fract_z
 _atom_site_occupancy
  Ta  Ta0  1  0.412368  0.407122  0.500000  1
  Ta  Ta1  1  0.596076  0.995476  0.500000  1
  Ta  Ta2  1  0.999936  0.604620  0.500000  1
  Cr  Cr3  1  0.740880  0.741924  0.000000  1
  Re  Re4  1  0.000204  0.257130  0.000000  1
  Si  Si5  1  0.671588  0.337935  0.000000  1
  Si  Si6  1  0.336408  0.664952  0.000000  1
  Si  Si7  1  0.987223  0.990065  0.500000  1
  Mo  Mo8  1  0.255318  0.000777  0.000000  1
