# generated using pymatgen
data_Pr5Mo3P12(Ir5Ru3)2
_symmetry_space_group_name_H-M   'P 1'
_cell_length_a   12.76205800
_cell_length_b   12.76205763
_cell_length_c   4.03668800
_cell_angle_alpha   90.00000000
_cell_angle_beta   90.00000000
_cell_angle_gamma   120.00000097
_symmetry_Int_Tables_number   1
_chemical_formula_structural   Pr5Mo3P12(Ir5Ru3)2
_chemical_formula_sum   'Pr5 Mo3 P12 Ir10 Ru6'
_cell_volume   569.37346881
_cell_formula_units_Z   1
loop_
 _symmetry_equiv_pos_site_id
 _symmetry_equiv_pos_as_xyz
  1  'x, y, z'
loop_
 _atom_site_type_symbol
 _atom_site_label
 _atom_site_symmetry_multiplicity
 _atom_site_fract_x
 _atom_site_fract_y
 _atom_site_fract_z
 _atom_site_occupancy
  Pr  Pr0  1  0.333333  0.666667  0.500000  1
  Pr  Pr1  1  0.666667  0.333333  0.500000  1
  Pr  Pr2  1  0.000000  0.811010  0.000000  1
  Pr  Pr3  1  0.188990  0.188990  0.000000  1
  Pr  Pr4  1  0.811010  0.000000  0.000000  1
  Mo  Mo5  1  0.000000  0.447547  0.500000  1
  Mo  Mo6  1  0.552453  0.552453  0.500000  1
  Mo  Mo7  1  0.447547  0.000000  0.500000  1
  P  P8  1  0.000000  0.631453  0.500000  1
  P  P9  1  0.368547  0.368547  0.500000  1
  P  P10  1  0.631453  0.000000  0.500000  1
  P  P11  1  0.522548  0.691056  0.000000  1
  P  P12  1  0.308944  0.831492  0.000000  1
  P  P13  1  0.168508  0.477452  0.000000  1
  P  P14  1  0.477452  0.168508  0.000000  1
  P  P15  1  0.691056  0.522548  0.000000  1
  P  P16  1  0.831492  0.308944  0.000000  1
  P  P17  1  0.000000  0.184031  0.500000  1
  P  P18  1  0.815969  0.815969  0.500000  1
  P  P19  1  0.184031  0.000000  0.500000  1
  Ir  Ir20  1  0.508558  0.871391  0.000000  1
  Ir  Ir21  1  0.128609  0.637167  0.000000  1
  Ir  Ir22  1  0.362833  0.491442  0.000000  1
  Ir  Ir23  1  0.491442  0.362833  0.000000  1
  Ir  Ir24  1  0.871391  0.508558  0.000000  1
  Ir  Ir25  1  0.637167  0.128609  0.000000  1
  Ir  Ir26  1  0.000000  0.284305  0.000000  1
  Ir  Ir27  1  0.715695  0.715695  0.000000  1
  Ir  Ir28  1  0.284305  0.000000  0.000000  1
  Ir  Ir29  1  0.000000  0.000000  0.500000  1
  Ru  Ru30  1  0.622601  0.803193  0.500000  1
  Ru  Ru31  1  0.196807  0.819408  0.500000  1
  Ru  Ru32  1  0.180592  0.377399  0.500000  1
  Ru  Ru33  1  0.377399  0.180592  0.500000  1
  Ru  Ru34  1  0.803193  0.622601  0.500000  1
  Ru  Ru35  1  0.819408  0.196807  0.500000  1
