# generated using pymatgen
data_Mn6NbGaGe5
_symmetry_space_group_name_H-M   'P 1'
_cell_length_a   5.07284714
_cell_length_b   5.07362172
_cell_length_c   8.21518200
_cell_angle_alpha   90.00000000
_cell_angle_beta   90.00000000
_cell_angle_gamma   120.01736573
_symmetry_Int_Tables_number   1
_chemical_formula_structural   Mn6NbGaGe5
_chemical_formula_sum   'Mn6 Nb1 Ga1 Ge5'
_cell_volume   183.08031780
_cell_formula_units_Z   1
loop_
 _symmetry_equiv_pos_site_id
 _symmetry_equiv_pos_as_xyz
  1  'x, y, z'
loop_
 _atom_site_type_symbol
 _atom_site_label
 _atom_site_symmetry_multiplicity
 _atom_site_fract_x
 _atom_site_fract_y
 _atom_site_fract_z
 _atom_site_occupancy
  Mn  Mn0  1  0.000822  0.500420  0.246908  1
  Mn  Mn1  1  0.499553  0.999141  0.246849  1
  Mn  Mn2  1  0.499558  0.500424  0.246887  1
  Mn  Mn3  1  0.000822  0.500420  0.753092  1
  Mn  Mn4  1  0.499553  0.999141  0.753151  1
  Mn  Mn5  1  0.499558  0.500424  0.753113  1
  Nb  Nb6  1  0.999972  0.999987  0.000000  1
  Ga  Ga7  1  0.667054  0.333710  0.500000  1
  Ge  Ge8  1  0.332958  0.666338  0.000000  1
  Ge  Ge9  1  0.666992  0.333637  0.000000  1
  Ge  Ge10  1  0.999990  0.000003  0.329922  1
  Ge  Ge11  1  0.999990  0.000003  0.670078  1
  Ge  Ge12  1  0.332978  0.666349  0.500000  1
