# generated using pymatgen
data_Dy3YThRu2
_symmetry_space_group_name_H-M   'P 1'
_cell_length_a   8.70144655
_cell_length_b   8.70144533
_cell_length_c   7.21196451
_cell_angle_alpha   83.60538788
_cell_angle_beta   83.60538768
_cell_angle_gamma   43.29512171
_symmetry_Int_Tables_number   1
_chemical_formula_structural   Dy3YThRu2
_chemical_formula_sum   'Dy6 Y2 Th2 Ru4'
_cell_volume   371.76268252
_cell_formula_units_Z   2
loop_
 _symmetry_equiv_pos_site_id
 _symmetry_equiv_pos_as_xyz
  1  'x, y, z'
loop_
 _atom_site_type_symbol
 _atom_site_label
 _atom_site_symmetry_multiplicity
 _atom_site_fract_x
 _atom_site_fract_y
 _atom_site_fract_z
 _atom_site_occupancy
  Dy  Dy0  1  0.790455  0.641972  0.684545  1
  Dy  Dy1  1  0.358028  0.209545  0.815455  1
  Dy  Dy2  1  0.978193  0.207393  0.085837  1
  Dy  Dy3  1  0.792607  0.021807  0.414163  1
  Dy  Dy4  1  0.575864  0.424136  0.750000  1
  Dy  Dy5  1  0.421500  0.578500  0.250000  1
  Y  Y6  1  0.211323  0.355989  0.311427  1
  Y  Y7  1  0.644011  0.788677  0.188573  1
  Th  Th8  1  0.200910  0.990841  0.592772  1
  Th  Th9  1  0.009159  0.799090  0.907228  1
  Ru  Ru10  1  0.169178  0.613047  0.587389  1
  Ru  Ru11  1  0.386953  0.830822  0.912611  1
  Ru  Ru12  1  0.841829  0.380010  0.430099  1
  Ru  Ru13  1  0.619990  0.158171  0.069901  1
