# generated using pymatgen
data_Tm4NbRu6W
_symmetry_space_group_name_H-M   'P 1'
_cell_length_a   5.56637567
_cell_length_b   5.17701143
_cell_length_c   9.10386900
_cell_angle_alpha   90.00000000
_cell_angle_beta   90.00000000
_cell_angle_gamma   122.69573755
_symmetry_Int_Tables_number   1
_chemical_formula_structural   Tm4NbRu6W
_chemical_formula_sum   'Tm4 Nb1 Ru6 W1'
_cell_volume   220.77915251
_cell_formula_units_Z   1
loop_
 _symmetry_equiv_pos_site_id
 _symmetry_equiv_pos_as_xyz
  1  'x, y, z'
loop_
 _atom_site_type_symbol
 _atom_site_label
 _atom_site_symmetry_multiplicity
 _atom_site_fract_x
 _atom_site_fract_y
 _atom_site_fract_z
 _atom_site_occupancy
  Tm  Tm0  1  0.670587  0.341426  0.568611  1
  Tm  Tm1  1  0.329434  0.658798  0.435731  1
  Tm  Tm2  1  0.329434  0.658798  0.064269  1
  Tm  Tm3  1  0.670587  0.341426  0.931389  1
  Nb  Nb4  1  0.842633  0.684399  0.250000  1
  Ru  Ru5  1  0.003586  0.007604  0.502832  1
  Ru  Ru6  1  0.003586  0.007604  0.997168  1
  Ru  Ru7  1  0.169153  0.813739  0.750000  1
  Ru  Ru8  1  0.644731  0.813913  0.750000  1
  Ru  Ru9  1  0.829281  0.180562  0.250000  1
  Ru  Ru10  1  0.351329  0.180471  0.250000  1
  W  W11  1  0.155659  0.311262  0.750000  1
