# generated using pymatgen
data_Sc12Cu3Si12Rh
_symmetry_space_group_name_H-M   'P 1'
_cell_length_a   11.70339991
_cell_length_b   4.00974900
_cell_length_c   10.19495362
_cell_angle_alpha   90.00000000
_cell_angle_beta   89.78779569
_cell_angle_gamma   90.00000000
_symmetry_Int_Tables_number   1
_chemical_formula_structural   Sc12Cu3Si12Rh
_chemical_formula_sum   'Sc12 Cu3 Si12 Rh1'
_cell_volume   478.42240369
_cell_formula_units_Z   1
loop_
 _symmetry_equiv_pos_site_id
 _symmetry_equiv_pos_as_xyz
  1  'x, y, z'
loop_
 _atom_site_type_symbol
 _atom_site_label
 _atom_site_symmetry_multiplicity
 _atom_site_fract_x
 _atom_site_fract_y
 _atom_site_fract_z
 _atom_site_occupancy
  Sc  Sc0  1  0.524600  0.249999  0.623261  1
  Sc  Sc1  1  0.975366  0.750000  0.123745  1
  Sc  Sc2  1  0.024009  0.249999  0.877831  1
  Sc  Sc3  1  0.474626  0.750000  0.375516  1
  Sc  Sc4  1  0.301741  0.249999  0.836814  1
  Sc  Sc5  1  0.197598  0.750000  0.337555  1
  Sc  Sc6  1  0.801242  0.249999  0.659965  1
  Sc  Sc7  1  0.698758  0.750000  0.159041  1
  Sc  Sc8  1  0.098088  0.249999  0.579817  1
  Sc  Sc9  1  0.402127  0.750000  0.077986  1
  Sc  Sc10  1  0.600276  0.249999  0.919991  1
  Sc  Sc11  1  0.903049  0.750000  0.421704  1
  Cu  Cu12  1  0.179320  0.249999  0.112950  1
  Cu  Cu13  1  0.320595  0.750000  0.613209  1
  Cu  Cu14  1  0.678052  0.249999  0.386148  1
  Si  Si15  1  0.040294  0.249999  0.313129  1
  Si  Si16  1  0.459553  0.750000  0.811240  1
  Si  Si17  1  0.541566  0.249999  0.188359  1
  Si  Si18  1  0.956107  0.750000  0.695725  1
  Si  Si19  1  0.343349  0.249999  0.249794  1
  Si  Si20  1  0.156296  0.750000  0.750912  1
  Si  Si21  1  0.843192  0.249999  0.249017  1
  Si  Si22  1  0.658553  0.750000  0.749280  1
  Si  Si23  1  0.325209  0.249999  0.484515  1
  Si  Si24  1  0.176802  0.750000  0.985544  1
  Si  Si25  1  0.825542  0.249999  0.014108  1
  Si  Si26  1  0.673360  0.750000  0.514186  1
  Rh  Rh27  1  0.820736  0.750000  0.888661  1
