# generated using pymatgen
data_Ag2GeF6
_symmetry_space_group_name_H-M   'P 1'
_cell_length_a   5.67216000
_cell_length_b   5.67216114
_cell_length_c   5.67216000
_cell_angle_alpha   120.00000501
_cell_angle_beta   90.00000000
_cell_angle_gamma   120.00000501
_symmetry_Int_Tables_number   1
_chemical_formula_structural   Ag2GeF6
_chemical_formula_sum   'Ag2 Ge1 F6'
_cell_volume   129.04180896
_cell_formula_units_Z   1
loop_
 _symmetry_equiv_pos_site_id
 _symmetry_equiv_pos_as_xyz
  1  'x, y, z'
loop_
 _atom_site_type_symbol
 _atom_site_label
 _atom_site_symmetry_multiplicity
 _atom_site_fract_x
 _atom_site_fract_y
 _atom_site_fract_z
 _atom_site_occupancy
  Ag  Ag0  1  0.749999  0.499999  0.250000  1
  Ag  Ag1  1  0.250000  0.499999  0.749999  1
  Ge  Ge2  1  0.000000  0.000000  0.000000  1
  F  F3  1  0.228685  0.000000  0.228685  1
  F  F4  1  0.228685  0.457369  0.228685  1
  F  F5  1  0.771315  0.000000  0.228686  1
  F  F6  1  0.228686  0.000000  0.771315  1
  F  F7  1  0.771315  0.542630  0.771315  1
  F  F8  1  0.771315  0.000000  0.771315  1
