# generated using pymatgen
data_La14NiIrPt4
_symmetry_space_group_name_H-M   'P 1'
_cell_length_a   6.56844205
_cell_length_b   10.32209051
_cell_length_c   10.31269950
_cell_angle_alpha   119.94624995
_cell_angle_beta   90.07141363
_cell_angle_gamma   89.92320239
_symmetry_Int_Tables_number   1
_chemical_formula_structural   La14NiIrPt4
_chemical_formula_sum   'La14 Ni1 Ir1 Pt4'
_cell_volume   605.85334812
_cell_formula_units_Z   1
loop_
 _symmetry_equiv_pos_site_id
 _symmetry_equiv_pos_as_xyz
  1  'x, y, z'
loop_
 _atom_site_type_symbol
 _atom_site_label
 _atom_site_symmetry_multiplicity
 _atom_site_fract_x
 _atom_site_fract_y
 _atom_site_fract_z
 _atom_site_occupancy
  La  La0  1  0.467300  0.331319  0.663590  1
  La  La1  1  0.965476  0.668882  0.331247  1
  La  La2  1  0.242930  0.127132  0.872260  1
  La  La3  1  0.242399  0.746960  0.877894  1
  La  La4  1  0.246098  0.122664  0.254570  1
  La  La5  1  0.746435  0.878844  0.130754  1
  La  La6  1  0.740049  0.252893  0.131595  1
  La  La7  1  0.740539  0.871498  0.742677  1
  La  La8  1  0.437849  0.535196  0.462225  1
  La  La9  1  0.435875  0.921636  0.452672  1
  La  La10  1  0.440195  0.544195  0.076991  1
  La  La11  1  0.940383  0.457223  0.535610  1
  La  La12  1  0.938117  0.078440  0.535731  1
  La  La13  1  0.942463  0.464711  0.928211  1
  Ni  Ni14  1  0.200095  0.809166  0.186573  1
  Ir  Ir15  1  0.694281  0.187607  0.376484  1
  Pt  Pt16  1  0.194798  0.375261  0.187336  1
  Pt  Pt17  1  0.195046  0.812058  0.624768  1
  Pt  Pt18  1  0.697160  0.188649  0.814820  1
  Pt  Pt19  1  0.694512  0.625666  0.813991  1
