# generated using pymatgen
data_Dy2TmHg5
_symmetry_space_group_name_H-M   'P 1'
_cell_length_a   6.37626305
_cell_length_b   6.37626238
_cell_length_c   10.13497800
_cell_angle_alpha   90.00000000
_cell_angle_beta   90.00000000
_cell_angle_gamma   105.06736914
_symmetry_Int_Tables_number   1
_chemical_formula_structural   Dy2TmHg5
_chemical_formula_sum   'Dy4 Tm2 Hg10'
_cell_volume   397.88891830
_cell_formula_units_Z   2
loop_
 _symmetry_equiv_pos_site_id
 _symmetry_equiv_pos_as_xyz
  1  'x, y, z'
loop_
 _atom_site_type_symbol
 _atom_site_label
 _atom_site_symmetry_multiplicity
 _atom_site_fract_x
 _atom_site_fract_y
 _atom_site_fract_z
 _atom_site_occupancy
  Dy  Dy0  1  0.786180  0.213820  0.000000  1
  Dy  Dy1  1  0.213820  0.786180  0.000000  1
  Dy  Dy2  1  0.213820  0.786180  0.500000  1
  Dy  Dy3  1  0.786180  0.213820  0.500000  1
  Tm  Tm4  1  0.570231  0.570231  0.250000  1
  Tm  Tm5  1  0.429769  0.429769  0.750000  1
  Hg  Hg6  1  0.037207  0.478155  0.250000  1
  Hg  Hg7  1  0.962793  0.521845  0.750000  1
  Hg  Hg8  1  0.478155  0.037207  0.250000  1
  Hg  Hg9  1  0.521845  0.962793  0.750000  1
  Hg  Hg10  1  0.969032  0.969032  0.250000  1
  Hg  Hg11  1  0.030968  0.030968  0.750000  1
  Hg  Hg12  1  0.294082  0.294082  0.030168  1
  Hg  Hg13  1  0.705918  0.705918  0.969832  1
  Hg  Hg14  1  0.705918  0.705918  0.530168  1
  Hg  Hg15  1  0.294082  0.294082  0.469832  1
