# generated using pymatgen
data_Nd2Ho3LuTa2O14
_symmetry_space_group_name_H-M   'P 1'
_cell_length_a   6.47131292
_cell_length_b   6.46571351
_cell_length_c   7.58120807
_cell_angle_alpha   90.00785407
_cell_angle_beta   89.98445515
_cell_angle_gamma   109.28621489
_symmetry_Int_Tables_number   1
_chemical_formula_structural   Nd2Ho3LuTa2O14
_chemical_formula_sum   'Nd2 Ho3 Lu1 Ta2 O14'
_cell_volume   299.40858345
_cell_formula_units_Z   1
loop_
 _symmetry_equiv_pos_site_id
 _symmetry_equiv_pos_as_xyz
  1  'x, y, z'
loop_
 _atom_site_type_symbol
 _atom_site_label
 _atom_site_symmetry_multiplicity
 _atom_site_fract_x
 _atom_site_fract_y
 _atom_site_fract_z
 _atom_site_occupancy
  Nd  Nd0  1  0.507996  0.506680  0.499345  1
  Nd  Nd1  1  0.501104  0.500659  0.000945  1
  Ho  Ho2  1  0.999243  0.467147  0.749125  1
  Ho  Ho3  1  0.533156  0.001376  0.750861  1
  Ho  Ho4  1  0.465718  0.999085  0.250883  1
  Lu  Lu5  1  0.002105  0.531575  0.248985  1
  Ta  Ta6  1  0.000813  0.001136  0.499022  1
  Ta  Ta7  1  0.000059  0.000058  0.001103  1
  O  O8  1  0.936732  0.067199  0.750043  1
  O  O9  1  0.065747  0.932005  0.250022  1
  O  O10  1  0.351682  0.642653  0.250352  1
  O  O11  1  0.643659  0.357634  0.750199  1
  O  O12  1  0.362846  0.636423  0.749857  1
  O  O13  1  0.643020  0.365673  0.249710  1
  O  O14  1  0.321617  0.072132  0.968207  1
  O  O15  1  0.676271  0.926898  0.468894  1
  O  O16  1  0.320117  0.070443  0.533611  1
  O  O17  1  0.677775  0.928577  0.033036  1
  O  O18  1  0.061628  0.317668  0.460625  1
  O  O19  1  0.933022  0.678423  0.968488  1
  O  O20  1  0.930302  0.676785  0.529549  1
  O  O21  1  0.065389  0.319772  0.037140  1
