# generated using pymatgen
data_Sc22Os5RuRh2
_symmetry_space_group_name_H-M   'P 1'
_cell_length_a   9.47232381
_cell_length_b   9.47232353
_cell_length_c   9.47456400
_cell_angle_alpha   59.99217540
_cell_angle_beta   59.99217638
_cell_angle_gamma   60.01564743
_symmetry_Int_Tables_number   1
_chemical_formula_structural   Sc22Os5RuRh2
_chemical_formula_sum   'Sc22 Os5 Ru1 Rh2'
_cell_volume   601.11455460
_cell_formula_units_Z   1
loop_
 _symmetry_equiv_pos_site_id
 _symmetry_equiv_pos_as_xyz
  1  'x, y, z'
loop_
 _atom_site_type_symbol
 _atom_site_label
 _atom_site_symmetry_multiplicity
 _atom_site_fract_x
 _atom_site_fract_y
 _atom_site_fract_z
 _atom_site_occupancy
  Sc  Sc0  1  0.843139  0.843139  0.845173  1
  Sc  Sc1  1  0.531451  0.154827  0.156861  1
  Sc  Sc2  1  0.156861  0.156861  0.531451  1
  Sc  Sc3  1  0.154827  0.531451  0.156861  1
  Sc  Sc4  1  0.843139  0.843139  0.468549  1
  Sc  Sc5  1  0.845173  0.468549  0.843139  1
  Sc  Sc6  1  0.468549  0.845173  0.843139  1
  Sc  Sc7  1  0.156861  0.156861  0.154827  1
  Sc  Sc8  1  0.197463  0.802537  0.197463  1
  Sc  Sc9  1  0.197463  0.802537  0.802537  1
  Sc  Sc10  1  0.802537  0.197463  0.197463  1
  Sc  Sc11  1  0.801173  0.801173  0.198827  1
  Sc  Sc12  1  0.198827  0.198827  0.801173  1
  Sc  Sc13  1  0.802537  0.197463  0.802537  1
  Sc  Sc14  1  0.381551  0.381551  0.386717  1
  Sc  Sc15  1  0.149821  0.613283  0.618449  1
  Sc  Sc16  1  0.613283  0.149821  0.618449  1
  Sc  Sc17  1  0.618449  0.618449  0.149821  1
  Sc  Sc18  1  0.386717  0.850179  0.381551  1
  Sc  Sc19  1  0.381551  0.381551  0.850179  1
  Sc  Sc20  1  0.850179  0.386717  0.381551  1
  Sc  Sc21  1  0.618449  0.618449  0.613283  1
  Os  Os22  1  0.500000  0.000000  0.500000  1
  Os  Os23  1  0.000000  0.500000  0.500000  1
  Os  Os24  1  0.500000  0.000000  0.000000  1
  Os  Os25  1  0.000000  0.500000  0.000000  1
  Os  Os26  1  0.500000  0.500000  0.500000  1
  Ru  Ru27  1  0.000000  0.000000  0.000000  1
  Rh  Rh28  1  0.500000  0.500000  0.000000  1
  Rh  Rh29  1  0.000000  0.000000  0.500000  1
