# generated using pymatgen
data_Er4Zr3CrF28
_symmetry_space_group_name_H-M   'P 1'
_cell_length_a   5.61534230
_cell_length_b   8.93966710
_cell_length_c   12.05436069
_cell_angle_alpha   62.75411405
_cell_angle_beta   89.95546542
_cell_angle_gamma   89.98284112
_symmetry_Int_Tables_number   1
_chemical_formula_structural   Er4Zr3CrF28
_chemical_formula_sum   'Er4 Zr3 Cr1 F28'
_cell_volume   537.98210084
_cell_formula_units_Z   1
loop_
 _symmetry_equiv_pos_site_id
 _symmetry_equiv_pos_as_xyz
  1  'x, y, z'
loop_
 _atom_site_type_symbol
 _atom_site_label
 _atom_site_symmetry_multiplicity
 _atom_site_fract_x
 _atom_site_fract_y
 _atom_site_fract_z
 _atom_site_occupancy
  Er  Er0  1  0.757028  0.818552  0.764455  1
  Er  Er1  1  0.259185  0.186401  0.728422  1
  Er  Er2  1  0.243168  0.185766  0.241734  1
  Er  Er3  1  0.743742  0.815080  0.266130  1
  Zr  Zr4  1  0.757739  0.273100  0.957204  1
  Zr  Zr5  1  0.255558  0.726163  0.542491  1
  Zr  Zr6  1  0.244359  0.726050  0.043918  1
  Cr  Cr7  1  0.740443  0.273550  0.455786  1
  F  F8  1  0.457280  0.707081  0.914877  1
  F  F9  1  0.932928  0.291092  0.574983  1
  F  F10  1  0.543470  0.290784  0.086833  1
  F  F11  1  0.041686  0.707432  0.414415  1
  F  F12  1  0.457699  0.273440  0.543483  1
  F  F13  1  0.936979  0.727995  0.950870  1
  F  F14  1  0.563673  0.723583  0.452148  1
  F  F15  1  0.063061  0.270934  0.051383  1
  F  F16  1  0.782164  0.528240  0.858887  1
  F  F17  1  0.273654  0.471094  0.638272  1
  F  F18  1  0.217248  0.470962  0.144019  1
  F  F19  1  0.722747  0.505151  0.365739  1
  F  F20  1  0.758193  0.018116  0.059288  1
  F  F21  1  0.259047  0.980389  0.442936  1
  F  F22  1  0.242222  0.979404  0.939406  1
  F  F23  1  0.744841  0.041904  0.545930  1
  F  F24  1  0.969617  0.734715  0.643395  1
  F  F25  1  0.473436  0.269870  0.852698  1
  F  F26  1  0.011669  0.270475  0.364871  1
  F  F27  1  0.529040  0.726722  0.148521  1
  F  F28  1  0.041416  0.747256  0.177004  1
  F  F29  1  0.550193  0.254422  0.333135  1
  F  F30  1  0.961737  0.251820  0.822934  1
  F  F31  1  0.461682  0.750750  0.673767  1
  F  F32  1  0.423311  0.972124  0.235883  1
  F  F33  1  0.924524  0.028142  0.267543  1
  F  F34  1  0.577101  0.029282  0.766544  1
  F  F35  1  0.078160  0.972161  0.730099  1
