# generated using pymatgen
data_Ta6Al3Cu3N2
_symmetry_space_group_name_H-M   'P 1'
_cell_length_a   8.19601056
_cell_length_b   8.19601079
_cell_length_c   8.19601152
_cell_angle_alpha   120.06593138
_cell_angle_beta   119.95948301
_cell_angle_gamma   89.97801894
_symmetry_Int_Tables_number   1
_chemical_formula_structural   Ta6Al3Cu3N2
_chemical_formula_sum   'Ta12 Al6 Cu6 N4'
_cell_volume   389.23210796
_cell_formula_units_Z   2
loop_
 _symmetry_equiv_pos_site_id
 _symmetry_equiv_pos_as_xyz
  1  'x, y, z'
loop_
 _atom_site_type_symbol
 _atom_site_label
 _atom_site_symmetry_multiplicity
 _atom_site_fract_x
 _atom_site_fract_y
 _atom_site_fract_z
 _atom_site_occupancy
  Ta  Ta0  1  0.060787  0.060787  0.000000  1
  Ta  Ta1  1  0.692788  0.692788  0.000000  1
  Ta  Ta2  1  0.691480  0.057984  0.000502  1
  Ta  Ta3  1  0.057481  0.690977  0.999498  1
  Ta  Ta4  1  0.057481  0.057984  0.366504  1
  Ta  Ta5  1  0.691480  0.690977  0.633496  1
  Ta  Ta6  1  0.443118  0.943118  0.500000  1
  Ta  Ta7  1  0.810149  0.310149  0.500000  1
  Ta  Ta8  1  0.807693  0.941695  0.500268  1
  Ta  Ta9  1  0.441429  0.307425  0.499732  1
  Ta  Ta10  1  0.441429  0.941695  0.134002  1
  Ta  Ta11  1  0.807693  0.307425  0.865998  1
  Al  Al12  1  0.256132  0.507874  0.748259  1
  Al  Al13  1  0.759615  0.507874  0.251741  1
  Al  Al14  1  0.247532  0.512516  0.264984  1
  Al  Al15  1  0.247532  0.982549  0.735016  1
  Al  Al16  1  0.459872  0.294137  0.165734  1
  Al  Al17  1  0.128402  0.294137  0.834266  1
  Cu  Cu18  1  0.452875  0.292511  0.839638  1
  Cu  Cu19  1  0.452875  0.613237  0.160362  1
  Cu  Cu20  1  0.040299  0.707205  0.333093  1
  Cu  Cu21  1  0.374113  0.707205  0.666907  1
  Cu  Cu22  1  0.041608  0.705028  0.663419  1
  Cu  Cu23  1  0.041608  0.378189  0.336581  1
  N  N24  1  0.748486  0.998519  0.749967  1
  N  N25  1  0.248553  0.998519  0.250033  1
  N  N26  1  0.748746  0.997820  0.249076  1
  N  N27  1  0.748746  0.499670  0.750924  1
