# generated using pymatgen
data_Tb2CrTc5P7Rh6
_symmetry_space_group_name_H-M   'P 1'
_cell_length_a   3.91826101
_cell_length_b   9.47326529
_cell_length_c   9.46225801
_cell_angle_alpha   119.56682606
_cell_angle_beta   89.99872006
_cell_angle_gamma   90.00037873
_symmetry_Int_Tables_number   1
_chemical_formula_structural   Tb2CrTc5P7Rh6
_chemical_formula_sum   'Tb2 Cr1 Tc5 P7 Rh6'
_cell_volume   305.49045902
_cell_formula_units_Z   1
loop_
 _symmetry_equiv_pos_site_id
 _symmetry_equiv_pos_as_xyz
  1  'x, y, z'
loop_
 _atom_site_type_symbol
 _atom_site_label
 _atom_site_symmetry_multiplicity
 _atom_site_fract_x
 _atom_site_fract_y
 _atom_site_fract_z
 _atom_site_occupancy
  Tb  Tb0  1  0.261946  0.667530  0.334030  1
  Tb  Tb1  1  0.762024  0.332623  0.666564  1
  Cr  Cr2  1  0.261849  0.274625  0.114758  1
  Tc  Tc3  1  0.761868  0.095968  0.879978  1
  Tc  Tc4  1  0.761842  0.124468  0.212122  1
  Tc  Tc5  1  0.761858  0.781308  0.905477  1
  Tc  Tc6  1  0.261877  0.885780  0.158540  1
  Tc  Tc7  1  0.261895  0.839450  0.726053  1
  P  P8  1  0.261634  0.002965  0.999069  1
  P  P9  1  0.761957  0.883385  0.601716  1
  P  P10  1  0.761861  0.401662  0.283665  1
  P  P11  1  0.761889  0.717263  0.117961  1
  P  P12  1  0.262102  0.116511  0.410822  1
  P  P13  1  0.261976  0.586999  0.703996  1
  P  P14  1  0.261935  0.293267  0.885603  1
  Rh  Rh15  1  0.761926  0.608655  0.556659  1
  Rh  Rh16  1  0.761863  0.442037  0.056731  1
  Rh  Rh17  1  0.761963  0.946536  0.390571  1
  Rh  Rh18  1  0.261906  0.366881  0.429759  1
  Rh  Rh19  1  0.261861  0.562984  0.932758  1
  Rh  Rh20  1  0.261967  0.069101  0.633171  1
