# generated using pymatgen
data_TmPa2(GaPt)3
_symmetry_space_group_name_H-M   'P 1'
_cell_length_a   7.14879206
_cell_length_b   7.17956325
_cell_length_c   4.02184400
_cell_angle_alpha   90.00000000
_cell_angle_beta   90.00000000
_cell_angle_gamma   120.14250422
_symmetry_Int_Tables_number   1
_chemical_formula_structural   TmPa2(GaPt)3
_chemical_formula_sum   'Tm1 Pa2 Ga3 Pt3'
_cell_volume   178.50941145
_cell_formula_units_Z   1
loop_
 _symmetry_equiv_pos_site_id
 _symmetry_equiv_pos_as_xyz
  1  'x, y, z'
loop_
 _atom_site_type_symbol
 _atom_site_label
 _atom_site_symmetry_multiplicity
 _atom_site_fract_x
 _atom_site_fract_y
 _atom_site_fract_z
 _atom_site_occupancy
  Tm  Tm0  1  0.000000  0.590575  0.500000  1
  Pa  Pa1  1  0.416814  0.415699  0.500000  1
  Pa  Pa2  1  0.583186  0.998886  0.500000  1
  Ga  Ga3  1  0.760914  0.750826  0.000000  1
  Ga  Ga4  1  0.239086  0.989912  0.000000  1
  Ga  Ga5  1  0.000000  0.253641  0.000000  1
  Pt  Pt6  1  0.655557  0.324653  0.000000  1
  Pt  Pt7  1  0.344443  0.669097  0.000000  1
  Pt  Pt8  1  0.000000  0.006709  0.500000  1
