# generated using pymatgen
data_Er4Al2Ga2PdRh3
_symmetry_space_group_name_H-M   'P 1'
_cell_length_a   4.19765200
_cell_length_b   6.89476089
_cell_length_c   7.90063346
_cell_angle_alpha   89.99041152
_cell_angle_beta   90.00000000
_cell_angle_gamma   90.00000000
_symmetry_Int_Tables_number   1
_chemical_formula_structural   Er4Al2Ga2PdRh3
_chemical_formula_sum   'Er4 Al2 Ga2 Pd1 Rh3'
_cell_volume   228.65860409
_cell_formula_units_Z   1
loop_
 _symmetry_equiv_pos_site_id
 _symmetry_equiv_pos_as_xyz
  1  'x, y, z'
loop_
 _atom_site_type_symbol
 _atom_site_label
 _atom_site_symmetry_multiplicity
 _atom_site_fract_x
 _atom_site_fract_y
 _atom_site_fract_z
 _atom_site_occupancy
  Er  Er0  1  0.250000  0.031841  0.320650  1
  Er  Er1  1  0.250000  0.540028  0.179368  1
  Er  Er2  1  0.750000  0.966021  0.683327  1
  Er  Er3  1  0.750000  0.469070  0.818428  1
  Al  Al4  1  0.250000  0.637097  0.561548  1
  Al  Al5  1  0.750000  0.365539  0.440734  1
  Ga  Ga6  1  0.250000  0.139744  0.934743  1
  Ga  Ga7  1  0.750000  0.853997  0.062510  1
  Pd  Pd8  1  0.750000  0.235164  0.125280  1
  Rh  Rh9  1  0.250000  0.264731  0.617193  1
  Rh  Rh10  1  0.250000  0.759484  0.875269  1
  Rh  Rh11  1  0.750000  0.737287  0.380951  1
