# generated using pymatgen
data_HfZr7(InCu2)4
_symmetry_space_group_name_H-M   'P 1'
_cell_length_a   7.28087027
_cell_length_b   7.28087027
_cell_length_c   6.83734900
_cell_angle_alpha   90.00000000
_cell_angle_beta   90.00000000
_cell_angle_gamma   90.21039529
_symmetry_Int_Tables_number   1
_chemical_formula_structural   HfZr7(InCu2)4
_chemical_formula_sum   'Hf1 Zr7 In4 Cu8'
_cell_volume   362.45275586
_cell_formula_units_Z   1
loop_
 _symmetry_equiv_pos_site_id
 _symmetry_equiv_pos_as_xyz
  1  'x, y, z'
loop_
 _atom_site_type_symbol
 _atom_site_label
 _atom_site_symmetry_multiplicity
 _atom_site_fract_x
 _atom_site_fract_y
 _atom_site_fract_z
 _atom_site_occupancy
  Hf  Hf0  1  0.193501  0.193501  0.500000  1
  Zr  Zr1  1  0.151298  0.151298  0.000000  1
  Zr  Zr2  1  0.848530  0.848530  0.000000  1
  Zr  Zr3  1  0.651030  0.347769  0.500000  1
  Zr  Zr4  1  0.347769  0.651030  0.500000  1
  Zr  Zr5  1  0.693528  0.305970  0.000000  1
  Zr  Zr6  1  0.305970  0.693528  0.000000  1
  Zr  Zr7  1  0.806462  0.806462  0.500000  1
  In  In8  1  0.499818  0.999972  0.251429  1
  In  In9  1  0.499818  0.999972  0.748571  1
  In  In10  1  0.999972  0.499818  0.251429  1
  In  In11  1  0.999972  0.499818  0.748571  1
  Cu  Cu12  1  0.376184  0.376184  0.204960  1
  Cu  Cu13  1  0.621806  0.621806  0.798027  1
  Cu  Cu14  1  0.621806  0.621806  0.201973  1
  Cu  Cu15  1  0.879569  0.123607  0.701451  1
  Cu  Cu16  1  0.879569  0.123607  0.298549  1
  Cu  Cu17  1  0.376184  0.376184  0.795040  1
  Cu  Cu18  1  0.123607  0.879569  0.298549  1
  Cu  Cu19  1  0.123607  0.879569  0.701451  1
