# generated using pymatgen
data_DyHo5Bi2(AuO5)4
_symmetry_space_group_name_H-M   'P 1'
_cell_length_a   8.52647618
_cell_length_b   8.52647686
_cell_length_c   5.70439534
_cell_angle_alpha   88.91947251
_cell_angle_beta   91.08052637
_cell_angle_gamma   89.89175386
_symmetry_Int_Tables_number   1
_chemical_formula_structural   DyHo5Bi2(AuO5)4
_chemical_formula_sum   'Dy1 Ho5 Bi2 Au4 O20'
_cell_volume   414.56559333
_cell_formula_units_Z   1
loop_
 _symmetry_equiv_pos_site_id
 _symmetry_equiv_pos_as_xyz
  1  'x, y, z'
loop_
 _atom_site_type_symbol
 _atom_site_label
 _atom_site_symmetry_multiplicity
 _atom_site_fract_x
 _atom_site_fract_y
 _atom_site_fract_z
 _atom_site_occupancy
  Dy  Dy0  1  0.651961  0.651961  0.750000  1
  Ho  Ho1  1  0.354486  0.656380  0.247365  1
  Ho  Ho2  1  0.843623  0.145300  0.747495  1
  Ho  Ho3  1  0.656380  0.354486  0.252635  1
  Ho  Ho4  1  0.848263  0.848263  0.250000  1
  Ho  Ho5  1  0.145300  0.843623  0.752505  1
  Bi  Bi6  1  0.358782  0.358782  0.750000  1
  Bi  Bi7  1  0.141017  0.141017  0.250000  1
  Au  Au8  1  0.496981  0.000301  0.408300  1
  Au  Au9  1  0.499720  0.003100  0.908469  1
  Au  Au10  1  0.000301  0.496981  0.091700  1
  Au  Au11  1  0.003100  0.499720  0.591531  1
  O  O12  1  0.106192  0.288490  0.599526  1
  O  O13  1  0.910053  0.279988  0.109288  1
  O  O14  1  0.908440  0.716941  0.608931  1
  O  O15  1  0.716941  0.908440  0.891069  1
  O  O16  1  0.220047  0.589955  0.609379  1
  O  O17  1  0.404218  0.787599  0.893871  1
  O  O18  1  0.393763  0.211398  0.400607  1
  O  O19  1  0.783579  0.592213  0.110630  1
  O  O20  1  0.279988  0.910053  0.390712  1
  O  O21  1  0.589955  0.220047  0.890621  1
  O  O22  1  0.494406  0.499276  0.999535  1
  O  O23  1  0.499276  0.494406  0.500465  1
  O  O24  1  0.787599  0.404218  0.606129  1
  O  O25  1  0.095425  0.712587  0.106357  1
  O  O26  1  0.288490  0.106192  0.900474  1
  O  O27  1  0.592213  0.783579  0.389370  1
  O  O28  1  0.211398  0.393763  0.099393  1
  O  O29  1  0.005227  0.000290  0.001103  1
  O  O30  1  0.000290  0.005227  0.498897  1
  O  O31  1  0.712587  0.095425  0.393643  1
