# generated using pymatgen
data_Tb10In3Hg5Rh4
_symmetry_space_group_name_H-M   'P 1'
_cell_length_a   3.67915600
_cell_length_b   7.94473653
_cell_length_c   18.13349357
_cell_angle_alpha   89.86494588
_cell_angle_beta   90.00000000
_cell_angle_gamma   90.00000000
_symmetry_Int_Tables_number   1
_chemical_formula_structural   Tb10In3Hg5Rh4
_chemical_formula_sum   'Tb10 In3 Hg5 Rh4'
_cell_volume   530.03918576
_cell_formula_units_Z   1
loop_
 _symmetry_equiv_pos_site_id
 _symmetry_equiv_pos_as_xyz
  1  'x, y, z'
loop_
 _atom_site_type_symbol
 _atom_site_label
 _atom_site_symmetry_multiplicity
 _atom_site_fract_x
 _atom_site_fract_y
 _atom_site_fract_z
 _atom_site_occupancy
  Tb  Tb0  1  0.000000  0.497591  0.501156  1
  Tb  Tb1  1  0.000000  0.999853  0.000059  1
  Tb  Tb2  1  0.000000  0.746784  0.282753  1
  Tb  Tb3  1  0.000000  0.258760  0.716033  1
  Tb  Tb4  1  0.000000  0.750556  0.779691  1
  Tb  Tb5  1  0.000000  0.249221  0.218548  1
  Tb  Tb6  1  0.000000  0.609684  0.086980  1
  Tb  Tb7  1  0.000000  0.389156  0.913573  1
  Tb  Tb8  1  0.000000  0.888583  0.588738  1
  Tb  Tb9  1  0.000000  0.108138  0.413161  1
  In  In10  1  0.500000  0.422315  0.350205  1
  In  In11  1  0.500000  0.921453  0.150201  1
  In  In12  1  0.500000  0.077364  0.848642  1
  Hg  Hg13  1  0.500000  0.714275  0.933375  1
  Hg  Hg14  1  0.500000  0.286979  0.066162  1
  Hg  Hg15  1  0.500000  0.784567  0.435556  1
  Hg  Hg16  1  0.500000  0.208345  0.564949  1
  Hg  Hg17  1  0.500000  0.579602  0.647301  1
  Rh  Rh18  1  0.500000  0.537937  0.198025  1
  Rh  Rh19  1  0.500000  0.460288  0.804242  1
  Rh  Rh20  1  0.500000  0.970733  0.698451  1
  Rh  Rh21  1  0.500000  0.037816  0.302198  1
