# generated using pymatgen
data_YbYNiRuO6
_symmetry_space_group_name_H-M   'P 1'
_cell_length_a   5.65970917
_cell_length_b   5.31503833
_cell_length_c   9.26874203
_cell_angle_alpha   55.58075292
_cell_angle_beta   90.17943157
_cell_angle_gamma   90.08391259
_symmetry_Int_Tables_number   1
_chemical_formula_structural   YbYNiRuO6
_chemical_formula_sum   'Yb2 Y2 Ni2 Ru2 O12'
_cell_volume   230.00268954
_cell_formula_units_Z   2
loop_
 _symmetry_equiv_pos_site_id
 _symmetry_equiv_pos_as_xyz
  1  'x, y, z'
loop_
 _atom_site_type_symbol
 _atom_site_label
 _atom_site_symmetry_multiplicity
 _atom_site_fract_x
 _atom_site_fract_y
 _atom_site_fract_z
 _atom_site_occupancy
  Yb  Yb0  1  0.073200  0.724308  0.753513  1
  Yb  Yb1  1  0.926800  0.275692  0.246487  1
  Y  Y2  1  0.574220  0.272431  0.749012  1
  Y  Y3  1  0.425780  0.727569  0.250988  1
  Ni  Ni4  1  0.500000  0.500000  0.000000  1
  Ni  Ni5  1  0.000000  0.500000  0.500000  1
  Ru  Ru6  1  0.500000  0.000000  0.500000  1
  Ru  Ru7  1  0.000000  0.000000  0.000000  1
  O  O8  1  0.464570  0.868349  0.745450  1
  O  O9  1  0.535430  0.131651  0.254550  1
  O  O10  1  0.959225  0.134826  0.754415  1
  O  O11  1  0.040775  0.865174  0.245585  1
  O  O12  1  0.789219  0.751361  0.560917  1
  O  O13  1  0.210781  0.248639  0.439083  1
  O  O14  1  0.299754  0.238503  0.941449  1
  O  O15  1  0.700246  0.761497  0.058551  1
  O  O16  1  0.313742  0.640633  0.552044  1
  O  O17  1  0.686258  0.359367  0.447956  1
  O  O18  1  0.806830  0.352597  0.944818  1
  O  O19  1  0.193170  0.647403  0.055182  1
