# generated using pymatgen
data_Cs4Mg(PS4)2
_symmetry_space_group_name_H-M   'P 1'
_cell_length_a   9.48707523
_cell_length_b   9.56419418
_cell_length_c   11.41428676
_cell_angle_alpha   104.67181435
_cell_angle_beta   104.62383208
_cell_angle_gamma   90.85784912
_symmetry_Int_Tables_number   1
_chemical_formula_structural   Cs4Mg(PS4)2
_chemical_formula_sum   'Cs8 Mg2 P4 S16'
_cell_volume   966.00850819
_cell_formula_units_Z   2
loop_
 _symmetry_equiv_pos_site_id
 _symmetry_equiv_pos_as_xyz
  1  'x, y, z'
loop_
 _atom_site_type_symbol
 _atom_site_label
 _atom_site_symmetry_multiplicity
 _atom_site_fract_x
 _atom_site_fract_y
 _atom_site_fract_z
 _atom_site_occupancy
  Cs  Cs0  1  0.930393  0.523453  0.248080  1
  Cs  Cs1  1  0.069607  0.476547  0.751920  1
  Cs  Cs2  1  0.759448  0.981835  0.453904  1
  Cs  Cs3  1  0.240552  0.018165  0.546096  1
  Cs  Cs4  1  0.598194  0.742854  0.014097  1
  Cs  Cs5  1  0.401806  0.257146  0.985903  1
  Cs  Cs6  1  0.619325  0.683009  0.622654  1
  Cs  Cs7  1  0.380675  0.316991  0.377346  1
  Mg  Mg8  1  0.852603  0.131917  0.925181  1
  Mg  Mg9  1  0.147397  0.868083  0.074819  1
  P  P10  1  0.953697  0.109047  0.219637  1
  P  P11  1  0.046303  0.890953  0.780363  1
  P  P12  1  0.361816  0.693323  0.252532  1
  P  P13  1  0.638184  0.306677  0.747468  1
  S  S14  1  0.977205  0.896449  0.224990  1
  S  S15  1  0.022795  0.103551  0.775010  1
  S  S16  1  0.607085  0.090688  0.749552  1
  S  S17  1  0.392915  0.909312  0.250448  1
  S  S18  1  0.287315  0.674394  0.400880  1
  S  S19  1  0.712685  0.325606  0.599120  1
  S  S20  1  0.794644  0.398694  0.914816  1
  S  S21  1  0.205356  0.601306  0.085184  1
  S  S22  1  0.002895  0.242647  0.396125  1
  S  S23  1  0.997105  0.757353  0.603875  1
  S  S24  1  0.090941  0.158627  0.116212  1
  S  S25  1  0.909059  0.841373  0.883788  1
  S  S26  1  0.746364  0.131103  0.116503  1
  S  S27  1  0.253636  0.868897  0.883497  1
  S  S28  1  0.554110  0.594997  0.260731  1
  S  S29  1  0.445890  0.405003  0.739269  1
