# generated using pymatgen
data_InAg(IO3)4
_symmetry_space_group_name_H-M   'P 1'
_cell_length_a   5.13053800
_cell_length_b   7.34543300
_cell_length_c   15.94652235
_cell_angle_alpha   78.73141029
_cell_angle_beta   90.00000000
_cell_angle_gamma   90.00000000
_symmetry_Int_Tables_number   1
_chemical_formula_structural   InAg(IO3)4
_chemical_formula_sum   'In2 Ag2 I8 O24'
_cell_volume   589.37564271
_cell_formula_units_Z   2
loop_
 _symmetry_equiv_pos_site_id
 _symmetry_equiv_pos_as_xyz
  1  'x, y, z'
loop_
 _atom_site_type_symbol
 _atom_site_label
 _atom_site_symmetry_multiplicity
 _atom_site_fract_x
 _atom_site_fract_y
 _atom_site_fract_z
 _atom_site_occupancy
  In  In0  1  0.500000  0.000000  0.000000  1
  In  In1  1  0.000000  0.000000  0.500000  1
  Ag  Ag2  1  0.500000  0.500000  0.000000  1
  Ag  Ag3  1  0.000000  0.500000  0.500000  1
  I  I4  1  0.903917  0.665974  0.164607  1
  I  I5  1  0.403917  0.334026  0.335393  1
  I  I6  1  0.096083  0.334026  0.835393  1
  I  I7  1  0.596083  0.665974  0.664607  1
  I  I8  1  0.991883  0.179931  0.137515  1
  I  I9  1  0.491883  0.820069  0.362485  1
  I  I10  1  0.008117  0.820069  0.862485  1
  I  I11  1  0.508117  0.179931  0.637515  1
  O  O12  1  0.674016  0.745425  0.073276  1
  O  O13  1  0.174016  0.254575  0.426724  1
  O  O14  1  0.325984  0.254575  0.926724  1
  O  O15  1  0.825984  0.745425  0.573276  1
  O  O16  1  0.800749  0.829604  0.231661  1
  O  O17  1  0.300749  0.170396  0.268339  1
  O  O18  1  0.199251  0.170396  0.768339  1
  O  O19  1  0.699251  0.829604  0.731661  1
  O  O20  1  0.727094  0.451170  0.207816  1
  O  O21  1  0.227094  0.548830  0.292184  1
  O  O22  1  0.272906  0.548830  0.792184  1
  O  O23  1  0.772906  0.451170  0.707816  1
  O  O24  1  0.740489  0.195566  0.050970  1
  O  O25  1  0.240489  0.804434  0.449030  1
  O  O26  1  0.259511  0.804434  0.949030  1
  O  O27  1  0.759511  0.195566  0.550970  1
  O  O28  1  0.208585  0.003712  0.103877  1
  O  O29  1  0.708585  0.996288  0.396123  1
  O  O30  1  0.791415  0.996288  0.896123  1
  O  O31  1  0.291415  0.003712  0.603877  1
  O  O32  1  0.152074  0.397509  0.092526  1
  O  O33  1  0.652074  0.602491  0.407474  1
  O  O34  1  0.847926  0.602491  0.907474  1
  O  O35  1  0.347926  0.397509  0.592526  1
