# generated using pymatgen
data_Cs2MgU2CuTe6
_symmetry_space_group_name_H-M   'P 1'
_cell_length_a   8.88295280
_cell_length_b   8.88295240
_cell_length_c   11.80289300
_cell_angle_alpha   90.00000000
_cell_angle_beta   90.00000000
_cell_angle_gamma   29.42950976
_symmetry_Int_Tables_number   1
_chemical_formula_structural   Cs2MgU2CuTe6
_chemical_formula_sum   'Cs2 Mg1 U2 Cu1 Te6'
_cell_volume   457.61077422
_cell_formula_units_Z   1
loop_
 _symmetry_equiv_pos_site_id
 _symmetry_equiv_pos_as_xyz
  1  'x, y, z'
loop_
 _atom_site_type_symbol
 _atom_site_label
 _atom_site_symmetry_multiplicity
 _atom_site_fract_x
 _atom_site_fract_y
 _atom_site_fract_z
 _atom_site_occupancy
  Cs  Cs0  1  0.743813  0.743813  0.250000  1
  Cs  Cs1  1  0.255561  0.255561  0.749999  1
  Mg  Mg2  1  0.465917  0.465917  0.250000  1
  U  U3  1  0.001434  0.001434  0.990141  1
  U  U4  1  0.001434  0.001434  0.509859  1
  Cu  Cu5  1  0.533384  0.533384  0.749999  1
  Te  Te6  1  0.062710  0.062710  0.250000  1
  Te  Te7  1  0.940989  0.940989  0.749999  1
  Te  Te8  1  0.379137  0.379137  0.051588  1
  Te  Te9  1  0.618243  0.618243  0.562814  1
  Te  Te10  1  0.618243  0.618243  0.937186  1
  Te  Te11  1  0.379137  0.379137  0.448412  1
