# generated using pymatgen
data_ClF15
_symmetry_space_group_name_H-M   'P 1'
_cell_length_a   9.21282465
_cell_length_b   9.21282385
_cell_length_c   7.10297700
_cell_angle_alpha   90.00000000
_cell_angle_beta   90.00000000
_cell_angle_gamma   91.87275941
_symmetry_Int_Tables_number   1
_chemical_formula_structural   ClF15
_chemical_formula_sum   'Cl2 F30'
_cell_volume   602.55118898
_cell_formula_units_Z   2
loop_
 _symmetry_equiv_pos_site_id
 _symmetry_equiv_pos_as_xyz
  1  'x, y, z'
loop_
 _atom_site_type_symbol
 _atom_site_label
 _atom_site_symmetry_multiplicity
 _atom_site_fract_x
 _atom_site_fract_y
 _atom_site_fract_z
 _atom_site_occupancy
  Cl  Cl0  1  0.875549  0.124451  0.077618  1
  Cl  Cl1  1  0.124451  0.875549  0.577618  1
  F  F2  1  0.299454  0.282888  0.200821  1
  F  F3  1  0.282888  0.299454  0.700821  1
  F  F4  1  0.340631  0.659369  0.060193  1
  F  F5  1  0.659369  0.340631  0.560193  1
  F  F6  1  0.717112  0.700546  0.200821  1
  F  F7  1  0.700546  0.717112  0.700821  1
  F  F8  1  0.062596  0.126844  0.065421  1
  F  F9  1  0.126844  0.062596  0.565421  1
  F  F10  1  0.079770  0.395346  0.388999  1
  F  F11  1  0.395346  0.079770  0.888999  1
  F  F12  1  0.320511  0.436360  0.784125  1
  F  F13  1  0.436360  0.320511  0.284125  1
  F  F14  1  0.059623  0.575713  0.965847  1
  F  F15  1  0.575713  0.059623  0.465847  1
  F  F16  1  0.639785  0.360215  0.757250  1
  F  F17  1  0.360215  0.639785  0.257250  1
  F  F18  1  0.940377  0.424287  0.465847  1
  F  F19  1  0.424287  0.940377  0.965847  1
  F  F20  1  0.679489  0.563640  0.284125  1
  F  F21  1  0.563640  0.679489  0.784125  1
  F  F22  1  0.920230  0.604654  0.888999  1
  F  F23  1  0.604654  0.920230  0.388999  1
  F  F24  1  0.873156  0.937404  0.065421  1
  F  F25  1  0.937404  0.873156  0.565421  1
  F  F26  1  0.121622  0.690366  0.564131  1
  F  F27  1  0.690366  0.121622  0.064131  1
  F  F28  1  0.876608  0.123392  0.847612  1
  F  F29  1  0.123392  0.876608  0.347612  1
  F  F30  1  0.878378  0.309634  0.064131  1
  F  F31  1  0.309634  0.878378  0.564131  1
