# generated using pymatgen
data_Nd2B2Pt5RhAu2
_symmetry_space_group_name_H-M   'P 1'
_cell_length_a   5.52948100
_cell_length_b   5.55722563
_cell_length_c   7.69834700
_cell_angle_alpha   90.00000000
_cell_angle_beta   90.00000000
_cell_angle_gamma   119.83496750
_symmetry_Int_Tables_number   1
_chemical_formula_structural   Nd2B2Pt5RhAu2
_chemical_formula_sum   'Nd2 B2 Pt5 Rh1 Au2'
_cell_volume   205.20613320
_cell_formula_units_Z   1
loop_
 _symmetry_equiv_pos_site_id
 _symmetry_equiv_pos_as_xyz
  1  'x, y, z'
loop_
 _atom_site_type_symbol
 _atom_site_label
 _atom_site_symmetry_multiplicity
 _atom_site_fract_x
 _atom_site_fract_y
 _atom_site_fract_z
 _atom_site_occupancy
  Nd  Nd0  1  0.000000  0.000000  0.498042  1
  Nd  Nd1  1  0.000000  0.000000  0.002878  1
  B  B2  1  0.335767  0.671534  0.002280  1
  B  B3  1  0.664233  0.328466  0.002280  1
  Pt  Pt4  1  0.500000  0.000000  0.806088  1
  Pt  Pt5  1  0.000000  0.500000  0.195238  1
  Pt  Pt6  1  0.000000  0.500000  0.805478  1
  Pt  Pt7  1  0.500000  0.500000  0.195238  1
  Pt  Pt8  1  0.500000  0.500000  0.805478  1
  Rh  Rh9  1  0.500000  0.000000  0.190062  1
  Au  Au10  1  0.335333  0.670667  0.498468  1
  Au  Au11  1  0.664667  0.329333  0.498468  1
