# generated using pymatgen
data_MoI5Br6
_symmetry_space_group_name_H-M   'P 1'
_cell_length_a   8.00342480
_cell_length_b   8.52042234
_cell_length_c   9.06851049
_cell_angle_alpha   92.39123712
_cell_angle_beta   112.43302289
_cell_angle_gamma   90.89589180
_symmetry_Int_Tables_number   1
_chemical_formula_structural   MoI5Br6
_chemical_formula_sum   'Mo1 I5 Br6'
_cell_volume   570.77665739
_cell_formula_units_Z   1
loop_
 _symmetry_equiv_pos_site_id
 _symmetry_equiv_pos_as_xyz
  1  'x, y, z'
loop_
 _atom_site_type_symbol
 _atom_site_label
 _atom_site_symmetry_multiplicity
 _atom_site_fract_x
 _atom_site_fract_y
 _atom_site_fract_z
 _atom_site_occupancy
  Mo  Mo0  1  0.000000  0.500000  0.500000  1
  I  I1  1  0.000000  0.000000  0.000000  1
  I  I2  1  0.557651  0.817742  0.236520  1
  I  I3  1  0.355649  0.088711  0.246178  1
  I  I4  1  0.644352  0.911290  0.753823  1
  I  I5  1  0.442349  0.182258  0.763479  1
  Br  Br6  1  0.760070  0.553401  0.221207  1
  Br  Br7  1  0.232610  0.477552  0.380823  1
  Br  Br8  1  0.925152  0.214659  0.442708  1
  Br  Br9  1  0.074848  0.785340  0.557293  1
  Br  Br10  1  0.767389  0.522447  0.619176  1
  Br  Br11  1  0.239930  0.446600  0.778792  1
