# generated using pymatgen
data_Pr8Sm12Si15Au
_symmetry_space_group_name_H-M   'P 1'
_cell_length_a   7.66124766
_cell_length_b   7.93957896
_cell_length_c   15.20407300
_cell_angle_alpha   90.00000000
_cell_angle_beta   90.00000000
_cell_angle_gamma   90.48664138
_symmetry_Int_Tables_number   1
_chemical_formula_structural   Pr8Sm12Si15Au
_chemical_formula_sum   'Pr8 Sm12 Si15 Au1'
_cell_volume   924.78601732
_cell_formula_units_Z   1
loop_
 _symmetry_equiv_pos_site_id
 _symmetry_equiv_pos_as_xyz
  1  'x, y, z'
loop_
 _atom_site_type_symbol
 _atom_site_label
 _atom_site_symmetry_multiplicity
 _atom_site_fract_x
 _atom_site_fract_y
 _atom_site_fract_z
 _atom_site_occupancy
  Pr  Pr0  1  0.031623  0.185738  0.400281  1
  Pr  Pr1  1  0.531931  0.316417  0.399434  1
  Pr  Pr2  1  0.476773  0.671455  0.908026  1
  Pr  Pr3  1  0.476773  0.671455  0.591974  1
  Pr  Pr4  1  0.968397  0.820095  0.595628  1
  Pr  Pr5  1  0.968397  0.820095  0.904372  1
  Pr  Pr6  1  0.531931  0.316417  0.100566  1
  Pr  Pr7  1  0.031623  0.185738  0.099719  1
  Sm  Sm8  1  0.313037  0.183948  0.619557  1
  Sm  Sm9  1  0.686287  0.822016  0.376799  1
  Sm  Sm10  1  0.638941  0.976886  0.750000  1
  Sm  Sm11  1  0.184492  0.679637  0.377070  1
  Sm  Sm12  1  0.813831  0.319226  0.879139  1
  Sm  Sm13  1  0.813831  0.319226  0.620861  1
  Sm  Sm14  1  0.855131  0.488419  0.250000  1
  Sm  Sm15  1  0.355059  0.014447  0.250000  1
  Sm  Sm16  1  0.313037  0.183948  0.880443  1
  Sm  Sm17  1  0.184492  0.679637  0.122930  1
  Sm  Sm18  1  0.686287  0.822016  0.123201  1
  Sm  Sm19  1  0.151039  0.515094  0.750000  1
  Si  Si20  1  0.478318  0.608280  0.250000  1
  Si  Si21  1  0.016427  0.113469  0.750000  1
  Si  Si22  1  0.524623  0.389838  0.750000  1
  Si  Si23  1  0.136802  0.475005  0.540276  1
  Si  Si24  1  0.979423  0.894204  0.250000  1
  Si  Si25  1  0.742674  0.120440  0.250000  1
  Si  Si26  1  0.858616  0.530087  0.040501  1
  Si  Si27  1  0.361130  0.970639  0.040437  1
  Si  Si28  1  0.136802  0.475005  0.959724  1
  Si  Si29  1  0.637306  0.027736  0.539674  1
  Si  Si30  1  0.361130  0.970639  0.459563  1
  Si  Si31  1  0.858616  0.530087  0.459499  1
  Si  Si32  1  0.757508  0.615763  0.750000  1
  Si  Si33  1  0.242436  0.381983  0.250000  1
  Si  Si34  1  0.637306  0.027736  0.960326  1
  Au  Au35  1  0.257969  0.877183  0.750000  1
