# generated using pymatgen
data_Li4As6Ir6Pd
_symmetry_space_group_name_H-M   'P 1'
_cell_length_a   7.00433448
_cell_length_b   7.00433480
_cell_length_c   7.00433489
_cell_angle_alpha   109.75570391
_cell_angle_beta   108.90374174
_cell_angle_gamma   109.75570159
_symmetry_Int_Tables_number   1
_chemical_formula_structural   Li4As6Ir6Pd
_chemical_formula_sum   'Li4 As6 Ir6 Pd1'
_cell_volume   264.51291030
_cell_formula_units_Z   1
loop_
 _symmetry_equiv_pos_site_id
 _symmetry_equiv_pos_as_xyz
  1  'x, y, z'
loop_
 _atom_site_type_symbol
 _atom_site_label
 _atom_site_symmetry_multiplicity
 _atom_site_fract_x
 _atom_site_fract_y
 _atom_site_fract_z
 _atom_site_occupancy
  Li  Li0  1  0.999209  0.998417  0.499209  1
  Li  Li1  1  0.500791  0.001583  0.000791  1
  Li  Li2  1  0.999209  0.500000  0.000791  1
  Li  Li3  1  0.500791  0.500000  0.499209  1
  As  As4  1  0.694123  0.689360  0.004763  1
  As  As5  1  0.315403  0.310640  0.004763  1
  As  As6  1  0.995237  0.689360  0.684597  1
  As  As7  1  0.995237  0.310640  0.305877  1
  As  As8  1  0.687574  0.000000  0.687574  1
  As  As9  1  0.312426  0.000000  0.312426  1
  Ir  Ir10  1  0.000000  0.000000  0.000000  1
  Ir  Ir11  1  0.748153  0.251008  0.497145  1
  Ir  Ir12  1  0.502855  0.251008  0.753864  1
  Ir  Ir13  1  0.502855  0.748992  0.251847  1
  Ir  Ir14  1  0.750000  0.500000  0.250000  1
  Ir  Ir15  1  0.246136  0.748992  0.497145  1
  Pd  Pd16  1  0.250000  0.500000  0.750000  1
