# generated using pymatgen
data_SnAsO4F
_symmetry_space_group_name_H-M   'P 1'
_cell_length_a   5.49605496
_cell_length_b   5.53457743
_cell_length_c   7.71198520
_cell_angle_alpha   108.84041949
_cell_angle_beta   106.34562255
_cell_angle_gamma   96.36198052
_symmetry_Int_Tables_number   1
_chemical_formula_structural   SnAsO4F
_chemical_formula_sum   'Sn2 As2 O8 F2'
_cell_volume   207.72310119
_cell_formula_units_Z   2
loop_
 _symmetry_equiv_pos_site_id
 _symmetry_equiv_pos_as_xyz
  1  'x, y, z'
loop_
 _atom_site_type_symbol
 _atom_site_label
 _atom_site_symmetry_multiplicity
 _atom_site_fract_x
 _atom_site_fract_y
 _atom_site_fract_z
 _atom_site_occupancy
  Sn  Sn0  1  0.000000  0.000000  0.000000  1
  Sn  Sn1  1  0.500000  0.500000  0.500000  1
  As  As2  1  0.439868  0.117416  0.763124  1
  As  As3  1  0.560132  0.882584  0.236876  1
  O  O4  1  0.226344  0.796752  0.130384  1
  O  O5  1  0.695697  0.836726  0.057408  1
  O  O6  1  0.672157  0.194582  0.410367  1
  O  O7  1  0.656689  0.665252  0.343812  1
  O  O8  1  0.304303  0.163274  0.942592  1
  O  O9  1  0.327843  0.805418  0.589633  1
  O  O10  1  0.343311  0.334748  0.656188  1
  O  O11  1  0.773656  0.203248  0.869616  1
  F  F12  1  0.146787  0.321488  0.266004  1
  F  F13  1  0.853213  0.678512  0.733996  1
