# generated using pymatgen
data_Pa2TcRh2
_symmetry_space_group_name_H-M   'P 1'
_cell_length_a   5.87521200
_cell_length_b   7.71045700
_cell_length_c   8.76459700
_cell_angle_alpha   90.00000000
_cell_angle_beta   90.00000000
_cell_angle_gamma   90.00000000
_symmetry_Int_Tables_number   1
_chemical_formula_structural   Pa2TcRh2
_chemical_formula_sum   'Pa8 Tc4 Rh8'
_cell_volume   397.04123547
_cell_formula_units_Z   4
loop_
 _symmetry_equiv_pos_site_id
 _symmetry_equiv_pos_as_xyz
  1  'x, y, z'
loop_
 _atom_site_type_symbol
 _atom_site_label
 _atom_site_symmetry_multiplicity
 _atom_site_fract_x
 _atom_site_fract_y
 _atom_site_fract_z
 _atom_site_occupancy
  Pa  Pa0  1  0.741595  0.905140  0.850765  1
  Pa  Pa1  1  0.758405  0.405140  0.649235  1
  Pa  Pa2  1  0.241595  0.094860  0.149235  1
  Pa  Pa3  1  0.258405  0.594860  0.350765  1
  Pa  Pa4  1  0.735005  0.933942  0.410150  1
  Pa  Pa5  1  0.764995  0.433942  0.089850  1
  Pa  Pa6  1  0.235005  0.066058  0.589850  1
  Pa  Pa7  1  0.264995  0.566058  0.910150  1
  Tc  Tc8  1  0.005350  0.243872  0.395679  1
  Tc  Tc9  1  0.494650  0.743872  0.104321  1
  Tc  Tc10  1  0.505350  0.756128  0.604321  1
  Tc  Tc11  1  0.994650  0.256128  0.895679  1
  Rh  Rh12  1  0.758029  0.576923  0.362034  1
  Rh  Rh13  1  0.741971  0.076923  0.137966  1
  Rh  Rh14  1  0.258029  0.423077  0.637966  1
  Rh  Rh15  1  0.241971  0.923077  0.862034  1
  Rh  Rh16  1  0.005670  0.741713  0.616587  1
  Rh  Rh17  1  0.494330  0.241713  0.883413  1
  Rh  Rh18  1  0.505670  0.258287  0.383413  1
  Rh  Rh19  1  0.994330  0.758287  0.116587  1
