# generated using pymatgen
data_YbPa2(SnIr)3
_symmetry_space_group_name_H-M   'P 1'
_cell_length_a   7.39367300
_cell_length_b   7.49187348
_cell_length_c   4.01788700
_cell_angle_alpha   90.00000000
_cell_angle_beta   90.00000000
_cell_angle_gamma   119.56732992
_symmetry_Int_Tables_number   1
_chemical_formula_structural   YbPa2(SnIr)3
_chemical_formula_sum   'Yb1 Pa2 Sn3 Ir3'
_cell_volume   193.57801344
_cell_formula_units_Z   1
loop_
 _symmetry_equiv_pos_site_id
 _symmetry_equiv_pos_as_xyz
  1  'x, y, z'
loop_
 _atom_site_type_symbol
 _atom_site_label
 _atom_site_symmetry_multiplicity
 _atom_site_fract_x
 _atom_site_fract_y
 _atom_site_fract_z
 _atom_site_occupancy
  Yb  Yb0  1  0.407858  0.000000  0.500000  1
  Pa  Pa1  1  0.001921  0.413412  0.500000  1
  Pa  Pa2  1  0.588509  0.586588  0.500000  1
  Sn  Sn3  1  0.015793  0.759712  0.000000  1
  Sn  Sn4  1  0.256081  0.240288  0.000000  1
  Sn  Sn5  1  0.729314  0.000000  0.000000  1
  Ir  Ir6  1  0.329429  0.638316  0.000000  1
  Ir  Ir7  1  0.691114  0.361684  0.000000  1
  Ir  Ir8  1  0.979982  0.000000  0.500000  1
