# generated using pymatgen
data_LaHo5Rh18
_symmetry_space_group_name_H-M   'P 1'
_cell_length_a   5.28679600
_cell_length_b   5.28679495
_cell_length_c   17.54909700
_cell_angle_alpha   90.00000000
_cell_angle_beta   90.00000000
_cell_angle_gamma   119.99999409
_symmetry_Int_Tables_number   1
_chemical_formula_structural   LaHo5Rh18
_chemical_formula_sum   'La1 Ho5 Rh18'
_cell_volume   424.78625035
_cell_formula_units_Z   1
loop_
 _symmetry_equiv_pos_site_id
 _symmetry_equiv_pos_as_xyz
  1  'x, y, z'
loop_
 _atom_site_type_symbol
 _atom_site_label
 _atom_site_symmetry_multiplicity
 _atom_site_fract_x
 _atom_site_fract_y
 _atom_site_fract_z
 _atom_site_occupancy
  La  La0  1  0.666667  0.333333  0.250000  1
  Ho  Ho1  1  0.333333  0.666667  0.542463  1
  Ho  Ho2  1  0.666667  0.333333  0.040664  1
  Ho  Ho3  1  0.666667  0.333333  0.459336  1
  Ho  Ho4  1  0.333333  0.666667  0.957537  1
  Ho  Ho5  1  0.333333  0.666667  0.750000  1
  Rh  Rh6  1  0.167355  0.334711  0.123902  1
  Rh  Rh7  1  0.832595  0.665190  0.625892  1
  Rh  Rh8  1  0.665289  0.832645  0.123902  1
  Rh  Rh9  1  0.167355  0.832645  0.123902  1
  Rh  Rh10  1  0.832595  0.167405  0.625892  1
  Rh  Rh11  1  0.334810  0.167405  0.625892  1
  Rh  Rh12  1  0.832595  0.665190  0.874108  1
  Rh  Rh13  1  0.832595  0.167405  0.874108  1
  Rh  Rh14  1  0.334810  0.167405  0.874108  1
  Rh  Rh15  1  0.665289  0.832645  0.376098  1
  Rh  Rh16  1  0.167355  0.832645  0.376098  1
  Rh  Rh17  1  0.167355  0.334711  0.376098  1
  Rh  Rh18  1  0.000000  0.000000  0.250000  1
  Rh  Rh19  1  0.000000  0.000000  0.750000  1
  Rh  Rh20  1  0.333333  0.666667  0.250000  1
  Rh  Rh21  1  0.666667  0.333333  0.750000  1
  Rh  Rh22  1  0.000000  0.000000  0.999188  1
  Rh  Rh23  1  0.000000  0.000000  0.500812  1
