# generated using pymatgen
data_Na4Pd3Pt5Se12
_symmetry_space_group_name_H-M   'P 1'
_cell_length_a   7.48937651
_cell_length_b   7.48937594
_cell_length_c   11.66621400
_cell_angle_alpha   89.99753475
_cell_angle_beta   90.00246413
_cell_angle_gamma   119.95802888
_symmetry_Int_Tables_number   1
_chemical_formula_structural   Na4Pd3Pt5Se12
_chemical_formula_sum   'Na4 Pd3 Pt5 Se12'
_cell_volume   566.93776352
_cell_formula_units_Z   1
loop_
 _symmetry_equiv_pos_site_id
 _symmetry_equiv_pos_as_xyz
  1  'x, y, z'
loop_
 _atom_site_type_symbol
 _atom_site_label
 _atom_site_symmetry_multiplicity
 _atom_site_fract_x
 _atom_site_fract_y
 _atom_site_fract_z
 _atom_site_occupancy
  Na  Na0  1  0.331807  0.668193  0.312962  1
  Na  Na1  1  0.665016  0.334984  0.813369  1
  Na  Na2  1  0.000588  0.999412  0.692232  1
  Na  Na3  1  0.000606  0.999394  0.192016  1
  Pd  Pd4  1  0.834060  0.165940  0.006148  1
  Pd  Pd5  1  0.668305  0.833993  0.506209  1
  Pd  Pd6  1  0.166007  0.331695  0.506209  1
  Pt  Pt7  1  0.834231  0.668159  0.006295  1
  Pt  Pt8  1  0.331841  0.165769  0.006295  1
  Pt  Pt9  1  0.165833  0.834167  0.506249  1
  Pt  Pt10  1  0.666862  0.333138  0.499193  1
  Pt  Pt11  1  0.333481  0.666519  0.999185  1
  Se  Se12  1  0.498910  0.501090  0.611258  1
  Se  Se13  1  0.997395  0.499539  0.110860  1
  Se  Se14  1  0.500461  0.002605  0.110860  1
  Se  Se15  1  0.497650  0.997193  0.610896  1
  Se  Se16  1  0.160079  0.839921  0.897034  1
  Se  Se17  1  0.320517  0.159214  0.396732  1
  Se  Se18  1  0.840786  0.679483  0.396732  1
  Se  Se19  1  0.161093  0.320022  0.896609  1
  Se  Se20  1  0.679978  0.838907  0.896609  1
  Se  Se21  1  0.840024  0.159976  0.396188  1
  Se  Se22  1  0.501664  0.498336  0.110562  1
  Se  Se23  1  0.002807  0.502350  0.610896  1
