# generated using pymatgen
data_NiIrBr6
_symmetry_space_group_name_H-M   'P 1'
_cell_length_a   6.40036837
_cell_length_b   6.40036762
_cell_length_c   6.90364557
_cell_angle_alpha   81.42357346
_cell_angle_beta   81.42357681
_cell_angle_gamma   120.01112495
_symmetry_Int_Tables_number   1
_chemical_formula_structural   NiIrBr6
_chemical_formula_sum   'Ni1 Ir1 Br6'
_cell_volume   233.73974275
_cell_formula_units_Z   1
loop_
 _symmetry_equiv_pos_site_id
 _symmetry_equiv_pos_as_xyz
  1  'x, y, z'
loop_
 _atom_site_type_symbol
 _atom_site_label
 _atom_site_symmetry_multiplicity
 _atom_site_fract_x
 _atom_site_fract_y
 _atom_site_fract_z
 _atom_site_occupancy
  Ni  Ni0  1  0.166757  0.833243  0.000000  1
  Ir  Ir1  1  0.833264  0.166736  0.000000  1
  Br  Br2  1  0.921460  0.567697  0.788657  1
  Br  Br3  1  0.432303  0.078540  0.211343  1
  Br  Br4  1  0.785269  0.785711  0.211733  1
  Br  Br5  1  0.214289  0.214731  0.788267  1
  Br  Br6  1  0.568610  0.921953  0.788288  1
  Br  Br7  1  0.078047  0.431390  0.211712  1
