# generated using pymatgen
data_HoThScAl3
_symmetry_space_group_name_H-M   'P 1'
_cell_length_a   5.79040200
_cell_length_b   5.79040317
_cell_length_c   9.29867100
_cell_angle_alpha   90.00000000
_cell_angle_beta   90.00000000
_cell_angle_gamma   120.00000476
_symmetry_Int_Tables_number   1
_chemical_formula_structural   HoThScAl3
_chemical_formula_sum   'Ho2 Th2 Sc2 Al6'
_cell_volume   270.00326256
_cell_formula_units_Z   2
loop_
 _symmetry_equiv_pos_site_id
 _symmetry_equiv_pos_as_xyz
  1  'x, y, z'
loop_
 _atom_site_type_symbol
 _atom_site_label
 _atom_site_symmetry_multiplicity
 _atom_site_fract_x
 _atom_site_fract_y
 _atom_site_fract_z
 _atom_site_occupancy
  Ho  Ho0  1  0.666667  0.333333  0.440587  1
  Ho  Ho1  1  0.333333  0.666667  0.559413  1
  Th  Th2  1  0.333333  0.666667  0.947293  1
  Th  Th3  1  0.666667  0.333333  0.052707  1
  Sc  Sc4  1  0.000000  0.000000  0.500000  1
  Sc  Sc5  1  0.000000  0.000000  0.000000  1
  Al  Al6  1  0.653619  0.826809  0.254824  1
  Al  Al7  1  0.173191  0.826809  0.254824  1
  Al  Al8  1  0.173191  0.346381  0.254824  1
  Al  Al9  1  0.346381  0.173191  0.745176  1
  Al  Al10  1  0.826809  0.173191  0.745176  1
  Al  Al11  1  0.826809  0.653619  0.745176  1
