# generated using pymatgen
data_Dy2Y4B14MoOs
_symmetry_space_group_name_H-M   'P 1'
_cell_length_a   8.12878624
_cell_length_b   8.12878511
_cell_length_c   9.40945027
_cell_angle_alpha   90.02669739
_cell_angle_beta   89.97330285
_cell_angle_gamma   155.04499340
_symmetry_Int_Tables_number   1
_chemical_formula_structural   Dy2Y4B14MoOs
_chemical_formula_sum   'Dy2 Y4 B14 Mo1 Os1'
_cell_volume   262.32016985
_cell_formula_units_Z   1
loop_
 _symmetry_equiv_pos_site_id
 _symmetry_equiv_pos_as_xyz
  1  'x, y, z'
loop_
 _atom_site_type_symbol
 _atom_site_label
 _atom_site_symmetry_multiplicity
 _atom_site_fract_x
 _atom_site_fract_y
 _atom_site_fract_z
 _atom_site_occupancy
  Dy  Dy0  1  0.393362  0.606638  0.559048  1
  Dy  Dy1  1  0.605709  0.394291  0.438109  1
  Y  Y2  1  0.256397  0.743603  0.250054  1
  Y  Y3  1  0.744644  0.255356  0.749961  1
  Y  Y4  1  0.605886  0.394114  0.062241  1
  Y  Y5  1  0.393224  0.606776  0.940465  1
  B  B6  1  0.978721  0.021279  0.096672  1
  B  B7  1  0.019738  0.980262  0.908463  1
  B  B8  1  0.019759  0.980241  0.591458  1
  B  B9  1  0.978735  0.021265  0.403414  1
  B  B10  1  0.773481  0.226519  0.034966  1
  B  B11  1  0.227983  0.772017  0.967927  1
  B  B12  1  0.227956  0.772044  0.532001  1
  B  B13  1  0.773493  0.226507  0.465097  1
  B  B14  1  0.868376  0.131624  0.151110  1
  B  B15  1  0.134480  0.865520  0.852557  1
  B  B16  1  0.134453  0.865547  0.647227  1
  B  B17  1  0.868392  0.131608  0.349091  1
  B  B18  1  0.041464  0.958536  0.250166  1
  B  B19  1  0.955294  0.044706  0.749832  1
  Mo  Mo20  1  0.552755  0.447245  0.749840  1
  Os  Os21  1  0.445699  0.554301  0.250301  1
