# generated using pymatgen
data_Ho3Er3Co16(MoP6)2
_symmetry_space_group_name_H-M   'P 1'
_cell_length_a   3.70685600
_cell_length_b   10.52650501
_cell_length_c   12.20486701
_cell_angle_alpha   90.00462841
_cell_angle_beta   90.00000000
_cell_angle_gamma   90.00000000
_symmetry_Int_Tables_number   1
_chemical_formula_structural   Ho3Er3Co16(MoP6)2
_chemical_formula_sum   'Ho3 Er3 Co16 Mo2 P12'
_cell_volume   476.23681699
_cell_formula_units_Z   1
loop_
 _symmetry_equiv_pos_site_id
 _symmetry_equiv_pos_as_xyz
  1  'x, y, z'
loop_
 _atom_site_type_symbol
 _atom_site_label
 _atom_site_symmetry_multiplicity
 _atom_site_fract_x
 _atom_site_fract_y
 _atom_site_fract_z
 _atom_site_occupancy
  Ho  Ho0  1  0.000000  0.500043  0.524588  1
  Ho  Ho1  1  0.500000  0.999954  0.475506  1
  Ho  Ho2  1  0.000000  0.319242  0.794952  1
  Er  Er3  1  0.500000  0.819134  0.205046  1
  Er  Er4  1  0.500000  0.180966  0.205014  1
  Er  Er5  1  0.000000  0.680817  0.794910  1
  Co  Co6  1  0.000000  0.500010  0.986324  1
  Co  Co7  1  0.500000  0.000040  0.013784  1
  Co  Co8  1  0.500000  0.295893  0.431379  1
  Co  Co9  1  0.500000  0.704122  0.431418  1
  Co  Co10  1  0.000000  0.204076  0.568470  1
  Co  Co11  1  0.000000  0.795889  0.568588  1
  Co  Co12  1  0.500000  0.877704  0.706700  1
  Co  Co13  1  0.500000  0.122086  0.706609  1
  Co  Co14  1  0.000000  0.622232  0.293296  1
  Co  Co15  1  0.000000  0.377754  0.293268  1
  Co  Co16  1  0.500000  0.332457  0.990211  1
  Co  Co17  1  0.500000  0.667541  0.990039  1
  Co  Co18  1  0.000000  0.167554  0.010027  1
  Co  Co19  1  0.000000  0.832412  0.009970  1
  Co  Co20  1  0.500000  0.500227  0.701345  1
  Co  Co21  1  0.000000  0.999990  0.298568  1
  Mo  Mo22  1  0.500000  0.499993  0.156481  1
  Mo  Mo23  1  0.000000  0.999898  0.843527  1
  P  P24  1  0.500000  0.311772  0.616049  1
  P  P25  1  0.500000  0.688200  0.616290  1
  P  P26  1  0.000000  0.188245  0.383736  1
  P  P27  1  0.000000  0.811757  0.383757  1
  P  P28  1  0.500000  0.500225  0.880387  1
  P  P29  1  0.000000  0.999968  0.119693  1
  P  P30  1  0.500000  0.844196  0.892571  1
  P  P31  1  0.500000  0.155557  0.892687  1
  P  P32  1  0.000000  0.655739  0.107438  1
  P  P33  1  0.000000  0.344308  0.107462  1
  P  P34  1  0.500000  0.499974  0.349862  1
  P  P35  1  0.000000  0.000027  0.650044  1
