# generated using pymatgen
data_Sc3Ti5Al15Pt6Rh
_symmetry_space_group_name_H-M   'P 1'
_cell_length_a   8.78377492
_cell_length_b   8.78345244
_cell_length_c   8.78377493
_cell_angle_alpha   120.03036888
_cell_angle_beta   119.86916652
_cell_angle_gamma   90.08814779
_symmetry_Int_Tables_number   1
_chemical_formula_structural   Sc3Ti5Al15Pt6Rh
_chemical_formula_sum   'Sc3 Ti5 Al15 Pt6 Rh1'
_cell_volume   479.55300431
_cell_formula_units_Z   1
loop_
 _symmetry_equiv_pos_site_id
 _symmetry_equiv_pos_as_xyz
  1  'x, y, z'
loop_
 _atom_site_type_symbol
 _atom_site_label
 _atom_site_symmetry_multiplicity
 _atom_site_fract_x
 _atom_site_fract_y
 _atom_site_fract_z
 _atom_site_occupancy
  Sc  Sc0  1  0.793326  0.290634  0.078303  1
  Sc  Sc1  1  0.212331  0.290634  0.497308  1
  Sc  Sc2  1  0.209181  0.707837  0.498656  1
  Ti  Ti3  1  0.215061  0.712644  0.924547  1
  Ti  Ti4  1  0.788097  0.712644  0.497583  1
  Ti  Ti5  1  0.786457  0.286986  0.500530  1
  Ti  Ti6  1  0.379698  0.122602  0.742904  1
  Ti  Ti7  1  0.383749  0.639232  0.255482  1
  Al  Al8  1  0.994247  0.502014  0.507767  1
  Al  Al9  1  0.162237  0.340370  0.178132  1
  Al  Al10  1  0.153515  0.968498  0.814983  1
  Al  Al11  1  0.151784  0.346554  0.813815  1
  Al  Al12  1  0.532738  0.346554  0.194771  1
  Al  Al13  1  0.846502  0.653204  0.806702  1
  Al  Al14  1  0.839268  0.027672  0.188404  1
  Al  Al15  1  0.838440  0.660934  0.185801  1
  Al  Al16  1  0.475133  0.660934  0.822495  1
  Al  Al17  1  0.384491  0.116101  0.258751  1
  Al  Al18  1  0.857351  0.116101  0.731609  1
  Al  Al19  1  0.618855  0.879986  0.261133  1
  Al  Al20  1  0.622297  0.361720  0.739423  1
  Al  Al21  1  0.622721  0.876154  0.738473  1
  Al  Al22  1  0.137679  0.876154  0.253432  1
  Pt  Pt23  1  0.002351  0.001823  0.503710  1
  Pt  Pt24  1  0.498113  0.001823  0.999472  1
  Pt  Pt25  1  0.498378  0.496558  0.998179  1
  Pt  Pt26  1  0.501203  0.502769  0.504725  1
  Pt  Pt27  1  0.998044  0.502769  0.001567  1
  Pt  Pt28  1  0.999036  0.000298  0.001262  1
  Rh  Rh29  1  0.497715  0.997796  0.500081  1
