# generated using pymatgen
data_Sc4Tc3B8Ru7
_symmetry_space_group_name_H-M   'P 1'
_cell_length_a   3.03367100
_cell_length_b   8.54673751
_cell_length_c   10.04134490
_cell_angle_alpha   90.18195721
_cell_angle_beta   90.00000000
_cell_angle_gamma   90.00000000
_symmetry_Int_Tables_number   1
_chemical_formula_structural   Sc4Tc3B8Ru7
_chemical_formula_sum   'Sc4 Tc3 B8 Ru7'
_cell_volume   260.35057458
_cell_formula_units_Z   1
loop_
 _symmetry_equiv_pos_site_id
 _symmetry_equiv_pos_as_xyz
  1  'x, y, z'
loop_
 _atom_site_type_symbol
 _atom_site_label
 _atom_site_symmetry_multiplicity
 _atom_site_fract_x
 _atom_site_fract_y
 _atom_site_fract_z
 _atom_site_occupancy
  Sc  Sc0  1  0.500000  0.841094  0.180931  1
  Sc  Sc1  1  0.500000  0.158332  0.820257  1
  Sc  Sc2  1  0.500000  0.658460  0.681968  1
  Sc  Sc3  1  0.500000  0.342011  0.316483  1
  Tc  Tc4  1  0.000000  0.659929  0.952875  1
  Tc  Tc5  1  0.000000  0.339755  0.046763  1
  Tc  Tc6  1  0.000000  0.842032  0.453852  1
  B  B7  1  0.500000  0.962738  0.588291  1
  B  B8  1  0.500000  0.032304  0.410603  1
  B  B9  1  0.500000  0.849551  0.901292  1
  B  B10  1  0.500000  0.151727  0.099261  1
  B  B11  1  0.500000  0.650491  0.399440  1
  B  B12  1  0.500000  0.351211  0.600501  1
  B  B13  1  0.500000  0.465060  0.912653  1
  B  B14  1  0.500000  0.535187  0.087116  1
  Ru  Ru15  1  0.000000  0.161016  0.547532  1
  Ru  Ru16  1  0.000000  0.000101  0.000471  1
  Ru  Ru17  1  0.000000  0.403558  0.760088  1
  Ru  Ru18  1  0.000000  0.595674  0.239338  1
  Ru  Ru19  1  0.000000  0.499440  0.499902  1
  Ru  Ru20  1  0.000000  0.905170  0.738899  1
  Ru  Ru21  1  0.000000  0.095158  0.261486  1
