# generated using pymatgen
data_Pr3ThTe6
_symmetry_space_group_name_H-M   'P 1'
_cell_length_a   4.45634300
_cell_length_b   12.02307514
_cell_length_c   12.37173421
_cell_angle_alpha   89.58988134
_cell_angle_beta   90.00000000
_cell_angle_gamma   90.00000000
_symmetry_Int_Tables_number   1
_chemical_formula_structural   Pr3ThTe6
_chemical_formula_sum   'Pr6 Th2 Te12'
_cell_volume   662.84750729
_cell_formula_units_Z   2
loop_
 _symmetry_equiv_pos_site_id
 _symmetry_equiv_pos_as_xyz
  1  'x, y, z'
loop_
 _atom_site_type_symbol
 _atom_site_label
 _atom_site_symmetry_multiplicity
 _atom_site_fract_x
 _atom_site_fract_y
 _atom_site_fract_z
 _atom_site_occupancy
  Pr  Pr0  1  0.250000  0.000876  0.304402  1
  Pr  Pr1  1  0.750000  0.999124  0.695598  1
  Pr  Pr2  1  0.750000  0.499196  0.195788  1
  Pr  Pr3  1  0.250000  0.500803  0.804212  1
  Pr  Pr4  1  0.250000  0.688801  0.483174  1
  Pr  Pr5  1  0.750000  0.311199  0.516826  1
  Th  Th6  1  0.750000  0.188223  0.016134  1
  Th  Th7  1  0.250000  0.811777  0.983866  1
  Te  Te8  1  0.250000  0.056501  0.881732  1
  Te  Te9  1  0.750000  0.943499  0.118268  1
  Te  Te10  1  0.750000  0.553648  0.620158  1
  Te  Te11  1  0.250000  0.446352  0.379842  1
  Te  Te12  1  0.250000  0.123479  0.543835  1
  Te  Te13  1  0.750000  0.876521  0.456165  1
  Te  Te14  1  0.750000  0.625460  0.955560  1
  Te  Te15  1  0.250000  0.374540  0.044440  1
  Te  Te16  1  0.250000  0.703105  0.221947  1
  Te  Te17  1  0.750000  0.296895  0.778053  1
  Te  Te18  1  0.750000  0.203147  0.270267  1
  Te  Te19  1  0.250000  0.796853  0.729733  1
