# generated using pymatgen
data_Y12InFe2AgOs
_symmetry_space_group_name_H-M   'P 1'
_cell_length_a   8.39722519
_cell_length_b   8.39720521
_cell_length_c   8.39722299
_cell_angle_alpha   107.06544287
_cell_angle_beta   110.37567114
_cell_angle_gamma   110.99973813
_symmetry_Int_Tables_number   1
_chemical_formula_structural   Y12InFe2AgOs
_chemical_formula_sum   'Y12 In1 Fe2 Ag1 Os1'
_cell_volume   455.19633730
_cell_formula_units_Z   1
loop_
 _symmetry_equiv_pos_site_id
 _symmetry_equiv_pos_as_xyz
  1  'x, y, z'
loop_
 _atom_site_type_symbol
 _atom_site_label
 _atom_site_symmetry_multiplicity
 _atom_site_fract_x
 _atom_site_fract_y
 _atom_site_fract_z
 _atom_site_occupancy
  Y  Y0  1  0.308035  0.309951  0.617986  1
  Y  Y1  1  0.691965  0.690049  0.382014  1
  Y  Y2  1  0.308035  0.690049  0.998082  1
  Y  Y3  1  0.691965  0.309951  0.001918  1
  Y  Y4  1  0.441514  0.192434  0.249079  1
  Y  Y5  1  0.558486  0.807566  0.750921  1
  Y  Y6  1  0.943353  0.192434  0.750920  1
  Y  Y7  1  0.190551  0.958573  0.768023  1
  Y  Y8  1  0.056647  0.807566  0.249080  1
  Y  Y9  1  0.809449  0.041427  0.231977  1
  Y  Y10  1  0.190552  0.422530  0.231979  1
  Y  Y11  1  0.809448  0.577470  0.768021  1
  In  In12  1  0.000000  0.500000  0.500000  1
  Fe  Fe13  1  0.386626  0.386623  0.999997  1
  Fe  Fe14  1  0.613374  0.613377  0.000003  1
  Ag  Ag15  1  0.500000  0.000000  0.500000  1
  Os  Os16  1  0.000000  0.000000  0.000000  1
