# generated using pymatgen
data_CeHo3(Zn14Ni3)2
_symmetry_space_group_name_H-M   'P 1'
_cell_length_a   8.79274701
_cell_length_b   8.79274808
_cell_length_c   8.70852100
_cell_angle_alpha   90.00000000
_cell_angle_beta   90.00000000
_cell_angle_gamma   120.00199009
_symmetry_Int_Tables_number   1
_chemical_formula_structural   CeHo3(Zn14Ni3)2
_chemical_formula_sum   'Ce1 Ho3 Zn28 Ni6'
_cell_volume   583.06306798
_cell_formula_units_Z   1
loop_
 _symmetry_equiv_pos_site_id
 _symmetry_equiv_pos_as_xyz
  1  'x, y, z'
loop_
 _atom_site_type_symbol
 _atom_site_label
 _atom_site_symmetry_multiplicity
 _atom_site_fract_x
 _atom_site_fract_y
 _atom_site_fract_z
 _atom_site_occupancy
  Ce  Ce0  1  0.999995  0.000005  0.750000  1
  Ho  Ho1  1  0.999995  0.000005  0.250000  1
  Ho  Ho2  1  0.666658  0.333342  0.250000  1
  Ho  Ho3  1  0.333344  0.666656  0.750000  1
  Zn  Zn4  1  0.666680  0.333320  0.593630  1
  Zn  Zn5  1  0.333322  0.666678  0.406895  1
  Zn  Zn6  1  0.333322  0.666678  0.093105  1
  Zn  Zn7  1  0.666680  0.333320  0.906370  1
  Zn  Zn8  1  0.663348  0.034688  0.750000  1
  Zn  Zn9  1  0.371352  0.336626  0.750000  1
  Zn  Zn10  1  0.965320  0.628675  0.750000  1
  Zn  Zn11  1  0.371325  0.034680  0.750000  1
  Zn  Zn12  1  0.965312  0.336652  0.750000  1
  Zn  Zn13  1  0.663374  0.628648  0.750000  1
  Zn  Zn14  1  0.337133  0.966379  0.250000  1
  Zn  Zn15  1  0.629239  0.662892  0.250000  1
  Zn  Zn16  1  0.033609  0.370733  0.250000  1
  Zn  Zn17  1  0.629267  0.966391  0.250000  1
  Zn  Zn18  1  0.033621  0.662867  0.250000  1
  Zn  Zn19  1  0.337108  0.370761  0.250000  1
  Zn  Zn20  1  0.832353  0.664711  0.481044  1
  Zn  Zn21  1  0.832367  0.167633  0.481058  1
  Zn  Zn22  1  0.335289  0.167647  0.481044  1
  Zn  Zn23  1  0.167953  0.335899  0.518250  1
  Zn  Zn24  1  0.167937  0.832063  0.518241  1
  Zn  Zn25  1  0.664101  0.832047  0.518250  1
  Zn  Zn26  1  0.167953  0.335899  0.981750  1
  Zn  Zn27  1  0.167937  0.832063  0.981759  1
  Zn  Zn28  1  0.664101  0.832047  0.981750  1
  Zn  Zn29  1  0.832353  0.664711  0.018956  1
  Zn  Zn30  1  0.832367  0.167633  0.018942  1
  Zn  Zn31  1  0.335289  0.167647  0.018956  1
  Ni  Ni32  1  0.499988  0.999978  0.499853  1
  Ni  Ni33  1  0.499989  0.500011  0.499866  1
  Ni  Ni34  1  0.000022  0.500012  0.499853  1
  Ni  Ni35  1  0.499988  0.999978  0.000147  1
  Ni  Ni36  1  0.499989  0.500011  0.000134  1
  Ni  Ni37  1  0.000022  0.500012  0.000147  1
