# generated using pymatgen
data_NdDy9HgBi5
_symmetry_space_group_name_H-M   'P 1'
_cell_length_a   6.50950600
_cell_length_b   9.18548550
_cell_length_c   9.09832881
_cell_angle_alpha   120.05225597
_cell_angle_beta   90.00001742
_cell_angle_gamma   89.99997229
_symmetry_Int_Tables_number   1
_chemical_formula_structural   NdDy9HgBi5
_chemical_formula_sum   'Nd1 Dy9 Hg1 Bi5'
_cell_volume   470.88350948
_cell_formula_units_Z   1
loop_
 _symmetry_equiv_pos_site_id
 _symmetry_equiv_pos_as_xyz
  1  'x, y, z'
loop_
 _atom_site_type_symbol
 _atom_site_label
 _atom_site_symmetry_multiplicity
 _atom_site_fract_x
 _atom_site_fract_y
 _atom_site_fract_z
 _atom_site_occupancy
  Nd  Nd0  1  0.249997  0.000661  0.761718  1
  Dy  Dy1  1  0.499857  0.338685  0.675444  1
  Dy  Dy2  1  0.500028  0.667684  0.325796  1
  Dy  Dy3  1  0.999972  0.667684  0.325797  1
  Dy  Dy4  1  0.000141  0.338683  0.675444  1
  Dy  Dy5  1  0.750001  0.249512  0.001637  1
  Dy  Dy6  1  0.749998  0.751227  0.764193  1
  Dy  Dy7  1  0.750000  0.988550  0.228950  1
  Dy  Dy8  1  0.250000  0.755389  0.999684  1
  Dy  Dy9  1  0.250001  0.243778  0.241667  1
  Hg  Hg10  1  0.750001  0.607963  0.001280  1
  Bi  Bi11  1  0.750001  0.387156  0.389443  1
  Bi  Bi12  1  0.749999  0.998666  0.609455  1
  Bi  Bi13  1  0.249999  0.394911  0.003097  1
  Bi  Bi14  1  0.250000  0.605113  0.606083  1
  Bi  Bi15  1  0.250000  0.004340  0.390315  1
