# generated using pymatgen
data_GdScB6Ir
_symmetry_space_group_name_H-M   'P 1'
_cell_length_a   3.56461000
_cell_length_b   9.03940700
_cell_length_c   11.42077400
_cell_angle_alpha   90.00000000
_cell_angle_beta   90.00000000
_cell_angle_gamma   90.00000000
_symmetry_Int_Tables_number   1
_chemical_formula_structural   GdScB6Ir
_chemical_formula_sum   'Gd4 Sc4 B24 Ir4'
_cell_volume   367.99972969
_cell_formula_units_Z   4
loop_
 _symmetry_equiv_pos_site_id
 _symmetry_equiv_pos_as_xyz
  1  'x, y, z'
loop_
 _atom_site_type_symbol
 _atom_site_label
 _atom_site_symmetry_multiplicity
 _atom_site_fract_x
 _atom_site_fract_y
 _atom_site_fract_z
 _atom_site_occupancy
  Gd  Gd0  1  0.500000  0.320361  0.414396  1
  Gd  Gd1  1  0.500000  0.679639  0.585604  1
  Gd  Gd2  1  0.500000  0.179639  0.914396  1
  Gd  Gd3  1  0.500000  0.820361  0.085604  1
  Sc  Sc4  1  0.500000  0.445259  0.124008  1
  Sc  Sc5  1  0.500000  0.554741  0.875992  1
  Sc  Sc6  1  0.500000  0.054741  0.624008  1
  Sc  Sc7  1  0.500000  0.945259  0.375992  1
  B  B8  1  0.000000  0.099795  0.473294  1
  B  B9  1  0.000000  0.900205  0.526706  1
  B  B10  1  0.000000  0.400205  0.973294  1
  B  B11  1  0.000000  0.599795  0.026706  1
  B  B12  1  0.000000  0.130126  0.318782  1
  B  B13  1  0.000000  0.869874  0.681218  1
  B  B14  1  0.000000  0.369874  0.818782  1
  B  B15  1  0.000000  0.630126  0.181218  1
  B  B16  1  0.000000  0.055491  0.066608  1
  B  B17  1  0.000000  0.944509  0.933392  1
  B  B18  1  0.000000  0.444509  0.566608  1
  B  B19  1  0.000000  0.555491  0.433392  1
  B  B20  1  0.000000  0.482588  0.284627  1
  B  B21  1  0.000000  0.517412  0.715373  1
  B  B22  1  0.000000  0.017412  0.784627  1
  B  B23  1  0.000000  0.982588  0.215373  1
  B  B24  1  0.000000  0.254267  0.080924  1
  B  B25  1  0.000000  0.745733  0.919076  1
  B  B26  1  0.000000  0.245733  0.580924  1
  B  B27  1  0.000000  0.754267  0.419076  1
  B  B28  1  0.000000  0.295798  0.235404  1
  B  B29  1  0.000000  0.704202  0.764596  1
  B  B30  1  0.000000  0.204202  0.735404  1
  B  B31  1  0.000000  0.795798  0.264596  1
  Ir  Ir32  1  0.500000  0.141837  0.182231  1
  Ir  Ir33  1  0.500000  0.858163  0.817769  1
  Ir  Ir34  1  0.500000  0.358163  0.682231  1
  Ir  Ir35  1  0.500000  0.641837  0.317769  1
