# generated using pymatgen
data_BaSrH6Pd
_symmetry_space_group_name_H-M   'P 1'
_cell_length_a   7.56172400
_cell_length_b   7.56172343
_cell_length_c   5.63213300
_cell_angle_alpha   90.00000000
_cell_angle_beta   90.00000000
_cell_angle_gamma   136.15608366
_symmetry_Int_Tables_number   1
_chemical_formula_structural   BaSrH6Pd
_chemical_formula_sum   'Ba2 Sr2 H12 Pd2'
_cell_volume   223.07829204
_cell_formula_units_Z   2
loop_
 _symmetry_equiv_pos_site_id
 _symmetry_equiv_pos_as_xyz
  1  'x, y, z'
loop_
 _atom_site_type_symbol
 _atom_site_label
 _atom_site_symmetry_multiplicity
 _atom_site_fract_x
 _atom_site_fract_y
 _atom_site_fract_z
 _atom_site_occupancy
  Ba  Ba0  1  0.853307  0.146693  0.500000  1
  Ba  Ba1  1  0.353307  0.646693  0.000000  1
  Sr  Sr2  1  0.143039  0.856961  0.500000  1
  Sr  Sr3  1  0.643039  0.356961  0.000000  1
  H  H4  1  0.990284  0.508484  0.749377  1
  H  H5  1  0.491516  0.009716  0.250623  1
  H  H6  1  0.991516  0.509716  0.249377  1
  H  H7  1  0.490284  0.008484  0.750623  1
  H  H8  1  0.383069  0.616931  0.500000  1
  H  H9  1  0.883069  0.116931  0.000000  1
  H  H10  1  0.622417  0.377583  0.500000  1
  H  H11  1  0.122417  0.877583  0.000000  1
  H  H12  1  0.291050  0.278946  0.714266  1
  H  H13  1  0.721054  0.708950  0.285734  1
  H  H14  1  0.221054  0.208950  0.214266  1
  H  H15  1  0.791050  0.778946  0.785734  1
  Pd  Pd16  1  0.504267  0.495733  0.500000  1
  Pd  Pd17  1  0.004267  0.995733  0.000000  1
