# generated using pymatgen
data_SmLu5(Si3Ru)8
_symmetry_space_group_name_H-M   'P 1'
_cell_length_a   10.09337507
_cell_length_b   10.09337446
_cell_length_c   8.10278153
_cell_angle_alpha   89.84598559
_cell_angle_beta   90.15401244
_cell_angle_gamma   132.63001083
_symmetry_Int_Tables_number   1
_chemical_formula_structural   SmLu5(Si3Ru)8
_chemical_formula_sum   'Sm1 Lu5 Si24 Ru8'
_cell_volume   607.33857874
_cell_formula_units_Z   1
loop_
 _symmetry_equiv_pos_site_id
 _symmetry_equiv_pos_as_xyz
  1  'x, y, z'
loop_
 _atom_site_type_symbol
 _atom_site_label
 _atom_site_symmetry_multiplicity
 _atom_site_fract_x
 _atom_site_fract_y
 _atom_site_fract_z
 _atom_site_occupancy
  Sm  Sm0  1  0.002509  0.502509  0.750000  1
  Lu  Lu1  1  0.500149  0.500173  0.499685  1
  Lu  Lu2  1  0.000173  0.000149  0.000315  1
  Lu  Lu3  1  0.502482  0.002482  0.750000  1
  Lu  Lu4  1  0.997924  0.497924  0.250000  1
  Lu  Lu5  1  0.497873  0.997873  0.250000  1
  Si  Si6  1  0.794436  0.204464  0.498316  1
  Si  Si7  1  0.295734  0.705756  0.001491  1
  Si  Si8  1  0.205756  0.795734  0.498509  1
  Si  Si9  1  0.704464  0.294436  0.001684  1
  Si  Si10  1  0.331453  0.332998  0.832700  1
  Si  Si11  1  0.667571  0.667784  0.166866  1
  Si  Si12  1  0.167784  0.167571  0.333134  1
  Si  Si13  1  0.832998  0.831453  0.667300  1
  Si  Si14  1  0.122566  0.888180  0.729912  1
  Si  Si15  1  0.110769  0.876801  0.272050  1
  Si  Si16  1  0.613855  0.380535  0.227838  1
  Si  Si17  1  0.620846  0.386680  0.770891  1
  Si  Si18  1  0.880535  0.113855  0.272162  1
  Si  Si19  1  0.886680  0.120846  0.729109  1
  Si  Si20  1  0.388180  0.622566  0.770088  1
  Si  Si21  1  0.376801  0.610769  0.227950  1
  Si  Si22  1  0.343234  0.110873  0.504694  1
  Si  Si23  1  0.886242  0.651460  0.492703  1
  Si  Si24  1  0.389415  0.157185  0.003273  1
  Si  Si25  1  0.847656  0.613648  0.996597  1
  Si  Si26  1  0.657185  0.889415  0.496727  1
  Si  Si27  1  0.113648  0.347656  0.503403  1
  Si  Si28  1  0.610873  0.843234  0.995306  1
  Si  Si29  1  0.151460  0.386242  0.007297  1
  Ru  Ru30  1  0.664456  0.325636  0.497966  1
  Ru  Ru31  1  0.174300  0.835453  0.003040  1
  Ru  Ru32  1  0.335453  0.674300  0.496960  1
  Ru  Ru33  1  0.825636  0.164456  0.002034  1
  Ru  Ru34  1  0.126199  0.126645  0.628047  1
  Ru  Ru35  1  0.873364  0.872697  0.372675  1
  Ru  Ru36  1  0.372697  0.373364  0.127325  1
  Ru  Ru37  1  0.626645  0.626199  0.871953  1
