# generated using pymatgen
data_YbPa7(SbPt2)4
_symmetry_space_group_name_H-M   'P 1'
_cell_length_a   7.65028955
_cell_length_b   7.65028958
_cell_length_c   7.69967300
_cell_angle_alpha   90.00000000
_cell_angle_beta   90.00000000
_cell_angle_gamma   90.28238093
_symmetry_Int_Tables_number   1
_chemical_formula_structural   YbPa7(SbPt2)4
_chemical_formula_sum   'Yb1 Pa7 Sb4 Pt8'
_cell_volume   450.63275295
_cell_formula_units_Z   1
loop_
 _symmetry_equiv_pos_site_id
 _symmetry_equiv_pos_as_xyz
  1  'x, y, z'
loop_
 _atom_site_type_symbol
 _atom_site_label
 _atom_site_symmetry_multiplicity
 _atom_site_fract_x
 _atom_site_fract_y
 _atom_site_fract_z
 _atom_site_occupancy
  Yb  Yb0  1  0.171135  0.828865  0.500000  1
  Pa  Pa1  1  0.672699  0.669904  0.000000  1
  Pa  Pa2  1  0.321202  0.327858  0.500000  1
  Pa  Pa3  1  0.830442  0.169558  0.500000  1
  Pa  Pa4  1  0.672142  0.678798  0.500000  1
  Pa  Pa5  1  0.330096  0.327301  0.000000  1
  Pa  Pa6  1  0.825629  0.174371  0.000000  1
  Pa  Pa7  1  0.176321  0.823679  0.000000  1
  Sb  Sb8  1  0.493568  0.997934  0.747272  1
  Sb  Sb9  1  0.493568  0.997934  0.252728  1
  Sb  Sb10  1  0.002066  0.506432  0.747272  1
  Sb  Sb11  1  0.002066  0.506432  0.252728  1
  Pt  Pt12  1  0.867425  0.872084  0.757143  1
  Pt  Pt13  1  0.127916  0.132575  0.757143  1
  Pt  Pt14  1  0.632496  0.367504  0.745421  1
  Pt  Pt15  1  0.632496  0.367504  0.254579  1
  Pt  Pt16  1  0.376697  0.623303  0.246997  1
  Pt  Pt17  1  0.127916  0.132575  0.242857  1
  Pt  Pt18  1  0.867425  0.872084  0.242857  1
  Pt  Pt19  1  0.376697  0.623303  0.753003  1
