# generated using pymatgen
data_Mg3Zn3(ReN4)2
_symmetry_space_group_name_H-M   'P 1'
_cell_length_a   6.67872286
_cell_length_b   5.75617710
_cell_length_c   5.40100636
_cell_angle_alpha   90.30041945
_cell_angle_beta   90.08182315
_cell_angle_gamma   90.09316426
_symmetry_Int_Tables_number   1
_chemical_formula_structural   Mg3Zn3(ReN4)2
_chemical_formula_sum   'Mg3 Zn3 Re2 N8'
_cell_volume   207.63246789
_cell_formula_units_Z   1
loop_
 _symmetry_equiv_pos_site_id
 _symmetry_equiv_pos_as_xyz
  1  'x, y, z'
loop_
 _atom_site_type_symbol
 _atom_site_label
 _atom_site_symmetry_multiplicity
 _atom_site_fract_x
 _atom_site_fract_y
 _atom_site_fract_z
 _atom_site_occupancy
  Mg  Mg0  1  0.250373  0.833502  0.726964  1
  Mg  Mg1  1  0.996968  0.332962  0.726415  1
  Mg  Mg2  1  0.502812  0.664030  0.224949  1
  Zn  Zn3  1  0.249384  0.171055  0.228341  1
  Zn  Zn4  1  0.751830  0.832057  0.730849  1
  Zn  Zn5  1  0.749633  0.167788  0.228504  1
  Re  Re6  1  0.000485  0.671370  0.232835  1
  Re  Re7  1  0.500485  0.331307  0.726488  1
  N  N8  1  0.771528  0.824921  0.113197  1
  N  N9  1  0.727883  0.171153  0.612859  1
  N  N10  1  0.230823  0.825202  0.119223  1
  N  N11  1  0.269384  0.179683  0.613892  1
  N  N12  1  0.997905  0.361409  0.120977  1
  N  N13  1  0.502035  0.640525  0.620144  1
  N  N14  1  0.998113  0.670376  0.578575  1
  N  N15  1  0.500358  0.322661  0.074307  1
