# generated using pymatgen
data_Cs2LiCuF6
_symmetry_space_group_name_H-M   'P 1'
_cell_length_a   6.30512900
_cell_length_b   6.30512885
_cell_length_c   5.11736700
_cell_angle_alpha   90.00000000
_cell_angle_beta   90.00000000
_cell_angle_gamma   119.99999556
_symmetry_Int_Tables_number   1
_chemical_formula_structural   Cs2LiCuF6
_chemical_formula_sum   'Cs2 Li1 Cu1 F6'
_cell_volume   176.18346935
_cell_formula_units_Z   1
loop_
 _symmetry_equiv_pos_site_id
 _symmetry_equiv_pos_as_xyz
  1  'x, y, z'
loop_
 _atom_site_type_symbol
 _atom_site_label
 _atom_site_symmetry_multiplicity
 _atom_site_fract_x
 _atom_site_fract_y
 _atom_site_fract_z
 _atom_site_occupancy
  Cs  Cs0  1  0.666667  0.333333  0.734143  1
  Cs  Cs1  1  0.333333  0.666667  0.265857  1
  Li  Li2  1  0.000000  0.000000  0.500000  1
  Cu  Cu3  1  0.000000  0.000000  0.000000  1
  F  F4  1  0.278473  0.139237  0.233038  1
  F  F5  1  0.860763  0.139237  0.233038  1
  F  F6  1  0.860763  0.721527  0.233038  1
  F  F7  1  0.139237  0.860763  0.766962  1
  F  F8  1  0.139237  0.278473  0.766962  1
  F  F9  1  0.721527  0.860763  0.766962  1
