# generated using pymatgen
data_LiAl2Pd5
_symmetry_space_group_name_H-M   'P 1'
_cell_length_a   4.08685900
_cell_length_b   5.40279700
_cell_length_c   10.51956300
_cell_angle_alpha   90.00000000
_cell_angle_beta   90.00000000
_cell_angle_gamma   90.00000000
_symmetry_Int_Tables_number   1
_chemical_formula_structural   LiAl2Pd5
_chemical_formula_sum   'Li2 Al4 Pd10'
_cell_volume   232.27689044
_cell_formula_units_Z   2
loop_
 _symmetry_equiv_pos_site_id
 _symmetry_equiv_pos_as_xyz
  1  'x, y, z'
loop_
 _atom_site_type_symbol
 _atom_site_label
 _atom_site_symmetry_multiplicity
 _atom_site_fract_x
 _atom_site_fract_y
 _atom_site_fract_z
 _atom_site_occupancy
  Li  Li0  1  0.000000  0.824041  0.642306  1
  Li  Li1  1  0.000000  0.324041  0.857694  1
  Al  Al2  1  0.500000  0.521927  0.508287  1
  Al  Al3  1  0.000000  0.162211  0.363997  1
  Al  Al4  1  0.500000  0.021927  0.991713  1
  Al  Al5  1  0.000000  0.662211  0.136003  1
  Pd  Pd6  1  0.000000  0.814893  0.896818  1
  Pd  Pd7  1  0.000000  0.687060  0.387742  1
  Pd  Pd8  1  0.000000  0.314893  0.603182  1
  Pd  Pd9  1  0.500000  0.897679  0.227216  1
  Pd  Pd10  1  0.500000  0.397679  0.272784  1
  Pd  Pd11  1  0.500000  0.580209  0.743172  1
  Pd  Pd12  1  0.500000  0.080209  0.756828  1
  Pd  Pd13  1  0.500000  0.511979  0.008350  1
  Pd  Pd14  1  0.500000  0.011979  0.491650  1
  Pd  Pd15  1  0.000000  0.187060  0.112258  1
