# generated using pymatgen
data_Sr3BiI3
_symmetry_space_group_name_H-M   'P 1'
_cell_length_a   11.79742726
_cell_length_b   11.79742754
_cell_length_c   11.79742800
_cell_angle_alpha   109.47122143
_cell_angle_beta   109.47122191
_cell_angle_gamma   109.47122131
_symmetry_Int_Tables_number   1
_chemical_formula_structural   Sr3BiI3
_chemical_formula_sum   'Sr12 Bi4 I12'
_cell_volume   1263.97957726
_cell_formula_units_Z   4
loop_
 _symmetry_equiv_pos_site_id
 _symmetry_equiv_pos_as_xyz
  1  'x, y, z'
loop_
 _atom_site_type_symbol
 _atom_site_label
 _atom_site_symmetry_multiplicity
 _atom_site_fract_x
 _atom_site_fract_y
 _atom_site_fract_z
 _atom_site_occupancy
  Sr  Sr0  1  0.487280  0.493639  0.243639  1
  Sr  Sr1  1  0.750000  0.243639  0.256361  1
  Sr  Sr2  1  0.750000  0.006361  0.493639  1
  Sr  Sr3  1  0.243639  0.487280  0.493639  1
  Sr  Sr4  1  0.256361  0.750000  0.243639  1
  Sr  Sr5  1  0.012720  0.256361  0.006361  1
  Sr  Sr6  1  0.006361  0.012720  0.256361  1
  Sr  Sr7  1  0.493639  0.750000  0.006361  1
  Sr  Sr8  1  0.493639  0.243639  0.487280  1
  Sr  Sr9  1  0.006361  0.493639  0.750000  1
  Sr  Sr10  1  0.256361  0.006361  0.012720  1
  Sr  Sr11  1  0.243639  0.256361  0.750000  1
  Bi  Bi12  1  0.250000  0.250000  0.250000  1
  Bi  Bi13  1  0.500000  0.000000  0.250000  1
  Bi  Bi14  1  0.000000  0.250000  0.500000  1
  Bi  Bi15  1  0.250000  0.500000  0.000000  1
  I  I16  1  0.250000  0.750338  0.749662  1
  I  I17  1  0.500676  0.500338  0.750338  1
  I  I18  1  0.999324  0.749662  0.999662  1
  I  I19  1  0.749662  0.250000  0.750338  1
  I  I20  1  0.999662  0.999324  0.749662  1
  I  I21  1  0.250000  0.999662  0.500338  1
  I  I22  1  0.750338  0.500676  0.500338  1
  I  I23  1  0.500338  0.250000  0.999662  1
  I  I24  1  0.750338  0.749662  0.250000  1
  I  I25  1  0.749662  0.999662  0.999324  1
  I  I26  1  0.999662  0.500338  0.250000  1
  I  I27  1  0.500338  0.750338  0.500676  1
