# generated using pymatgen
data_Hf2Sc2Re7W
_symmetry_space_group_name_H-M   'P 1'
_cell_length_a   5.32012200
_cell_length_b   5.32012167
_cell_length_c   8.60303200
_cell_angle_alpha   90.00000000
_cell_angle_beta   90.00000000
_cell_angle_gamma   119.99998961
_symmetry_Int_Tables_number   1
_chemical_formula_structural   Hf2Sc2Re7W
_chemical_formula_sum   'Hf2 Sc2 Re7 W1'
_cell_volume   210.87513406
_cell_formula_units_Z   1
loop_
 _symmetry_equiv_pos_site_id
 _symmetry_equiv_pos_as_xyz
  1  'x, y, z'
loop_
 _atom_site_type_symbol
 _atom_site_label
 _atom_site_symmetry_multiplicity
 _atom_site_fract_x
 _atom_site_fract_y
 _atom_site_fract_z
 _atom_site_occupancy
  Hf  Hf0  1  0.666667  0.333333  0.936348  1
  Hf  Hf1  1  0.333333  0.666667  0.439433  1
  Sc  Sc2  1  0.333333  0.666667  0.063559  1
  Sc  Sc3  1  0.666667  0.333333  0.561180  1
  Re  Re4  1  0.000000  0.000000  0.499565  1
  Re  Re5  1  0.828369  0.656738  0.250428  1
  Re  Re6  1  0.171417  0.828583  0.749400  1
  Re  Re7  1  0.657165  0.828583  0.749400  1
  Re  Re8  1  0.343262  0.171631  0.250428  1
  Re  Re9  1  0.828369  0.171631  0.250428  1
  Re  Re10  1  0.171417  0.342835  0.749400  1
  W  W11  1  0.000000  0.000000  0.000430  1
