# generated using pymatgen
data_Tm4Fe4Co16SiP11
_symmetry_space_group_name_H-M   'P 1'
_cell_length_a   3.64304600
_cell_length_b   10.22085675
_cell_length_c   11.72756386
_cell_angle_alpha   90.04398281
_cell_angle_beta   90.00000000
_cell_angle_gamma   90.00000000
_symmetry_Int_Tables_number   1
_chemical_formula_structural   Tm4Fe4Co16SiP11
_chemical_formula_sum   'Tm4 Fe4 Co16 Si1 P11'
_cell_volume   436.67631355
_cell_formula_units_Z   1
loop_
 _symmetry_equiv_pos_site_id
 _symmetry_equiv_pos_as_xyz
  1  'x, y, z'
loop_
 _atom_site_type_symbol
 _atom_site_label
 _atom_site_symmetry_multiplicity
 _atom_site_fract_x
 _atom_site_fract_y
 _atom_site_fract_z
 _atom_site_occupancy
  Tm  Tm0  1  0.250000  0.581192  0.703198  1
  Tm  Tm1  1  0.250000  0.918540  0.203236  1
  Tm  Tm2  1  0.750000  0.419361  0.298461  1
  Tm  Tm3  1  0.750000  0.081161  0.797028  1
  Fe  Fe4  1  0.250000  0.710916  0.987795  1
  Fe  Fe5  1  0.250000  0.789735  0.487790  1
  Fe  Fe6  1  0.750000  0.289731  0.012582  1
  Fe  Fe7  1  0.750000  0.210374  0.512717  1
  Co  Co8  1  0.250000  0.406432  0.487138  1
  Co  Co9  1  0.250000  0.093540  0.986547  1
  Co  Co10  1  0.750000  0.593869  0.513669  1
  Co  Co11  1  0.750000  0.906560  0.013424  1
  Co  Co12  1  0.250000  0.214160  0.177726  1
  Co  Co13  1  0.250000  0.278155  0.676618  1
  Co  Co14  1  0.750000  0.778944  0.823200  1
  Co  Co15  1  0.750000  0.721955  0.324493  1
  Co  Co16  1  0.250000  0.882144  0.698586  1
  Co  Co17  1  0.250000  0.621207  0.199564  1
  Co  Co18  1  0.750000  0.117224  0.302350  1
  Co  Co19  1  0.750000  0.381066  0.800434  1
  Co  Co20  1  0.250000  0.468181  0.928290  1
  Co  Co21  1  0.250000  0.033756  0.432834  1
  Co  Co22  1  0.750000  0.537197  0.065501  1
  Co  Co23  1  0.750000  0.966187  0.567300  1
  Si  Si24  1  0.250000  0.416637  0.112256  1
  P  P25  1  0.250000  0.080841  0.613869  1
  P  P26  1  0.750000  0.580773  0.885471  1
  P  P27  1  0.750000  0.919286  0.386337  1
  P  P28  1  0.250000  0.268690  0.869127  1
  P  P29  1  0.250000  0.231774  0.368117  1
  P  P30  1  0.750000  0.731981  0.132369  1
  P  P31  1  0.750000  0.768226  0.631793  1
  P  P32  1  0.250000  0.601797  0.391929  1
  P  P33  1  0.250000  0.898473  0.891896  1
  P  P34  1  0.750000  0.398623  0.608209  1
  P  P35  1  0.750000  0.101311  0.108147  1
