# generated using pymatgen
data_Tm5Co19GeP11
_symmetry_space_group_name_H-M   'P 1'
_cell_length_a   12.00189887
_cell_length_b   12.00189894
_cell_length_c   3.66724600
_cell_angle_alpha   90.00000000
_cell_angle_beta   90.00000000
_cell_angle_gamma   120.09239687
_symmetry_Int_Tables_number   1
_chemical_formula_structural   Tm5Co19GeP11
_chemical_formula_sum   'Tm5 Co19 Ge1 P11'
_cell_volume   457.05187981
_cell_formula_units_Z   1
loop_
 _symmetry_equiv_pos_site_id
 _symmetry_equiv_pos_as_xyz
  1  'x, y, z'
loop_
 _atom_site_type_symbol
 _atom_site_label
 _atom_site_symmetry_multiplicity
 _atom_site_fract_x
 _atom_site_fract_y
 _atom_site_fract_z
 _atom_site_occupancy
  Tm  Tm0  1  0.667108  0.334249  0.000000  1
  Tm  Tm1  1  0.334249  0.667108  0.000000  1
  Tm  Tm2  1  0.180779  0.180779  0.500000  1
  Tm  Tm3  1  0.812647  0.000410  0.500000  1
  Tm  Tm4  1  0.000410  0.812647  0.500000  1
  Co  Co5  1  0.820505  0.198767  0.000000  1
  Co  Co6  1  0.802831  0.624641  0.000000  1
  Co  Co7  1  0.378687  0.170537  0.000000  1
  Co  Co8  1  0.198767  0.820505  0.000000  1
  Co  Co9  1  0.624641  0.802831  0.000000  1
  Co  Co10  1  0.170537  0.378687  0.000000  1
  Co  Co11  1  0.560726  0.560726  0.000000  1
  Co  Co12  1  0.446614  0.996024  0.000000  1
  Co  Co13  1  0.996024  0.446614  0.000000  1
  Co  Co14  1  0.641689  0.124822  0.500000  1
  Co  Co15  1  0.873894  0.516566  0.500000  1
  Co  Co16  1  0.490160  0.357439  0.500000  1
  Co  Co17  1  0.124822  0.641689  0.500000  1
  Co  Co18  1  0.516566  0.873894  0.500000  1
  Co  Co19  1  0.357439  0.490160  0.500000  1
  Co  Co20  1  0.717816  0.717816  0.500000  1
  Co  Co21  1  0.284372  0.997276  0.500000  1
  Co  Co22  1  0.997276  0.284372  0.500000  1
  Co  Co23  1  0.001224  0.001224  0.000000  1
  Ge  Ge24  1  0.365855  0.365855  0.000000  1
  P  P25  1  0.632840  0.999985  0.000000  1
  P  P26  1  0.999985  0.632840  0.000000  1
  P  P27  1  0.832321  0.314360  0.500000  1
  P  P28  1  0.687009  0.521367  0.500000  1
  P  P29  1  0.481329  0.165291  0.500000  1
  P  P30  1  0.314360  0.832321  0.500000  1
  P  P31  1  0.521367  0.687009  0.500000  1
  P  P32  1  0.165291  0.481329  0.500000  1
  P  P33  1  0.821323  0.821323  0.000000  1
  P  P34  1  0.180242  0.998293  0.000000  1
  P  P35  1  0.998293  0.180242  0.000000  1
