# generated using pymatgen
data_Hf6Ti4Al12Os(Ru2Pt)2
_symmetry_space_group_name_H-M   'P 1'
_cell_length_a   8.81075586
_cell_length_b   8.81075645
_cell_length_c   8.79992900
_cell_angle_alpha   60.04063927
_cell_angle_beta   60.04063707
_cell_angle_gamma   59.87610774
_symmetry_Int_Tables_number   1
_chemical_formula_structural   Hf6Ti4Al12Os(Ru2Pt)2
_chemical_formula_sum   'Hf6 Ti4 Al12 Os1 Ru4 Pt2'
_cell_volume   482.89003150
_cell_formula_units_Z   1
loop_
 _symmetry_equiv_pos_site_id
 _symmetry_equiv_pos_as_xyz
  1  'x, y, z'
loop_
 _atom_site_type_symbol
 _atom_site_label
 _atom_site_symmetry_multiplicity
 _atom_site_fract_x
 _atom_site_fract_y
 _atom_site_fract_z
 _atom_site_occupancy
  Hf  Hf0  1  0.698338  0.698338  0.308465  1
  Hf  Hf1  1  0.304395  0.690391  0.306723  1
  Hf  Hf2  1  0.690391  0.304395  0.306723  1
  Hf  Hf3  1  0.301668  0.301668  0.693591  1
  Hf  Hf4  1  0.693819  0.311291  0.691291  1
  Hf  Hf5  1  0.311291  0.693819  0.691291  1
  Ti  Ti6  1  0.880414  0.880414  0.359892  1
  Ti  Ti7  1  0.876900  0.358652  0.878101  1
  Ti  Ti8  1  0.358652  0.876900  0.878101  1
  Ti  Ti9  1  0.884748  0.884748  0.874420  1
  Al  Al10  1  0.119219  0.119219  0.642592  1
  Al  Al11  1  0.120777  0.643340  0.120637  1
  Al  Al12  1  0.643340  0.120777  0.120637  1
  Al  Al13  1  0.115999  0.115999  0.123038  1
  Al  Al14  1  0.662406  0.662406  0.014270  1
  Al  Al15  1  0.663712  0.010979  0.661035  1
  Al  Al16  1  0.010979  0.663712  0.661035  1
  Al  Al17  1  0.665604  0.665604  0.663723  1
  Al  Al18  1  0.336680  0.336680  0.992076  1
  Al  Al19  1  0.333258  0.994759  0.337503  1
  Al  Al20  1  0.994759  0.333258  0.337503  1
  Al  Al21  1  0.332596  0.332596  0.334999  1
  Os  Os22  1  0.501939  0.501939  0.998511  1
  Ru  Ru23  1  0.000061  0.000061  0.999549  1
  Ru  Ru24  1  0.998198  0.998198  0.503401  1
  Ru  Ru25  1  0.501275  0.997578  0.501698  1
  Ru  Ru26  1  0.997578  0.501275  0.501698  1
  Pt  Pt27  1  0.999833  0.501171  0.998749  1
  Pt  Pt28  1  0.501171  0.999833  0.998749  1
