# generated using pymatgen
data_YbSmUIr3
_symmetry_space_group_name_H-M   'P 1'
_cell_length_a   5.29137980
_cell_length_b   5.29137914
_cell_length_c   5.29137900
_cell_angle_alpha   66.52174170
_cell_angle_beta   66.52175661
_cell_angle_gamma   66.52175672
_symmetry_Int_Tables_number   1
_chemical_formula_structural   YbSmUIr3
_chemical_formula_sum   'Yb1 Sm1 U1 Ir3'
_cell_volume   119.47140092
_cell_formula_units_Z   1
loop_
 _symmetry_equiv_pos_site_id
 _symmetry_equiv_pos_as_xyz
  1  'x, y, z'
loop_
 _atom_site_type_symbol
 _atom_site_label
 _atom_site_symmetry_multiplicity
 _atom_site_fract_x
 _atom_site_fract_y
 _atom_site_fract_z
 _atom_site_occupancy
  Yb  Yb0  1  0.251228  0.251228  0.251228  1
  Sm  Sm1  1  0.004188  0.004188  0.004188  1
  U  U2  1  0.622961  0.622961  0.622961  1
  Ir  Ir3  1  0.124056  0.623784  0.623784  1
  Ir  Ir4  1  0.623784  0.124056  0.623784  1
  Ir  Ir5  1  0.623784  0.623784  0.124056  1
