# generated using pymatgen
data_Ta7Mn10Nb5(CrN2)2
_symmetry_space_group_name_H-M   'P 1'
_cell_length_a   8.06016002
_cell_length_b   8.06016185
_cell_length_c   8.07994500
_cell_angle_alpha   59.91877054
_cell_angle_beta   59.91876301
_cell_angle_gamma   59.88436751
_symmetry_Int_Tables_number   1
_chemical_formula_structural   Ta7Mn10Nb5(CrN2)2
_chemical_formula_sum   'Ta7 Mn10 Nb5 Cr2 N4'
_cell_volume   370.39615119
_cell_formula_units_Z   1
loop_
 _symmetry_equiv_pos_site_id
 _symmetry_equiv_pos_as_xyz
  1  'x, y, z'
loop_
 _atom_site_type_symbol
 _atom_site_label
 _atom_site_symmetry_multiplicity
 _atom_site_fract_x
 _atom_site_fract_y
 _atom_site_fract_z
 _atom_site_occupancy
  Ta  Ta0  1  0.804166  0.804166  0.195834  1
  Ta  Ta1  1  0.193418  0.193418  0.806582  1
  Ta  Ta2  1  0.805286  0.195654  0.805269  1
  Ta  Ta3  1  0.195654  0.805286  0.193791  1
  Ta  Ta4  1  0.195654  0.805286  0.805269  1
  Ta  Ta5  1  0.805286  0.195654  0.193791  1
  Ta  Ta6  1  0.446621  0.446621  0.053379  1
  Mn  Mn7  1  0.624447  0.624447  0.125334  1
  Mn  Mn8  1  0.624447  0.624447  0.625772  1
  Mn  Mn9  1  0.731059  0.422033  0.423455  1
  Mn  Mn10  1  0.422033  0.731059  0.423455  1
  Mn  Mn11  1  0.421910  0.421910  0.733525  1
  Mn  Mn12  1  0.421910  0.421910  0.422655  1
  Mn  Mn13  1  0.517692  0.827841  0.827233  1
  Mn  Mn14  1  0.827841  0.517692  0.827233  1
  Mn  Mn15  1  0.828242  0.828242  0.515982  1
  Mn  Mn16  1  0.828242  0.828242  0.827533  1
  Nb  Nb17  1  0.055809  0.055809  0.444191  1
  Nb  Nb18  1  0.445645  0.053815  0.445161  1
  Nb  Nb19  1  0.053815  0.445645  0.055378  1
  Nb  Nb20  1  0.053815  0.445645  0.445161  1
  Nb  Nb21  1  0.445645  0.053815  0.055378  1
  Cr  Cr22  1  0.125304  0.625112  0.624792  1
  Cr  Cr23  1  0.625112  0.125304  0.624792  1
  N  N24  1  0.627163  0.125879  0.123479  1
  N  N25  1  0.125879  0.627163  0.123479  1
  N  N26  1  0.123951  0.123951  0.628205  1
  N  N27  1  0.123951  0.123951  0.123893  1
