# generated using pymatgen
data_Dy17Er3(Ir2Rh)4
_symmetry_space_group_name_H-M   'P 1'
_cell_length_a   10.86408900
_cell_length_b   10.86408900
_cell_length_c   6.38204800
_cell_angle_alpha   90.00000000
_cell_angle_beta   90.00000000
_cell_angle_gamma   90.00000000
_symmetry_Int_Tables_number   1
_chemical_formula_structural   Dy17Er3(Ir2Rh)4
_chemical_formula_sum   'Dy17 Er3 Ir8 Rh4'
_cell_volume   753.26310435
_cell_formula_units_Z   1
loop_
 _symmetry_equiv_pos_site_id
 _symmetry_equiv_pos_as_xyz
  1  'x, y, z'
loop_
 _atom_site_type_symbol
 _atom_site_label
 _atom_site_symmetry_multiplicity
 _atom_site_fract_x
 _atom_site_fract_y
 _atom_site_fract_z
 _atom_site_occupancy
  Dy  Dy0  1  0.290243  0.088930  0.379635  1
  Dy  Dy1  1  0.290246  0.911013  0.879607  1
  Dy  Dy2  1  0.709754  0.088987  0.879607  1
  Dy  Dy3  1  0.709757  0.911070  0.379635  1
  Dy  Dy4  1  0.589002  0.790352  0.879665  1
  Dy  Dy5  1  0.589026  0.209478  0.379550  1
  Dy  Dy6  1  0.410974  0.790522  0.379550  1
  Dy  Dy7  1  0.410998  0.209648  0.879665  1
  Dy  Dy8  1  0.209478  0.410974  0.620450  1
  Dy  Dy9  1  0.209648  0.589002  0.120335  1
  Dy  Dy10  1  0.790352  0.410998  0.120335  1
  Dy  Dy11  1  0.790522  0.589026  0.620450  1
  Dy  Dy12  1  0.911013  0.709754  0.120393  1
  Dy  Dy13  1  0.911070  0.290243  0.620365  1
  Dy  Dy14  1  0.088930  0.709757  0.620365  1
  Dy  Dy15  1  0.088987  0.290246  0.120393  1
  Dy  Dy16  1  0.500000  0.500000  0.500000  1
  Er  Er17  1  0.000000  0.000000  0.500000  1
  Er  Er18  1  0.000000  0.000000  0.000000  1
  Er  Er19  1  0.500000  0.500000  0.000000  1
  Ir  Ir20  1  0.846751  0.153236  0.250038  1
  Ir  Ir21  1  0.846764  0.846751  0.749962  1
  Ir  Ir22  1  0.153236  0.153249  0.749962  1
  Ir  Ir23  1  0.153249  0.846764  0.250038  1
  Ir  Ir24  1  0.653636  0.346355  0.750528  1
  Ir  Ir25  1  0.653645  0.653636  0.249472  1
  Ir  Ir26  1  0.346355  0.346364  0.249472  1
  Ir  Ir27  1  0.346364  0.653645  0.750528  1
  Rh  Rh28  1  0.500000  0.000000  0.124344  1
  Rh  Rh29  1  0.500000  0.000000  0.624290  1
  Rh  Rh30  1  0.000000  0.500000  0.875656  1
  Rh  Rh31  1  0.000000  0.500000  0.375710  1
