# generated using pymatgen
data_Y5Ho3(ScGa5)4
_symmetry_space_group_name_H-M   'P 1'
_cell_length_a   6.02742905
_cell_length_b   9.52122902
_cell_length_c   11.31432908
_cell_angle_alpha   89.99982225
_cell_angle_beta   89.98677798
_cell_angle_gamma   89.99239796
_symmetry_Int_Tables_number   1
_chemical_formula_structural   Y5Ho3(ScGa5)4
_chemical_formula_sum   'Y5 Ho3 Sc4 Ga20'
_cell_volume   649.31271800
_cell_formula_units_Z   1
loop_
 _symmetry_equiv_pos_site_id
 _symmetry_equiv_pos_as_xyz
  1  'x, y, z'
loop_
 _atom_site_type_symbol
 _atom_site_label
 _atom_site_symmetry_multiplicity
 _atom_site_fract_x
 _atom_site_fract_y
 _atom_site_fract_z
 _atom_site_occupancy
  Y  Y0  1  0.890816  0.510110  0.352231  1
  Y  Y1  1  0.609109  0.989916  0.852430  1
  Y  Y2  1  0.109086  0.010085  0.647596  1
  Y  Y3  1  0.390890  0.489932  0.147592  1
  Y  Y4  1  0.109103  0.489902  0.647816  1
  Ho  Ho5  1  0.390975  0.010060  0.147822  1
  Ho  Ho6  1  0.890925  0.989906  0.352151  1
  Ho  Ho7  1  0.609073  0.510112  0.852306  1
  Sc  Sc8  1  0.849194  0.750011  0.074412  1
  Sc  Sc9  1  0.650646  0.750060  0.574349  1
  Sc  Sc10  1  0.150798  0.249962  0.925667  1
  Sc  Sc11  1  0.349254  0.249920  0.425546  1
  Ga  Ga12  1  0.877015  0.050280  0.089531  1
  Ga  Ga13  1  0.622798  0.449636  0.589406  1
  Ga  Ga14  1  0.122995  0.550398  0.910760  1
  Ga  Ga15  1  0.377047  0.949689  0.410501  1
  Ga  Ga16  1  0.122916  0.949550  0.910998  1
  Ga  Ga17  1  0.377234  0.550501  0.410843  1
  Ga  Ga18  1  0.877086  0.449596  0.089020  1
  Ga  Ga19  1  0.622903  0.050383  0.589008  1
  Ga  Ga20  1  0.166008  0.750488  0.248648  1
  Ga  Ga21  1  0.334209  0.749772  0.748793  1
  Ga  Ga22  1  0.833699  0.250244  0.751429  1
  Ga  Ga23  1  0.666068  0.249519  0.251332  1
  Ga  Ga24  1  0.379356  0.750164  0.004119  1
  Ga  Ga25  1  0.120665  0.750156  0.503868  1
  Ga  Ga26  1  0.620680  0.250154  0.995900  1
  Ga  Ga27  1  0.879107  0.249711  0.495786  1
  Ga  Ga28  1  0.603755  0.750446  0.296081  1
  Ga  Ga29  1  0.896171  0.749669  0.796138  1
  Ga  Ga30  1  0.396638  0.250104  0.703990  1
  Ga  Ga31  1  0.103781  0.249563  0.203931  1
