# generated using pymatgen
data_YLuCo3P7Ru9
_symmetry_space_group_name_H-M   'P 1'
_cell_length_a   9.31697200
_cell_length_b   9.31697162
_cell_length_c   3.81506200
_cell_angle_alpha   90.00000000
_cell_angle_beta   90.00000000
_cell_angle_gamma   120.00000750
_symmetry_Int_Tables_number   1
_chemical_formula_structural   YLuCo3P7Ru9
_chemical_formula_sum   'Y1 Lu1 Co3 P7 Ru9'
_cell_volume   286.80172694
_cell_formula_units_Z   1
loop_
 _symmetry_equiv_pos_site_id
 _symmetry_equiv_pos_as_xyz
  1  'x, y, z'
loop_
 _atom_site_type_symbol
 _atom_site_label
 _atom_site_symmetry_multiplicity
 _atom_site_fract_x
 _atom_site_fract_y
 _atom_site_fract_z
 _atom_site_occupancy
  Y  Y0  1  0.333333  0.666667  0.000000  1
  Lu  Lu1  1  0.000000  0.000000  0.500000  1
  Co  Co2  1  0.936639  0.444504  0.000000  1
  Co  Co3  1  0.507864  0.063361  0.000000  1
  Co  Co4  1  0.555496  0.492136  0.000000  1
  P  P5  1  0.969105  0.222560  0.000000  1
  P  P6  1  0.253455  0.030895  0.000000  1
  P  P7  1  0.777440  0.746545  0.000000  1
  P  P8  1  0.066605  0.617517  0.500000  1
  P  P9  1  0.550911  0.933395  0.500000  1
  P  P10  1  0.382483  0.449089  0.500000  1
  P  P11  1  0.666667  0.333333  0.000000  1
  Ru  Ru12  1  0.730258  0.970596  0.000000  1
  Ru  Ru13  1  0.240337  0.269742  0.000000  1
  Ru  Ru14  1  0.029404  0.759663  0.000000  1
  Ru  Ru15  1  0.102079  0.384725  0.500000  1
  Ru  Ru16  1  0.282645  0.897921  0.500000  1
  Ru  Ru17  1  0.615275  0.717355  0.500000  1
  Ru  Ru18  1  0.751953  0.213148  0.500000  1
  Ru  Ru19  1  0.461195  0.248047  0.500000  1
  Ru  Ru20  1  0.786852  0.538805  0.500000  1
