# generated using pymatgen
data_Sr8CaAu6
_symmetry_space_group_name_H-M   'P 1'
_cell_length_a   8.33131650
_cell_length_b   8.33131668
_cell_length_c   8.33131629
_cell_angle_alpha   71.07078877
_cell_angle_beta   71.07078898
_cell_angle_gamma   71.07079401
_symmetry_Int_Tables_number   1
_chemical_formula_structural   Sr8CaAu6
_chemical_formula_sum   'Sr8 Ca1 Au6'
_cell_volume   501.66597441
_cell_formula_units_Z   1
loop_
 _symmetry_equiv_pos_site_id
 _symmetry_equiv_pos_as_xyz
  1  'x, y, z'
loop_
 _atom_site_type_symbol
 _atom_site_label
 _atom_site_symmetry_multiplicity
 _atom_site_fract_x
 _atom_site_fract_y
 _atom_site_fract_z
 _atom_site_occupancy
  Sr  Sr0  1  0.892530  0.169629  0.657315  1
  Sr  Sr1  1  0.657315  0.892530  0.169629  1
  Sr  Sr2  1  0.169629  0.657315  0.892530  1
  Sr  Sr3  1  0.107470  0.830371  0.342685  1
  Sr  Sr4  1  0.342685  0.107470  0.830371  1
  Sr  Sr5  1  0.830371  0.342685  0.107470  1
  Sr  Sr6  1  0.299451  0.299451  0.299451  1
  Sr  Sr7  1  0.700549  0.700549  0.700549  1
  Ca  Ca8  1  0.500000  0.500000  0.500000  1
  Au  Au9  1  0.904711  0.543059  0.347391  1
  Au  Au10  1  0.347391  0.904711  0.543059  1
  Au  Au11  1  0.543059  0.347391  0.904711  1
  Au  Au12  1  0.095289  0.456941  0.652609  1
  Au  Au13  1  0.652609  0.095289  0.456941  1
  Au  Au14  1  0.456941  0.652609  0.095289  1
