# generated using pymatgen
data_TbHo(Co2O5)2
_symmetry_space_group_name_H-M   'P 1'
_cell_length_a   5.69449610
_cell_length_b   7.22366713
_cell_length_c   8.37674559
_cell_angle_alpha   89.88568701
_cell_angle_beta   90.01961312
_cell_angle_gamma   89.99088456
_symmetry_Int_Tables_number   1
_chemical_formula_structural   TbHo(Co2O5)2
_chemical_formula_sum   'Tb2 Ho2 Co8 O20'
_cell_volume   344.57792794
_cell_formula_units_Z   2
loop_
 _symmetry_equiv_pos_site_id
 _symmetry_equiv_pos_as_xyz
  1  'x, y, z'
loop_
 _atom_site_type_symbol
 _atom_site_label
 _atom_site_symmetry_multiplicity
 _atom_site_fract_x
 _atom_site_fract_y
 _atom_site_fract_z
 _atom_site_occupancy
  Tb  Tb0  1  0.999968  0.638188  0.327763  1
  Tb  Tb1  1  0.000013  0.361904  0.672398  1
  Ho  Ho2  1  0.999956  0.138261  0.171628  1
  Ho  Ho3  1  0.000044  0.861782  0.828182  1
  Co  Co4  1  0.499900  0.909027  0.150613  1
  Co  Co5  1  0.500056  0.090824  0.849311  1
  Co  Co6  1  0.500110  0.407768  0.348776  1
  Co  Co7  1  0.499919  0.592190  0.651197  1
  Co  Co8  1  0.255611  0.499955  0.000105  1
  Co  Co9  1  0.744713  0.000081  0.499936  1
  Co  Co10  1  0.744515  0.499985  0.000043  1
  Co  Co11  1  0.255185  0.999948  0.499911  1
  O  O12  1  0.276267  0.499967  0.500073  1
  O  O13  1  0.726356  0.999932  0.999885  1
  O  O14  1  0.723707  0.500140  0.499911  1
  O  O15  1  0.273640  0.000121  0.000097  1
  O  O16  1  0.000104  0.662499  0.053190  1
  O  O17  1  0.999959  0.337016  0.946651  1
  O  O18  1  0.000088  0.162361  0.444904  1
  O  O19  1  0.999815  0.837305  0.555244  1
  O  O20  1  0.500248  0.651893  0.069100  1
  O  O21  1  0.499914  0.348436  0.931390  1
  O  O22  1  0.500012  0.152652  0.432848  1
  O  O23  1  0.499882  0.847780  0.566813  1
  O  O24  1  0.243495  0.898776  0.292639  1
  O  O25  1  0.243568  0.101128  0.707484  1
  O  O26  1  0.755901  0.394641  0.206459  1
  O  O27  1  0.755803  0.605226  0.793495  1
  O  O28  1  0.756398  0.101249  0.707392  1
  O  O29  1  0.756407  0.898872  0.292564  1
  O  O30  1  0.244184  0.605356  0.793510  1
  O  O31  1  0.244263  0.394734  0.206487  1
