# generated using pymatgen
data_Tb3Nd5(Er3Pb4)4
_symmetry_space_group_name_H-M   'P 1'
_cell_length_a   8.24901121
_cell_length_b   8.34670297
_cell_length_c   15.73251000
_cell_angle_alpha   89.96893136
_cell_angle_beta   89.72471702
_cell_angle_gamma   90.28689373
_symmetry_Int_Tables_number   1
_chemical_formula_structural   Tb3Nd5(Er3Pb4)4
_chemical_formula_sum   'Tb3 Nd5 Er12 Pb16'
_cell_volume   1083.18925313
_cell_formula_units_Z   1
loop_
 _symmetry_equiv_pos_site_id
 _symmetry_equiv_pos_as_xyz
  1  'x, y, z'
loop_
 _atom_site_type_symbol
 _atom_site_label
 _atom_site_symmetry_multiplicity
 _atom_site_fract_x
 _atom_site_fract_y
 _atom_site_fract_z
 _atom_site_occupancy
  Tb  Tb0  1  0.966367  0.824202  0.400422  1
  Tb  Tb1  1  0.534061  0.323773  0.600799  1
  Tb  Tb2  1  0.031740  0.176575  0.899820  1
  Nd  Nd3  1  0.527121  0.321695  0.902424  1
  Nd  Nd4  1  0.028758  0.176922  0.597561  1
  Nd  Nd5  1  0.470626  0.677337  0.401773  1
  Nd  Nd6  1  0.972616  0.823615  0.097342  1
  Nd  Nd7  1  0.471187  0.678282  0.098723  1
  Er  Er8  1  0.370815  0.842165  0.877385  1
  Er  Er9  1  0.873839  0.657748  0.621997  1
  Er  Er10  1  0.626814  0.158547  0.379457  1
  Er  Er11  1  0.128229  0.341432  0.122351  1
  Er  Er12  1  0.629252  0.158710  0.121674  1
  Er  Er13  1  0.127361  0.341373  0.378713  1
  Er  Er14  1  0.371566  0.841584  0.621553  1
  Er  Er15  1  0.869738  0.658836  0.877413  1
  Er  Er16  1  0.204950  0.504975  0.749765  1
  Er  Er17  1  0.704955  0.995210  0.749522  1
  Er  Er18  1  0.795006  0.494330  0.251034  1
  Er  Er19  1  0.294447  0.004977  0.250277  1
  Pb  Pb20  1  0.289185  0.042870  0.041161  1
  Pb  Pb21  1  0.788716  0.461699  0.458232  1
  Pb  Pb22  1  0.710885  0.959703  0.542409  1
  Pb  Pb23  1  0.207027  0.538074  0.956411  1
  Pb  Pb24  1  0.713402  0.964003  0.955640  1
  Pb  Pb25  1  0.215150  0.533819  0.544608  1
  Pb  Pb26  1  0.284989  0.034623  0.455699  1
  Pb  Pb27  1  0.791160  0.461420  0.043412  1
  Pb  Pb28  1  0.566906  0.628341  0.749342  1
  Pb  Pb29  1  0.067242  0.872479  0.749976  1
  Pb  Pb30  1  0.432645  0.370703  0.250203  1
  Pb  Pb31  1  0.932248  0.127836  0.250701  1
  Pb  Pb32  1  0.341571  0.151788  0.748610  1
  Pb  Pb33  1  0.842275  0.347586  0.751489  1
  Pb  Pb34  1  0.660812  0.850413  0.250338  1
  Pb  Pb35  1  0.156340  0.652357  0.251760  1
