# generated using pymatgen
data_Pr8Zn2CuSi12Pd
_symmetry_space_group_name_H-M   'P 1'
_cell_length_a   8.20770600
_cell_length_b   8.20770658
_cell_length_c   8.68849300
_cell_angle_alpha   90.00000000
_cell_angle_beta   90.00000000
_cell_angle_gamma   120.00000571
_symmetry_Int_Tables_number   1
_chemical_formula_structural   Pr8Zn2CuSi12Pd
_chemical_formula_sum   'Pr8 Zn2 Cu1 Si12 Pd1'
_cell_volume   506.89578090
_cell_formula_units_Z   1
loop_
 _symmetry_equiv_pos_site_id
 _symmetry_equiv_pos_as_xyz
  1  'x, y, z'
loop_
 _atom_site_type_symbol
 _atom_site_label
 _atom_site_symmetry_multiplicity
 _atom_site_fract_x
 _atom_site_fract_y
 _atom_site_fract_z
 _atom_site_occupancy
  Pr  Pr0  1  0.499884  0.500116  0.751185  1
  Pr  Pr1  1  0.500303  0.499697  0.248868  1
  Pr  Pr2  1  0.000232  0.500116  0.751185  1
  Pr  Pr3  1  0.999393  0.499697  0.248868  1
  Pr  Pr4  1  0.499884  0.999768  0.751185  1
  Pr  Pr5  1  0.500303  0.000607  0.248868  1
  Pr  Pr6  1  0.000000  0.000000  0.750226  1
  Pr  Pr7  1  0.000000  0.000000  0.249896  1
  Zn  Zn8  1  0.333333  0.666667  0.001954  1
  Zn  Zn9  1  0.333333  0.666667  0.499009  1
  Cu  Cu10  1  0.666667  0.333333  0.997485  1
  Si  Si11  1  0.829136  0.170864  0.000662  1
  Si  Si12  1  0.164684  0.835316  0.999449  1
  Si  Si13  1  0.341728  0.170864  0.000662  1
  Si  Si14  1  0.163951  0.836049  0.499632  1
  Si  Si15  1  0.670632  0.835316  0.999449  1
  Si  Si16  1  0.832061  0.167939  0.500622  1
  Si  Si17  1  0.829136  0.658272  0.000662  1
  Si  Si18  1  0.672100  0.836049  0.499632  1
  Si  Si19  1  0.164684  0.329368  0.999449  1
  Si  Si20  1  0.335879  0.167939  0.500622  1
  Si  Si21  1  0.163951  0.327900  0.499632  1
  Si  Si22  1  0.832061  0.664121  0.500622  1
  Pd  Pd23  1  0.666667  0.333333  0.500178  1
