# generated using pymatgen
data_Ho2Lu14In6CoPt
_symmetry_space_group_name_H-M   'P 1'
_cell_length_a   10.23993600
_cell_length_b   10.23993712
_cell_length_c   6.87304700
_cell_angle_alpha   90.00000000
_cell_angle_beta   90.00000000
_cell_angle_gamma   119.99999639
_symmetry_Int_Tables_number   1
_chemical_formula_structural   Ho2Lu14In6CoPt
_chemical_formula_sum   'Ho2 Lu14 In6 Co1 Pt1'
_cell_volume   624.12918800
_cell_formula_units_Z   1
loop_
 _symmetry_equiv_pos_site_id
 _symmetry_equiv_pos_as_xyz
  1  'x, y, z'
loop_
 _atom_site_type_symbol
 _atom_site_label
 _atom_site_symmetry_multiplicity
 _atom_site_fract_x
 _atom_site_fract_y
 _atom_site_fract_z
 _atom_site_occupancy
  Ho  Ho0  1  0.000000  0.000000  0.492513  1
  Ho  Ho1  1  0.000000  0.000000  0.991098  1
  Lu  Lu2  1  0.530478  0.060955  0.508599  1
  Lu  Lu3  1  0.939045  0.469522  0.508599  1
  Lu  Lu4  1  0.530478  0.469522  0.508599  1
  Lu  Lu5  1  0.464442  0.928885  0.005734  1
  Lu  Lu6  1  0.071115  0.535558  0.005734  1
  Lu  Lu7  1  0.464442  0.535558  0.005734  1
  Lu  Lu8  1  0.178929  0.357857  0.713962  1
  Lu  Lu9  1  0.642143  0.821071  0.713962  1
  Lu  Lu10  1  0.178929  0.821071  0.713962  1
  Lu  Lu11  1  0.823976  0.647952  0.212697  1
  Lu  Lu12  1  0.352048  0.176024  0.212697  1
  Lu  Lu13  1  0.823976  0.176024  0.212697  1
  Lu  Lu14  1  0.666667  0.333333  0.883891  1
  Lu  Lu15  1  0.333333  0.666667  0.396280  1
  In  In16  1  0.837259  0.674518  0.750818  1
  In  In17  1  0.325482  0.162741  0.750818  1
  In  In18  1  0.837259  0.162741  0.750818  1
  In  In19  1  0.163457  0.326913  0.251752  1
  In  In20  1  0.673087  0.836543  0.251752  1
  In  In21  1  0.163457  0.836543  0.251752  1
  Co  Co22  1  0.333333  0.666667  0.781454  1
  Pt  Pt23  1  0.666667  0.333333  0.282115  1
