# generated using pymatgen
data_Tb8Ta4Ti7Si16Ir
_symmetry_space_group_name_H-M   'P 1'
_cell_length_a   7.04473139
_cell_length_b   7.04978649
_cell_length_c   12.92340841
_cell_angle_alpha   90.15539755
_cell_angle_beta   89.85312603
_cell_angle_gamma   89.71790152
_symmetry_Int_Tables_number   1
_chemical_formula_structural   Tb8Ta4Ti7Si16Ir
_chemical_formula_sum   'Tb8 Ta4 Ti7 Si16 Ir1'
_cell_volume   641.81397423
_cell_formula_units_Z   1
loop_
 _symmetry_equiv_pos_site_id
 _symmetry_equiv_pos_as_xyz
  1  'x, y, z'
loop_
 _atom_site_type_symbol
 _atom_site_label
 _atom_site_symmetry_multiplicity
 _atom_site_fract_x
 _atom_site_fract_y
 _atom_site_fract_z
 _atom_site_occupancy
  Tb  Tb0  1  0.340359  0.002935  0.467585  1
  Tb  Tb1  1  0.496626  0.841124  0.718701  1
  Tb  Tb2  1  0.501808  0.159140  0.215943  1
  Tb  Tb3  1  0.841287  0.496884  0.281399  1
  Tb  Tb4  1  0.159110  0.502359  0.784479  1
  Tb  Tb5  1  0.656998  0.998190  0.968599  1
  Tb  Tb6  1  0.003120  0.340329  0.532056  1
  Tb  Tb7  1  0.997122  0.658828  0.031533  1
  Ta  Ta8  1  0.174278  0.827330  0.247660  1
  Ta  Ta9  1  0.827533  0.174198  0.752325  1
  Ta  Ta10  1  0.674394  0.673470  0.499862  1
  Ta  Ta11  1  0.148332  0.003187  0.875589  1
  Ti  Ti12  1  0.492543  0.658378  0.125614  1
  Ti  Ti13  1  0.508627  0.348005  0.628681  1
  Ti  Ti14  1  0.658414  0.491498  0.874292  1
  Ti  Ti15  1  0.348329  0.508872  0.371752  1
  Ti  Ti16  1  0.847136  0.991300  0.374923  1
  Ti  Ti17  1  0.004456  0.147854  0.123982  1
  Ti  Ti18  1  0.991436  0.846730  0.625557  1
  Si  Si19  1  0.202965  0.132475  0.684690  1
  Si  Si20  1  0.374114  0.699861  0.934453  1
  Si  Si21  1  0.630148  0.297797  0.435291  1
  Si  Si22  1  0.698265  0.372806  0.065278  1
  Si  Si23  1  0.297915  0.630373  0.564688  1
  Si  Si24  1  0.798034  0.868504  0.184818  1
  Si  Si25  1  0.131465  0.201538  0.314111  1
  Si  Si26  1  0.865949  0.796594  0.815934  1
  Si  Si27  1  0.288917  0.950845  0.062913  1
  Si  Si28  1  0.546698  0.792883  0.315001  1
  Si  Si29  1  0.449486  0.211157  0.817755  1
  Si  Si30  1  0.792971  0.546385  0.684549  1
  Si  Si31  1  0.210396  0.449580  0.181736  1
  Si  Si32  1  0.708722  0.047656  0.564805  1
  Si  Si33  1  0.951472  0.289686  0.937735  1
  Si  Si34  1  0.047568  0.708244  0.434953  1
  Ir  Ir35  1  0.333004  0.333003  0.000758  1
