# generated using pymatgen
data_Nd3Ti(P3Ir4)2
_symmetry_space_group_name_H-M   'P 1'
_cell_length_a   4.01625700
_cell_length_b   11.31680900
_cell_length_c   12.95807700
_cell_angle_alpha   90.00000000
_cell_angle_beta   90.00000000
_cell_angle_gamma   90.00000000
_symmetry_Int_Tables_number   1
_chemical_formula_structural   Nd3Ti(P3Ir4)2
_chemical_formula_sum   'Nd6 Ti2 P12 Ir16'
_cell_volume   588.96032251
_cell_formula_units_Z   2
loop_
 _symmetry_equiv_pos_site_id
 _symmetry_equiv_pos_as_xyz
  1  'x, y, z'
loop_
 _atom_site_type_symbol
 _atom_site_label
 _atom_site_symmetry_multiplicity
 _atom_site_fract_x
 _atom_site_fract_y
 _atom_site_fract_z
 _atom_site_occupancy
  Nd  Nd0  1  0.000000  0.500000  0.517775  1
  Nd  Nd1  1  0.500000  0.000000  0.482225  1
  Nd  Nd2  1  0.500000  0.818570  0.202898  1
  Nd  Nd3  1  0.500000  0.181430  0.202898  1
  Nd  Nd4  1  0.000000  0.681430  0.797102  1
  Nd  Nd5  1  0.000000  0.318570  0.797102  1
  Ti  Ti6  1  0.500000  0.500000  0.154839  1
  Ti  Ti7  1  0.000000  0.000000  0.845161  1
  P  P8  1  0.500000  0.500000  0.880589  1
  P  P9  1  0.000000  0.000000  0.119411  1
  P  P10  1  0.500000  0.500000  0.345100  1
  P  P11  1  0.000000  0.000000  0.654900  1
  P  P12  1  0.500000  0.311288  0.616673  1
  P  P13  1  0.500000  0.688712  0.616673  1
  P  P14  1  0.000000  0.188712  0.383327  1
  P  P15  1  0.000000  0.811288  0.383327  1
  P  P16  1  0.500000  0.845835  0.889495  1
  P  P17  1  0.500000  0.154165  0.889495  1
  P  P18  1  0.000000  0.654165  0.110505  1
  P  P19  1  0.000000  0.345835  0.110505  1
  Ir  Ir20  1  0.500000  0.500000  0.699628  1
  Ir  Ir21  1  0.000000  0.000000  0.300372  1
  Ir  Ir22  1  0.000000  0.500000  0.990542  1
  Ir  Ir23  1  0.500000  0.000000  0.009458  1
  Ir  Ir24  1  0.500000  0.331701  0.987878  1
  Ir  Ir25  1  0.500000  0.668299  0.987878  1
  Ir  Ir26  1  0.000000  0.168299  0.012122  1
  Ir  Ir27  1  0.000000  0.831701  0.012122  1
  Ir  Ir28  1  0.500000  0.289951  0.430142  1
  Ir  Ir29  1  0.500000  0.710049  0.430142  1
  Ir  Ir30  1  0.000000  0.210049  0.569858  1
  Ir  Ir31  1  0.000000  0.789951  0.569858  1
  Ir  Ir32  1  0.500000  0.874922  0.710868  1
  Ir  Ir33  1  0.500000  0.125078  0.710868  1
  Ir  Ir34  1  0.000000  0.625078  0.289132  1
  Ir  Ir35  1  0.000000  0.374922  0.289132  1
