# generated using pymatgen
data_La16Er3MgIr12
_symmetry_space_group_name_H-M   'P 1'
_cell_length_a   11.35747600
_cell_length_b   11.35747600
_cell_length_c   6.47566000
_cell_angle_alpha   90.00000000
_cell_angle_beta   90.00000000
_cell_angle_gamma   90.00000000
_symmetry_Int_Tables_number   1
_chemical_formula_structural   La16Er3MgIr12
_chemical_formula_sum   'La16 Er3 Mg1 Ir12'
_cell_volume   835.31002545
_cell_formula_units_Z   1
loop_
 _symmetry_equiv_pos_site_id
 _symmetry_equiv_pos_as_xyz
  1  'x, y, z'
loop_
 _atom_site_type_symbol
 _atom_site_label
 _atom_site_symmetry_multiplicity
 _atom_site_fract_x
 _atom_site_fract_y
 _atom_site_fract_z
 _atom_site_occupancy
  La  La0  1  0.278619  0.084956  0.391567  1
  La  La1  1  0.287224  0.912190  0.890253  1
  La  La2  1  0.712776  0.087810  0.890253  1
  La  La3  1  0.721381  0.915044  0.391567  1
  La  La4  1  0.589218  0.788995  0.892490  1
  La  La5  1  0.586346  0.210792  0.389004  1
  La  La6  1  0.413654  0.789208  0.389004  1
  La  La7  1  0.410782  0.211005  0.892490  1
  La  La8  1  0.210792  0.413654  0.610996  1
  La  La9  1  0.211005  0.589218  0.107510  1
  La  La10  1  0.788995  0.410782  0.107510  1
  La  La11  1  0.789208  0.586346  0.610996  1
  La  La12  1  0.912190  0.712776  0.109747  1
  La  La13  1  0.915044  0.278619  0.608433  1
  La  La14  1  0.084956  0.721381  0.608433  1
  La  La15  1  0.087810  0.287224  0.109747  1
  Er  Er16  1  0.000000  0.000000  0.000000  1
  Er  Er17  1  0.500000  0.500000  0.000000  1
  Er  Er18  1  0.500000  0.500000  0.500000  1
  Mg  Mg19  1  0.000000  0.000000  0.500000  1
  Ir  Ir20  1  0.852292  0.151180  0.242890  1
  Ir  Ir21  1  0.848820  0.852292  0.757110  1
  Ir  Ir22  1  0.151180  0.147708  0.757110  1
  Ir  Ir23  1  0.147708  0.848820  0.242890  1
  Ir  Ir24  1  0.648174  0.352848  0.747358  1
  Ir  Ir25  1  0.647152  0.648174  0.252642  1
  Ir  Ir26  1  0.352848  0.351826  0.252642  1
  Ir  Ir27  1  0.351826  0.647152  0.747358  1
  Ir  Ir28  1  0.500000  0.000000  0.123657  1
  Ir  Ir29  1  0.500000  0.000000  0.619688  1
  Ir  Ir30  1  0.000000  0.500000  0.876343  1
  Ir  Ir31  1  0.000000  0.500000  0.380312  1
