# generated using pymatgen
data_BeFe5B2
_symmetry_space_group_name_H-M   'P 1'
_cell_length_a   6.30063850
_cell_length_b   6.30063837
_cell_length_c   6.30063902
_cell_angle_alpha   128.59851811
_cell_angle_beta   128.59851940
_cell_angle_gamma   75.65744055
_symmetry_Int_Tables_number   1
_chemical_formula_structural   BeFe5B2
_chemical_formula_sum   'Be2 Fe10 B4'
_cell_volume   148.62000857
_cell_formula_units_Z   2
loop_
 _symmetry_equiv_pos_site_id
 _symmetry_equiv_pos_as_xyz
  1  'x, y, z'
loop_
 _atom_site_type_symbol
 _atom_site_label
 _atom_site_symmetry_multiplicity
 _atom_site_fract_x
 _atom_site_fract_y
 _atom_site_fract_z
 _atom_site_occupancy
  Be  Be0  1  0.250000  0.250000  0.000000  1
  Be  Be1  1  0.750000  0.750000  0.000000  1
  Fe  Fe2  1  0.500000  0.500000  0.000000  1
  Fe  Fe3  1  0.311181  0.474657  0.500000  1
  Fe  Fe4  1  0.811181  0.311181  0.836523  1
  Fe  Fe5  1  0.688819  0.525343  0.500000  1
  Fe  Fe6  1  0.025343  0.188819  0.500000  1
  Fe  Fe7  1  0.525343  0.025343  0.836523  1
  Fe  Fe8  1  0.188819  0.688819  0.163477  1
  Fe  Fe9  1  0.474657  0.974657  0.163477  1
  Fe  Fe10  1  0.000000  0.000000  0.000000  1
  Fe  Fe11  1  0.974657  0.811181  0.500000  1
  B  B12  1  0.880106  0.380106  0.260212  1
  B  B13  1  0.380106  0.119894  0.500000  1
  B  B14  1  0.119894  0.619894  0.739788  1
  B  B15  1  0.619894  0.880106  0.500000  1
