# generated using pymatgen
data_LiNd19(Ir5Rh)2
_symmetry_space_group_name_H-M   'P 1'
_cell_length_a   11.21724561
_cell_length_b   11.21427361
_cell_length_c   6.52344300
_cell_angle_alpha   90.00000000
_cell_angle_beta   90.00000000
_cell_angle_gamma   89.92187049
_symmetry_Int_Tables_number   1
_chemical_formula_structural   LiNd19(Ir5Rh)2
_chemical_formula_sum   'Li1 Nd19 Ir10 Rh2'
_cell_volume   820.60440727
_cell_formula_units_Z   1
loop_
 _symmetry_equiv_pos_site_id
 _symmetry_equiv_pos_as_xyz
  1  'x, y, z'
loop_
 _atom_site_type_symbol
 _atom_site_label
 _atom_site_symmetry_multiplicity
 _atom_site_fract_x
 _atom_site_fract_y
 _atom_site_fract_z
 _atom_site_occupancy
  Li  Li0  1  0.000000  0.000000  0.000093  1
  Nd  Nd1  1  0.084341  0.276850  0.112151  1
  Nd  Nd2  1  0.792760  0.413798  0.116311  1
  Nd  Nd3  1  0.207240  0.586202  0.116311  1
  Nd  Nd4  1  0.915659  0.723150  0.112151  1
  Nd  Nd5  1  0.408264  0.791744  0.386421  1
  Nd  Nd6  1  0.591736  0.208256  0.386421  1
  Nd  Nd7  1  0.291075  0.089331  0.385991  1
  Nd  Nd8  1  0.708925  0.910669  0.385991  1
  Nd  Nd9  1  0.413651  0.207418  0.881185  1
  Nd  Nd10  1  0.723445  0.084404  0.884555  1
  Nd  Nd11  1  0.276555  0.915596  0.884555  1
  Nd  Nd12  1  0.586349  0.792582  0.881185  1
  Nd  Nd13  1  0.089355  0.708673  0.616442  1
  Nd  Nd14  1  0.910645  0.291327  0.616442  1
  Nd  Nd15  1  0.208473  0.408476  0.616487  1
  Nd  Nd16  1  0.791527  0.591524  0.616487  1
  Nd  Nd17  1  0.500000  0.500000  0.000257  1
  Nd  Nd18  1  0.500000  0.500000  0.499796  1
  Nd  Nd19  1  0.000000  0.000000  0.499953  1
  Ir  Ir20  1  0.156217  0.845193  0.257322  1
  Ir  Ir21  1  0.345116  0.345029  0.247040  1
  Ir  Ir22  1  0.654884  0.654971  0.247040  1
  Ir  Ir23  1  0.843783  0.154807  0.257322  1
  Ir  Ir24  1  0.345011  0.655167  0.753338  1
  Ir  Ir25  1  0.154802  0.155898  0.742513  1
  Ir  Ir26  1  0.845198  0.844102  0.742513  1
  Ir  Ir27  1  0.654989  0.344833  0.753338  1
  Ir  Ir28  1  0.500000  0.000000  0.622939  1
  Ir  Ir29  1  0.000000  0.500000  0.885486  1
  Rh  Rh30  1  0.000000  0.500000  0.378996  1
  Rh  Rh31  1  0.500000  0.000000  0.112968  1
