# generated using pymatgen
data_K4PrBiO6
_symmetry_space_group_name_H-M   'P 1'
_cell_length_a   6.30274090
_cell_length_b   6.30274045
_cell_length_c   6.65164328
_cell_angle_alpha   99.07211532
_cell_angle_beta   99.07211600
_cell_angle_gamma   119.99016598
_symmetry_Int_Tables_number   1
_chemical_formula_structural   K4PrBiO6
_chemical_formula_sum   'K4 Pr1 Bi1 O6'
_cell_volume   217.18149787
_cell_formula_units_Z   1
loop_
 _symmetry_equiv_pos_site_id
 _symmetry_equiv_pos_as_xyz
  1  'x, y, z'
loop_
 _atom_site_type_symbol
 _atom_site_label
 _atom_site_symmetry_multiplicity
 _atom_site_fract_x
 _atom_site_fract_y
 _atom_site_fract_z
 _atom_site_occupancy
  K  K0  1  0.498963  0.501035  0.000000  1
  K  K1  1  0.011867  0.988132  0.499998  1
  K  K2  1  0.654667  0.345333  0.500000  1
  K  K3  1  0.339833  0.660168  0.500000  1
  Pr  Pr4  1  0.832193  0.167806  0.000000  1
  Bi  Bi5  1  0.166695  0.833304  0.000000  1
  O  O6  1  0.963086  0.593193  0.197183  1
  O  O7  1  0.536660  0.936978  0.199597  1
  O  O8  1  0.196013  0.169808  0.195640  1
  O  O9  1  0.830194  0.803989  0.804362  1
  O  O10  1  0.063020  0.463339  0.800404  1
  O  O11  1  0.406807  0.036914  0.802817  1
