# generated using pymatgen
data_Lu8Hf11Si16Os
_symmetry_space_group_name_H-M   'P 1'
_cell_length_a   7.18368667
_cell_length_b   7.18368789
_cell_length_c   13.12485410
_cell_angle_alpha   89.91557981
_cell_angle_beta   90.08442204
_cell_angle_gamma   90.04231330
_symmetry_Int_Tables_number   1
_chemical_formula_structural   Lu8Hf11Si16Os
_chemical_formula_sum   'Lu8 Hf11 Si16 Os1'
_cell_volume   677.31120521
_cell_formula_units_Z   1
loop_
 _symmetry_equiv_pos_site_id
 _symmetry_equiv_pos_as_xyz
  1  'x, y, z'
loop_
 _atom_site_type_symbol
 _atom_site_label
 _atom_site_symmetry_multiplicity
 _atom_site_fract_x
 _atom_site_fract_y
 _atom_site_fract_z
 _atom_site_occupancy
  Lu  Lu0  1  0.998613  0.344285  0.211808  1
  Lu  Lu1  1  0.005144  0.654505  0.717708  1
  Lu  Lu2  1  0.155257  0.495023  0.465177  1
  Lu  Lu3  1  0.501721  0.846770  0.032822  1
  Lu  Lu4  1  0.846770  0.501721  0.967178  1
  Lu  Lu5  1  0.495023  0.155257  0.534823  1
  Lu  Lu6  1  0.344285  0.998613  0.788192  1
  Lu  Lu7  1  0.654505  0.005144  0.282292  1
  Hf  Hf8  1  0.824551  0.824551  0.500000  1
  Hf  Hf9  1  0.324530  0.675568  0.247591  1
  Hf  Hf10  1  0.675568  0.324530  0.752409  1
  Hf  Hf11  1  0.145108  0.999353  0.371943  1
  Hf  Hf12  1  0.853717  0.003544  0.878421  1
  Hf  Hf13  1  0.501255  0.645910  0.625667  1
  Hf  Hf14  1  0.353268  0.498474  0.876162  1
  Hf  Hf15  1  0.498474  0.353268  0.123838  1
  Hf  Hf16  1  0.645910  0.501255  0.374333  1
  Hf  Hf17  1  0.999353  0.145108  0.628057  1
  Hf  Hf18  1  0.003544  0.853717  0.121579  1
  Si  Si19  1  0.357556  0.294890  0.316260  1
  Si  Si20  1  0.642519  0.704881  0.819444  1
  Si  Si21  1  0.205635  0.859016  0.567863  1
  Si  Si22  1  0.139055  0.793943  0.930077  1
  Si  Si23  1  0.793943  0.139055  0.069923  1
  Si  Si24  1  0.859016  0.205635  0.432137  1
  Si  Si25  1  0.294890  0.357556  0.683740  1
  Si  Si26  1  0.704881  0.642519  0.180556  1
  Si  Si27  1  0.295432  0.053968  0.179805  1
  Si  Si28  1  0.700992  0.951293  0.685951  1
  Si  Si29  1  0.449924  0.799613  0.434512  1
  Si  Si30  1  0.203408  0.546199  0.064209  1
  Si  Si31  1  0.546199  0.203408  0.935791  1
  Si  Si32  1  0.799613  0.449924  0.565488  1
  Si  Si33  1  0.053968  0.295432  0.820195  1
  Si  Si34  1  0.951293  0.700992  0.314049  1
  Os  Os35  1  0.175087  0.175087  0.000000  1
