# generated using pymatgen
data_LaCd3(Ru2O7)2
_symmetry_space_group_name_H-M   'P 1'
_cell_length_a   7.32626377
_cell_length_b   7.32626320
_cell_length_c   7.32626425
_cell_angle_alpha   59.60190705
_cell_angle_beta   59.60190894
_cell_angle_gamma   59.60191051
_symmetry_Int_Tables_number   1
_chemical_formula_structural   LaCd3(Ru2O7)2
_chemical_formula_sum   'La1 Cd3 Ru4 O14'
_cell_volume   275.54037692
_cell_formula_units_Z   1
loop_
 _symmetry_equiv_pos_site_id
 _symmetry_equiv_pos_as_xyz
  1  'x, y, z'
loop_
 _atom_site_type_symbol
 _atom_site_label
 _atom_site_symmetry_multiplicity
 _atom_site_fract_x
 _atom_site_fract_y
 _atom_site_fract_z
 _atom_site_occupancy
  La  La0  1  0.125000  0.125000  0.125000  1
  Cd  Cd1  1  0.125000  0.625000  0.125000  1
  Cd  Cd2  1  0.125000  0.125000  0.625000  1
  Cd  Cd3  1  0.625000  0.125000  0.125000  1
  Ru  Ru4  1  0.625000  0.125000  0.625000  1
  Ru  Ru5  1  0.625000  0.625000  0.125000  1
  Ru  Ru6  1  0.125000  0.625000  0.625000  1
  Ru  Ru7  1  0.625000  0.625000  0.625000  1
  O  O8  1  0.689704  0.689704  0.308192  1
  O  O9  1  0.941808  0.560296  0.560296  1
  O  O10  1  0.551668  0.950751  0.950751  1
  O  O11  1  0.950751  0.950751  0.551668  1
  O  O12  1  0.950751  0.551668  0.950751  1
  O  O13  1  0.560296  0.941808  0.560296  1
  O  O14  1  0.299249  0.698332  0.299249  1
  O  O15  1  0.308192  0.689704  0.689704  1
  O  O16  1  0.698332  0.299249  0.299249  1
  O  O17  1  0.689704  0.308192  0.689704  1
  O  O18  1  0.560296  0.560296  0.941808  1
  O  O19  1  0.299249  0.299249  0.698332  1
  O  O20  1  0.257513  0.257513  0.257513  1
  O  O21  1  0.992487  0.992487  0.992487  1
