# generated using pymatgen
data_Zr11Ta9Si15Au
_symmetry_space_group_name_H-M   'P 1'
_cell_length_a   6.99563231
_cell_length_b   6.97202976
_cell_length_c   12.83889603
_cell_angle_alpha   90.12148300
_cell_angle_beta   89.69216683
_cell_angle_gamma   89.97956454
_symmetry_Int_Tables_number   1
_chemical_formula_structural   Zr11Ta9Si15Au
_chemical_formula_sum   'Zr11 Ta9 Si15 Au1'
_cell_volume   626.19070297
_cell_formula_units_Z   1
loop_
 _symmetry_equiv_pos_site_id
 _symmetry_equiv_pos_as_xyz
  1  'x, y, z'
loop_
 _atom_site_type_symbol
 _atom_site_label
 _atom_site_symmetry_multiplicity
 _atom_site_fract_x
 _atom_site_fract_y
 _atom_site_fract_z
 _atom_site_occupancy
  Zr  Zr0  1  0.499884  0.350772  0.623537  1
  Zr  Zr1  1  0.501342  0.650747  0.123862  1
  Zr  Zr2  1  0.147776  0.998249  0.873542  1
  Zr  Zr3  1  0.999764  0.655644  0.031276  1
  Zr  Zr4  1  0.992929  0.331793  0.531262  1
  Zr  Zr5  1  0.659286  0.000959  0.969540  1
  Zr  Zr6  1  0.152058  0.497371  0.782290  1
  Zr  Zr7  1  0.839122  0.496254  0.276452  1
  Zr  Zr8  1  0.502716  0.157843  0.218472  1
  Zr  Zr9  1  0.499625  0.843394  0.718415  1
  Zr  Zr10  1  0.349204  0.007160  0.468347  1
  Ta  Ta11  1  0.360942  0.504821  0.372644  1
  Ta  Ta12  1  0.844071  0.006773  0.368721  1
  Ta  Ta13  1  0.007695  0.153707  0.126282  1
  Ta  Ta14  1  0.991108  0.849507  0.633697  1
  Ta  Ta15  1  0.651651  0.489904  0.876563  1
  Ta  Ta16  1  0.663572  0.675609  0.501059  1
  Ta  Ta17  1  0.826079  0.170298  0.750459  1
  Ta  Ta18  1  0.174895  0.836527  0.248501  1
  Ta  Ta19  1  0.329441  0.326050  0.000824  1
  Si  Si20  1  0.953413  0.298343  0.936763  1
  Si  Si21  1  0.705713  0.042989  0.562563  1
  Si  Si22  1  0.200979  0.453948  0.187332  1
  Si  Si23  1  0.799543  0.546502  0.685514  1
  Si  Si24  1  0.455090  0.200076  0.815449  1
  Si  Si25  1  0.547579  0.802385  0.316140  1
  Si  Si26  1  0.301412  0.956786  0.064915  1
  Si  Si27  1  0.854002  0.787767  0.823652  1
  Si  Si28  1  0.139199  0.209809  0.324773  1
  Si  Si29  1  0.801771  0.863763  0.178331  1
  Si  Si30  1  0.291048  0.645904  0.572269  1
  Si  Si31  1  0.709507  0.356499  0.071137  1
  Si  Si32  1  0.639743  0.296768  0.426402  1
  Si  Si33  1  0.363431  0.698903  0.925970  1
  Si  Si34  1  0.201317  0.136362  0.676140  1
  Au  Au35  1  0.043091  0.699815  0.436902  1
