# generated using pymatgen
data_Ho4ScGa2Hg
_symmetry_space_group_name_H-M   'P 1'
_cell_length_a   7.45372600
_cell_length_b   7.45372600
_cell_length_c   14.85719000
_cell_angle_alpha   90.00000000
_cell_angle_beta   90.00000000
_cell_angle_gamma   90.00000000
_symmetry_Int_Tables_number   1
_chemical_formula_structural   Ho4ScGa2Hg
_chemical_formula_sum   'Ho16 Sc4 Ga8 Hg4'
_cell_volume   825.43622680
_cell_formula_units_Z   4
loop_
 _symmetry_equiv_pos_site_id
 _symmetry_equiv_pos_as_xyz
  1  'x, y, z'
loop_
 _atom_site_type_symbol
 _atom_site_label
 _atom_site_symmetry_multiplicity
 _atom_site_fract_x
 _atom_site_fract_y
 _atom_site_fract_z
 _atom_site_occupancy
  Ho  Ho0  1  0.831129  0.828233  0.892390  1
  Ho  Ho1  1  0.171767  0.168871  0.607610  1
  Ho  Ho2  1  0.831129  0.171767  0.392390  1
  Ho  Ho3  1  0.168871  0.828233  0.392390  1
  Ho  Ho4  1  0.328233  0.331129  0.392390  1
  Ho  Ho5  1  0.828233  0.168871  0.107610  1
  Ho  Ho6  1  0.328233  0.668871  0.892390  1
  Ho  Ho7  1  0.171767  0.831129  0.107610  1
  Ho  Ho8  1  0.331129  0.671767  0.607610  1
  Ho  Ho9  1  0.668871  0.671767  0.107610  1
  Ho  Ho10  1  0.668871  0.328233  0.607610  1
  Ho  Ho11  1  0.828233  0.831129  0.607610  1
  Ho  Ho12  1  0.671767  0.331129  0.892390  1
  Ho  Ho13  1  0.168871  0.171767  0.892390  1
  Ho  Ho14  1  0.671767  0.668871  0.392390  1
  Ho  Ho15  1  0.331129  0.328233  0.107610  1
  Sc  Sc16  1  0.500000  0.000000  0.752207  1
  Sc  Sc17  1  0.000000  0.500000  0.247793  1
  Sc  Sc18  1  0.000000  0.500000  0.747793  1
  Sc  Sc19  1  0.500000  0.000000  0.252207  1
  Ga  Ga20  1  0.625316  0.374684  0.250000  1
  Ga  Ga21  1  0.374684  0.625316  0.250000  1
  Ga  Ga22  1  0.125316  0.125316  0.250000  1
  Ga  Ga23  1  0.374684  0.374684  0.750000  1
  Ga  Ga24  1  0.125316  0.874684  0.750000  1
  Ga  Ga25  1  0.874684  0.874684  0.250000  1
  Ga  Ga26  1  0.625316  0.625316  0.750000  1
  Ga  Ga27  1  0.874684  0.125316  0.750000  1
  Hg  Hg28  1  0.000000  0.500000  0.001574  1
  Hg  Hg29  1  0.500000  0.000000  0.998426  1
  Hg  Hg30  1  0.500000  0.000000  0.498426  1
  Hg  Hg31  1  0.000000  0.500000  0.501574  1
