# generated using pymatgen
data_CeSm3Er4(ReB6)4
_symmetry_space_group_name_H-M   'P 1'
_cell_length_a   3.70441100
_cell_length_b   9.19416480
_cell_length_c   11.60937201
_cell_angle_alpha   90.05496020
_cell_angle_beta   90.00000000
_cell_angle_gamma   90.00000000
_symmetry_Int_Tables_number   1
_chemical_formula_structural   CeSm3Er4(ReB6)4
_chemical_formula_sum   'Ce1 Sm3 Er4 Re4 B24'
_cell_volume   395.40301595
_cell_formula_units_Z   1
loop_
 _symmetry_equiv_pos_site_id
 _symmetry_equiv_pos_as_xyz
  1  'x, y, z'
loop_
 _atom_site_type_symbol
 _atom_site_label
 _atom_site_symmetry_multiplicity
 _atom_site_fract_x
 _atom_site_fract_y
 _atom_site_fract_z
 _atom_site_occupancy
  Ce  Ce0  1  0.000000  0.323154  0.414264  1
  Sm  Sm1  1  0.000000  0.677570  0.586196  1
  Sm  Sm2  1  0.000000  0.822916  0.085666  1
  Sm  Sm3  1  0.000000  0.176832  0.913978  1
  Er  Er4  1  0.000000  0.942571  0.369771  1
  Er  Er5  1  0.000000  0.056767  0.630313  1
  Er  Er6  1  0.000000  0.443123  0.129606  1
  Er  Er7  1  0.000000  0.556928  0.869692  1
  Re  Re8  1  0.000000  0.638037  0.320657  1
  Re  Re9  1  0.000000  0.361007  0.678833  1
  Re  Re10  1  0.000000  0.140291  0.181200  1
  Re  Re11  1  0.000000  0.860839  0.819959  1
  B  B12  1  0.500000  0.553531  0.431235  1
  B  B13  1  0.500000  0.444949  0.568062  1
  B  B14  1  0.500000  0.054535  0.068536  1
  B  B15  1  0.500000  0.945904  0.931714  1
  B  B16  1  0.500000  0.750061  0.416888  1
  B  B17  1  0.500000  0.250154  0.582530  1
  B  B18  1  0.500000  0.249862  0.082790  1
  B  B19  1  0.500000  0.749926  0.917142  1
  B  B20  1  0.500000  0.791632  0.266066  1
  B  B21  1  0.500000  0.208362  0.734138  1
  B  B22  1  0.500000  0.291901  0.234443  1
  B  B23  1  0.500000  0.708066  0.765911  1
  B  B24  1  0.500000  0.630178  0.185657  1
  B  B25  1  0.500000  0.370173  0.814090  1
  B  B26  1  0.500000  0.130801  0.314556  1
  B  B27  1  0.500000  0.869961  0.685902  1
  B  B28  1  0.500000  0.983496  0.212807  1
  B  B29  1  0.500000  0.016811  0.787217  1
  B  B30  1  0.500000  0.483085  0.287260  1
  B  B31  1  0.500000  0.516701  0.713188  1
  B  B32  1  0.500000  0.597939  0.027048  1
  B  B33  1  0.500000  0.402196  0.972537  1
  B  B34  1  0.500000  0.098594  0.472645  1
  B  B35  1  0.500000  0.901148  0.527503  1
