# generated using pymatgen
data_Cs3Lu(AsO4)2
_symmetry_space_group_name_H-M   'P 1'
_cell_length_a   5.88851500
_cell_length_b   5.88851511
_cell_length_c   8.73376200
_cell_angle_alpha   90.00000000
_cell_angle_beta   90.00000000
_cell_angle_gamma   119.99999375
_symmetry_Int_Tables_number   1
_chemical_formula_structural   Cs3Lu(AsO4)2
_chemical_formula_sum   'Cs3 Lu1 As2 O8'
_cell_volume   262.26696573
_cell_formula_units_Z   1
loop_
 _symmetry_equiv_pos_site_id
 _symmetry_equiv_pos_as_xyz
  1  'x, y, z'
loop_
 _atom_site_type_symbol
 _atom_site_label
 _atom_site_symmetry_multiplicity
 _atom_site_fract_x
 _atom_site_fract_y
 _atom_site_fract_z
 _atom_site_occupancy
  Cs  Cs0  1  0.333333  0.666667  0.765046  1
  Cs  Cs1  1  0.666667  0.333333  0.234954  1
  Cs  Cs2  1  0.000000  0.000000  0.000000  1
  Lu  Lu3  1  0.000000  0.000000  0.500000  1
  As  As4  1  0.333333  0.666667  0.288927  1
  As  As5  1  0.666667  0.333333  0.711073  1
  O  O6  1  0.333333  0.666667  0.094533  1
  O  O7  1  0.666667  0.333333  0.905467  1
  O  O8  1  0.173491  0.826509  0.352719  1
  O  O9  1  0.826509  0.173491  0.647281  1
  O  O10  1  0.173491  0.346982  0.352719  1
  O  O11  1  0.826509  0.653018  0.647281  1
  O  O12  1  0.653018  0.826509  0.352719  1
  O  O13  1  0.346982  0.173491  0.647281  1
