# generated using pymatgen
data_La2ErSi4(PPd10)2
_symmetry_space_group_name_H-M   'P 1'
_cell_length_a   8.75543046
_cell_length_b   8.75417641
_cell_length_c   8.75547718
_cell_angle_alpha   60.00490602
_cell_angle_beta   59.98345549
_cell_angle_gamma   60.00496592
_symmetry_Int_Tables_number   1
_chemical_formula_structural   La2ErSi4(PPd10)2
_chemical_formula_sum   'La2 Er1 Si4 P2 Pd20'
_cell_volume   474.49941067
_cell_formula_units_Z   1
loop_
 _symmetry_equiv_pos_site_id
 _symmetry_equiv_pos_as_xyz
  1  'x, y, z'
loop_
 _atom_site_type_symbol
 _atom_site_label
 _atom_site_symmetry_multiplicity
 _atom_site_fract_x
 _atom_site_fract_y
 _atom_site_fract_z
 _atom_site_occupancy
  La  La0  1  0.750942  0.749862  0.749334  1
  La  La1  1  0.250668  0.250140  0.249055  1
  Er  Er2  1  0.998718  0.999998  0.001282  1
  Si  Si3  1  0.735535  0.265926  0.264465  1
  Si  Si4  1  0.735535  0.734073  0.264465  1
  Si  Si5  1  0.736934  0.264493  0.734079  1
  Si  Si6  1  0.265921  0.735506  0.263066  1
  P  P7  1  0.264518  0.737414  0.735482  1
  P  P8  1  0.264518  0.262585  0.735483  1
  Pd  Pd9  1  0.344389  0.002642  0.999271  1
  Pd  Pd10  1  0.999497  0.655196  0.345931  1
  Pd  Pd11  1  0.344423  0.999998  0.655579  1
  Pd  Pd12  1  0.001653  0.655665  0.998346  1
  Pd  Pd13  1  0.654068  0.344808  0.000500  1
  Pd  Pd14  1  0.614018  0.614653  0.156674  1
  Pd  Pd15  1  0.385034  0.842185  0.387583  1
  Pd  Pd16  1  0.159136  0.613129  0.614606  1
  Pd  Pd17  1  0.654839  0.999999  0.345162  1
  Pd  Pd18  1  0.000733  0.346301  0.655610  1
  Pd  Pd19  1  0.654066  0.000625  0.000503  1
  Pd  Pd20  1  0.999497  0.999373  0.345934  1
  Pd  Pd21  1  0.612417  0.157817  0.614966  1
  Pd  Pd22  1  0.344390  0.653700  0.999267  1
  Pd  Pd23  1  0.385035  0.385202  0.387585  1
  Pd  Pd24  1  0.612416  0.614798  0.614968  1
  Pd  Pd25  1  0.385395  0.386872  0.840866  1
  Pd  Pd26  1  0.000731  0.997357  0.655611  1
  Pd  Pd27  1  0.843323  0.385345  0.385986  1
  Pd  Pd28  1  0.001652  0.344338  0.998344  1
