# generated using pymatgen
data_Dy3CdIn3IrAu
_symmetry_space_group_name_H-M   'P 1'
_cell_length_a   8.01261600
_cell_length_b   8.01261426
_cell_length_c   3.78447400
_cell_angle_alpha   90.00000000
_cell_angle_beta   90.00000000
_cell_angle_gamma   120.00000717
_symmetry_Int_Tables_number   1
_chemical_formula_structural   Dy3CdIn3IrAu
_chemical_formula_sum   'Dy3 Cd1 In3 Ir1 Au1'
_cell_volume   210.41887380
_cell_formula_units_Z   1
loop_
 _symmetry_equiv_pos_site_id
 _symmetry_equiv_pos_as_xyz
  1  'x, y, z'
loop_
 _atom_site_type_symbol
 _atom_site_label
 _atom_site_symmetry_multiplicity
 _atom_site_fract_x
 _atom_site_fract_y
 _atom_site_fract_z
 _atom_site_occupancy
  Dy  Dy0  1  0.580610  0.616789  0.000000  1
  Dy  Dy1  1  0.383211  0.963821  0.000000  1
  Dy  Dy2  1  0.036179  0.419390  0.000000  1
  Cd  Cd3  1  0.666667  0.333333  0.500000  1
  In  In4  1  0.994553  0.728428  0.500000  1
  In  In5  1  0.271572  0.266124  0.500000  1
  In  In6  1  0.733876  0.005447  0.500000  1
  Ir  Ir7  1  0.333333  0.666667  0.500000  1
  Au  Au8  1  0.000000  0.000000  0.000000  1
