# generated using pymatgen
data_TbCe3(Si5Os3)2
_symmetry_space_group_name_H-M   'P 1'
_cell_length_a   8.17219259
_cell_length_b   8.17090901
_cell_length_c   5.82810647
_cell_angle_alpha   70.41828439
_cell_angle_beta   70.53233319
_cell_angle_gamma   93.65305593
_symmetry_Int_Tables_number   1
_chemical_formula_structural   TbCe3(Si5Os3)2
_chemical_formula_sum   'Tb1 Ce3 Si10 Os6'
_cell_volume   338.89054309
_cell_formula_units_Z   1
loop_
 _symmetry_equiv_pos_site_id
 _symmetry_equiv_pos_as_xyz
  1  'x, y, z'
loop_
 _atom_site_type_symbol
 _atom_site_label
 _atom_site_symmetry_multiplicity
 _atom_site_fract_x
 _atom_site_fract_y
 _atom_site_fract_z
 _atom_site_occupancy
  Tb  Tb0  1  0.866670  0.601849  0.757624  1
  Ce  Ce1  1  0.399430  0.131951  0.741933  1
  Ce  Ce2  1  0.132330  0.399245  0.242461  1
  Ce  Ce3  1  0.601220  0.866839  0.258531  1
  Si  Si4  1  0.061779  0.261294  0.835455  1
  Si  Si5  1  0.739163  0.936679  0.665161  1
  Si  Si6  1  0.937319  0.738245  0.164299  1
  Si  Si7  1  0.262044  0.061898  0.334886  1
  Si  Si8  1  0.205238  0.791449  0.749088  1
  Si  Si9  1  0.792198  0.206466  0.252980  1
  Si  Si10  1  0.515212  0.487695  0.748100  1
  Si  Si11  1  0.487578  0.513146  0.249922  1
  Si  Si12  1  0.773057  0.227665  0.748702  1
  Si  Si13  1  0.224985  0.773687  0.252754  1
  Os  Os14  1  0.255581  0.540995  0.634725  1
  Os  Os15  1  0.456454  0.745113  0.866788  1
  Os  Os16  1  0.744853  0.458316  0.365500  1
  Os  Os17  1  0.543452  0.255692  0.134042  1
  Os  Os18  1  0.003721  0.998352  0.748246  1
  Os  Os19  1  0.997717  0.003423  0.248802  1
