# generated using pymatgen
data_Ho6Er9Th(CdPt)4
_symmetry_space_group_name_H-M   'P 1'
_cell_length_a   9.63117891
_cell_length_b   9.63118010
_cell_length_c   9.63117944
_cell_angle_alpha   60.24179905
_cell_angle_beta   60.24179636
_cell_angle_gamma   60.24179628
_symmetry_Int_Tables_number   1
_chemical_formula_structural   Ho6Er9Th(CdPt)4
_chemical_formula_sum   'Ho6 Er9 Th1 Cd4 Pt4'
_cell_volume   635.17611565
_cell_formula_units_Z   1
loop_
 _symmetry_equiv_pos_site_id
 _symmetry_equiv_pos_as_xyz
  1  'x, y, z'
loop_
 _atom_site_type_symbol
 _atom_site_label
 _atom_site_symmetry_multiplicity
 _atom_site_fract_x
 _atom_site_fract_y
 _atom_site_fract_z
 _atom_site_occupancy
  Ho  Ho0  1  0.185242  0.816584  0.816584  1
  Ho  Ho1  1  0.813831  0.186645  0.186645  1
  Ho  Ho2  1  0.816584  0.185242  0.816584  1
  Ho  Ho3  1  0.186645  0.813831  0.186645  1
  Ho  Ho4  1  0.816584  0.816584  0.185242  1
  Ho  Ho5  1  0.186645  0.186645  0.813831  1
  Er  Er6  1  0.603786  0.603786  0.189401  1
  Er  Er7  1  0.603786  0.189401  0.603786  1
  Er  Er8  1  0.189401  0.603786  0.603786  1
  Er  Er9  1  0.062974  0.438716  0.438716  1
  Er  Er10  1  0.440321  0.060803  0.060803  1
  Er  Er11  1  0.438716  0.062974  0.438716  1
  Er  Er12  1  0.060803  0.440321  0.060803  1
  Er  Er13  1  0.438716  0.438716  0.062974  1
  Er  Er14  1  0.060803  0.060803  0.440321  1
  Th  Th15  1  0.599657  0.599657  0.599657  1
  Cd  Cd16  1  0.831808  0.831808  0.831808  1
  Cd  Cd17  1  0.832889  0.832889  0.502541  1
  Cd  Cd18  1  0.832889  0.502541  0.832889  1
  Cd  Cd19  1  0.502541  0.832889  0.832889  1
  Pt  Pt20  1  0.394088  0.394088  0.394088  1
  Pt  Pt21  1  0.390023  0.390023  0.821246  1
  Pt  Pt22  1  0.390023  0.821246  0.390023  1
  Pt  Pt23  1  0.821246  0.390023  0.390023  1
