# generated using pymatgen
data_Dy2Ho14Cd4Ru3Rh
_symmetry_space_group_name_H-M   'P 1'
_cell_length_a   9.57840273
_cell_length_b   9.57840183
_cell_length_c   9.57649840
_cell_angle_alpha   60.21424834
_cell_angle_beta   60.21425054
_cell_angle_gamma   60.20749685
_symmetry_Int_Tables_number   1
_chemical_formula_structural   Dy2Ho14Cd4Ru3Rh
_chemical_formula_sum   'Dy2 Ho14 Cd4 Ru3 Rh1'
_cell_volume   624.24854995
_cell_formula_units_Z   1
loop_
 _symmetry_equiv_pos_site_id
 _symmetry_equiv_pos_as_xyz
  1  'x, y, z'
loop_
 _atom_site_type_symbol
 _atom_site_label
 _atom_site_symmetry_multiplicity
 _atom_site_fract_x
 _atom_site_fract_y
 _atom_site_fract_z
 _atom_site_occupancy
  Dy  Dy0  1  0.938055  0.938055  0.561451  1
  Dy  Dy1  1  0.562402  0.562402  0.935903  1
  Ho  Ho2  1  0.688874  0.688874  0.311181  1
  Ho  Ho3  1  0.151494  0.543375  0.151649  1
  Ho  Ho4  1  0.688808  0.311217  0.688773  1
  Ho  Ho5  1  0.152803  0.152803  0.152567  1
  Ho  Ho6  1  0.543375  0.151494  0.151649  1
  Ho  Ho7  1  0.690471  0.311297  0.311249  1
  Ho  Ho8  1  0.151610  0.151610  0.543536  1
  Ho  Ho9  1  0.311297  0.690471  0.311249  1
  Ho  Ho10  1  0.311217  0.688808  0.688773  1
  Ho  Ho11  1  0.936092  0.562132  0.562174  1
  Ho  Ho12  1  0.938271  0.561281  0.938249  1
  Ho  Ho13  1  0.562132  0.936092  0.562174  1
  Ho  Ho14  1  0.561281  0.938271  0.938249  1
  Ho  Ho15  1  0.311171  0.311171  0.690506  1
  Cd  Cd16  1  0.919818  0.919818  0.240707  1
  Cd  Cd17  1  0.240700  0.920118  0.919838  1
  Cd  Cd18  1  0.919320  0.919320  0.919664  1
  Cd  Cd19  1  0.920118  0.240700  0.919838  1
  Ru  Ru20  1  0.359839  0.359839  0.921447  1
  Ru  Ru21  1  0.360097  0.921473  0.359845  1
  Ru  Ru22  1  0.921473  0.360097  0.359845  1
  Rh  Rh23  1  0.359279  0.359279  0.359482  1
