# generated using pymatgen
data_Tb2Pa(AlRh)3
_symmetry_space_group_name_H-M   'P 1'
_cell_length_a   7.16300164
_cell_length_b   7.29503284
_cell_length_c   3.90086600
_cell_angle_alpha   90.00000000
_cell_angle_beta   90.00000000
_cell_angle_gamma   120.61163991
_symmetry_Int_Tables_number   1
_chemical_formula_structural   Tb2Pa(AlRh)3
_chemical_formula_sum   'Tb2 Pa1 Al3 Rh3'
_cell_volume   175.43011637
_cell_formula_units_Z   1
loop_
 _symmetry_equiv_pos_site_id
 _symmetry_equiv_pos_as_xyz
  1  'x, y, z'
loop_
 _atom_site_type_symbol
 _atom_site_label
 _atom_site_symmetry_multiplicity
 _atom_site_fract_x
 _atom_site_fract_y
 _atom_site_fract_z
 _atom_site_occupancy
  Tb  Tb0  1  0.413932  0.419060  0.500000  1
  Tb  Tb1  1  0.586068  0.005126  0.500000  1
  Pa  Pa2  1  0.000000  0.577228  0.500000  1
  Al  Al3  1  0.752275  0.759814  0.000000  1
  Al  Al4  1  0.247725  0.007539  0.000000  1
  Al  Al5  1  0.000000  0.225817  0.000000  1
  Rh  Rh6  1  0.300399  0.662215  0.000000  1
  Rh  Rh7  1  0.699601  0.361815  0.000000  1
  Rh  Rh8  1  0.000000  0.981384  0.500000  1
