# generated using pymatgen
data_DyHo7Sc12GaSi15
_symmetry_space_group_name_H-M   'P 1'
_cell_length_a   7.09194278
_cell_length_b   7.38312316
_cell_length_c   14.00528891
_cell_angle_alpha   89.95775363
_cell_angle_beta   89.96907665
_cell_angle_gamma   90.00563387
_symmetry_Int_Tables_number   1
_chemical_formula_structural   DyHo7Sc12GaSi15
_chemical_formula_sum   'Dy1 Ho7 Sc12 Ga1 Si15'
_cell_volume   733.32623845
_cell_formula_units_Z   1
loop_
 _symmetry_equiv_pos_site_id
 _symmetry_equiv_pos_as_xyz
  1  'x, y, z'
loop_
 _atom_site_type_symbol
 _atom_site_label
 _atom_site_symmetry_multiplicity
 _atom_site_fract_x
 _atom_site_fract_y
 _atom_site_fract_z
 _atom_site_occupancy
  Dy  Dy0  1  0.011966  0.175436  0.096942  1
  Ho  Ho1  1  0.987908  0.824596  0.903425  1
  Ho  Ho2  1  0.487679  0.676399  0.903338  1
  Ho  Ho3  1  0.987374  0.826435  0.597511  1
  Ho  Ho4  1  0.512193  0.323848  0.096873  1
  Ho  Ho5  1  0.011055  0.174196  0.401672  1
  Ho  Ho6  1  0.512955  0.323368  0.401655  1
  Ho  Ho7  1  0.489817  0.678286  0.597537  1
  Sc  Sc8  1  0.161107  0.502897  0.751390  1
  Sc  Sc9  1  0.838933  0.497313  0.249924  1
  Sc  Sc10  1  0.338940  0.002791  0.249759  1
  Sc  Sc11  1  0.661403  0.996511  0.750130  1
  Sc  Sc12  1  0.332295  0.174209  0.625928  1
  Sc  Sc13  1  0.668592  0.823961  0.374492  1
  Sc  Sc14  1  0.169913  0.677468  0.373640  1
  Sc  Sc15  1  0.669584  0.823528  0.125193  1
  Sc  Sc16  1  0.828631  0.323093  0.625498  1
  Sc  Sc17  1  0.330248  0.175979  0.875008  1
  Sc  Sc18  1  0.830422  0.323093  0.875024  1
  Sc  Sc19  1  0.169258  0.676774  0.125257  1
  Ga  Ga20  1  0.160257  0.462757  0.539261  1
  Si  Si21  1  0.033630  0.117380  0.750686  1
  Si  Si22  1  0.966477  0.883461  0.249724  1
  Si  Si23  1  0.467628  0.615697  0.249954  1
  Si  Si24  1  0.532134  0.384965  0.749772  1
  Si  Si25  1  0.284568  0.872475  0.750375  1
  Si  Si26  1  0.714437  0.127599  0.249622  1
  Si  Si27  1  0.214497  0.372227  0.249531  1
  Si  Si28  1  0.785706  0.627502  0.750789  1
  Si  Si29  1  0.841156  0.535790  0.460385  1
  Si  Si30  1  0.341388  0.964465  0.460227  1
  Si  Si31  1  0.841815  0.535457  0.038688  1
  Si  Si32  1  0.657864  0.035568  0.539066  1
  Si  Si33  1  0.158125  0.464550  0.961562  1
  Si  Si34  1  0.657545  0.035163  0.960633  1
  Si  Si35  1  0.342500  0.964766  0.039528  1
