# generated using pymatgen
data_CaLaAl20(ReIr)2
_symmetry_space_group_name_H-M   'P 1'
_cell_length_a   6.92677845
_cell_length_b   6.92677852
_cell_length_c   9.24825550
_cell_angle_alpha   90.44790938
_cell_angle_beta   90.44790703
_cell_angle_gamma   96.60933172
_symmetry_Int_Tables_number   1
_chemical_formula_structural   CaLaAl20(ReIr)2
_chemical_formula_sum   'Ca1 La1 Al20 Re2 Ir2'
_cell_volume   440.75422335
_cell_formula_units_Z   1
loop_
 _symmetry_equiv_pos_site_id
 _symmetry_equiv_pos_as_xyz
  1  'x, y, z'
loop_
 _atom_site_type_symbol
 _atom_site_label
 _atom_site_symmetry_multiplicity
 _atom_site_fract_x
 _atom_site_fract_y
 _atom_site_fract_z
 _atom_site_occupancy
  Ca  Ca0  1  0.873575  0.126425  0.750000  1
  La  La1  1  0.124635  0.875365  0.250000  1
  Al  Al2  1  0.620681  0.376228  0.546363  1
  Al  Al3  1  0.381031  0.623068  0.450816  1
  Al  Al4  1  0.376932  0.618969  0.049184  1
  Al  Al5  1  0.623772  0.379319  0.953637  1
  Al  Al6  1  0.224192  0.225466  0.500802  1
  Al  Al7  1  0.774992  0.777788  0.504000  1
  Al  Al8  1  0.774534  0.775808  0.999198  1
  Al  Al9  1  0.222212  0.225008  0.996000  1
  Al  Al10  1  0.842158  0.160557  0.099088  1
  Al  Al11  1  0.158062  0.837448  0.897196  1
  Al  Al12  1  0.162552  0.841938  0.602804  1
  Al  Al13  1  0.839443  0.157842  0.400912  1
  Al  Al14  1  0.858766  0.587962  0.750767  1
  Al  Al15  1  0.139882  0.407017  0.249417  1
  Al  Al16  1  0.412038  0.141234  0.749233  1
  Al  Al17  1  0.592983  0.860118  0.250583  1
  Al  Al18  1  0.219249  0.476116  0.754431  1
  Al  Al19  1  0.777268  0.519843  0.245235  1
  Al  Al20  1  0.523884  0.780751  0.745569  1
  Al  Al21  1  0.480157  0.222732  0.254765  1
  Re  Re22  1  0.999562  0.500273  0.999690  1
  Re  Re23  1  0.499727  0.000438  0.500310  1
  Ir  Ir24  1  0.999728  0.502014  0.500514  1
  Ir  Ir25  1  0.497986  0.000272  0.999486  1
