# generated using pymatgen
data_Sc12Co4SnRu
_symmetry_space_group_name_H-M   'P 1'
_cell_length_a   7.73694671
_cell_length_b   7.73694604
_cell_length_c   7.73694610
_cell_angle_alpha   111.30355949
_cell_angle_beta   111.09100003
_cell_angle_gamma   106.07173340
_symmetry_Int_Tables_number   1
_chemical_formula_structural   Sc12Co4SnRu
_chemical_formula_sum   'Sc12 Co4 Sn1 Ru1'
_cell_volume   355.58698704
_cell_formula_units_Z   1
loop_
 _symmetry_equiv_pos_site_id
 _symmetry_equiv_pos_as_xyz
  1  'x, y, z'
loop_
 _atom_site_type_symbol
 _atom_site_label
 _atom_site_symmetry_multiplicity
 _atom_site_fract_x
 _atom_site_fract_y
 _atom_site_fract_z
 _atom_site_occupancy
  Sc  Sc0  1  0.418413  0.221530  0.196881  1
  Sc  Sc1  1  0.581587  0.778470  0.803119  1
  Sc  Sc2  1  0.024649  0.221530  0.803119  1
  Sc  Sc3  1  0.975351  0.778470  0.196881  1
  Sc  Sc4  1  0.185436  0.278912  0.464347  1
  Sc  Sc5  1  0.814564  0.721088  0.535653  1
  Sc  Sc6  1  0.185436  0.721088  0.906524  1
  Sc  Sc7  1  0.814564  0.278912  0.093476  1
  Sc  Sc8  1  0.311973  0.615354  0.303380  1
  Sc  Sc9  1  0.688027  0.384646  0.696620  1
  Sc  Sc10  1  0.311973  0.008593  0.696620  1
  Sc  Sc11  1  0.688027  0.991407  0.303380  1
  Co  Co12  1  0.367043  0.000000  0.367043  1
  Co  Co13  1  0.632957  0.000000  0.632957  1
  Co  Co14  1  0.117774  0.617774  0.500000  1
  Co  Co15  1  0.882226  0.382226  0.500000  1
  Sn  Sn16  1  0.500000  0.500000  0.000000  1
  Ru  Ru17  1  0.000000  0.000000  0.000000  1
