# generated using pymatgen
data_Rb4Y4Bi3(SbSe4)5
_symmetry_space_group_name_H-M   'P 1'
_cell_length_a   4.12944800
_cell_length_b   12.40205711
_cell_length_c   22.29553697
_cell_angle_alpha   90.24329343
_cell_angle_beta   90.00000000
_cell_angle_gamma   90.00000000
_symmetry_Int_Tables_number   1
_chemical_formula_structural   Rb4Y4Bi3(SbSe4)5
_chemical_formula_sum   'Rb4 Y4 Bi3 Sb5 Se20'
_cell_volume   1141.82553117
_cell_formula_units_Z   1
loop_
 _symmetry_equiv_pos_site_id
 _symmetry_equiv_pos_as_xyz
  1  'x, y, z'
loop_
 _atom_site_type_symbol
 _atom_site_label
 _atom_site_symmetry_multiplicity
 _atom_site_fract_x
 _atom_site_fract_y
 _atom_site_fract_z
 _atom_site_occupancy
  Rb  Rb0  1  0.250000  0.489850  0.210421  1
  Rb  Rb1  1  0.750000  0.511350  0.790269  1
  Rb  Rb2  1  0.750000  0.990391  0.290246  1
  Rb  Rb3  1  0.250000  0.010685  0.709012  1
  Y  Y4  1  0.250000  0.364931  0.023760  1
  Y  Y5  1  0.750000  0.635164  0.976468  1
  Y  Y6  1  0.750000  0.863793  0.476740  1
  Y  Y7  1  0.250000  0.135077  0.522984  1
  Bi  Bi8  1  0.750000  0.404676  0.574329  1
  Bi  Bi9  1  0.750000  0.095331  0.075109  1
  Bi  Bi10  1  0.250000  0.904793  0.925005  1
  Sb  Sb11  1  0.250000  0.806276  0.125489  1
  Sb  Sb12  1  0.750000  0.193762  0.874575  1
  Sb  Sb13  1  0.750000  0.309171  0.375286  1
  Sb  Sb14  1  0.250000  0.693190  0.624360  1
  Sb  Sb15  1  0.250000  0.596288  0.425936  1
  Se  Se16  1  0.250000  0.802911  0.390216  1
  Se  Se17  1  0.750000  0.189123  0.609863  1
  Se  Se18  1  0.750000  0.311278  0.110429  1
  Se  Se19  1  0.250000  0.688788  0.889732  1
  Se  Se20  1  0.250000  0.255029  0.299833  1
  Se  Se21  1  0.750000  0.747830  0.699650  1
  Se  Se22  1  0.750000  0.752574  0.200669  1
  Se  Se23  1  0.250000  0.247487  0.799519  1
  Se  Se24  1  0.250000  0.355471  0.480664  1
  Se  Se25  1  0.750000  0.642930  0.517544  1
  Se  Se26  1  0.750000  0.856050  0.019269  1
  Se  Se27  1  0.250000  0.143896  0.980993  1
  Se  Se28  1  0.250000  0.021035  0.159536  1
  Se  Se29  1  0.750000  0.978935  0.840647  1
  Se  Se30  1  0.750000  0.524099  0.343241  1
  Se  Se31  1  0.250000  0.479938  0.658998  1
  Se  Se32  1  0.250000  0.584031  0.061047  1
  Se  Se33  1  0.750000  0.416125  0.939199  1
  Se  Se34  1  0.750000  0.081714  0.438406  1
  Se  Se35  1  0.250000  0.916029  0.560555  1
