# generated using pymatgen
data_Rb4Na2GdTlAs4
_symmetry_space_group_name_H-M   'P 1'
_cell_length_a   9.51651233
_cell_length_b   9.51350388
_cell_length_c   9.52742628
_cell_angle_alpha   136.16754211
_cell_angle_beta   62.88837249
_cell_angle_gamma   137.24761296
_symmetry_Int_Tables_number   1
_chemical_formula_structural   Rb4Na2GdTlAs4
_chemical_formula_sum   'Rb4 Na2 Gd1 Tl1 As4'
_cell_volume   400.46506551
_cell_formula_units_Z   1
loop_
 _symmetry_equiv_pos_site_id
 _symmetry_equiv_pos_as_xyz
  1  'x, y, z'
loop_
 _atom_site_type_symbol
 _atom_site_label
 _atom_site_symmetry_multiplicity
 _atom_site_fract_x
 _atom_site_fract_y
 _atom_site_fract_z
 _atom_site_occupancy
  Rb  Rb0  1  0.837125  0.242800  0.050060  1
  Rb  Rb1  1  0.663241  0.713050  0.405546  1
  Rb  Rb2  1  0.307212  0.257610  0.594661  1
  Rb  Rb3  1  0.192682  0.786906  0.949904  1
  Na  Na4  1  0.250178  0.250036  0.999958  1
  Na  Na5  1  0.750062  0.749954  0.000049  1
  Gd  Gd6  1  0.749881  0.249942  0.499908  1
  Tl  Tl7  1  0.249894  0.749828  0.500013  1
  As  As8  1  0.400648  0.775581  0.175515  1
  As  As9  1  0.099036  0.273859  0.374157  1
  As  As10  1  0.899754  0.725251  0.626013  1
  As  As11  1  0.600284  0.225179  0.824217  1
