# generated using pymatgen
data_Ho8TaTi11Si15Pb
_symmetry_space_group_name_H-M   'P 1'
_cell_length_a   7.10771448
_cell_length_b   7.06438135
_cell_length_c   13.02407771
_cell_angle_alpha   89.92646172
_cell_angle_beta   89.75336854
_cell_angle_gamma   89.97504787
_symmetry_Int_Tables_number   1
_chemical_formula_structural   Ho8TaTi11Si15Pb
_chemical_formula_sum   'Ho8 Ta1 Ti11 Si15 Pb1'
_cell_volume   653.95319626
_cell_formula_units_Z   1
loop_
 _symmetry_equiv_pos_site_id
 _symmetry_equiv_pos_as_xyz
  1  'x, y, z'
loop_
 _atom_site_type_symbol
 _atom_site_label
 _atom_site_symmetry_multiplicity
 _atom_site_fract_x
 _atom_site_fract_y
 _atom_site_fract_z
 _atom_site_occupancy
  Ho  Ho0  1  0.343976  0.997762  0.460054  1
  Ho  Ho1  1  0.507432  0.834106  0.718775  1
  Ho  Ho2  1  0.501648  0.159557  0.216702  1
  Ho  Ho3  1  0.840754  0.497061  0.281572  1
  Ho  Ho4  1  0.159151  0.510716  0.786881  1
  Ho  Ho5  1  0.661556  0.996638  0.969431  1
  Ho  Ho6  1  0.990592  0.350257  0.526104  1
  Ho  Ho7  1  0.999882  0.658982  0.034237  1
  Ta  Ta8  1  0.326867  0.326889  0.001623  1
  Ti  Ti9  1  0.174218  0.825832  0.249519  1
  Ti  Ti10  1  0.813675  0.175891  0.752793  1
  Ti  Ti11  1  0.671990  0.672547  0.499425  1
  Ti  Ti12  1  0.154401  0.008596  0.884878  1
  Ti  Ti13  1  0.492074  0.649646  0.125718  1
  Ti  Ti14  1  0.516329  0.355002  0.626341  1
  Ti  Ti15  1  0.654357  0.493584  0.877110  1
  Ti  Ti16  1  0.347165  0.509076  0.372718  1
  Ti  Ti17  1  0.846370  0.993103  0.375357  1
  Ti  Ti18  1  0.010383  0.152974  0.123246  1
  Ti  Ti19  1  0.977337  0.831884  0.617787  1
  Si  Si20  1  0.371501  0.702842  0.936047  1
  Si  Si21  1  0.627127  0.297459  0.432286  1
  Si  Si22  1  0.703486  0.369540  0.067107  1
  Si  Si23  1  0.296775  0.630652  0.565597  1
  Si  Si24  1  0.797796  0.870085  0.184116  1
  Si  Si25  1  0.129419  0.202666  0.315078  1
  Si  Si26  1  0.871253  0.800663  0.816426  1
  Si  Si27  1  0.293826  0.952102  0.067564  1
  Si  Si28  1  0.550036  0.789324  0.313267  1
  Si  Si29  1  0.462279  0.209372  0.820872  1
  Si  Si30  1  0.794543  0.544186  0.687049  1
  Si  Si31  1  0.208096  0.453258  0.186101  1
  Si  Si32  1  0.705994  0.048339  0.564363  1
  Si  Si33  1  0.952787  0.292447  0.935394  1
  Si  Si34  1  0.047883  0.711099  0.432046  1
  Pb  Pb35  1  0.197039  0.125862  0.676414  1
