# generated using pymatgen
data_Ho3Co4P6Ru5
_symmetry_space_group_name_H-M   'P 1'
_cell_length_a   3.85283600
_cell_length_b   10.66802400
_cell_length_c   12.55407600
_cell_angle_alpha   90.00000000
_cell_angle_beta   90.00000000
_cell_angle_gamma   90.00000000
_symmetry_Int_Tables_number   1
_chemical_formula_structural   Ho3Co4P6Ru5
_chemical_formula_sum   'Ho6 Co8 P12 Ru10'
_cell_volume   515.99947615
_cell_formula_units_Z   2
loop_
 _symmetry_equiv_pos_site_id
 _symmetry_equiv_pos_as_xyz
  1  'x, y, z'
loop_
 _atom_site_type_symbol
 _atom_site_label
 _atom_site_symmetry_multiplicity
 _atom_site_fract_x
 _atom_site_fract_y
 _atom_site_fract_z
 _atom_site_occupancy
  Ho  Ho0  1  0.000000  0.500000  0.527511  1
  Ho  Ho1  1  0.500000  0.000000  0.472489  1
  Ho  Ho2  1  0.500000  0.821776  0.200545  1
  Ho  Ho3  1  0.500000  0.178224  0.200545  1
  Ho  Ho4  1  0.000000  0.678224  0.799455  1
  Ho  Ho5  1  0.000000  0.321776  0.799455  1
  Co  Co6  1  0.000000  0.500000  0.984081  1
  Co  Co7  1  0.500000  0.000000  0.015919  1
  Co  Co8  1  0.500000  0.332359  0.988987  1
  Co  Co9  1  0.500000  0.667641  0.988987  1
  Co  Co10  1  0.000000  0.167641  0.011013  1
  Co  Co11  1  0.000000  0.832359  0.011013  1
  Co  Co12  1  0.500000  0.500000  0.702915  1
  Co  Co13  1  0.000000  0.000000  0.297085  1
  P  P14  1  0.500000  0.314793  0.618135  1
  P  P15  1  0.500000  0.685207  0.618135  1
  P  P16  1  0.000000  0.185207  0.381865  1
  P  P17  1  0.000000  0.814793  0.381865  1
  P  P18  1  0.500000  0.500000  0.881419  1
  P  P19  1  0.000000  0.000000  0.118581  1
  P  P20  1  0.500000  0.845895  0.900759  1
  P  P21  1  0.500000  0.154105  0.900759  1
  P  P22  1  0.000000  0.654105  0.099241  1
  P  P23  1  0.000000  0.345895  0.099241  1
  P  P24  1  0.500000  0.500000  0.336515  1
  P  P25  1  0.000000  0.000000  0.663485  1
  Ru  Ru26  1  0.500000  0.298074  0.427632  1
  Ru  Ru27  1  0.500000  0.701926  0.427632  1
  Ru  Ru28  1  0.000000  0.201926  0.572368  1
  Ru  Ru29  1  0.000000  0.798074  0.572368  1
  Ru  Ru30  1  0.500000  0.874718  0.719110  1
  Ru  Ru31  1  0.500000  0.125282  0.719110  1
  Ru  Ru32  1  0.000000  0.625282  0.280890  1
  Ru  Ru33  1  0.000000  0.374718  0.280890  1
  Ru  Ru34  1  0.500000  0.500000  0.146422  1
  Ru  Ru35  1  0.000000  0.000000  0.853578  1
