# generated using pymatgen
data_Sm2Si3(AsRh3)4
_symmetry_space_group_name_H-M   'P 1'
_cell_length_a   9.92350800
_cell_length_b   9.92350798
_cell_length_c   3.91307000
_cell_angle_alpha   90.00000000
_cell_angle_beta   90.00000000
_cell_angle_gamma   120.00000007
_symmetry_Int_Tables_number   1
_chemical_formula_structural   Sm2Si3(AsRh3)4
_chemical_formula_sum   'Sm2 Si3 As4 Rh12'
_cell_volume   333.71728049
_cell_formula_units_Z   1
loop_
 _symmetry_equiv_pos_site_id
 _symmetry_equiv_pos_as_xyz
  1  'x, y, z'
loop_
 _atom_site_type_symbol
 _atom_site_label
 _atom_site_symmetry_multiplicity
 _atom_site_fract_x
 _atom_site_fract_y
 _atom_site_fract_z
 _atom_site_occupancy
  Sm  Sm0  1  0.333333  0.666667  0.244741  1
  Sm  Sm1  1  0.666667  0.333333  0.743496  1
  Si  Si2  1  0.402312  0.111348  0.242725  1
  Si  Si3  1  0.709035  0.597688  0.242725  1
  Si  Si4  1  0.888652  0.290965  0.242725  1
  As  As5  1  0.000000  0.000000  0.626596  1
  As  As6  1  0.596772  0.884058  0.745675  1
  As  As7  1  0.287286  0.403228  0.745675  1
  As  As8  1  0.115942  0.712714  0.745675  1
  Rh  Rh9  1  0.448113  0.379660  0.242426  1
  Rh  Rh10  1  0.931547  0.551887  0.242426  1
  Rh  Rh11  1  0.620340  0.068453  0.242426  1
  Rh  Rh12  1  0.559357  0.615518  0.744760  1
  Rh  Rh13  1  0.056161  0.440643  0.744760  1
  Rh  Rh14  1  0.384482  0.943839  0.744760  1
  Rh  Rh15  1  0.145691  0.887837  0.244827  1
  Rh  Rh16  1  0.742146  0.854309  0.244827  1
  Rh  Rh17  1  0.112163  0.257854  0.244827  1
  Rh  Rh18  1  0.849024  0.124777  0.741309  1
  Rh  Rh19  1  0.275753  0.150976  0.741309  1
  Rh  Rh20  1  0.875223  0.724247  0.741309  1
