# generated using pymatgen
data_La(ThPd4)3
_symmetry_space_group_name_H-M   'P 1'
_cell_length_a   5.95256400
_cell_length_b   5.95256431
_cell_length_c   9.83144700
_cell_angle_alpha   90.00000000
_cell_angle_beta   90.00000000
_cell_angle_gamma   119.99999828
_symmetry_Int_Tables_number   1
_chemical_formula_structural   La(ThPd4)3
_chemical_formula_sum   'La1 Th3 Pd12'
_cell_volume   301.68676022
_cell_formula_units_Z   1
loop_
 _symmetry_equiv_pos_site_id
 _symmetry_equiv_pos_as_xyz
  1  'x, y, z'
loop_
 _atom_site_type_symbol
 _atom_site_label
 _atom_site_symmetry_multiplicity
 _atom_site_fract_x
 _atom_site_fract_y
 _atom_site_fract_z
 _atom_site_occupancy
  La  La0  1  0.000000  0.000000  0.500000  1
  Th  Th1  1  0.000000  0.000000  0.000000  1
  Th  Th2  1  0.333333  0.666667  0.252319  1
  Th  Th3  1  0.666667  0.333333  0.747681  1
  Pd  Pd4  1  0.500000  0.500000  0.500000  1
  Pd  Pd5  1  0.500000  0.000000  0.500000  1
  Pd  Pd6  1  0.000000  0.500000  0.500000  1
  Pd  Pd7  1  0.500000  0.500000  0.000000  1
  Pd  Pd8  1  0.500000  0.000000  0.000000  1
  Pd  Pd9  1  0.000000  0.500000  0.000000  1
  Pd  Pd10  1  0.824575  0.649150  0.247573  1
  Pd  Pd11  1  0.350850  0.175425  0.247573  1
  Pd  Pd12  1  0.824575  0.175425  0.247573  1
  Pd  Pd13  1  0.175425  0.350850  0.752427  1
  Pd  Pd14  1  0.649150  0.824575  0.752427  1
  Pd  Pd15  1  0.175425  0.824575  0.752427  1
