# generated using pymatgen
data_Tb4PrIn2(HgPd)2
_symmetry_space_group_name_H-M   'P 1'
_cell_length_a   8.05120800
_cell_length_b   18.61279800
_cell_length_c   3.68198700
_cell_angle_alpha   90.00000000
_cell_angle_beta   90.00000000
_cell_angle_gamma   90.00000000
_symmetry_Int_Tables_number   1
_chemical_formula_structural   Tb4PrIn2(HgPd)2
_chemical_formula_sum   'Tb8 Pr2 In4 Hg4 Pd4'
_cell_volume   551.76603292
_cell_formula_units_Z   2
loop_
 _symmetry_equiv_pos_site_id
 _symmetry_equiv_pos_as_xyz
  1  'x, y, z'
loop_
 _atom_site_type_symbol
 _atom_site_label
 _atom_site_symmetry_multiplicity
 _atom_site_fract_x
 _atom_site_fract_y
 _atom_site_fract_z
 _atom_site_occupancy
  Tb  Tb0  1  0.744583  0.284116  0.000000  1
  Tb  Tb1  1  0.255417  0.715884  0.000000  1
  Tb  Tb2  1  0.755417  0.784116  0.000000  1
  Tb  Tb3  1  0.244583  0.215884  0.000000  1
  Tb  Tb4  1  0.613171  0.084546  0.000000  1
  Tb  Tb5  1  0.386829  0.915454  0.000000  1
  Tb  Tb6  1  0.886829  0.584546  0.000000  1
  Tb  Tb7  1  0.113171  0.415454  0.000000  1
  Pr  Pr8  1  0.500000  0.500000  0.000000  1
  Pr  Pr9  1  0.000000  0.000000  0.000000  1
  In  In10  1  0.580314  0.653200  0.500000  1
  In  In11  1  0.419686  0.346800  0.500000  1
  In  In12  1  0.919686  0.153200  0.500000  1
  In  In13  1  0.080314  0.846800  0.500000  1
  Hg  Hg14  1  0.705517  0.930264  0.500000  1
  Hg  Hg15  1  0.294483  0.069736  0.500000  1
  Hg  Hg16  1  0.794483  0.430264  0.500000  1
  Hg  Hg17  1  0.205517  0.569736  0.500000  1
  Pd  Pd18  1  0.534176  0.197609  0.500000  1
  Pd  Pd19  1  0.465824  0.802391  0.500000  1
  Pd  Pd20  1  0.965824  0.697609  0.500000  1
  Pd  Pd21  1  0.034176  0.302391  0.500000  1
