# generated using pymatgen
data_Lu8ZnSiPd23
_symmetry_space_group_name_H-M   'P 1'
_cell_length_a   8.23134100
_cell_length_b   8.33879200
_cell_length_c   8.38699700
_cell_angle_alpha   90.00000000
_cell_angle_beta   90.00000000
_cell_angle_gamma   90.00000000
_symmetry_Int_Tables_number   1
_chemical_formula_structural   Lu8ZnSiPd23
_chemical_formula_sum   'Lu8 Zn1 Si1 Pd23'
_cell_volume   575.67878139
_cell_formula_units_Z   1
loop_
 _symmetry_equiv_pos_site_id
 _symmetry_equiv_pos_as_xyz
  1  'x, y, z'
loop_
 _atom_site_type_symbol
 _atom_site_label
 _atom_site_symmetry_multiplicity
 _atom_site_fract_x
 _atom_site_fract_y
 _atom_site_fract_z
 _atom_site_occupancy
  Lu  Lu0  1  0.253560  0.247181  0.264213  1
  Lu  Lu1  1  0.745879  0.744978  0.745853  1
  Lu  Lu2  1  0.745879  0.744978  0.254147  1
  Lu  Lu3  1  0.745879  0.255022  0.745853  1
  Lu  Lu4  1  0.253560  0.247181  0.735787  1
  Lu  Lu5  1  0.253560  0.752819  0.264213  1
  Lu  Lu6  1  0.253560  0.752819  0.735787  1
  Lu  Lu7  1  0.745879  0.255022  0.254147  1
  Zn  Zn8  1  0.267853  0.500000  0.000000  1
  Si  Si9  1  0.995915  0.000000  0.000000  1
  Pd  Pd10  1  0.745688  0.500000  0.000000  1
  Pd  Pd11  1  0.997871  0.255836  0.500000  1
  Pd  Pd12  1  0.491619  0.259970  0.000000  1
  Pd  Pd13  1  0.997871  0.744164  0.500000  1
  Pd  Pd14  1  0.491619  0.740030  0.000000  1
  Pd  Pd15  1  0.500450  0.000000  0.257535  1
  Pd  Pd16  1  0.255043  0.000000  0.500000  1
  Pd  Pd17  1  0.500450  0.000000  0.742465  1
  Pd  Pd18  1  0.743103  0.000000  0.500000  1
  Pd  Pd19  1  0.005068  0.500000  0.257076  1
  Pd  Pd20  1  0.005068  0.500000  0.742924  1
  Pd  Pd21  1  0.252177  0.500000  0.500000  1
  Pd  Pd22  1  0.747632  0.500000  0.500000  1
  Pd  Pd23  1  0.501911  0.252724  0.500000  1
  Pd  Pd24  1  0.501911  0.747276  0.500000  1
  Pd  Pd25  1  0.493783  0.500000  0.251563  1
  Pd  Pd26  1  0.493783  0.500000  0.748437  1
  Pd  Pd27  1  0.277368  0.000000  0.000000  1
  Pd  Pd28  1  0.715058  0.000000  0.000000  1
  Pd  Pd29  1  0.013464  0.281672  0.000000  1
  Pd  Pd30  1  0.013464  0.718328  0.000000  1
  Pd  Pd31  1  0.997036  0.000000  0.275842  1
  Pd  Pd32  1  0.997036  0.000000  0.724158  1
