# generated using pymatgen
data_ScCo3Ni2As3
_symmetry_space_group_name_H-M   'P 1'
_cell_length_a   3.72509400
_cell_length_b   10.54637600
_cell_length_c   12.19892500
_cell_angle_alpha   90.00000000
_cell_angle_beta   90.00000000
_cell_angle_gamma   90.00000000
_symmetry_Int_Tables_number   1
_chemical_formula_structural   ScCo3Ni2As3
_chemical_formula_sum   'Sc4 Co12 Ni8 As12'
_cell_volume   479.24991919
_cell_formula_units_Z   4
loop_
 _symmetry_equiv_pos_site_id
 _symmetry_equiv_pos_as_xyz
  1  'x, y, z'
loop_
 _atom_site_type_symbol
 _atom_site_label
 _atom_site_symmetry_multiplicity
 _atom_site_fract_x
 _atom_site_fract_y
 _atom_site_fract_z
 _atom_site_occupancy
  Sc  Sc0  1  0.250000  0.578312  0.705196  1
  Sc  Sc1  1  0.250000  0.921688  0.205196  1
  Sc  Sc2  1  0.750000  0.421688  0.294804  1
  Sc  Sc3  1  0.750000  0.078312  0.794804  1
  Co  Co4  1  0.250000  0.216147  0.178491  1
  Co  Co5  1  0.250000  0.283854  0.678491  1
  Co  Co6  1  0.750000  0.783854  0.821509  1
  Co  Co7  1  0.750000  0.716146  0.321509  1
  Co  Co8  1  0.250000  0.881884  0.696926  1
  Co  Co9  1  0.250000  0.618116  0.196926  1
  Co  Co10  1  0.750000  0.118116  0.303074  1
  Co  Co11  1  0.750000  0.381884  0.803074  1
  Co  Co12  1  0.250000  0.466601  0.931941  1
  Co  Co13  1  0.250000  0.033399  0.431941  1
  Co  Co14  1  0.750000  0.533399  0.068059  1
  Co  Co15  1  0.750000  0.966601  0.568059  1
  Ni  Ni16  1  0.250000  0.711699  0.990412  1
  Ni  Ni17  1  0.250000  0.788301  0.490412  1
  Ni  Ni18  1  0.750000  0.288301  0.009588  1
  Ni  Ni19  1  0.750000  0.211699  0.509588  1
  Ni  Ni20  1  0.250000  0.409979  0.484192  1
  Ni  Ni21  1  0.250000  0.090021  0.984192  1
  Ni  Ni22  1  0.750000  0.590021  0.515808  1
  Ni  Ni23  1  0.750000  0.909979  0.015808  1
  As  As24  1  0.250000  0.416276  0.116339  1
  As  As25  1  0.250000  0.083724  0.616339  1
  As  As26  1  0.750000  0.583724  0.883661  1
  As  As27  1  0.750000  0.916276  0.383661  1
  As  As28  1  0.250000  0.264326  0.866840  1
  As  As29  1  0.250000  0.235674  0.366840  1
  As  As30  1  0.750000  0.735674  0.133160  1
  As  As31  1  0.750000  0.764326  0.633160  1
  As  As32  1  0.250000  0.600397  0.385866  1
  As  As33  1  0.250000  0.899603  0.885866  1
  As  As34  1  0.750000  0.399603  0.614134  1
  As  As35  1  0.750000  0.100397  0.114134  1
