# generated using pymatgen
data_CaPr3(ZnSi3)2
_symmetry_space_group_name_H-M   'P 1'
_cell_length_a   4.20388800
_cell_length_b   4.25800300
_cell_length_c   14.13458000
_cell_angle_alpha   90.00000000
_cell_angle_beta   90.00000000
_cell_angle_gamma   90.00000000
_symmetry_Int_Tables_number   1
_chemical_formula_structural   CaPr3(ZnSi3)2
_chemical_formula_sum   'Ca1 Pr3 Zn2 Si6'
_cell_volume   253.01135259
_cell_formula_units_Z   1
loop_
 _symmetry_equiv_pos_site_id
 _symmetry_equiv_pos_as_xyz
  1  'x, y, z'
loop_
 _atom_site_type_symbol
 _atom_site_label
 _atom_site_symmetry_multiplicity
 _atom_site_fract_x
 _atom_site_fract_y
 _atom_site_fract_z
 _atom_site_occupancy
  Ca  Ca0  1  0.500000  0.500000  0.003272  1
  Pr  Pr1  1  0.000000  0.000000  0.504379  1
  Pr  Pr2  1  0.500000  0.000000  0.746690  1
  Pr  Pr3  1  0.000000  0.500000  0.245268  1
  Zn  Zn4  1  0.000000  0.000000  0.916012  1
  Zn  Zn5  1  0.500000  0.500000  0.414994  1
  Si  Si6  1  0.000000  0.500000  0.833275  1
  Si  Si7  1  0.500000  0.000000  0.333207  1
  Si  Si8  1  0.000000  0.000000  0.084334  1
  Si  Si9  1  0.500000  0.500000  0.583330  1
  Si  Si10  1  0.500000  0.000000  0.167194  1
  Si  Si11  1  0.000000  0.500000  0.668044  1
