# generated using pymatgen
data_Eu2Gd3ScSe8
_symmetry_space_group_name_H-M   'P 1'
_cell_length_a   4.11492600
_cell_length_b   12.47354300
_cell_length_c   14.87817100
_cell_angle_alpha   90.00000000
_cell_angle_beta   90.00000000
_cell_angle_gamma   90.00000000
_symmetry_Int_Tables_number   1
_chemical_formula_structural   Eu2Gd3ScSe8
_chemical_formula_sum   'Eu4 Gd6 Sc2 Se16'
_cell_volume   763.66239290
_cell_formula_units_Z   2
loop_
 _symmetry_equiv_pos_site_id
 _symmetry_equiv_pos_as_xyz
  1  'x, y, z'
loop_
 _atom_site_type_symbol
 _atom_site_label
 _atom_site_symmetry_multiplicity
 _atom_site_fract_x
 _atom_site_fract_y
 _atom_site_fract_z
 _atom_site_occupancy
  Eu  Eu0  1  0.250000  0.243491  0.335807  1
  Eu  Eu1  1  0.750000  0.256509  0.835807  1
  Eu  Eu2  1  0.250000  0.737681  0.164170  1
  Eu  Eu3  1  0.750000  0.762319  0.664170  1
  Gd  Gd4  1  0.250000  0.080755  0.593456  1
  Gd  Gd5  1  0.250000  0.061175  0.116537  1
  Gd  Gd6  1  0.750000  0.419245  0.093456  1
  Gd  Gd7  1  0.750000  0.930176  0.891458  1
  Gd  Gd8  1  0.750000  0.438825  0.616537  1
  Gd  Gd9  1  0.250000  0.569824  0.391458  1
  Sc  Sc10  1  0.750000  0.915183  0.399579  1
  Sc  Sc11  1  0.250000  0.584817  0.899579  1
  Se  Se12  1  0.250000  0.866414  0.520913  1
  Se  Se13  1  0.250000  0.786047  0.821983  1
  Se  Se14  1  0.250000  0.967826  0.291847  1
  Se  Se15  1  0.750000  0.408748  0.423494  1
  Se  Se16  1  0.250000  0.479117  0.214480  1
  Se  Se17  1  0.250000  0.091252  0.923494  1
  Se  Se18  1  0.750000  0.207318  0.181694  1
  Se  Se19  1  0.750000  0.020883  0.714480  1
  Se  Se20  1  0.250000  0.595232  0.583948  1
  Se  Se21  1  0.750000  0.713953  0.321983  1
  Se  Se22  1  0.250000  0.292682  0.681694  1
  Se  Se23  1  0.250000  0.374573  0.960633  1
  Se  Se24  1  0.750000  0.633586  0.020913  1
  Se  Se25  1  0.750000  0.532174  0.791847  1
  Se  Se26  1  0.750000  0.125427  0.460633  1
  Se  Se27  1  0.750000  0.904768  0.083948  1
