# generated using pymatgen
data_LiNd4Fe2CuO12
_symmetry_space_group_name_H-M   'P 1'
_cell_length_a   5.39877279
_cell_length_b   5.80619487
_cell_length_c   7.65295614
_cell_angle_alpha   88.74054830
_cell_angle_beta   89.96363508
_cell_angle_gamma   88.49785678
_symmetry_Int_Tables_number   1
_chemical_formula_structural   LiNd4Fe2CuO12
_chemical_formula_sum   'Li1 Nd4 Fe2 Cu1 O12'
_cell_volume   239.75168975
_cell_formula_units_Z   1
loop_
 _symmetry_equiv_pos_site_id
 _symmetry_equiv_pos_as_xyz
  1  'x, y, z'
loop_
 _atom_site_type_symbol
 _atom_site_label
 _atom_site_symmetry_multiplicity
 _atom_site_fract_x
 _atom_site_fract_y
 _atom_site_fract_z
 _atom_site_occupancy
  Li  Li0  1  0.000000  0.500000  0.500000  1
  Nd  Nd1  1  0.021832  0.926680  0.745988  1
  Nd  Nd2  1  0.508853  0.569355  0.253167  1
  Nd  Nd3  1  0.491147  0.430645  0.746833  1
  Nd  Nd4  1  0.978168  0.073320  0.254012  1
  Fe  Fe5  1  0.500000  0.000000  0.500000  1
  Fe  Fe6  1  0.000000  0.500000  0.000000  1
  Cu  Cu7  1  0.500000  0.000000  0.000000  1
  O  O8  1  0.683247  0.277183  0.457571  1
  O  O9  1  0.216763  0.184284  0.540494  1
  O  O10  1  0.788416  0.813629  0.052783  1
  O  O11  1  0.281103  0.675291  0.952145  1
  O  O12  1  0.316753  0.722817  0.542429  1
  O  O13  1  0.783237  0.815716  0.459506  1
  O  O14  1  0.211584  0.186371  0.947217  1
  O  O15  1  0.718897  0.324709  0.047855  1
  O  O16  1  0.083676  0.477318  0.239919  1
  O  O17  1  0.595437  0.024201  0.762798  1
  O  O18  1  0.404563  0.975799  0.237202  1
  O  O19  1  0.916324  0.522682  0.760081  1
