# generated using pymatgen
data_La16Cd4OsPt3
_symmetry_space_group_name_H-M   'P 1'
_cell_length_a   10.22572080
_cell_length_b   10.22572079
_cell_length_c   10.22571976
_cell_angle_alpha   59.50877278
_cell_angle_beta   59.50877316
_cell_angle_gamma   59.50877124
_symmetry_Int_Tables_number   1
_chemical_formula_structural   La16Cd4OsPt3
_chemical_formula_sum   'La16 Cd4 Os1 Pt3'
_cell_volume   747.63192729
_cell_formula_units_Z   1
loop_
 _symmetry_equiv_pos_site_id
 _symmetry_equiv_pos_as_xyz
  1  'x, y, z'
loop_
 _atom_site_type_symbol
 _atom_site_label
 _atom_site_symmetry_multiplicity
 _atom_site_fract_x
 _atom_site_fract_y
 _atom_site_fract_z
 _atom_site_occupancy
  La  La0  1  0.600196  0.600196  0.600196  1
  La  La1  1  0.595422  0.595422  0.206153  1
  La  La2  1  0.595422  0.206153  0.595422  1
  La  La3  1  0.206153  0.595422  0.595422  1
  La  La4  1  0.066875  0.439288  0.439288  1
  La  La5  1  0.441280  0.058200  0.058200  1
  La  La6  1  0.439288  0.066875  0.439288  1
  La  La7  1  0.058200  0.441280  0.058200  1
  La  La8  1  0.439288  0.439288  0.066875  1
  La  La9  1  0.058200  0.058200  0.441280  1
  La  La10  1  0.185731  0.813189  0.813189  1
  La  La11  1  0.808483  0.188613  0.188613  1
  La  La12  1  0.813189  0.185731  0.813189  1
  La  La13  1  0.188613  0.808483  0.188613  1
  La  La14  1  0.813189  0.813189  0.185731  1
  La  La15  1  0.188613  0.188613  0.808483  1
  Cd  Cd16  1  0.829815  0.829815  0.829815  1
  Cd  Cd17  1  0.829819  0.829819  0.510329  1
  Cd  Cd18  1  0.829819  0.510329  0.829819  1
  Cd  Cd19  1  0.510329  0.829819  0.829819  1
  Os  Os20  1  0.391842  0.391842  0.391842  1
  Pt  Pt21  1  0.393197  0.393197  0.823843  1
  Pt  Pt22  1  0.393197  0.823843  0.393197  1
  Pt  Pt23  1  0.823843  0.393197  0.393197  1
