# generated using pymatgen
data_CaTm(Al5Ru)4
_symmetry_space_group_name_H-M   'P 1'
_cell_length_a   6.86083006
_cell_length_b   6.86083033
_cell_length_c   9.12543600
_cell_angle_alpha   90.00000000
_cell_angle_beta   90.00000000
_cell_angle_gamma   96.75231240
_symmetry_Int_Tables_number   1
_chemical_formula_structural   CaTm(Al5Ru)4
_chemical_formula_sum   'Ca1 Tm1 Al20 Ru4'
_cell_volume   426.56387959
_cell_formula_units_Z   1
loop_
 _symmetry_equiv_pos_site_id
 _symmetry_equiv_pos_as_xyz
  1  'x, y, z'
loop_
 _atom_site_type_symbol
 _atom_site_label
 _atom_site_symmetry_multiplicity
 _atom_site_fract_x
 _atom_site_fract_y
 _atom_site_fract_z
 _atom_site_occupancy
  Ca  Ca0  1  0.874516  0.125484  0.750000  1
  Tm  Tm1  1  0.126602  0.873398  0.250000  1
  Al  Al2  1  0.623380  0.376620  0.541700  1
  Al  Al3  1  0.376420  0.623580  0.447924  1
  Al  Al4  1  0.376420  0.623580  0.052076  1
  Al  Al5  1  0.623380  0.376620  0.958300  1
  Al  Al6  1  0.224875  0.226072  0.498736  1
  Al  Al7  1  0.773928  0.775125  0.498736  1
  Al  Al8  1  0.773928  0.775125  0.001264  1
  Al  Al9  1  0.224875  0.226072  0.001264  1
  Al  Al10  1  0.846599  0.153401  0.099232  1
  Al  Al11  1  0.158782  0.841218  0.900968  1
  Al  Al12  1  0.158782  0.841218  0.599032  1
  Al  Al13  1  0.846599  0.153401  0.400768  1
  Al  Al14  1  0.859070  0.588819  0.750000  1
  Al  Al15  1  0.140399  0.415501  0.250000  1
  Al  Al16  1  0.411181  0.140930  0.750000  1
  Al  Al17  1  0.584499  0.859601  0.250000  1
  Al  Al18  1  0.219502  0.476752  0.750000  1
  Al  Al19  1  0.779896  0.521639  0.250000  1
  Al  Al20  1  0.523248  0.780498  0.750000  1
  Al  Al21  1  0.478361  0.220104  0.250000  1
  Ru  Ru22  1  0.999644  0.502265  0.498765  1
  Ru  Ru23  1  0.999644  0.502265  0.001235  1
  Ru  Ru24  1  0.497735  0.000356  0.001235  1
  Ru  Ru25  1  0.497735  0.000356  0.498765  1
