# generated using pymatgen
data_In3Pd6Pt
_symmetry_space_group_name_H-M   'P 1'
_cell_length_a   7.61121889
_cell_length_b   7.61121773
_cell_length_c   5.73586716
_cell_angle_alpha   74.95996302
_cell_angle_beta   74.95997257
_cell_angle_gamma   31.79490432
_symmetry_Int_Tables_number   1
_chemical_formula_structural   In3Pd6Pt
_chemical_formula_sum   'In3 Pd6 Pt1'
_cell_volume   168.58006755
_cell_formula_units_Z   1
loop_
 _symmetry_equiv_pos_site_id
 _symmetry_equiv_pos_as_xyz
  1  'x, y, z'
loop_
 _atom_site_type_symbol
 _atom_site_label
 _atom_site_symmetry_multiplicity
 _atom_site_fract_x
 _atom_site_fract_y
 _atom_site_fract_z
 _atom_site_occupancy
  In  In0  1  0.000000  0.000000  0.000000  1
  In  In1  1  0.193654  0.193654  0.366833  1
  In  In2  1  0.806346  0.806346  0.633167  1
  Pd  Pd3  1  0.201229  0.201229  0.877665  1
  Pd  Pd4  1  0.798771  0.798771  0.122335  1
  Pd  Pd5  1  0.393120  0.393120  0.328888  1
  Pd  Pd6  1  0.606880  0.606880  0.671112  1
  Pd  Pd7  1  0.403689  0.403689  0.822345  1
  Pd  Pd8  1  0.596311  0.596311  0.177655  1
  Pt  Pt9  1  0.000000  0.000000  0.500000  1
