# generated using pymatgen
data_La5Pb3N
_symmetry_space_group_name_H-M   'P 1'
_cell_length_a   9.67132762
_cell_length_b   9.67132771
_cell_length_c   9.67132900
_cell_angle_alpha   125.60464279
_cell_angle_beta   125.60464294
_cell_angle_gamma   80.53891645
_symmetry_Int_Tables_number   1
_chemical_formula_structural   La5Pb3N
_chemical_formula_sum   'La10 Pb6 N2'
_cell_volume   576.76686427
_cell_formula_units_Z   2
loop_
 _symmetry_equiv_pos_site_id
 _symmetry_equiv_pos_as_xyz
  1  'x, y, z'
loop_
 _atom_site_type_symbol
 _atom_site_label
 _atom_site_symmetry_multiplicity
 _atom_site_fract_x
 _atom_site_fract_y
 _atom_site_fract_z
 _atom_site_occupancy
  La  La0  1  0.504071  0.301681  0.500000  1
  La  La1  1  0.801681  0.004071  0.500000  1
  La  La2  1  0.004071  0.504071  0.202390  1
  La  La3  1  0.301681  0.801681  0.797610  1
  La  La4  1  0.497394  0.699206  0.500000  1
  La  La5  1  0.199206  0.997394  0.500000  1
  La  La6  1  0.997394  0.497394  0.798188  1
  La  La7  1  0.699206  0.199206  0.201812  1
  La  La8  1  0.507643  0.507643  0.000000  1
  La  La9  1  0.007643  0.007643  0.000000  1
  Pb  Pb10  1  0.145168  0.354585  0.500000  1
  Pb  Pb11  1  0.854585  0.645168  0.500000  1
  Pb  Pb12  1  0.645168  0.145168  0.790582  1
  Pb  Pb13  1  0.354585  0.854585  0.209418  1
  Pb  Pb14  1  0.751428  0.751428  0.000000  1
  Pb  Pb15  1  0.251428  0.251428  0.000000  1
  N  N16  1  0.750244  0.250244  0.500000  1
  N  N17  1  0.250244  0.750244  0.500000  1
