# generated using pymatgen
data_LiAlPtO4
_symmetry_space_group_name_H-M   'P 1'
_cell_length_a   5.73747700
_cell_length_b   6.13693000
_cell_length_c   8.41186200
_cell_angle_alpha   89.99985643
_cell_angle_beta   90.00003083
_cell_angle_gamma   89.99997329
_symmetry_Int_Tables_number   1
_chemical_formula_structural   LiAlPtO4
_chemical_formula_sum   'Li4 Al4 Pt4 O16'
_cell_volume   296.18582258
_cell_formula_units_Z   4
loop_
 _symmetry_equiv_pos_site_id
 _symmetry_equiv_pos_as_xyz
  1  'x, y, z'
loop_
 _atom_site_type_symbol
 _atom_site_label
 _atom_site_symmetry_multiplicity
 _atom_site_fract_x
 _atom_site_fract_y
 _atom_site_fract_z
 _atom_site_occupancy
  Li  Li0  1  0.000001  0.249990  0.137286  1
  Li  Li1  1  0.500001  0.749991  0.637287  1
  Li  Li2  1  0.000000  0.749991  0.862730  1
  Li  Li3  1  0.500000  0.249990  0.362735  1
  Al  Al4  1  0.750031  0.250022  0.749977  1
  Al  Al5  1  0.249973  0.250022  0.749975  1
  Al  Al6  1  0.250030  0.750022  0.249978  1
  Al  Al7  1  0.749969  0.750020  0.249975  1
  Pt  Pt8  1  0.000001  0.499968  0.500008  1
  Pt  Pt9  1  0.500000  0.999995  0.000001  1
  Pt  Pt10  1  0.000001  0.000005  0.500007  1
  Pt  Pt11  1  0.499999  0.499990  0.000006  1
  O  O12  1  0.000001  0.539063  0.256540  1
  O  O13  1  0.500001  0.039047  0.756551  1
  O  O14  1  0.000000  0.960929  0.256573  1
  O  O15  1  0.500001  0.460948  0.756582  1
  O  O16  1  0.000001  0.039022  0.743456  1
  O  O17  1  0.499999  0.539038  0.243467  1
  O  O18  1  0.000002  0.460973  0.743423  1
  O  O19  1  0.500000  0.960956  0.243436  1
  O  O20  1  0.233979  0.750002  0.480728  1
  O  O21  1  0.733960  0.250002  0.980738  1
  O  O22  1  0.766021  0.750002  0.480729  1
  O  O23  1  0.266034  0.250003  0.980737  1
  O  O24  1  0.766070  0.250002  0.519262  1
  O  O25  1  0.266057  0.750003  0.019276  1
  O  O26  1  0.233931  0.250002  0.519262  1
  O  O27  1  0.733937  0.750002  0.019277  1
