# generated using pymatgen
data_Nd12B2I17
_symmetry_space_group_name_H-M   'P 1'
_cell_length_a   9.86373743
_cell_length_b   11.81720203
_cell_length_c   11.64361348
_cell_angle_alpha   93.61045953
_cell_angle_beta   104.94030270
_cell_angle_gamma   115.86485334
_symmetry_Int_Tables_number   1
_chemical_formula_structural   Nd12B2I17
_chemical_formula_sum   'Nd12 B2 I17'
_cell_volume   1155.68455163
_cell_formula_units_Z   1
loop_
 _symmetry_equiv_pos_site_id
 _symmetry_equiv_pos_as_xyz
  1  'x, y, z'
loop_
 _atom_site_type_symbol
 _atom_site_label
 _atom_site_symmetry_multiplicity
 _atom_site_fract_x
 _atom_site_fract_y
 _atom_site_fract_z
 _atom_site_occupancy
  Nd  Nd0  1  0.055183  0.512430  0.326517  1
  Nd  Nd1  1  0.997156  0.809136  0.586683  1
  Nd  Nd2  1  0.641278  0.238364  0.274857  1
  Nd  Nd3  1  0.002844  0.190864  0.413317  1
  Nd  Nd4  1  0.215722  0.664502  0.994521  1
  Nd  Nd5  1  0.276159  0.985623  0.905963  1
  Nd  Nd6  1  0.358722  0.761636  0.725143  1
  Nd  Nd7  1  0.944817  0.487570  0.673483  1
  Nd  Nd8  1  0.723841  0.014377  0.094037  1
  Nd  Nd9  1  0.143800  0.292310  0.146466  1
  Nd  Nd10  1  0.784278  0.335498  0.005479  1
  Nd  Nd11  1  0.856200  0.707690  0.853534  1
  B  B12  1  0.105593  0.736606  0.786667  1
  B  B13  1  0.894407  0.263394  0.213333  1
  I  I14  1  0.773518  0.528281  0.413165  1
  I  I15  1  0.629899  0.412222  0.744213  1
  I  I16  1  0.836963  0.893189  0.318845  1
  I  I17  1  0.320787  0.213025  0.368119  1
  I  I18  1  0.163037  0.106811  0.681155  1
  I  I19  1  0.589651  0.060789  0.826253  1
  I  I20  1  0.740396  0.171799  0.534145  1
  I  I21  1  0.543543  0.694261  0.956387  1
  I  I22  1  0.370101  0.587778  0.255787  1
  I  I23  1  0.226482  0.471719  0.586835  1
  I  I24  1  0.060098  0.362016  0.886801  1
  I  I25  1  0.456457  0.305739  0.043613  1
  I  I26  1  0.000000  0.000000  0.000000  1
  I  I27  1  0.259604  0.828201  0.465855  1
  I  I28  1  0.410349  0.939211  0.173747  1
  I  I29  1  0.679213  0.786975  0.631881  1
  I  I30  1  0.939902  0.637984  0.113199  1
