# generated using pymatgen
data_V3(BiS3)2
_symmetry_space_group_name_H-M   'P 1'
_cell_length_a   5.54999500
_cell_length_b   5.54999604
_cell_length_c   17.18080200
_cell_angle_alpha   90.00000000
_cell_angle_beta   90.00000000
_cell_angle_gamma   120.00001166
_symmetry_Int_Tables_number   1
_chemical_formula_structural   V3(BiS3)2
_chemical_formula_sum   'V6 Bi4 S12'
_cell_volume   458.30994255
_cell_formula_units_Z   2
loop_
 _symmetry_equiv_pos_site_id
 _symmetry_equiv_pos_as_xyz
  1  'x, y, z'
loop_
 _atom_site_type_symbol
 _atom_site_label
 _atom_site_symmetry_multiplicity
 _atom_site_fract_x
 _atom_site_fract_y
 _atom_site_fract_z
 _atom_site_occupancy
  V  V0  1  0.674720  0.674720  0.750000  1
  V  V1  1  0.325280  0.000000  0.750000  1
  V  V2  1  0.000000  0.325280  0.750000  1
  V  V3  1  0.325280  0.325280  0.250000  1
  V  V4  1  0.674720  0.000000  0.250000  1
  V  V5  1  0.000000  0.674720  0.250000  1
  Bi  Bi6  1  0.666667  0.333333  0.000000  1
  Bi  Bi7  1  0.333333  0.666667  0.000000  1
  Bi  Bi8  1  0.333333  0.666667  0.500000  1
  Bi  Bi9  1  0.666667  0.333333  0.500000  1
  S  S10  1  0.000000  0.000000  0.837135  1
  S  S11  1  0.000000  0.000000  0.162865  1
  S  S12  1  0.000000  0.000000  0.337135  1
  S  S13  1  0.000000  0.000000  0.662865  1
  S  S14  1  0.666667  0.333333  0.833413  1
  S  S15  1  0.333333  0.666667  0.833413  1
  S  S16  1  0.333333  0.666667  0.166587  1
  S  S17  1  0.666667  0.333333  0.166587  1
  S  S18  1  0.333333  0.666667  0.333413  1
  S  S19  1  0.666667  0.333333  0.333413  1
  S  S20  1  0.666667  0.333333  0.666587  1
  S  S21  1  0.333333  0.666667  0.666587  1
