# generated using pymatgen
data_Sr2CdAg3Sn4
_symmetry_space_group_name_H-M   'P 1'
_cell_length_a   4.68376500
_cell_length_b   4.69106051
_cell_length_c   12.22636702
_cell_angle_alpha   89.83694902
_cell_angle_beta   90.00000000
_cell_angle_gamma   90.00000000
_symmetry_Int_Tables_number   1
_chemical_formula_structural   Sr2CdAg3Sn4
_chemical_formula_sum   'Sr2 Cd1 Ag3 Sn4'
_cell_volume   268.63450887
_cell_formula_units_Z   1
loop_
 _symmetry_equiv_pos_site_id
 _symmetry_equiv_pos_as_xyz
  1  'x, y, z'
loop_
 _atom_site_type_symbol
 _atom_site_label
 _atom_site_symmetry_multiplicity
 _atom_site_fract_x
 _atom_site_fract_y
 _atom_site_fract_z
 _atom_site_occupancy
  Sr  Sr0  1  0.250000  0.743866  0.759193  1
  Sr  Sr1  1  0.750000  0.255255  0.241127  1
  Cd  Cd2  1  0.750000  0.735003  0.999748  1
  Ag  Ag3  1  0.250000  0.749012  0.360045  1
  Ag  Ag4  1  0.750000  0.250384  0.639828  1
  Ag  Ag5  1  0.250000  0.265630  0.000295  1
  Sn  Sn6  1  0.250000  0.765227  0.136743  1
  Sn  Sn7  1  0.750000  0.236162  0.863099  1
  Sn  Sn8  1  0.250000  0.248628  0.499912  1
  Sn  Sn9  1  0.750000  0.750834  0.500010  1
