# generated using pymatgen
data_Ta12Mo6OsRu5
_symmetry_space_group_name_H-M   'P 1'
_cell_length_a   4.51852100
_cell_length_b   6.39280900
_cell_length_c   13.62577700
_cell_angle_alpha   90.00000000
_cell_angle_beta   89.99997050
_cell_angle_gamma   90.00000000
_symmetry_Int_Tables_number   1
_chemical_formula_structural   Ta12Mo6OsRu5
_chemical_formula_sum   'Ta12 Mo6 Os1 Ru5'
_cell_volume   393.59476283
_cell_formula_units_Z   1
loop_
 _symmetry_equiv_pos_site_id
 _symmetry_equiv_pos_as_xyz
  1  'x, y, z'
loop_
 _atom_site_type_symbol
 _atom_site_label
 _atom_site_symmetry_multiplicity
 _atom_site_fract_x
 _atom_site_fract_y
 _atom_site_fract_z
 _atom_site_occupancy
  Ta  Ta0  1  0.500000  0.249839  0.000000  1
  Ta  Ta1  1  0.500000  0.750161  0.000000  1
  Ta  Ta2  1  0.999990  0.249988  0.166611  1
  Ta  Ta3  1  0.999990  0.750012  0.166611  1
  Ta  Ta4  1  0.499984  0.249976  0.333345  1
  Ta  Ta5  1  0.499984  0.750025  0.333345  1
  Ta  Ta6  1  0.000000  0.250008  0.500000  1
  Ta  Ta7  1  0.000000  0.749992  0.500000  1
  Ta  Ta8  1  0.500016  0.249976  0.666655  1
  Ta  Ta9  1  0.500016  0.750025  0.666655  1
  Ta  Ta10  1  0.000010  0.249988  0.833389  1
  Ta  Ta11  1  0.000010  0.750012  0.833389  1
  Mo  Mo12  1  0.000000  0.500000  0.000000  1
  Mo  Mo13  1  0.499987  0.000000  0.166867  1
  Mo  Mo14  1  0.999987  0.500000  0.333480  1
  Mo  Mo15  1  0.500000  0.000000  0.500000  1
  Mo  Mo16  1  0.000013  0.500000  0.666520  1
  Mo  Mo17  1  0.500013  0.000000  0.833133  1
  Os  Os18  1  0.000000  0.000000  0.000000  1
  Ru  Ru19  1  0.499985  0.500000  0.166695  1
  Ru  Ru20  1  0.999989  0.000000  0.333228  1
  Ru  Ru21  1  0.500000  0.500000  0.500000  1
  Ru  Ru22  1  0.000011  0.000000  0.666772  1
  Ru  Ru23  1  0.500015  0.500000  0.833305  1
