# generated using pymatgen
data_DyHo2Zr2Sn3O
_symmetry_space_group_name_H-M   'P 1'
_cell_length_a   8.74777800
_cell_length_b   8.74764989
_cell_length_c   6.02986400
_cell_angle_alpha   90.00000000
_cell_angle_beta   90.00000000
_cell_angle_gamma   119.99950917
_symmetry_Int_Tables_number   1
_chemical_formula_structural   DyHo2Zr2Sn3O
_chemical_formula_sum   'Dy2 Ho4 Zr4 Sn6 O2'
_cell_volume   399.60364652
_cell_formula_units_Z   2
loop_
 _symmetry_equiv_pos_site_id
 _symmetry_equiv_pos_as_xyz
  1  'x, y, z'
loop_
 _atom_site_type_symbol
 _atom_site_label
 _atom_site_symmetry_multiplicity
 _atom_site_fract_x
 _atom_site_fract_y
 _atom_site_fract_z
 _atom_site_occupancy
  Dy  Dy0  1  0.000000  0.772900  0.750000  1
  Dy  Dy1  1  0.000000  0.227100  0.250000  1
  Ho  Ho2  1  0.226822  0.226808  0.750000  1
  Ho  Ho3  1  0.226822  0.000014  0.250000  1
  Ho  Ho4  1  0.773178  0.773192  0.250000  1
  Ho  Ho5  1  0.773178  0.999986  0.750000  1
  Zr  Zr6  1  0.333356  0.666679  0.000000  1
  Zr  Zr7  1  0.333356  0.666679  0.500000  1
  Zr  Zr8  1  0.666644  0.333321  0.000000  1
  Zr  Zr9  1  0.666644  0.333321  0.500000  1
  Sn  Sn10  1  0.000000  0.595059  0.250000  1
  Sn  Sn11  1  0.000000  0.404941  0.750000  1
  Sn  Sn12  1  0.405319  0.405171  0.250000  1
  Sn  Sn13  1  0.594681  0.594829  0.750000  1
  Sn  Sn14  1  0.405319  0.000148  0.750000  1
  Sn  Sn15  1  0.594681  0.999852  0.250000  1
  O  O16  1  0.000000  0.000000  0.000000  1
  O  O17  1  0.000000  0.000000  0.500000  1
