# generated using pymatgen
data_NaF37
_symmetry_space_group_name_H-M   'P 1'
_cell_length_a   6.04956532
_cell_length_b   11.23032471
_cell_length_c   10.64110361
_cell_angle_alpha   83.03207986
_cell_angle_beta   98.04024874
_cell_angle_gamma   74.22332128
_symmetry_Int_Tables_number   1
_chemical_formula_structural   NaF37
_chemical_formula_sum   'Na1 F37'
_cell_volume   679.16864704
_cell_formula_units_Z   1
loop_
 _symmetry_equiv_pos_site_id
 _symmetry_equiv_pos_as_xyz
  1  'x, y, z'
loop_
 _atom_site_type_symbol
 _atom_site_label
 _atom_site_symmetry_multiplicity
 _atom_site_fract_x
 _atom_site_fract_y
 _atom_site_fract_z
 _atom_site_occupancy
  Na  Na0  1  0.172802  0.164505  0.225794  1
  F  F1  1  0.721205  0.855401  0.737663  1
  F  F2  1  0.273039  0.378372  0.904533  1
  F  F3  1  0.707615  0.624711  0.082707  1
  F  F4  1  0.370190  0.223682  0.573990  1
  F  F5  1  0.678703  0.743331  0.440888  1
  F  F6  1  0.824088  0.199257  0.812418  1
  F  F7  1  0.165717  0.788683  0.200236  1
  F  F8  1  0.701635  0.879831  0.018490  1
  F  F9  1  0.310853  0.119705  0.990482  1
  F  F10  1  0.763922  0.583306  0.835380  1
  F  F11  1  0.218950  0.398659  0.160576  1
  F  F12  1  0.434004  0.435484  0.855659  1
  F  F13  1  0.571410  0.569529  0.156930  1
  F  F14  1  0.763314  0.582589  0.701317  1
  F  F15  1  0.278751  0.398393  0.295800  1
  F  F16  1  0.737663  0.065093  0.478536  1
  F  F17  1  0.253715  0.010209  0.445755  1
  F  F18  1  0.282450  0.208987  0.690651  1
  F  F19  1  0.684539  0.809570  0.318841  1
  F  F20  1  0.863531  0.057862  0.610088  1
  F  F21  1  0.169976  0.929542  0.369228  1
  F  F22  1  0.800010  0.979113  0.987431  1
  F  F23  1  0.209598  0.021432  0.022854  1
  F  F24  1  0.890982  0.311772  0.804615  1
  F  F25  1  0.104536  0.674611  0.210646  1
  F  F26  1  0.160859  0.714465  0.926067  1
  F  F27  1  0.833933  0.254152  0.096470  1
  F  F28  1  0.477157  0.918033  0.716541  1
  F  F29  1  0.556994  0.086207  0.282124  1
  F  F30  1  0.130603  0.762734  0.584073  1
  F  F31  1  0.923510  0.261739  0.411092  1
  F  F32  1  0.202187  0.640986  0.660984  1
  F  F33  1  0.811444  0.385232  0.340280  1
  F  F34  1  0.283964  0.793337  0.870868  1
  F  F35  1  0.700166  0.172494  0.186774  1
  F  F36  1  0.461292  0.441907  0.522800  1
  F  F37  1  0.504694  0.555087  0.470418  1
