# generated using pymatgen
data_Dy2Tm3Tc5(P6Ir7)2
_symmetry_space_group_name_H-M   'P 1'
_cell_length_a   12.61078101
_cell_length_b   12.70889666
_cell_length_c   3.97035700
_cell_angle_alpha   90.00000000
_cell_angle_beta   90.00000000
_cell_angle_gamma   120.13556193
_symmetry_Int_Tables_number   1
_chemical_formula_structural   Dy2Tm3Tc5(P6Ir7)2
_chemical_formula_sum   'Dy2 Tm3 Tc5 P12 Ir14'
_cell_volume   550.31981304
_cell_formula_units_Z   1
loop_
 _symmetry_equiv_pos_site_id
 _symmetry_equiv_pos_as_xyz
  1  'x, y, z'
loop_
 _atom_site_type_symbol
 _atom_site_label
 _atom_site_symmetry_multiplicity
 _atom_site_fract_x
 _atom_site_fract_y
 _atom_site_fract_z
 _atom_site_occupancy
  Dy  Dy0  1  0.186488  0.185012  0.000000  1
  Dy  Dy1  1  0.810658  0.998349  0.000000  1
  Tm  Tm2  1  0.334438  0.668159  0.500000  1
  Tm  Tm3  1  0.666604  0.333430  0.500000  1
  Tm  Tm4  1  0.999344  0.810837  0.000000  1
  Tc  Tc5  1  0.996420  0.450260  0.500000  1
  Tc  Tc6  1  0.548707  0.544888  0.500000  1
  Tc  Tc7  1  0.456973  0.009387  0.500000  1
  Tc  Tc8  1  0.620143  0.798849  0.500000  1
  Tc  Tc9  1  0.200672  0.821612  0.500000  1
  P  P10  1  0.006478  0.640498  0.500000  1
  P  P11  1  0.363548  0.364870  0.500000  1
  P  P12  1  0.633105  0.993562  0.500000  1
  P  P13  1  0.519640  0.693800  0.000000  1
  P  P14  1  0.308292  0.829527  0.000000  1
  P  P15  1  0.170337  0.483752  0.000000  1
  P  P16  1  0.483651  0.169879  0.000000  1
  P  P17  1  0.685736  0.516018  0.000000  1
  P  P18  1  0.832053  0.314954  0.000000  1
  P  P19  1  0.998995  0.176194  0.500000  1
  P  P20  1  0.817315  0.820131  0.500000  1
  P  P21  1  0.176823  0.993228  0.500000  1
  Ir  Ir22  1  0.507323  0.874072  0.000000  1
  Ir  Ir23  1  0.128545  0.636115  0.000000  1
  Ir  Ir24  1  0.361863  0.494752  0.000000  1
  Ir  Ir25  1  0.491431  0.358924  0.000000  1
  Ir  Ir26  1  0.865059  0.505731  0.000000  1
  Ir  Ir27  1  0.643385  0.137444  0.000000  1
  Ir  Ir28  1  0.000278  0.285434  0.000000  1
  Ir  Ir29  1  0.716928  0.711132  0.000000  1
  Ir  Ir30  1  0.287088  0.005100  0.000000  1
  Ir  Ir31  1  0.180149  0.375629  0.500000  1
  Ir  Ir32  1  0.374330  0.183805  0.500000  1
  Ir  Ir33  1  0.808485  0.623410  0.500000  1
  Ir  Ir34  1  0.819175  0.192705  0.500000  1
  Ir  Ir35  1  0.999540  0.998548  0.500000  1
