# generated using pymatgen
data_Mn(VTe)4
_symmetry_space_group_name_H-M   'P 1'
_cell_length_a   4.58006200
_cell_length_b   10.79854800
_cell_length_c   18.64677500
_cell_angle_alpha   90.00000000
_cell_angle_beta   90.00000000
_cell_angle_gamma   90.00000000
_symmetry_Int_Tables_number   1
_chemical_formula_structural   Mn(VTe)4
_chemical_formula_sum   'Mn4 V16 Te16'
_cell_volume   922.23255876
_cell_formula_units_Z   4
loop_
 _symmetry_equiv_pos_site_id
 _symmetry_equiv_pos_as_xyz
  1  'x, y, z'
loop_
 _atom_site_type_symbol
 _atom_site_label
 _atom_site_symmetry_multiplicity
 _atom_site_fract_x
 _atom_site_fract_y
 _atom_site_fract_z
 _atom_site_occupancy
  Mn  Mn0  1  0.250226  0.500000  0.500000  1
  Mn  Mn1  1  0.749774  0.000000  0.000000  1
  Mn  Mn2  1  0.749774  0.500000  0.500000  1
  Mn  Mn3  1  0.250226  0.000000  0.000000  1
  V  V4  1  0.500000  0.561582  0.387293  1
  V  V5  1  0.500000  0.438418  0.612707  1
  V  V6  1  0.500000  0.061582  0.112707  1
  V  V7  1  0.500000  0.938418  0.887293  1
  V  V8  1  0.500000  0.695694  0.534276  1
  V  V9  1  0.500000  0.304306  0.465724  1
  V  V10  1  0.500000  0.195694  0.965724  1
  V  V11  1  0.500000  0.804306  0.034276  1
  V  V12  1  0.000000  0.681113  0.444197  1
  V  V13  1  0.000000  0.318887  0.555803  1
  V  V14  1  0.000000  0.181113  0.055803  1
  V  V15  1  0.000000  0.818887  0.944197  1
  V  V16  1  0.000000  0.405767  0.395931  1
  V  V17  1  0.000000  0.594233  0.604069  1
  V  V18  1  0.000000  0.905767  0.104069  1
  V  V19  1  0.000000  0.094233  0.895931  1
  Te  Te20  1  0.000000  0.834403  0.559800  1
  Te  Te21  1  0.000000  0.165597  0.440200  1
  Te  Te22  1  0.000000  0.334403  0.940200  1
  Te  Te23  1  0.000000  0.665597  0.059800  1
  Te  Te24  1  0.500000  0.337704  0.321401  1
  Te  Te25  1  0.500000  0.662296  0.678599  1
  Te  Te26  1  0.500000  0.837704  0.178599  1
  Te  Te27  1  0.500000  0.162296  0.821401  1
  Te  Te28  1  0.500000  0.811607  0.404807  1
  Te  Te29  1  0.500000  0.188393  0.595193  1
  Te  Te30  1  0.500000  0.311607  0.095193  1
  Te  Te31  1  0.500000  0.688393  0.904807  1
  Te  Te32  1  0.000000  0.604050  0.305883  1
  Te  Te33  1  0.000000  0.395950  0.694117  1
  Te  Te34  1  0.000000  0.104050  0.194117  1
  Te  Te35  1  0.000000  0.895950  0.805883  1
