# generated using pymatgen
data_La2Pt3Rh
_symmetry_space_group_name_H-M   'P 1'
_cell_length_a   5.55359955
_cell_length_b   5.55359981
_cell_length_c   5.55360003
_cell_angle_alpha   59.54004692
_cell_angle_beta   59.54003928
_cell_angle_gamma   59.54003830
_symmetry_Int_Tables_number   1
_chemical_formula_structural   La2Pt3Rh
_chemical_formula_sum   'La2 Pt3 Rh1'
_cell_volume   119.85134481
_cell_formula_units_Z   1
loop_
 _symmetry_equiv_pos_site_id
 _symmetry_equiv_pos_as_xyz
  1  'x, y, z'
loop_
 _atom_site_type_symbol
 _atom_site_label
 _atom_site_symmetry_multiplicity
 _atom_site_fract_x
 _atom_site_fract_y
 _atom_site_fract_z
 _atom_site_occupancy
  La  La0  1  0.499427  0.499427  0.499427  1
  La  La1  1  0.750573  0.750573  0.750573  1
  Pt  Pt2  1  0.625000  0.125000  0.125000  1
  Pt  Pt3  1  0.125000  0.625000  0.125000  1
  Pt  Pt4  1  0.125000  0.125000  0.625000  1
  Rh  Rh5  1  0.125000  0.125000  0.125000  1
