# generated using pymatgen
data_LiCo6As3P
_symmetry_space_group_name_H-M   'P 1'
_cell_length_a   6.76513600
_cell_length_b   6.76513582
_cell_length_c   3.41795400
_cell_angle_alpha   90.00000000
_cell_angle_beta   90.00000000
_cell_angle_gamma   119.99999112
_symmetry_Int_Tables_number   1
_chemical_formula_structural   LiCo6As3P
_chemical_formula_sum   'Li1 Co6 As3 P1'
_cell_volume   135.47212263
_cell_formula_units_Z   1
loop_
 _symmetry_equiv_pos_site_id
 _symmetry_equiv_pos_as_xyz
  1  'x, y, z'
loop_
 _atom_site_type_symbol
 _atom_site_label
 _atom_site_symmetry_multiplicity
 _atom_site_fract_x
 _atom_site_fract_y
 _atom_site_fract_z
 _atom_site_occupancy
  Li  Li0  1  0.000000  0.000000  0.000000  1
  Co  Co1  1  0.207005  0.792995  0.500000  1
  Co  Co2  1  0.207005  0.414010  0.500000  1
  Co  Co3  1  0.531744  0.063488  0.000000  1
  Co  Co4  1  0.936512  0.468256  0.000000  1
  Co  Co5  1  0.531744  0.468256  0.000000  1
  Co  Co6  1  0.585990  0.792995  0.500000  1
  As  As7  1  0.818849  0.181151  0.500000  1
  As  As8  1  0.362302  0.181151  0.500000  1
  As  As9  1  0.818849  0.637698  0.500000  1
  P  P10  1  0.333333  0.666667  0.000000  1
