# generated using pymatgen
data_Ca19Yb(Zn3Cd)3
_symmetry_space_group_name_H-M   'P 1'
_cell_length_a   7.98929400
_cell_length_b   7.98929400
_cell_length_c   15.23428700
_cell_angle_alpha   90.00000000
_cell_angle_beta   90.00000000
_cell_angle_gamma   90.00000000
_symmetry_Int_Tables_number   1
_chemical_formula_structural   Ca19Yb(Zn3Cd)3
_chemical_formula_sum   'Ca19 Yb1 Zn9 Cd3'
_cell_volume   972.38654170
_cell_formula_units_Z   1
loop_
 _symmetry_equiv_pos_site_id
 _symmetry_equiv_pos_as_xyz
  1  'x, y, z'
loop_
 _atom_site_type_symbol
 _atom_site_label
 _atom_site_symmetry_multiplicity
 _atom_site_fract_x
 _atom_site_fract_y
 _atom_site_fract_z
 _atom_site_occupancy
  Ca  Ca0  1  0.674788  0.165297  0.103635  1
  Ca  Ca1  1  0.169909  0.670304  0.606165  1
  Ca  Ca2  1  0.325212  0.834703  0.103635  1
  Ca  Ca3  1  0.830091  0.329696  0.606165  1
  Ca  Ca4  1  0.834703  0.674788  0.103635  1
  Ca  Ca5  1  0.329696  0.169909  0.606165  1
  Ca  Ca6  1  0.165297  0.325212  0.103635  1
  Ca  Ca7  1  0.670304  0.830091  0.606165  1
  Ca  Ca8  1  0.834679  0.325231  0.896400  1
  Ca  Ca9  1  0.329676  0.830118  0.393803  1
  Ca  Ca10  1  0.165321  0.674769  0.896400  1
  Ca  Ca11  1  0.670324  0.169882  0.393803  1
  Ca  Ca12  1  0.674769  0.834679  0.896400  1
  Ca  Ca13  1  0.169882  0.329676  0.393803  1
  Ca  Ca14  1  0.325231  0.165321  0.896400  1
  Ca  Ca15  1  0.830118  0.670324  0.393803  1
  Ca  Ca16  1  0.500000  0.500000  0.754318  1
  Ca  Ca17  1  0.000000  0.000000  0.750167  1
  Ca  Ca18  1  0.500000  0.500000  0.245683  1
  Yb  Yb19  1  0.000000  0.000000  0.249817  1
  Zn  Zn20  1  0.618280  0.119471  0.751624  1
  Zn  Zn21  1  0.119471  0.618423  0.248376  1
  Zn  Zn22  1  0.880529  0.381577  0.248376  1
  Zn  Zn23  1  0.381720  0.880529  0.751624  1
  Zn  Zn24  1  0.880529  0.618280  0.751624  1
  Zn  Zn25  1  0.381577  0.119471  0.248376  1
  Zn  Zn26  1  0.119471  0.381720  0.751624  1
  Zn  Zn27  1  0.618423  0.880529  0.248376  1
  Zn  Zn28  1  0.000000  0.000000  0.000025  1
  Cd  Cd29  1  0.500000  0.500000  0.499994  1
  Cd  Cd30  1  0.500000  0.500000  0.000004  1
  Cd  Cd31  1  0.000000  0.000000  0.499978  1
