# generated using pymatgen
data_BaGa2(Pd3O8)2
_symmetry_space_group_name_H-M   'P 1'
_cell_length_a   6.18607320
_cell_length_b   7.34221721
_cell_length_c   7.39534224
_cell_angle_alpha   87.44837318
_cell_angle_beta   77.90208702
_cell_angle_gamma   77.84402263
_symmetry_Int_Tables_number   1
_chemical_formula_structural   BaGa2(Pd3O8)2
_chemical_formula_sum   'Ba1 Ga2 Pd6 O16'
_cell_volume   321.06865709
_cell_formula_units_Z   1
loop_
 _symmetry_equiv_pos_site_id
 _symmetry_equiv_pos_as_xyz
  1  'x, y, z'
loop_
 _atom_site_type_symbol
 _atom_site_label
 _atom_site_symmetry_multiplicity
 _atom_site_fract_x
 _atom_site_fract_y
 _atom_site_fract_z
 _atom_site_occupancy
  Ba  Ba0  1  0.240301  0.994689  0.017834  1
  Ga  Ga1  1  0.075961  0.187485  0.492557  1
  Ga  Ga2  1  0.580935  0.184898  0.480392  1
  Pd  Pd3  1  0.322966  0.512252  0.180891  1
  Pd  Pd4  1  0.822384  0.517386  0.181295  1
  Pd  Pd5  1  0.173172  0.478706  0.816195  1
  Pd  Pd6  1  0.673449  0.474996  0.816519  1
  Pd  Pd7  1  0.413684  0.818929  0.513823  1
  Pd  Pd8  1  0.912241  0.818529  0.518621  1
  O  O9  1  0.390499  0.049858  0.355175  1
  O  O10  1  0.899833  0.048412  0.358259  1
  O  O11  1  0.082687  0.366652  0.281668  1
  O  O12  1  0.581226  0.377570  0.290515  1
  O  O13  1  0.075568  0.648590  0.047638  1
  O  O14  1  0.569617  0.647665  0.048055  1
  O  O15  1  0.271508  0.286551  0.619294  1
  O  O16  1  0.768832  0.292401  0.612796  1
  O  O17  1  0.223410  0.725813  0.360417  1
  O  O18  1  0.726275  0.728362  0.360967  1
  O  O19  1  0.420309  0.342279  0.951523  1
  O  O20  1  0.925298  0.344094  0.951844  1
  O  O21  1  0.410249  0.629611  0.723714  1
  O  O22  1  0.907303  0.626760  0.723233  1
  O  O23  1  0.594058  0.950103  0.646301  1
  O  O24  1  0.100812  0.947411  0.650474  1
