# generated using pymatgen
data_Sm2Gd2Y(SiB4)2
_symmetry_space_group_name_H-M   'P 1'
_cell_length_a   7.29072446
_cell_length_b   7.29117146
_cell_length_c   8.23299600
_cell_angle_alpha   90.00202893
_cell_angle_beta   89.99967634
_cell_angle_gamma   90.04070694
_symmetry_Int_Tables_number   1
_chemical_formula_structural   Sm2Gd2Y(SiB4)2
_chemical_formula_sum   'Sm4 Gd4 Y2 Si4 B16'
_cell_volume   437.64884947
_cell_formula_units_Z   2
loop_
 _symmetry_equiv_pos_site_id
 _symmetry_equiv_pos_as_xyz
  1  'x, y, z'
loop_
 _atom_site_type_symbol
 _atom_site_label
 _atom_site_symmetry_multiplicity
 _atom_site_fract_x
 _atom_site_fract_y
 _atom_site_fract_z
 _atom_site_occupancy
  Sm  Sm0  1  0.680426  0.180406  0.226320  1
  Sm  Sm1  1  0.319533  0.819616  0.773573  1
  Sm  Sm2  1  0.319671  0.819688  0.226478  1
  Sm  Sm3  1  0.819653  0.680281  0.226181  1
  Gd  Gd4  1  0.819384  0.680460  0.775672  1
  Gd  Gd5  1  0.680690  0.180742  0.775699  1
  Gd  Gd6  1  0.180496  0.319396  0.775977  1
  Gd  Gd7  1  0.180605  0.319385  0.224046  1
  Y  Y8  1  0.999931  0.000639  0.500716  1
  Y  Y9  1  0.499808  0.499398  0.500728  1
  Si  Si10  1  0.114259  0.613372  0.500986  1
  Si  Si11  1  0.885789  0.385025  0.502050  1
  Si  Si12  1  0.385360  0.115541  0.500936  1
  Si  Si13  1  0.614867  0.886029  0.501961  1
  B  B14  1  0.171919  0.040065  0.999521  1
  B  B15  1  0.827989  0.960967  0.999182  1
  B  B16  1  0.960997  0.172486  0.999419  1
  B  B17  1  0.327913  0.538482  0.999506  1
  B  B18  1  0.038952  0.828327  0.999254  1
  B  B19  1  0.672083  0.460477  0.999155  1
  B  B20  1  0.539541  0.671556  0.999428  1
  B  B21  1  0.460482  0.327632  0.999260  1
  B  B22  1  0.090340  0.590055  0.999127  1
  B  B23  1  0.909924  0.409647  0.999077  1
  B  B24  1  0.409413  0.090848  0.999107  1
  B  B25  1  0.590824  0.909449  0.999098  1
  B  B26  1  0.000447  0.001108  0.157729  1
  B  B27  1  0.999074  0.000640  0.841049  1
  B  B28  1  0.500529  0.498884  0.841045  1
  B  B29  1  0.499102  0.499399  0.157720  1
