# generated using pymatgen
data_Y4Co17Si3(P3Ru)3
_symmetry_space_group_name_H-M   'P 1'
_cell_length_a   3.69656400
_cell_length_b   10.40074664
_cell_length_c   11.82520145
_cell_angle_alpha   89.89488680
_cell_angle_beta   90.00000000
_cell_angle_gamma   90.00000000
_symmetry_Int_Tables_number   1
_chemical_formula_structural   Y4Co17Si3(P3Ru)3
_chemical_formula_sum   'Y4 Co17 Si3 P9 Ru3'
_cell_volume   454.64305793
_cell_formula_units_Z   1
loop_
 _symmetry_equiv_pos_site_id
 _symmetry_equiv_pos_as_xyz
  1  'x, y, z'
loop_
 _atom_site_type_symbol
 _atom_site_label
 _atom_site_symmetry_multiplicity
 _atom_site_fract_x
 _atom_site_fract_y
 _atom_site_fract_z
 _atom_site_occupancy
  Y  Y0  1  0.250000  0.913925  0.203057  1
  Y  Y1  1  0.750000  0.082808  0.799803  1
  Y  Y2  1  0.750000  0.417403  0.296597  1
  Y  Y3  1  0.250000  0.586137  0.703981  1
  Co  Co4  1  0.250000  0.716302  0.991841  1
  Co  Co5  1  0.250000  0.090929  0.988948  1
  Co  Co6  1  0.750000  0.906257  0.011724  1
  Co  Co7  1  0.750000  0.592701  0.511457  1
  Co  Co8  1  0.250000  0.412130  0.492292  1
  Co  Co9  1  0.250000  0.286194  0.678561  1
  Co  Co10  1  0.750000  0.720586  0.324868  1
  Co  Co11  1  0.750000  0.778091  0.824714  1
  Co  Co12  1  0.250000  0.213528  0.174159  1
  Co  Co13  1  0.250000  0.619930  0.199337  1
  Co  Co14  1  0.750000  0.387353  0.798797  1
  Co  Co15  1  0.750000  0.111085  0.297448  1
  Co  Co16  1  0.250000  0.883776  0.702722  1
  Co  Co17  1  0.250000  0.028213  0.429559  1
  Co  Co18  1  0.750000  0.961663  0.565930  1
  Co  Co19  1  0.750000  0.539244  0.065483  1
  Co  Co20  1  0.250000  0.469034  0.927585  1
  Si  Si21  1  0.250000  0.082970  0.611405  1
  Si  Si22  1  0.250000  0.418038  0.110746  1
  Si  Si23  1  0.250000  0.227904  0.367924  1
  P  P24  1  0.750000  0.919830  0.385866  1
  P  P25  1  0.750000  0.581461  0.887532  1
  P  P26  1  0.750000  0.772181  0.635379  1
  P  P27  1  0.750000  0.729416  0.131345  1
  P  P28  1  0.250000  0.273273  0.867162  1
  P  P29  1  0.250000  0.896990  0.892961  1
  P  P30  1  0.750000  0.096741  0.109002  1
  P  P31  1  0.750000  0.403286  0.610073  1
  P  P32  1  0.250000  0.597695  0.388674  1
  Ru  Ru33  1  0.250000  0.783087  0.492127  1
  Ru  Ru34  1  0.750000  0.212696  0.511766  1
  Ru  Ru35  1  0.750000  0.287148  0.009177  1
