# generated using pymatgen
data_Dy6Ho(ErPb2)3
_symmetry_space_group_name_H-M   'P 1'
_cell_length_a   9.03130100
_cell_length_b   9.03130203
_cell_length_c   6.62412700
_cell_angle_alpha   90.00000000
_cell_angle_beta   90.00000000
_cell_angle_gamma   119.99999988
_symmetry_Int_Tables_number   1
_chemical_formula_structural   Dy6Ho(ErPb2)3
_chemical_formula_sum   'Dy6 Ho1 Er3 Pb6'
_cell_volume   467.90745647
_cell_formula_units_Z   1
loop_
 _symmetry_equiv_pos_site_id
 _symmetry_equiv_pos_as_xyz
  1  'x, y, z'
loop_
 _atom_site_type_symbol
 _atom_site_label
 _atom_site_symmetry_multiplicity
 _atom_site_fract_x
 _atom_site_fract_y
 _atom_site_fract_z
 _atom_site_occupancy
  Dy  Dy0  1  0.237507  0.000017  0.249976  1
  Dy  Dy1  1  0.237507  0.237491  0.750024  1
  Dy  Dy2  1  0.999983  0.762493  0.750024  1
  Dy  Dy3  1  0.999983  0.237491  0.249976  1
  Dy  Dy4  1  0.762509  0.762493  0.249976  1
  Dy  Dy5  1  0.762509  0.000017  0.750024  1
  Ho  Ho6  1  0.333333  0.666667  0.500000  1
  Er  Er7  1  0.333333  0.666667  0.000000  1
  Er  Er8  1  0.666667  0.333333  0.500000  1
  Er  Er9  1  0.666667  0.333333  0.000000  1
  Pb  Pb10  1  0.604948  0.000066  0.249941  1
  Pb  Pb11  1  0.604948  0.604882  0.750059  1
  Pb  Pb12  1  0.999934  0.395052  0.750059  1
  Pb  Pb13  1  0.999934  0.604882  0.249941  1
  Pb  Pb14  1  0.395118  0.395052  0.249941  1
  Pb  Pb15  1  0.395118  0.000066  0.750059  1
