# generated using pymatgen
data_Tb3YEr4(B6Os)4
_symmetry_space_group_name_H-M   'P 1'
_cell_length_a   3.64665200
_cell_length_b   9.13709401
_cell_length_c   11.52853102
_cell_angle_alpha   90.00594431
_cell_angle_beta   90.00000000
_cell_angle_gamma   90.00000000
_symmetry_Int_Tables_number   1
_chemical_formula_structural   Tb3YEr4(B6Os)4
_chemical_formula_sum   'Tb3 Y1 Er4 B24 Os4'
_cell_volume   384.12837050
_cell_formula_units_Z   1
loop_
 _symmetry_equiv_pos_site_id
 _symmetry_equiv_pos_as_xyz
  1  'x, y, z'
loop_
 _atom_site_type_symbol
 _atom_site_label
 _atom_site_symmetry_multiplicity
 _atom_site_fract_x
 _atom_site_fract_y
 _atom_site_fract_z
 _atom_site_occupancy
  Tb  Tb0  1  0.000000  0.322210  0.413882  1
  Tb  Tb1  1  0.000000  0.677769  0.586132  1
  Tb  Tb2  1  0.000000  0.822234  0.086094  1
  Y  Y3  1  0.000000  0.178131  0.913955  1
  Er  Er4  1  0.000000  0.944108  0.372901  1
  Er  Er5  1  0.000000  0.055917  0.627133  1
  Er  Er6  1  0.000000  0.444063  0.127058  1
  Er  Er7  1  0.000000  0.555861  0.872904  1
  B  B8  1  0.500000  0.554295  0.432723  1
  B  B9  1  0.500000  0.445673  0.567279  1
  B  B10  1  0.500000  0.054253  0.067198  1
  B  B11  1  0.500000  0.945746  0.932802  1
  B  B12  1  0.500000  0.748626  0.419534  1
  B  B13  1  0.500000  0.251344  0.580474  1
  B  B14  1  0.500000  0.248598  0.080394  1
  B  B15  1  0.500000  0.751387  0.919526  1
  B  B16  1  0.500000  0.791367  0.266544  1
  B  B17  1  0.500000  0.208539  0.733508  1
  B  B18  1  0.500000  0.291373  0.233412  1
  B  B19  1  0.500000  0.708637  0.766547  1
  B  B20  1  0.500000  0.631437  0.185163  1
  B  B21  1  0.500000  0.368503  0.814850  1
  B  B22  1  0.500000  0.131464  0.314813  1
  B  B23  1  0.500000  0.868550  0.685187  1
  B  B24  1  0.500000  0.983336  0.213426  1
  B  B25  1  0.500000  0.016782  0.786581  1
  B  B26  1  0.500000  0.483331  0.286541  1
  B  B27  1  0.500000  0.516626  0.713471  1
  B  B28  1  0.500000  0.606130  0.029348  1
  B  B29  1  0.500000  0.393636  0.970589  1
  B  B30  1  0.500000  0.106108  0.470669  1
  B  B31  1  0.500000  0.893889  0.529342  1
  Os  Os32  1  0.000000  0.637615  0.320838  1
  Os  Os33  1  0.000000  0.362319  0.679148  1
  Os  Os34  1  0.000000  0.137604  0.179107  1
  Os  Os35  1  0.000000  0.862539  0.820929  1
