# generated using pymatgen
data_Dy10Bi5P2Pb
_symmetry_space_group_name_H-M   'P 1'
_cell_length_a   9.21769805
_cell_length_b   9.22835054
_cell_length_c   6.69601500
_cell_angle_alpha   90.00000000
_cell_angle_beta   90.00000000
_cell_angle_gamma   120.03824608
_symmetry_Int_Tables_number   1
_chemical_formula_structural   Dy10Bi5P2Pb
_chemical_formula_sum   'Dy10 Bi5 P2 Pb1'
_cell_volume   493.08990000
_cell_formula_units_Z   1
loop_
 _symmetry_equiv_pos_site_id
 _symmetry_equiv_pos_as_xyz
  1  'x, y, z'
loop_
 _atom_site_type_symbol
 _atom_site_label
 _atom_site_symmetry_multiplicity
 _atom_site_fract_x
 _atom_site_fract_y
 _atom_site_fract_z
 _atom_site_occupancy
  Dy  Dy0  1  0.763468  0.763578  0.750000  1
  Dy  Dy1  1  0.236532  0.000111  0.750000  1
  Dy  Dy2  1  0.000000  0.237218  0.750000  1
  Dy  Dy3  1  0.235481  0.237879  0.250000  1
  Dy  Dy4  1  0.764519  0.002398  0.250000  1
  Dy  Dy5  1  0.000000  0.762687  0.250000  1
  Dy  Dy6  1  0.667965  0.333494  0.000883  1
  Dy  Dy7  1  0.332035  0.665530  0.000883  1
  Dy  Dy8  1  0.332035  0.665530  0.499117  1
  Dy  Dy9  1  0.667965  0.333494  0.499117  1
  Bi  Bi10  1  0.399818  0.399522  0.750000  1
  Bi  Bi11  1  0.600182  0.999704  0.750000  1
  Bi  Bi12  1  0.000000  0.599194  0.750000  1
  Bi  Bi13  1  0.600769  0.600627  0.250000  1
  Bi  Bi14  1  0.399231  0.999858  0.250000  1
  P  P15  1  0.000000  0.999518  0.999858  1
  P  P16  1  0.000000  0.999518  0.500142  1
  Pb  Pb17  1  0.000000  0.400138  0.250000  1
