# generated using pymatgen
data_Na2Yb(USb2)5
_symmetry_space_group_name_H-M   'P 1'
_cell_length_a   9.29810900
_cell_length_b   9.41449193
_cell_length_c   6.16114000
_cell_angle_alpha   90.00000000
_cell_angle_beta   90.00000000
_cell_angle_gamma   119.59190403
_symmetry_Int_Tables_number   1
_chemical_formula_structural   Na2Yb(USb2)5
_chemical_formula_sum   'Na2 Yb1 U5 Sb10'
_cell_volume   468.98019956
_cell_formula_units_Z   1
loop_
 _symmetry_equiv_pos_site_id
 _symmetry_equiv_pos_as_xyz
  1  'x, y, z'
loop_
 _atom_site_type_symbol
 _atom_site_label
 _atom_site_symmetry_multiplicity
 _atom_site_fract_x
 _atom_site_fract_y
 _atom_site_fract_z
 _atom_site_occupancy
  Na  Na0  1  0.000116  0.000000  0.997962  1
  Na  Na1  1  0.000116  0.000000  0.502038  1
  Yb  Yb2  1  0.377975  0.000000  0.750000  1
  U  U3  1  0.387118  0.380773  0.250000  1
  U  U4  1  0.006345  0.619227  0.250000  1
  U  U5  1  0.998737  0.384867  0.750000  1
  U  U6  1  0.613870  0.615133  0.750000  1
  U  U7  1  0.611550  0.000000  0.250000  1
  Sb  Sb8  1  0.673753  0.339735  0.496730  1
  Sb  Sb9  1  0.334016  0.660265  0.003270  1
  Sb  Sb10  1  0.716550  0.000000  0.750000  1
  Sb  Sb11  1  0.718657  0.719411  0.250000  1
  Sb  Sb12  1  0.334016  0.660265  0.496730  1
  Sb  Sb13  1  0.673753  0.339735  0.003270  1
  Sb  Sb14  1  0.278221  0.000000  0.250000  1
  Sb  Sb15  1  0.281297  0.286636  0.750000  1
  Sb  Sb16  1  0.994661  0.713364  0.750000  1
  Sb  Sb17  1  0.999247  0.280589  0.250000  1
