# generated using pymatgen
data_LaGdAl6(PbO4)4
_symmetry_space_group_name_H-M   'P 1'
_cell_length_a   9.62997545
_cell_length_b   9.62997545
_cell_length_c   9.62808700
_cell_angle_alpha   90.00000000
_cell_angle_beta   90.00000000
_cell_angle_gamma   89.81572480
_symmetry_Int_Tables_number   1
_chemical_formula_structural   LaGdAl6(PbO4)4
_chemical_formula_sum   'La2 Gd2 Al12 Pb8 O32'
_cell_volume   892.86977118
_cell_formula_units_Z   2
loop_
 _symmetry_equiv_pos_site_id
 _symmetry_equiv_pos_as_xyz
  1  'x, y, z'
loop_
 _atom_site_type_symbol
 _atom_site_label
 _atom_site_symmetry_multiplicity
 _atom_site_fract_x
 _atom_site_fract_y
 _atom_site_fract_z
 _atom_site_occupancy
  La  La0  1  0.000000  0.000000  0.000000  1
  La  La1  1  0.500000  0.500000  0.000000  1
  Gd  Gd2  1  0.500000  0.000000  0.500000  1
  Gd  Gd3  1  0.000000  0.500000  0.500000  1
  Al  Al4  1  0.750000  0.250000  0.000000  1
  Al  Al5  1  0.250000  0.750000  0.000000  1
  Al  Al6  1  0.748557  0.999992  0.251590  1
  Al  Al7  1  0.751443  0.500008  0.251590  1
  Al  Al8  1  0.999992  0.748557  0.251590  1
  Al  Al9  1  0.500008  0.751443  0.251590  1
  Al  Al10  1  0.750000  0.250000  0.500000  1
  Al  Al11  1  0.250000  0.750000  0.500000  1
  Al  Al12  1  0.251443  0.000008  0.748410  1
  Al  Al13  1  0.000008  0.251443  0.748410  1
  Al  Al14  1  0.499992  0.248557  0.748410  1
  Al  Al15  1  0.248557  0.499992  0.748410  1
  Pb  Pb16  1  0.383753  0.116247  0.120818  1
  Pb  Pb17  1  0.116247  0.383753  0.120818  1
  Pb  Pb18  1  0.117902  0.117902  0.386907  1
  Pb  Pb19  1  0.382098  0.382098  0.386907  1
  Pb  Pb20  1  0.617902  0.617902  0.613093  1
  Pb  Pb21  1  0.882099  0.882099  0.613093  1
  Pb  Pb22  1  0.883754  0.616247  0.879183  1
  Pb  Pb23  1  0.616247  0.883754  0.879183  1
  O  O24  1  0.761937  0.094735  0.095664  1
  O  O25  1  0.738063  0.405264  0.095664  1
  O  O26  1  0.405264  0.738063  0.095664  1
  O  O27  1  0.094735  0.761937  0.095664  1
  O  O28  1  0.141533  0.141533  0.144320  1
  O  O29  1  0.358468  0.358468  0.144320  1
  O  O30  1  0.596624  0.596624  0.239028  1
  O  O31  1  0.903375  0.903375  0.239028  1
  O  O32  1  0.908897  0.591102  0.266058  1
  O  O33  1  0.591102  0.908897  0.266058  1
  O  O34  1  0.361499  0.138502  0.364036  1
  O  O35  1  0.138502  0.361499  0.364036  1
  O  O36  1  0.735392  0.092911  0.408003  1
  O  O37  1  0.764608  0.407088  0.408003  1
  O  O38  1  0.092911  0.735392  0.408003  1
  O  O39  1  0.407088  0.764608  0.408003  1
  O  O40  1  0.592911  0.235392  0.591996  1
  O  O41  1  0.907088  0.264608  0.591996  1
  O  O42  1  0.235392  0.592911  0.591996  1
  O  O43  1  0.264608  0.907088  0.591996  1
  O  O44  1  0.861499  0.638501  0.635964  1
  O  O45  1  0.638501  0.861499  0.635964  1
  O  O46  1  0.408897  0.091102  0.733942  1
  O  O47  1  0.091102  0.408897  0.733942  1
  O  O48  1  0.096624  0.096624  0.760972  1
  O  O49  1  0.403375  0.403375  0.760972  1
  O  O50  1  0.641532  0.641532  0.855681  1
  O  O51  1  0.858468  0.858468  0.855681  1
  O  O52  1  0.905264  0.238063  0.904335  1
  O  O53  1  0.594735  0.261937  0.904335  1
  O  O54  1  0.261937  0.594735  0.904335  1
  O  O55  1  0.238063  0.905264  0.904335  1
