# generated using pymatgen
data_Gd16Er4Ir7Pt5
_symmetry_space_group_name_H-M   'P 1'
_cell_length_a   11.17799719
_cell_length_b   11.17799724
_cell_length_c   6.37224000
_cell_angle_alpha   90.03588548
_cell_angle_beta   90.03588548
_cell_angle_gamma   89.83024275
_symmetry_Int_Tables_number   1
_chemical_formula_structural   Gd16Er4Ir7Pt5
_chemical_formula_sum   'Gd16 Er4 Ir7 Pt5'
_cell_volume   796.19242739
_cell_formula_units_Z   1
loop_
 _symmetry_equiv_pos_site_id
 _symmetry_equiv_pos_as_xyz
  1  'x, y, z'
loop_
 _atom_site_type_symbol
 _atom_site_label
 _atom_site_symmetry_multiplicity
 _atom_site_fract_x
 _atom_site_fract_y
 _atom_site_fract_z
 _atom_site_occupancy
  Gd  Gd0  1  0.292837  0.088673  0.377080  1
  Gd  Gd1  1  0.292706  0.908494  0.876636  1
  Gd  Gd2  1  0.703616  0.085663  0.876299  1
  Gd  Gd3  1  0.703197  0.907795  0.377281  1
  Gd  Gd4  1  0.582689  0.787378  0.883479  1
  Gd  Gd5  1  0.582051  0.206495  0.377019  1
  Gd  Gd6  1  0.411723  0.789347  0.383202  1
  Gd  Gd7  1  0.408605  0.206584  0.883520  1
  Gd  Gd8  1  0.212622  0.417311  0.616521  1
  Gd  Gd9  1  0.210653  0.588277  0.116798  1
  Gd  Gd10  1  0.793505  0.417949  0.122981  1
  Gd  Gd11  1  0.793416  0.591395  0.616480  1
  Gd  Gd12  1  0.911327  0.707163  0.122920  1
  Gd  Gd13  1  0.914337  0.296384  0.623701  1
  Gd  Gd14  1  0.091506  0.707294  0.623364  1
  Gd  Gd15  1  0.092205  0.296803  0.122719  1
  Er  Er16  1  0.998697  0.000976  0.499534  1
  Er  Er17  1  0.999024  0.001303  0.000466  1
  Er  Er18  1  0.498715  0.498307  0.000574  1
  Er  Er19  1  0.501693  0.501285  0.499426  1
  Ir  Ir20  1  0.652772  0.648952  0.248464  1
  Ir  Ir21  1  0.351048  0.347228  0.251536  1
  Ir  Ir22  1  0.349415  0.650585  0.750000  1
  Ir  Ir23  1  0.498211  0.998111  0.123474  1
  Ir  Ir24  1  0.498376  0.998697  0.624152  1
  Ir  Ir25  1  0.001303  0.501624  0.875848  1
  Ir  Ir26  1  0.001889  0.501789  0.376526  1
  Pt  Pt27  1  0.848639  0.151361  0.250000  1
  Pt  Pt28  1  0.850588  0.849862  0.748233  1
  Pt  Pt29  1  0.150138  0.149412  0.751767  1
  Pt  Pt30  1  0.149306  0.850694  0.250000  1
  Pt  Pt31  1  0.653195  0.346805  0.750000  1
