# generated using pymatgen
data_Pr2MgSi5PPd20
_symmetry_space_group_name_H-M   'P 1'
_cell_length_a   8.73432547
_cell_length_b   8.73432436
_cell_length_c   8.73555500
_cell_angle_alpha   59.99534285
_cell_angle_beta   59.99534706
_cell_angle_gamma   60.00931702
_symmetry_Int_Tables_number   1
_chemical_formula_structural   Pr2MgSi5PPd20
_chemical_formula_sum   'Pr2 Mg1 Si5 P1 Pd20'
_cell_volume   471.23137392
_cell_formula_units_Z   1
loop_
 _symmetry_equiv_pos_site_id
 _symmetry_equiv_pos_as_xyz
  1  'x, y, z'
loop_
 _atom_site_type_symbol
 _atom_site_label
 _atom_site_symmetry_multiplicity
 _atom_site_fract_x
 _atom_site_fract_y
 _atom_site_fract_z
 _atom_site_occupancy
  Pr  Pr0  1  0.249584  0.249584  0.250416  1
  Pr  Pr1  1  0.749584  0.749584  0.750416  1
  Mg  Mg2  1  0.001234  0.001234  0.998766  1
  Si  Si3  1  0.734483  0.264121  0.265517  1
  Si  Si4  1  0.264121  0.734483  0.735879  1
  Si  Si5  1  0.264121  0.734483  0.265517  1
  Si  Si6  1  0.734483  0.264121  0.735879  1
  Si  Si7  1  0.265246  0.265246  0.734754  1
  P  P8  1  0.735206  0.735206  0.264794  1
  Pd  Pd9  1  0.385619  0.385619  0.385209  1
  Pd  Pd10  1  0.614700  0.614700  0.612793  1
  Pd  Pd11  1  0.385619  0.385619  0.843556  1
  Pd  Pd12  1  0.387207  0.842194  0.385300  1
  Pd  Pd13  1  0.614700  0.614700  0.157806  1
  Pd  Pd14  1  0.614791  0.156444  0.614381  1
  Pd  Pd15  1  0.842194  0.387207  0.385300  1
  Pd  Pd16  1  0.156444  0.614791  0.614381  1
  Pd  Pd17  1  0.344274  0.000034  0.999966  1
  Pd  Pd18  1  0.656797  0.997816  0.002184  1
  Pd  Pd19  1  0.000034  0.344274  0.655726  1
  Pd  Pd20  1  0.997816  0.656797  0.343203  1
  Pd  Pd21  1  0.000034  0.344274  0.999966  1
  Pd  Pd22  1  0.656797  0.997816  0.343203  1
  Pd  Pd23  1  0.997816  0.656797  0.002184  1
  Pd  Pd24  1  0.344274  0.000034  0.655726  1
  Pd  Pd25  1  0.000705  0.000705  0.343776  1
  Pd  Pd26  1  0.000705  0.000705  0.654813  1
  Pd  Pd27  1  0.656224  0.345187  0.999295  1
  Pd  Pd28  1  0.345187  0.656224  0.999295  1
