# generated using pymatgen
data_Ho5SiSb2
_symmetry_space_group_name_H-M   'P 1'
_cell_length_a   7.92995600
_cell_length_b   8.97580800
_cell_length_c   11.90401200
_cell_angle_alpha   90.00000000
_cell_angle_beta   90.00000000
_cell_angle_gamma   90.00000000
_symmetry_Int_Tables_number   1
_chemical_formula_structural   Ho5SiSb2
_chemical_formula_sum   'Ho20 Si4 Sb8'
_cell_volume   847.30093899
_cell_formula_units_Z   4
loop_
 _symmetry_equiv_pos_site_id
 _symmetry_equiv_pos_as_xyz
  1  'x, y, z'
loop_
 _atom_site_type_symbol
 _atom_site_label
 _atom_site_symmetry_multiplicity
 _atom_site_fract_x
 _atom_site_fract_y
 _atom_site_fract_z
 _atom_site_occupancy
  Ho  Ho0  1  0.166108  0.750000  0.214810  1
  Ho  Ho1  1  0.333892  0.750000  0.714810  1
  Ho  Ho2  1  0.833892  0.250000  0.785190  1
  Ho  Ho3  1  0.666108  0.250000  0.285190  1
  Ho  Ho4  1  0.461571  0.750000  0.001057  1
  Ho  Ho5  1  0.038429  0.750000  0.501057  1
  Ho  Ho6  1  0.538429  0.250000  0.998943  1
  Ho  Ho7  1  0.961571  0.250000  0.498943  1
  Ho  Ho8  1  0.638714  0.750000  0.297104  1
  Ho  Ho9  1  0.861286  0.750000  0.797104  1
  Ho  Ho10  1  0.361286  0.250000  0.702896  1
  Ho  Ho11  1  0.138714  0.250000  0.202896  1
  Ho  Ho12  1  0.817006  0.549950  0.067316  1
  Ho  Ho13  1  0.682994  0.950050  0.567316  1
  Ho  Ho14  1  0.182994  0.049950  0.932684  1
  Ho  Ho15  1  0.317006  0.450050  0.432684  1
  Ho  Ho16  1  0.182994  0.450050  0.932684  1
  Ho  Ho17  1  0.317006  0.049950  0.432684  1
  Ho  Ho18  1  0.817006  0.950050  0.067316  1
  Ho  Ho19  1  0.682994  0.549950  0.567316  1
  Si  Si20  1  0.417278  0.750000  0.482702  1
  Si  Si21  1  0.082722  0.750000  0.982702  1
  Si  Si22  1  0.582722  0.250000  0.517298  1
  Si  Si23  1  0.917278  0.250000  0.017298  1
  Sb  Sb24  1  0.933666  0.509636  0.326649  1
  Sb  Sb25  1  0.566334  0.990364  0.826649  1
  Sb  Sb26  1  0.066334  0.009636  0.673351  1
  Sb  Sb27  1  0.433666  0.490364  0.173351  1
  Sb  Sb28  1  0.066334  0.490364  0.673351  1
  Sb  Sb29  1  0.433666  0.009636  0.173351  1
  Sb  Sb30  1  0.933666  0.990364  0.326649  1
  Sb  Sb31  1  0.566334  0.509636  0.826649  1
