# generated using pymatgen
data_Hf2Fe8P7Ru4
_symmetry_space_group_name_H-M   'P 1'
_cell_length_a   8.96511742
_cell_length_b   8.96928834
_cell_length_c   3.68318300
_cell_angle_alpha   90.00000000
_cell_angle_beta   90.00000000
_cell_angle_gamma   120.19675945
_symmetry_Int_Tables_number   1
_chemical_formula_structural   Hf2Fe8P7Ru4
_chemical_formula_sum   'Hf2 Fe8 P7 Ru4'
_cell_volume   255.97845379
_cell_formula_units_Z   1
loop_
 _symmetry_equiv_pos_site_id
 _symmetry_equiv_pos_as_xyz
  1  'x, y, z'
loop_
 _atom_site_type_symbol
 _atom_site_label
 _atom_site_symmetry_multiplicity
 _atom_site_fract_x
 _atom_site_fract_y
 _atom_site_fract_z
 _atom_site_occupancy
  Hf  Hf0  1  0.662673  0.329082  0.500000  1
  Hf  Hf1  1  0.337903  0.667366  0.000000  1
  Fe  Fe2  1  0.559687  0.946653  0.500000  1
  Fe  Fe3  1  0.390066  0.441966  0.500000  1
  Fe  Fe4  1  0.718183  0.879778  0.000000  1
  Fe  Fe5  1  0.120145  0.845370  0.000000  1
  Fe  Fe6  1  0.160656  0.279686  0.000000  1
  Fe  Fe7  1  0.431651  0.064832  0.000000  1
  Fe  Fe8  1  0.930691  0.361424  0.000000  1
  Fe  Fe9  1  0.631120  0.569035  0.000000  1
  P  P10  1  0.587837  0.711501  0.500000  1
  P  P11  1  0.998779  0.000524  0.000000  1
  P  P12  1  0.295751  0.886812  0.500000  1
  P  P13  1  0.126328  0.403997  0.500000  1
  P  P14  1  0.878063  0.578351  0.000000  1
  P  P15  1  0.419318  0.304797  0.000000  1
  P  P16  1  0.694013  0.113334  0.000000  1
  Ru  Ru17  1  0.902826  0.119594  0.500000  1
  Ru  Ru18  1  0.222321  0.099737  0.500000  1
  Ru  Ru19  1  0.875682  0.784198  0.500000  1
  Ru  Ru20  1  0.056310  0.611963  0.500000  1
