# generated using pymatgen
data_Ca10Si5Ag
_symmetry_space_group_name_H-M   'P 1'
_cell_length_a   9.17365222
_cell_length_b   9.17365235
_cell_length_c   9.17365212
_cell_angle_alpha   130.24981415
_cell_angle_beta   130.24981281
_cell_angle_gamma   73.00771116
_symmetry_Int_Tables_number   1
_chemical_formula_structural   Ca10Si5Ag
_chemical_formula_sum   'Ca10 Si5 Ag1'
_cell_volume   439.20582566
_cell_formula_units_Z   1
loop_
 _symmetry_equiv_pos_site_id
 _symmetry_equiv_pos_as_xyz
  1  'x, y, z'
loop_
 _atom_site_type_symbol
 _atom_site_label
 _atom_site_symmetry_multiplicity
 _atom_site_fract_x
 _atom_site_fract_y
 _atom_site_fract_z
 _atom_site_occupancy
  Ca  Ca0  1  0.473904  0.958171  0.148385  1
  Ca  Ca1  1  0.174482  0.690215  0.148385  1
  Ca  Ca2  1  0.541829  0.026096  0.851615  1
  Ca  Ca3  1  0.026096  0.174482  0.484267  1
  Ca  Ca4  1  0.690215  0.541829  0.515733  1
  Ca  Ca5  1  0.958171  0.809785  0.484267  1
  Ca  Ca6  1  0.002474  0.002474  0.000000  1
  Ca  Ca7  1  0.497526  0.497526  0.000000  1
  Ca  Ca8  1  0.809785  0.325518  0.851615  1
  Ca  Ca9  1  0.325518  0.473904  0.515733  1
  Si  Si10  1  0.112201  0.612201  0.724401  1
  Si  Si11  1  0.612201  0.887799  0.500000  1
  Si  Si12  1  0.387799  0.112201  0.500000  1
  Si  Si13  1  0.887799  0.387799  0.275599  1
  Si  Si14  1  0.750000  0.750000  0.000000  1
  Ag  Ag15  1  0.250000  0.250000  0.000000  1
