# generated using pymatgen
data_Ca13La7Si15Sn
_symmetry_space_group_name_H-M   'P 1'
_cell_length_a   7.95920111
_cell_length_b   7.96613172
_cell_length_c   15.21191600
_cell_angle_alpha   89.89903273
_cell_angle_beta   89.53501025
_cell_angle_gamma   90.06559325
_symmetry_Int_Tables_number   1
_chemical_formula_structural   Ca13La7Si15Sn
_chemical_formula_sum   'Ca13 La7 Si15 Sn1'
_cell_volume   964.46309001
_cell_formula_units_Z   1
loop_
 _symmetry_equiv_pos_site_id
 _symmetry_equiv_pos_as_xyz
  1  'x, y, z'
loop_
 _atom_site_type_symbol
 _atom_site_label
 _atom_site_symmetry_multiplicity
 _atom_site_fract_x
 _atom_site_fract_y
 _atom_site_fract_z
 _atom_site_occupancy
  Ca  Ca0  1  0.375968  0.484031  0.372845  1
  Ca  Ca1  1  0.862866  0.020098  0.371130  1
  Ca  Ca2  1  0.986886  0.129658  0.123899  1
  Ca  Ca3  1  0.014717  0.873186  0.627648  1
  Ca  Ca4  1  0.631172  0.513046  0.875843  1
  Ca  Ca5  1  0.490664  0.370262  0.627063  1
  Ca  Ca6  1  0.512461  0.628007  0.124334  1
  Ca  Ca7  1  0.128487  0.986257  0.877136  1
  Ca  Ca8  1  0.990325  0.619593  0.052435  1
  Ca  Ca9  1  0.683894  0.688442  0.500360  1
  Ca  Ca10  1  0.812088  0.189406  0.751102  1
  Ca  Ca11  1  0.187152  0.810688  0.244207  1
  Ca  Ca12  1  0.308101  0.313396  0.000215  1
  La  La13  1  0.009507  0.368803  0.552754  1
  La  La14  1  0.623505  0.989445  0.950364  1
  La  La15  1  0.123262  0.510816  0.802667  1
  La  La16  1  0.868839  0.483768  0.292525  1
  La  La17  1  0.505614  0.121111  0.196586  1
  La  La18  1  0.492967  0.878641  0.700196  1
  La  La19  1  0.381023  0.013824  0.448933  1
  Si  Si20  1  0.916101  0.288756  0.941327  1
  Si  Si21  1  0.709815  0.082403  0.558623  1
  Si  Si22  1  0.212643  0.415717  0.193399  1
  Si  Si23  1  0.795423  0.580968  0.691939  1
  Si  Si24  1  0.418998  0.209453  0.808997  1
  Si  Si25  1  0.578849  0.791611  0.307140  1
  Si  Si26  1  0.295620  0.921881  0.056840  1
  Si  Si27  1  0.830547  0.798801  0.802237  1
  Si  Si28  1  0.167306  0.201936  0.305041  1
  Si  Si29  1  0.797850  0.833417  0.196171  1
  Si  Si30  1  0.307124  0.668448  0.560674  1
  Si  Si31  1  0.699523  0.327070  0.053402  1
  Si  Si32  1  0.670213  0.301331  0.448727  1
  Si  Si33  1  0.332372  0.702780  0.946373  1
  Si  Si34  1  0.203639  0.169990  0.698614  1
  Sn  Sn35  1  0.074476  0.712960  0.438256  1
