# generated using pymatgen
data_Ce5Dy3Al8TlRh7
_symmetry_space_group_name_H-M   'P 1'
_cell_length_a   4.17502600
_cell_length_b   7.15928931
_cell_length_c   16.29563000
_cell_angle_alpha   90.71561389
_cell_angle_beta   90.00000000
_cell_angle_gamma   90.00000000
_symmetry_Int_Tables_number   1
_chemical_formula_structural   Ce5Dy3Al8TlRh7
_chemical_formula_sum   'Ce5 Dy3 Al8 Tl1 Rh7'
_cell_volume   487.04195906
_cell_formula_units_Z   1
loop_
 _symmetry_equiv_pos_site_id
 _symmetry_equiv_pos_as_xyz
  1  'x, y, z'
loop_
 _atom_site_type_symbol
 _atom_site_label
 _atom_site_symmetry_multiplicity
 _atom_site_fract_x
 _atom_site_fract_y
 _atom_site_fract_z
 _atom_site_occupancy
  Ce  Ce0  1  0.750000  0.342509  0.059233  1
  Ce  Ce1  1  0.250000  0.031379  0.786523  1
  Ce  Ce2  1  0.750000  0.969824  0.217032  1
  Ce  Ce3  1  0.250000  0.513895  0.731929  1
  Ce  Ce4  1  0.750000  0.468139  0.275361  1
  Dy  Dy5  1  0.250000  0.171246  0.559164  1
  Dy  Dy6  1  0.750000  0.853015  0.427010  1
  Dy  Dy7  1  0.250000  0.657382  0.941195  1
  Al  Al8  1  0.250000  0.138953  0.348264  1
  Al  Al9  1  0.750000  0.872712  0.664228  1
  Al  Al10  1  0.250000  0.641238  0.147536  1
  Al  Al11  1  0.750000  0.356489  0.857288  1
  Al  Al12  1  0.250000  0.000358  0.061268  1
  Al  Al13  1  0.750000  0.986974  0.940854  1
  Al  Al14  1  0.250000  0.497099  0.425838  1
  Al  Al15  1  0.750000  0.478659  0.564552  1
  Tl  Tl16  1  0.250000  0.745896  0.565485  1
  Rh  Rh17  1  0.750000  0.285185  0.427643  1
  Rh  Rh18  1  0.750000  0.772434  0.071960  1
  Rh  Rh19  1  0.250000  0.222636  0.931652  1
  Rh  Rh20  1  0.750000  0.734717  0.817248  1
  Rh  Rh21  1  0.250000  0.260629  0.181272  1
  Rh  Rh22  1  0.750000  0.244529  0.687942  1
  Rh  Rh23  1  0.250000  0.754102  0.309525  1
