# generated using pymatgen
data_DyLu4Si6P6Ir19
_symmetry_space_group_name_H-M   'P 1'
_cell_length_a   12.77511200
_cell_length_b   12.77511241
_cell_length_c   3.93093400
_cell_angle_alpha   90.00000000
_cell_angle_beta   90.00000000
_cell_angle_gamma   119.99999894
_symmetry_Int_Tables_number   1
_chemical_formula_structural   DyLu4Si6P6Ir19
_chemical_formula_sum   'Dy1 Lu4 Si6 P6 Ir19'
_cell_volume   555.59180972
_cell_formula_units_Z   1
loop_
 _symmetry_equiv_pos_site_id
 _symmetry_equiv_pos_as_xyz
  1  'x, y, z'
loop_
 _atom_site_type_symbol
 _atom_site_label
 _atom_site_symmetry_multiplicity
 _atom_site_fract_x
 _atom_site_fract_y
 _atom_site_fract_z
 _atom_site_occupancy
  Dy  Dy0  1  0.666667  0.333333  0.500000  1
  Lu  Lu1  1  0.333333  0.666667  0.500000  1
  Lu  Lu2  1  0.001826  0.816216  0.000000  1
  Lu  Lu3  1  0.183784  0.185610  0.000000  1
  Lu  Lu4  1  0.814390  0.998174  0.000000  1
  Si  Si5  1  0.000585  0.636632  0.500000  1
  Si  Si6  1  0.363368  0.363954  0.500000  1
  Si  Si7  1  0.636046  0.999415  0.500000  1
  Si  Si8  1  0.518965  0.681980  0.000000  1
  Si  Si9  1  0.318020  0.836985  0.000000  1
  Si  Si10  1  0.163015  0.481035  0.000000  1
  P  P11  1  0.483608  0.177284  0.000000  1
  P  P12  1  0.693677  0.516392  0.000000  1
  P  P13  1  0.822716  0.306323  0.000000  1
  P  P14  1  0.996042  0.175498  0.500000  1
  P  P15  1  0.824502  0.820543  0.500000  1
  P  P16  1  0.179457  0.003958  0.500000  1
  Ir  Ir17  1  0.514646  0.867647  0.000000  1
  Ir  Ir18  1  0.132353  0.647000  0.000000  1
  Ir  Ir19  1  0.353000  0.485354  0.000000  1
  Ir  Ir20  1  0.494057  0.368314  0.000000  1
  Ir  Ir21  1  0.874258  0.505943  0.000000  1
  Ir  Ir22  1  0.631686  0.125742  0.000000  1
  Ir  Ir23  1  0.015308  0.458165  0.500000  1
  Ir  Ir24  1  0.541835  0.557143  0.500000  1
  Ir  Ir25  1  0.442857  0.984692  0.500000  1
  Ir  Ir26  1  0.993686  0.276633  0.000000  1
  Ir  Ir27  1  0.723367  0.717052  0.000000  1
  Ir  Ir28  1  0.282948  0.006314  0.000000  1
  Ir  Ir29  1  0.634251  0.810308  0.500000  1
  Ir  Ir30  1  0.189692  0.823943  0.500000  1
  Ir  Ir31  1  0.176057  0.365749  0.500000  1
  Ir  Ir32  1  0.380816  0.182738  0.500000  1
  Ir  Ir33  1  0.801922  0.619184  0.500000  1
  Ir  Ir34  1  0.817262  0.198078  0.500000  1
  Ir  Ir35  1  0.000000  0.000000  0.500000  1
