# generated using pymatgen
data_Nd16MgCd3NiRu3
_symmetry_space_group_name_H-M   'P 1'
_cell_length_a   9.91702553
_cell_length_b   9.97653702
_cell_length_c   9.97653625
_cell_angle_alpha   59.68006760
_cell_angle_beta   59.56232507
_cell_angle_gamma   59.56232327
_symmetry_Int_Tables_number   1
_chemical_formula_structural   Nd16MgCd3NiRu3
_chemical_formula_sum   'Nd16 Mg1 Cd3 Ni1 Ru3'
_cell_volume   691.63033649
_cell_formula_units_Z   1
loop_
 _symmetry_equiv_pos_site_id
 _symmetry_equiv_pos_as_xyz
  1  'x, y, z'
loop_
 _atom_site_type_symbol
 _atom_site_label
 _atom_site_symmetry_multiplicity
 _atom_site_fract_x
 _atom_site_fract_y
 _atom_site_fract_z
 _atom_site_occupancy
  Nd  Nd0  1  0.598100  0.596730  0.596730  1
  Nd  Nd1  1  0.598294  0.595974  0.210668  1
  Nd  Nd2  1  0.598294  0.210668  0.595974  1
  Nd  Nd3  1  0.212789  0.594811  0.594811  1
  Nd  Nd4  1  0.059101  0.440677  0.440677  1
  Nd  Nd5  1  0.436431  0.061711  0.061711  1
  Nd  Nd6  1  0.440348  0.059031  0.441497  1
  Nd  Nd7  1  0.061063  0.439687  0.060806  1
  Nd  Nd8  1  0.440348  0.441497  0.059031  1
  Nd  Nd9  1  0.061063  0.060806  0.439687  1
  Nd  Nd10  1  0.188692  0.811590  0.811590  1
  Nd  Nd11  1  0.807657  0.188902  0.188902  1
  Nd  Nd12  1  0.809418  0.186238  0.817269  1
  Nd  Nd13  1  0.189702  0.810472  0.190874  1
  Nd  Nd14  1  0.809418  0.817269  0.186238  1
  Nd  Nd15  1  0.189702  0.190874  0.810472  1
  Mg  Mg16  1  0.824912  0.824851  0.824851  1
  Cd  Cd17  1  0.830050  0.829991  0.509401  1
  Cd  Cd18  1  0.830050  0.509401  0.829991  1
  Cd  Cd19  1  0.508847  0.830093  0.830093  1
  Ni  Ni20  1  0.826534  0.391964  0.391964  1
  Ru  Ru21  1  0.393688  0.386900  0.386900  1
  Ru  Ru22  1  0.392749  0.388113  0.831750  1
  Ru  Ru23  1  0.392749  0.831750  0.388113  1
