# generated using pymatgen
data_ErPt4Au
_symmetry_space_group_name_H-M   'P 1'
_cell_length_a   5.34946561
_cell_length_b   5.34946630
_cell_length_c   5.34946600
_cell_angle_alpha   60.00000185
_cell_angle_beta   59.99999758
_cell_angle_gamma   59.99999908
_symmetry_Int_Tables_number   1
_chemical_formula_structural   ErPt4Au
_chemical_formula_sum   'Er1 Pt4 Au1'
_cell_volume   108.24710355
_cell_formula_units_Z   1
loop_
 _symmetry_equiv_pos_site_id
 _symmetry_equiv_pos_as_xyz
  1  'x, y, z'
loop_
 _atom_site_type_symbol
 _atom_site_label
 _atom_site_symmetry_multiplicity
 _atom_site_fract_x
 _atom_site_fract_y
 _atom_site_fract_z
 _atom_site_occupancy
  Er  Er0  1  0.250000  0.250000  0.250000  1
  Pt  Pt1  1  0.625330  0.625330  0.625330  1
  Pt  Pt2  1  0.124010  0.625330  0.625330  1
  Pt  Pt3  1  0.625330  0.124010  0.625330  1
  Pt  Pt4  1  0.625330  0.625330  0.124010  1
  Au  Au5  1  0.000000  0.000000  0.000000  1
