# generated using pymatgen
data_Tb3In3GePtRh
_symmetry_space_group_name_H-M   'P 1'
_cell_length_a   7.53207200
_cell_length_b   7.53207276
_cell_length_c   4.08908700
_cell_angle_alpha   90.00000000
_cell_angle_beta   90.00000000
_cell_angle_gamma   120.00000543
_symmetry_Int_Tables_number   1
_chemical_formula_structural   Tb3In3GePtRh
_chemical_formula_sum   'Tb3 In3 Ge1 Pt1 Rh1'
_cell_volume   200.90277171
_cell_formula_units_Z   1
loop_
 _symmetry_equiv_pos_site_id
 _symmetry_equiv_pos_as_xyz
  1  'x, y, z'
loop_
 _atom_site_type_symbol
 _atom_site_label
 _atom_site_symmetry_multiplicity
 _atom_site_fract_x
 _atom_site_fract_y
 _atom_site_fract_z
 _atom_site_occupancy
  Tb  Tb0  1  0.402477  0.992996  0.000000  1
  Tb  Tb1  1  0.007004  0.409481  0.000000  1
  Tb  Tb2  1  0.590519  0.597523  0.000000  1
  In  In3  1  0.248256  0.254847  0.500000  1
  In  In4  1  0.006590  0.751744  0.500000  1
  In  In5  1  0.745153  0.993410  0.500000  1
  Ge  Ge6  1  0.666667  0.333333  0.500000  1
  Pt  Pt7  1  0.333333  0.666667  0.500000  1
  Rh  Rh8  1  0.000000  0.000000  0.000000  1
