# generated using pymatgen
data_Hf18Re4MoAs2W3
_symmetry_space_group_name_H-M   'P 1'
_cell_length_a   8.67532400
_cell_length_b   8.69764069
_cell_length_c   8.61824600
_cell_angle_alpha   90.00000000
_cell_angle_beta   90.00000000
_cell_angle_gamma   119.90815220
_symmetry_Int_Tables_number   1
_chemical_formula_structural   Hf18Re4MoAs2W3
_chemical_formula_sum   'Hf18 Re4 Mo1 As2 W3'
_cell_volume   563.68683116
_cell_formula_units_Z   1
loop_
 _symmetry_equiv_pos_site_id
 _symmetry_equiv_pos_as_xyz
  1  'x, y, z'
loop_
 _atom_site_type_symbol
 _atom_site_label
 _atom_site_symmetry_multiplicity
 _atom_site_fract_x
 _atom_site_fract_y
 _atom_site_fract_z
 _atom_site_occupancy
  Hf  Hf0  1  0.805417  0.610765  0.546687  1
  Hf  Hf1  1  0.805497  0.194389  0.545537  1
  Hf  Hf2  1  0.388369  0.194081  0.545813  1
  Hf  Hf3  1  0.194459  0.388981  0.452269  1
  Hf  Hf4  1  0.194961  0.805741  0.454114  1
  Hf  Hf5  1  0.611297  0.806029  0.453856  1
  Hf  Hf6  1  0.194459  0.388981  0.047731  1
  Hf  Hf7  1  0.194961  0.805741  0.045886  1
  Hf  Hf8  1  0.611297  0.806029  0.046144  1
  Hf  Hf9  1  0.805417  0.610765  0.953313  1
  Hf  Hf10  1  0.805497  0.194389  0.954463  1
  Hf  Hf11  1  0.388369  0.194081  0.954187  1
  Hf  Hf12  1  0.459941  0.919625  0.750000  1
  Hf  Hf13  1  0.459988  0.540712  0.750000  1
  Hf  Hf14  1  0.080531  0.540515  0.750000  1
  Hf  Hf15  1  0.540494  0.081240  0.250000  1
  Hf  Hf16  1  0.540622  0.459230  0.250000  1
  Hf  Hf17  1  0.918786  0.459455  0.250000  1
  Re  Re18  1  0.111099  0.890182  0.750000  1
  Re  Re19  1  0.779160  0.890314  0.750000  1
  Re  Re20  1  0.889066  0.110084  0.250000  1
  Re  Re21  1  0.220940  0.109956  0.250000  1
  Mo  Mo22  1  0.890359  0.780465  0.250000  1
  As  As23  1  0.666848  0.334047  0.750000  1
  As  As24  1  0.333591  0.666799  0.250000  1
  W  W25  1  0.109207  0.218682  0.750000  1
  W  W26  1  0.999681  0.999360  0.499434  1
  W  W27  1  0.999681  0.999360  0.000566  1
