# generated using pymatgen
data_Pa4CdNi4Sn
_symmetry_space_group_name_H-M   'P 1'
_cell_length_a   7.50282200
_cell_length_b   7.50282200
_cell_length_c   3.49102300
_cell_angle_alpha   90.00000000
_cell_angle_beta   90.00000000
_cell_angle_gamma   90.00000000
_symmetry_Int_Tables_number   1
_chemical_formula_structural   Pa4CdNi4Sn
_chemical_formula_sum   'Pa4 Cd1 Ni4 Sn1'
_cell_volume   196.51784655
_cell_formula_units_Z   1
loop_
 _symmetry_equiv_pos_site_id
 _symmetry_equiv_pos_as_xyz
  1  'x, y, z'
loop_
 _atom_site_type_symbol
 _atom_site_label
 _atom_site_symmetry_multiplicity
 _atom_site_fract_x
 _atom_site_fract_y
 _atom_site_fract_z
 _atom_site_occupancy
  Pa  Pa0  1  0.329046  0.826926  0.500000  1
  Pa  Pa1  1  0.826926  0.670954  0.500000  1
  Pa  Pa2  1  0.173074  0.329046  0.500000  1
  Pa  Pa3  1  0.670954  0.173074  0.500000  1
  Cd  Cd4  1  0.500000  0.500000  0.000000  1
  Ni  Ni5  1  0.373843  0.124778  0.000000  1
  Ni  Ni6  1  0.875222  0.373843  0.000000  1
  Ni  Ni7  1  0.124778  0.626157  0.000000  1
  Ni  Ni8  1  0.626157  0.875222  0.000000  1
  Sn  Sn9  1  0.000000  0.000000  0.000000  1
