# generated using pymatgen
data_Ho10Co4PtAu
_symmetry_space_group_name_H-M   'P 1'
_cell_length_a   8.64152189
_cell_length_b   8.64318433
_cell_length_c   8.64332931
_cell_angle_alpha   130.33463944
_cell_angle_beta   130.32944116
_cell_angle_gamma   72.87000821
_symmetry_Int_Tables_number   1
_chemical_formula_structural   Ho10Co4PtAu
_chemical_formula_sum   'Ho10 Co4 Pt1 Au1'
_cell_volume   366.45999191
_cell_formula_units_Z   1
loop_
 _symmetry_equiv_pos_site_id
 _symmetry_equiv_pos_as_xyz
  1  'x, y, z'
loop_
 _atom_site_type_symbol
 _atom_site_label
 _atom_site_symmetry_multiplicity
 _atom_site_fract_x
 _atom_site_fract_y
 _atom_site_fract_z
 _atom_site_occupancy
  Ho  Ho0  1  0.680569  0.527881  0.485011  1
  Ho  Ho1  1  0.457287  0.972149  0.152731  1
  Ho  Ho2  1  0.819577  0.304685  0.847653  1
  Ho  Ho3  1  0.527968  0.042973  0.847573  1
  Ho  Ho4  1  0.991469  0.991524  0.000144  1
  Ho  Ho5  1  0.042950  0.195493  0.514941  1
  Ho  Ho6  1  0.304499  0.457077  0.485140  1
  Ho  Ho7  1  0.195343  0.680589  0.152654  1
  Ho  Ho8  1  0.972159  0.819499  0.515035  1
  Ho  Ho9  1  0.508625  0.508501  0.999985  1
  Co  Co10  1  0.113165  0.613127  0.726287  1
  Co  Co11  1  0.886467  0.386441  0.272919  1
  Co  Co12  1  0.613442  0.886545  0.499971  1
  Co  Co13  1  0.386788  0.113170  0.499983  1
  Pt  Pt14  1  0.250015  0.249991  0.000031  1
  Au  Au15  1  0.749678  0.750355  0.999941  1
