# generated using pymatgen
data_Ho10Sn6C
_symmetry_space_group_name_H-M   'P 1'
_cell_length_a   8.92251600
_cell_length_b   8.92251728
_cell_length_c   6.55160600
_cell_angle_alpha   90.00000000
_cell_angle_beta   90.00000000
_cell_angle_gamma   119.99999525
_symmetry_Int_Tables_number   1
_chemical_formula_structural   Ho10Sn6C
_chemical_formula_sum   'Ho10 Sn6 C1'
_cell_volume   451.70318994
_cell_formula_units_Z   1
loop_
 _symmetry_equiv_pos_site_id
 _symmetry_equiv_pos_as_xyz
  1  'x, y, z'
loop_
 _atom_site_type_symbol
 _atom_site_label
 _atom_site_symmetry_multiplicity
 _atom_site_fract_x
 _atom_site_fract_y
 _atom_site_fract_z
 _atom_site_occupancy
  Ho  Ho0  1  0.000000  0.771695  0.277143  1
  Ho  Ho1  1  0.228305  0.228305  0.277143  1
  Ho  Ho2  1  0.771695  0.000000  0.277143  1
  Ho  Ho3  1  0.000000  0.228305  0.722857  1
  Ho  Ho4  1  0.771695  0.771695  0.722857  1
  Ho  Ho5  1  0.228305  0.000000  0.722857  1
  Ho  Ho6  1  0.333333  0.666667  0.000000  1
  Ho  Ho7  1  0.666667  0.333333  0.000000  1
  Ho  Ho8  1  0.666667  0.333333  0.500000  1
  Ho  Ho9  1  0.333333  0.666667  0.500000  1
  Sn  Sn10  1  0.000000  0.399375  0.251714  1
  Sn  Sn11  1  0.600625  0.600625  0.251714  1
  Sn  Sn12  1  0.399375  0.000000  0.251714  1
  Sn  Sn13  1  0.000000  0.600625  0.748286  1
  Sn  Sn14  1  0.399375  0.399375  0.748286  1
  Sn  Sn15  1  0.600625  0.000000  0.748286  1
  C  C16  1  0.000000  0.000000  0.500000  1
