# generated using pymatgen
data_LaYb11Ru3Pt
_symmetry_space_group_name_H-M   'P 1'
_cell_length_a   6.33005947
_cell_length_b   7.62247754
_cell_length_c   9.31313900
_cell_angle_alpha   90.00000000
_cell_angle_beta   90.00000000
_cell_angle_gamma   89.46262954
_symmetry_Int_Tables_number   1
_chemical_formula_structural   LaYb11Ru3Pt
_chemical_formula_sum   'La1 Yb11 Ru3 Pt1'
_cell_volume   449.34604851
_cell_formula_units_Z   1
loop_
 _symmetry_equiv_pos_site_id
 _symmetry_equiv_pos_as_xyz
  1  'x, y, z'
loop_
 _atom_site_type_symbol
 _atom_site_label
 _atom_site_symmetry_multiplicity
 _atom_site_fract_x
 _atom_site_fract_y
 _atom_site_fract_z
 _atom_site_occupancy
  La  La0  1  0.358787  0.948829  0.750000  1
  Yb  Yb1  1  0.344855  0.661287  0.068047  1
  Yb  Yb2  1  0.158256  0.174647  0.433222  1
  Yb  Yb3  1  0.656109  0.333015  0.565108  1
  Yb  Yb4  1  0.842318  0.833328  0.933179  1
  Yb  Yb5  1  0.656109  0.333015  0.934892  1
  Yb  Yb6  1  0.842318  0.833328  0.566821  1
  Yb  Yb7  1  0.344855  0.661287  0.431953  1
  Yb  Yb8  1  0.158256  0.174647  0.066778  1
  Yb  Yb9  1  0.863899  0.533356  0.250000  1
  Yb  Yb10  1  0.628853  0.041130  0.250000  1
  Yb  Yb11  1  0.132277  0.459361  0.750000  1
  Ru  Ru12  1  0.460883  0.375257  0.250000  1
  Ru  Ru13  1  0.983902  0.114962  0.750000  1
  Ru  Ru14  1  0.520408  0.646333  0.750000  1
  Pt  Pt15  1  0.047916  0.876219  0.250000  1
