# generated using pymatgen
data_Sc2AlB2Ir4Rh
_symmetry_space_group_name_H-M   'P 1'
_cell_length_a   9.39584300
_cell_length_b   9.39584300
_cell_length_c   3.05416200
_cell_angle_alpha   90.00000000
_cell_angle_beta   90.00000000
_cell_angle_gamma   90.00000000
_symmetry_Int_Tables_number   1
_chemical_formula_structural   Sc2AlB2Ir4Rh
_chemical_formula_sum   'Sc4 Al2 B4 Ir8 Rh2'
_cell_volume   269.62711945
_cell_formula_units_Z   2
loop_
 _symmetry_equiv_pos_site_id
 _symmetry_equiv_pos_as_xyz
  1  'x, y, z'
loop_
 _atom_site_type_symbol
 _atom_site_label
 _atom_site_symmetry_multiplicity
 _atom_site_fract_x
 _atom_site_fract_y
 _atom_site_fract_z
 _atom_site_occupancy
  Sc  Sc0  1  0.674956  0.174956  0.000000  1
  Sc  Sc1  1  0.325044  0.825044  0.000000  1
  Sc  Sc2  1  0.174956  0.325044  0.000000  1
  Sc  Sc3  1  0.825044  0.674956  0.000000  1
  Al  Al4  1  0.500000  0.500000  0.000000  1
  Al  Al5  1  0.000000  0.000000  0.000000  1
  B  B6  1  0.124230  0.624230  0.000000  1
  B  B7  1  0.875770  0.375770  0.000000  1
  B  B8  1  0.624230  0.875770  0.000000  1
  B  B9  1  0.375770  0.124230  0.000000  1
  Ir  Ir10  1  0.569891  0.716167  0.500000  1
  Ir  Ir11  1  0.430109  0.283833  0.500000  1
  Ir  Ir12  1  0.069891  0.783833  0.500000  1
  Ir  Ir13  1  0.930109  0.216167  0.500000  1
  Ir  Ir14  1  0.283833  0.569891  0.500000  1
  Ir  Ir15  1  0.716167  0.430109  0.500000  1
  Ir  Ir16  1  0.216167  0.069891  0.500000  1
  Ir  Ir17  1  0.783833  0.930109  0.500000  1
  Rh  Rh18  1  0.500000  0.000000  0.500000  1
  Rh  Rh19  1  0.000000  0.500000  0.500000  1
