# generated using pymatgen
data_Cs2VCoS4
_symmetry_space_group_name_H-M   'P 1'
_cell_length_a   14.35284476
_cell_length_b   12.78077551
_cell_length_c   7.59581752
_cell_angle_alpha   85.55717869
_cell_angle_beta   62.59735557
_cell_angle_gamma   31.84547550
_symmetry_Int_Tables_number   1
_chemical_formula_structural   Cs2VCoS4
_chemical_formula_sum   'Cs4 V2 Co2 S8'
_cell_volume   484.97358451
_cell_formula_units_Z   2
loop_
 _symmetry_equiv_pos_site_id
 _symmetry_equiv_pos_as_xyz
  1  'x, y, z'
loop_
 _atom_site_type_symbol
 _atom_site_label
 _atom_site_symmetry_multiplicity
 _atom_site_fract_x
 _atom_site_fract_y
 _atom_site_fract_z
 _atom_site_occupancy
  Cs  Cs0  1  0.573113  0.573113  0.926887  1
  Cs  Cs1  1  0.926887  0.926887  0.573113  1
  Cs  Cs2  1  0.323113  0.323113  0.676887  1
  Cs  Cs3  1  0.676887  0.676887  0.323113  1
  V  V4  1  0.750000  0.750000  0.750000  1
  V  V5  1  0.500000  0.500000  0.500000  1
  Co  Co6  1  0.000000  0.000000  0.000000  1
  Co  Co7  1  0.250000  0.250000  0.250000  1
  S  S8  1  0.217462  0.880879  0.608668  1
  S  S9  1  0.292991  0.608668  0.880879  1
  S  S10  1  0.608668  0.292991  0.217462  1
  S  S11  1  0.880879  0.217462  0.292991  1
  S  S12  1  0.369121  0.032538  0.957009  1
  S  S13  1  0.957009  0.641332  0.369121  1
  S  S14  1  0.641332  0.957009  0.032538  1
  S  S15  1  0.032538  0.369121  0.641332  1
