# generated using pymatgen
data_Dy16Sc4Si15Os
_symmetry_space_group_name_H-M   'P 1'
_cell_length_a   7.28875200
_cell_length_b   7.73178669
_cell_length_c   14.46590900
_cell_angle_alpha   90.00000000
_cell_angle_beta   90.00000000
_cell_angle_gamma   90.10780684
_symmetry_Int_Tables_number   1
_chemical_formula_structural   Dy16Sc4Si15Os
_chemical_formula_sum   'Dy16 Sc4 Si15 Os1'
_cell_volume   815.22595332
_cell_formula_units_Z   1
loop_
 _symmetry_equiv_pos_site_id
 _symmetry_equiv_pos_as_xyz
  1  'x, y, z'
loop_
 _atom_site_type_symbol
 _atom_site_label
 _atom_site_symmetry_multiplicity
 _atom_site_fract_x
 _atom_site_fract_y
 _atom_site_fract_z
 _atom_site_occupancy
  Dy  Dy0  1  0.674012  0.183279  0.627722  1
  Dy  Dy1  1  0.193164  0.326592  0.871483  1
  Dy  Dy2  1  0.318242  0.820781  0.125593  1
  Dy  Dy3  1  0.817253  0.676364  0.374573  1
  Dy  Dy4  1  0.318242  0.820781  0.374407  1
  Dy  Dy5  1  0.817253  0.676364  0.125427  1
  Dy  Dy6  1  0.674012  0.183279  0.872278  1
  Dy  Dy7  1  0.193164  0.326592  0.628517  1
  Dy  Dy8  1  0.520715  0.675475  0.598364  1
  Dy  Dy9  1  0.023420  0.815356  0.902904  1
  Dy  Dy10  1  0.476081  0.314782  0.097385  1
  Dy  Dy11  1  0.975763  0.183698  0.402232  1
  Dy  Dy12  1  0.476081  0.314782  0.402615  1
  Dy  Dy13  1  0.975763  0.183698  0.097768  1
  Dy  Dy14  1  0.520715  0.675475  0.901636  1
  Dy  Dy15  1  0.023420  0.815356  0.597096  1
  Sc  Sc16  1  0.837204  0.515347  0.750000  1
  Sc  Sc17  1  0.351069  0.984091  0.750000  1
  Sc  Sc18  1  0.151004  0.481596  0.250000  1
  Sc  Sc19  1  0.650438  0.016303  0.250000  1
  Si  Si20  1  0.647726  0.972573  0.458852  1
  Si  Si21  1  0.149551  0.527370  0.040941  1
  Si  Si22  1  0.348562  0.025642  0.959793  1
  Si  Si23  1  0.854934  0.471049  0.540592  1
  Si  Si24  1  0.348562  0.025642  0.540207  1
  Si  Si25  1  0.854934  0.471049  0.959408  1
  Si  Si26  1  0.647726  0.972573  0.041148  1
  Si  Si27  1  0.149551  0.527370  0.459059  1
  Si  Si28  1  0.987037  0.091721  0.750000  1
  Si  Si29  1  0.514863  0.592292  0.250000  1
  Si  Si30  1  0.012601  0.906498  0.250000  1
  Si  Si31  1  0.733763  0.868710  0.750000  1
  Si  Si32  1  0.226346  0.640891  0.750000  1
  Si  Si33  1  0.272338  0.134975  0.250000  1
  Si  Si34  1  0.774324  0.364444  0.250000  1
  Os  Os35  1  0.490164  0.417210  0.750000  1
