# generated using pymatgen
data_AcNd3Pd4F28
_symmetry_space_group_name_H-M   'P 1'
_cell_length_a   5.64393122
_cell_length_b   9.14798778
_cell_length_c   12.25227800
_cell_angle_alpha   61.91838728
_cell_angle_beta   90.01611083
_cell_angle_gamma   90.01745465
_symmetry_Int_Tables_number   1
_chemical_formula_structural   AcNd3Pd4F28
_chemical_formula_sum   'Ac1 Nd3 Pd4 F28'
_cell_volume   558.12251709
_cell_formula_units_Z   1
loop_
 _symmetry_equiv_pos_site_id
 _symmetry_equiv_pos_as_xyz
  1  'x, y, z'
loop_
 _atom_site_type_symbol
 _atom_site_label
 _atom_site_symmetry_multiplicity
 _atom_site_fract_x
 _atom_site_fract_y
 _atom_site_fract_z
 _atom_site_occupancy
  Ac  Ac0  1  0.738391  0.811803  0.264640  1
  Nd  Nd1  1  0.762136  0.811970  0.764294  1
  Nd  Nd2  1  0.262618  0.188923  0.736102  1
  Nd  Nd3  1  0.236650  0.194030  0.235441  1
  Pd  Pd4  1  0.758185  0.277730  0.954462  1
  Pd  Pd5  1  0.257172  0.725093  0.548383  1
  Pd  Pd6  1  0.245270  0.725875  0.037444  1
  Pd  Pd7  1  0.743502  0.267183  0.460040  1
  F  F8  1  0.424407  0.706545  0.909433  1
  F  F9  1  0.929074  0.290234  0.584937  1
  F  F10  1  0.571220  0.294263  0.081862  1
  F  F11  1  0.082291  0.703821  0.420284  1
  F  F12  1  0.448279  0.277331  0.539250  1
  F  F13  1  0.944605  0.719094  0.961165  1
  F  F14  1  0.553730  0.714796  0.472474  1
  F  F15  1  0.051939  0.283461  0.036526  1
  F  F16  1  0.769457  0.518083  0.860477  1
  F  F17  1  0.266073  0.484259  0.643585  1
  F  F18  1  0.233615  0.485718  0.134148  1
  F  F19  1  0.732180  0.506025  0.364392  1
  F  F20  1  0.757733  0.037949  0.042049  1
  F  F21  1  0.259338  0.965704  0.454001  1
  F  F22  1  0.244561  0.966718  0.950011  1
  F  F23  1  0.743559  0.026486  0.549845  1
  F  F24  1  0.962178  0.727136  0.629893  1
  F  F25  1  0.468720  0.276034  0.868707  1
  F  F26  1  0.035479  0.270905  0.374346  1
  F  F27  1  0.539197  0.724466  0.119275  1
  F  F28  1  0.075568  0.737360  0.170835  1
  F  F29  1  0.560981  0.254850  0.329467  1
  F  F30  1  0.940600  0.263298  0.824774  1
  F  F31  1  0.432404  0.741320  0.678835  1
  F  F32  1  0.378610  0.970015  0.226763  1
  F  F33  1  0.894924  0.049649  0.271491  1
  F  F34  1  0.598167  0.034636  0.770045  1
  F  F35  1  0.097191  0.967237  0.730330  1
