# generated using pymatgen
data_Dy2Ho10Tc3Pt
_symmetry_space_group_name_H-M   'P 1'
_cell_length_a   6.28068806
_cell_length_b   7.39840991
_cell_length_c   9.16090600
_cell_angle_alpha   90.00000000
_cell_angle_beta   90.00000000
_cell_angle_gamma   90.00482355
_symmetry_Int_Tables_number   1
_chemical_formula_structural   Dy2Ho10Tc3Pt
_chemical_formula_sum   'Dy2 Ho10 Tc3 Pt1'
_cell_volume   425.68077747
_cell_formula_units_Z   1
loop_
 _symmetry_equiv_pos_site_id
 _symmetry_equiv_pos_as_xyz
  1  'x, y, z'
loop_
 _atom_site_type_symbol
 _atom_site_label
 _atom_site_symmetry_multiplicity
 _atom_site_fract_x
 _atom_site_fract_y
 _atom_site_fract_z
 _atom_site_occupancy
  Dy  Dy0  1  0.128103  0.455850  0.750000  1
  Dy  Dy1  1  0.371260  0.965261  0.750000  1
  Ho  Ho2  1  0.329589  0.676281  0.066839  1
  Ho  Ho3  1  0.164672  0.177790  0.436096  1
  Ho  Ho4  1  0.667546  0.318373  0.558533  1
  Ho  Ho5  1  0.837379  0.826874  0.940272  1
  Ho  Ho6  1  0.667546  0.318373  0.941467  1
  Ho  Ho7  1  0.837379  0.826874  0.559728  1
  Ho  Ho8  1  0.329589  0.676281  0.433161  1
  Ho  Ho9  1  0.164672  0.177790  0.063904  1
  Ho  Ho10  1  0.873012  0.542572  0.250000  1
  Ho  Ho11  1  0.623037  0.038252  0.250000  1
  Tc  Tc12  1  0.038178  0.885962  0.250000  1
  Tc  Tc13  1  0.464141  0.387035  0.250000  1
  Tc  Tc14  1  0.957330  0.113603  0.750000  1
  Pt  Pt15  1  0.546568  0.612826  0.750000  1
