# generated using pymatgen
data_K4Sr2CaI2
_symmetry_space_group_name_H-M   'P 1'
_cell_length_a   28.31533092
_cell_length_b   28.31533122
_cell_length_c   9.01734462
_cell_angle_alpha   90.41325247
_cell_angle_beta   90.41325257
_cell_angle_gamma   9.34794689
_symmetry_Int_Tables_number   1
_chemical_formula_structural   K4Sr2CaI2
_chemical_formula_sum   'K8 Sr4 Ca2 I4'
_cell_volume   1174.29104019
_cell_formula_units_Z   2
loop_
 _symmetry_equiv_pos_site_id
 _symmetry_equiv_pos_as_xyz
  1  'x, y, z'
loop_
 _atom_site_type_symbol
 _atom_site_label
 _atom_site_symmetry_multiplicity
 _atom_site_fract_x
 _atom_site_fract_y
 _atom_site_fract_z
 _atom_site_occupancy
  K  K0  1  0.391824  0.393163  0.473365  1
  K  K1  1  0.393163  0.391824  0.973365  1
  K  K2  1  0.968926  0.937857  0.727821  1
  K  K3  1  0.937857  0.968926  0.227821  1
  K  K4  1  0.272563  0.273833  0.925811  1
  K  K5  1  0.273833  0.272563  0.425811  1
  K  K6  1  0.712216  0.712833  0.637464  1
  K  K7  1  0.712833  0.712216  0.137464  1
  Sr  Sr8  1  0.832438  0.834170  0.707992  1
  Sr  Sr9  1  0.834170  0.832438  0.207992  1
  Sr  Sr10  1  0.152740  0.145578  0.878560  1
  Sr  Sr11  1  0.145578  0.152740  0.378560  1
  Ca  Ca12  1  0.533582  0.505942  0.758006  1
  Ca  Ca13  1  0.505942  0.533582  0.258006  1
  I  I14  1  0.063053  0.035202  0.715514  1
  I  I15  1  0.035202  0.063053  0.215514  1
  I  I16  1  0.620808  0.613272  0.925467  1
  I  I17  1  0.613272  0.620808  0.425467  1
