# generated using pymatgen
data_Hf8Ti9Ge16W3
_symmetry_space_group_name_H-M   'P 1'
_cell_length_a   6.72648009
_cell_length_b   6.85938643
_cell_length_c   13.12826100
_cell_angle_alpha   90.00000000
_cell_angle_beta   90.00000000
_cell_angle_gamma   89.97025572
_symmetry_Int_Tables_number   1
_chemical_formula_structural   Hf8Ti9Ge16W3
_chemical_formula_sum   'Hf8 Ti9 Ge16 W3'
_cell_volume   605.73166155
_cell_formula_units_Z   1
loop_
 _symmetry_equiv_pos_site_id
 _symmetry_equiv_pos_as_xyz
  1  'x, y, z'
loop_
 _atom_site_type_symbol
 _atom_site_label
 _atom_site_symmetry_multiplicity
 _atom_site_fract_x
 _atom_site_fract_y
 _atom_site_fract_z
 _atom_site_occupancy
  Hf  Hf0  1  0.989442  0.174838  0.092656  1
  Hf  Hf1  1  0.007974  0.826495  0.907396  1
  Hf  Hf2  1  0.509123  0.675492  0.907523  1
  Hf  Hf3  1  0.007974  0.826495  0.592604  1
  Hf  Hf4  1  0.491594  0.325824  0.092113  1
  Hf  Hf5  1  0.989442  0.174838  0.407344  1
  Hf  Hf6  1  0.491594  0.325824  0.407887  1
  Hf  Hf7  1  0.509123  0.675492  0.592477  1
  Ti  Ti8  1  0.166479  0.492195  0.750000  1
  Ti  Ti9  1  0.340343  0.165867  0.625055  1
  Ti  Ti10  1  0.660441  0.834535  0.375147  1
  Ti  Ti11  1  0.160577  0.665362  0.374985  1
  Ti  Ti12  1  0.660441  0.834535  0.124853  1
  Ti  Ti13  1  0.837115  0.332450  0.624541  1
  Ti  Ti14  1  0.340343  0.165867  0.874945  1
  Ti  Ti15  1  0.837115  0.332450  0.875459  1
  Ti  Ti16  1  0.160577  0.665362  0.125015  1
  Ge  Ge17  1  0.038310  0.122242  0.750000  1
  Ge  Ge18  1  0.963139  0.880387  0.250000  1
  Ge  Ge19  1  0.463993  0.618945  0.250000  1
  Ge  Ge20  1  0.535652  0.381836  0.750000  1
  Ge  Ge21  1  0.304229  0.851731  0.750000  1
  Ge  Ge22  1  0.693720  0.145989  0.250000  1
  Ge  Ge23  1  0.194969  0.352992  0.250000  1
  Ge  Ge24  1  0.809903  0.643824  0.750000  1
  Ge  Ge25  1  0.181473  0.459783  0.540022  1
  Ge  Ge26  1  0.818906  0.541382  0.460758  1
  Ge  Ge27  1  0.318020  0.959413  0.460714  1
  Ge  Ge28  1  0.818906  0.541382  0.039242  1
  Ge  Ge29  1  0.682004  0.040792  0.539188  1
  Ge  Ge30  1  0.181473  0.459783  0.959978  1
  Ge  Ge31  1  0.682004  0.040792  0.960812  1
  Ge  Ge32  1  0.318020  0.959413  0.039286  1
  W  W33  1  0.835146  0.507837  0.250000  1
  W  W34  1  0.334469  0.990784  0.250000  1
  W  W35  1  0.665970  0.006768  0.750000  1
