# generated using pymatgen
data_Pr16Dy4(Ir3Ru)3
_symmetry_space_group_name_H-M   'P 1'
_cell_length_a   11.24350700
_cell_length_b   11.24350700
_cell_length_c   6.60372800
_cell_angle_alpha   90.00000000
_cell_angle_beta   90.00000000
_cell_angle_gamma   90.00000000
_symmetry_Int_Tables_number   1
_chemical_formula_structural   Pr16Dy4(Ir3Ru)3
_chemical_formula_sum   'Pr16 Dy4 Ir9 Ru3'
_cell_volume   834.81984827
_cell_formula_units_Z   1
loop_
 _symmetry_equiv_pos_site_id
 _symmetry_equiv_pos_as_xyz
  1  'x, y, z'
loop_
 _atom_site_type_symbol
 _atom_site_label
 _atom_site_symmetry_multiplicity
 _atom_site_fract_x
 _atom_site_fract_y
 _atom_site_fract_z
 _atom_site_occupancy
  Pr  Pr0  1  0.291702  0.086631  0.382705  1
  Pr  Pr1  1  0.291838  0.913647  0.883239  1
  Pr  Pr2  1  0.708162  0.086353  0.883239  1
  Pr  Pr3  1  0.708298  0.913369  0.382705  1
  Pr  Pr4  1  0.586353  0.791838  0.883239  1
  Pr  Pr5  1  0.586631  0.208298  0.382705  1
  Pr  Pr6  1  0.413369  0.791702  0.382705  1
  Pr  Pr7  1  0.413647  0.208162  0.883239  1
  Pr  Pr8  1  0.210110  0.412577  0.619010  1
  Pr  Pr9  1  0.209886  0.587364  0.116316  1
  Pr  Pr10  1  0.790114  0.412636  0.116316  1
  Pr  Pr11  1  0.789890  0.587423  0.619010  1
  Pr  Pr12  1  0.912636  0.709886  0.116316  1
  Pr  Pr13  1  0.912577  0.289890  0.619010  1
  Pr  Pr14  1  0.087423  0.710110  0.619010  1
  Pr  Pr15  1  0.087364  0.290114  0.116316  1
  Dy  Dy16  1  0.000000  0.000000  0.499131  1
  Dy  Dy17  1  0.000000  0.000000  0.999273  1
  Dy  Dy18  1  0.500000  0.500000  0.999273  1
  Dy  Dy19  1  0.500000  0.500000  0.499131  1
  Ir  Ir20  1  0.853152  0.147829  0.250044  1
  Ir  Ir21  1  0.852750  0.851902  0.749649  1
  Ir  Ir22  1  0.147250  0.148098  0.749649  1
  Ir  Ir23  1  0.146848  0.852171  0.250044  1
  Ir  Ir24  1  0.648098  0.352750  0.749649  1
  Ir  Ir25  1  0.647829  0.646848  0.250044  1
  Ir  Ir26  1  0.352171  0.353152  0.250044  1
  Ir  Ir27  1  0.351902  0.647250  0.749649  1
  Ir  Ir28  1  0.000000  0.500000  0.380444  1
  Ru  Ru29  1  0.500000  0.000000  0.118814  1
  Ru  Ru30  1  0.500000  0.000000  0.617777  1
  Ru  Ru31  1  0.000000  0.500000  0.882307  1
