# generated using pymatgen
data_Th7Tc2Rh
_symmetry_space_group_name_H-M   'P 1'
_cell_length_a   9.96202700
_cell_length_b   10.00517217
_cell_length_c   6.32728193
_cell_angle_alpha   89.76780720
_cell_angle_beta   90.00000000
_cell_angle_gamma   119.85745625
_symmetry_Int_Tables_number   1
_chemical_formula_structural   Th7Tc2Rh
_chemical_formula_sum   'Th14 Tc4 Rh2'
_cell_volume   546.93708548
_cell_formula_units_Z   2
loop_
 _symmetry_equiv_pos_site_id
 _symmetry_equiv_pos_as_xyz
  1  'x, y, z'
loop_
 _atom_site_type_symbol
 _atom_site_label
 _atom_site_symmetry_multiplicity
 _atom_site_fract_x
 _atom_site_fract_y
 _atom_site_fract_z
 _atom_site_occupancy
  Th  Th0  1  0.667493  0.334984  0.549870  1
  Th  Th1  1  0.333327  0.666656  0.036517  1
  Th  Th2  1  0.876330  0.752661  0.753285  1
  Th  Th3  1  0.247990  0.124834  0.753738  1
  Th  Th4  1  0.876843  0.124834  0.753738  1
  Th  Th5  1  0.128775  0.257550  0.253581  1
  Th  Th6  1  0.747714  0.870547  0.253296  1
  Th  Th7  1  0.122833  0.870547  0.253296  1
  Th  Th8  1  0.459011  0.918023  0.549283  1
  Th  Th9  1  0.081300  0.543381  0.548094  1
  Th  Th10  1  0.462081  0.543381  0.548094  1
  Th  Th11  1  0.538638  0.077276  0.042514  1
  Th  Th12  1  0.919286  0.461198  0.045090  1
  Th  Th13  1  0.541912  0.461198  0.045090  1
  Tc  Tc14  1  0.184175  0.368349  0.796486  1
  Tc  Tc15  1  0.631253  0.817457  0.799031  1
  Tc  Tc16  1  0.186204  0.817457  0.799031  1
  Tc  Tc17  1  0.810623  0.621245  0.302569  1
  Rh  Rh18  1  0.374568  0.184211  0.299952  1
  Rh  Rh19  1  0.809644  0.184211  0.299952  1
