# generated using pymatgen
data_Sm2Mo(SeO4)3
_symmetry_space_group_name_H-M   'P 1'
_cell_length_a   6.69523903
_cell_length_b   7.25131151
_cell_length_c   11.05784941
_cell_angle_alpha   84.93095620
_cell_angle_beta   73.18261315
_cell_angle_gamma   86.36285850
_symmetry_Int_Tables_number   1
_chemical_formula_structural   Sm2Mo(SeO4)3
_chemical_formula_sum   'Sm4 Mo2 Se6 O24'
_cell_volume   511.47645706
_cell_formula_units_Z   2
loop_
 _symmetry_equiv_pos_site_id
 _symmetry_equiv_pos_as_xyz
  1  'x, y, z'
loop_
 _atom_site_type_symbol
 _atom_site_label
 _atom_site_symmetry_multiplicity
 _atom_site_fract_x
 _atom_site_fract_y
 _atom_site_fract_z
 _atom_site_occupancy
  Sm  Sm0  1  0.732476  0.639418  0.509206  1
  Sm  Sm1  1  0.267524  0.360582  0.490794  1
  Sm  Sm2  1  0.204199  0.181162  0.166992  1
  Sm  Sm3  1  0.795801  0.818838  0.833008  1
  Mo  Mo4  1  0.721988  0.893139  0.207068  1
  Mo  Mo5  1  0.278012  0.106861  0.792932  1
  Se  Se6  1  0.199580  0.661280  0.216077  1
  Se  Se7  1  0.800420  0.338720  0.783923  1
  Se  Se8  1  0.657488  0.360363  0.142073  1
  Se  Se9  1  0.342512  0.639637  0.857927  1
  Se  Se10  1  0.788775  0.139355  0.492286  1
  Se  Se11  1  0.211225  0.860645  0.507714  1
  O  O12  1  0.693191  0.675155  0.298493  1
  O  O13  1  0.306809  0.324845  0.701507  1
  O  O14  1  0.719450  0.963245  0.415568  1
  O  O15  1  0.280550  0.036755  0.584432  1
  O  O16  1  0.454138  0.973270  0.233665  1
  O  O17  1  0.545862  0.026730  0.766335  1
  O  O18  1  0.820964  0.169440  0.178532  1
  O  O19  1  0.179036  0.830560  0.821468  1
  O  O20  1  0.783871  0.833661  0.047937  1
  O  O21  1  0.216129  0.166339  0.952063  1
  O  O22  1  0.055524  0.871537  0.196345  1
  O  O23  1  0.944476  0.128463  0.803655  1
  O  O24  1  0.098984  0.500635  0.149699  1
  O  O25  1  0.901016  0.499365  0.850301  1
  O  O26  1  0.084610  0.602774  0.380109  1
  O  O27  1  0.915390  0.397226  0.619891  1
  O  O28  1  0.552723  0.272157  0.037699  1
  O  O29  1  0.447277  0.727843  0.962301  1
  O  O30  1  0.428182  0.347044  0.268346  1
  O  O31  1  0.571818  0.652956  0.731654  1
  O  O32  1  0.039284  0.190262  0.393943  1
  O  O33  1  0.960716  0.809738  0.606057  1
  O  O34  1  0.643198  0.335969  0.459643  1
  O  O35  1  0.356802  0.664031  0.540357  1
