# generated using pymatgen
data_Ho13Tm3In4NiRh3
_symmetry_space_group_name_H-M   'P 1'
_cell_length_a   9.58044542
_cell_length_b   9.58334785
_cell_length_c   9.59412744
_cell_angle_alpha   59.99747983
_cell_angle_beta   60.05196308
_cell_angle_gamma   60.08556098
_symmetry_Int_Tables_number   1
_chemical_formula_structural   Ho13Tm3In4NiRh3
_chemical_formula_sum   'Ho13 Tm3 In4 Ni1 Rh3'
_cell_volume   623.49887146
_cell_formula_units_Z   1
loop_
 _symmetry_equiv_pos_site_id
 _symmetry_equiv_pos_as_xyz
  1  'x, y, z'
loop_
 _atom_site_type_symbol
 _atom_site_label
 _atom_site_symmetry_multiplicity
 _atom_site_fract_x
 _atom_site_fract_y
 _atom_site_fract_z
 _atom_site_occupancy
  Ho  Ho0  1  0.062687  0.062263  0.437912  1
  Ho  Ho1  1  0.435165  0.063398  0.437975  1
  Ho  Ho2  1  0.061156  0.439418  0.059756  1
  Ho  Ho3  1  0.047962  0.651376  0.647287  1
  Ho  Ho4  1  0.438061  0.438880  0.060561  1
  Ho  Ho5  1  0.651400  0.047259  0.647682  1
  Ho  Ho6  1  0.188345  0.810325  0.190195  1
  Ho  Ho7  1  0.189059  0.188767  0.811426  1
  Ho  Ho8  1  0.810999  0.810364  0.191834  1
  Ho  Ho9  1  0.438550  0.061195  0.060310  1
  Ho  Ho10  1  0.810400  0.188484  0.190631  1
  Ho  Ho11  1  0.063429  0.435671  0.437810  1
  Ho  Ho12  1  0.810353  0.190199  0.810860  1
  Tm  Tm13  1  0.190664  0.809831  0.810868  1
  Tm  Tm14  1  0.648618  0.648984  0.050693  1
  Tm  Tm15  1  0.653444  0.654196  0.649709  1
  In  In16  1  0.415938  0.415971  0.417997  1
  In  In17  1  0.748182  0.417718  0.418222  1
  In  In18  1  0.417659  0.748246  0.418298  1
  In  In19  1  0.417796  0.417936  0.747026  1
  Ni  Ni20  1  0.858368  0.858492  0.425459  1
  Rh  Rh21  1  0.857723  0.856270  0.859081  1
  Rh  Rh22  1  0.427710  0.856185  0.859049  1
  Rh  Rh23  1  0.856334  0.428572  0.859362  1
