# generated using pymatgen
data_Cs4VWBr12
_symmetry_space_group_name_H-M   'P 1'
_cell_length_a   7.86379203
_cell_length_b   7.83725817
_cell_length_c   11.11417900
_cell_angle_alpha   90.00000000
_cell_angle_beta   90.00000000
_cell_angle_gamma   90.54393327
_symmetry_Int_Tables_number   1
_chemical_formula_structural   Cs4VWBr12
_chemical_formula_sum   'Cs4 V1 W1 Br12'
_cell_volume   684.94230170
_cell_formula_units_Z   1
loop_
 _symmetry_equiv_pos_site_id
 _symmetry_equiv_pos_as_xyz
  1  'x, y, z'
loop_
 _atom_site_type_symbol
 _atom_site_label
 _atom_site_symmetry_multiplicity
 _atom_site_fract_x
 _atom_site_fract_y
 _atom_site_fract_z
 _atom_site_occupancy
  Cs  Cs0  1  0.500000  0.000000  0.763465  1
  Cs  Cs1  1  0.000000  0.500000  0.236937  1
  Cs  Cs2  1  0.500000  0.000000  0.236535  1
  Cs  Cs3  1  0.000000  0.500000  0.763063  1
  V  V4  1  0.000000  0.000000  0.000000  1
  W  W5  1  0.500000  0.500000  0.500000  1
  Br  Br6  1  0.000000  0.000000  0.772120  1
  Br  Br7  1  0.500000  0.500000  0.271072  1
  Br  Br8  1  0.729187  0.729625  0.500000  1
  Br  Br9  1  0.228685  0.229142  0.000000  1
  Br  Br10  1  0.727897  0.271663  0.500000  1
  Br  Br11  1  0.227357  0.772197  0.000000  1
  Br  Br12  1  0.000000  0.000000  0.227880  1
  Br  Br13  1  0.500000  0.500000  0.728928  1
  Br  Br14  1  0.270813  0.270375  0.500000  1
  Br  Br15  1  0.771315  0.770858  0.000000  1
  Br  Br16  1  0.272103  0.728337  0.500000  1
  Br  Br17  1  0.772643  0.227803  0.000000  1
