# generated using pymatgen
data_Na3Gd(Al3Pd)6
_symmetry_space_group_name_H-M   'P 1'
_cell_length_a   7.68512400
_cell_length_b   7.67788765
_cell_length_c   9.56535500
_cell_angle_alpha   90.00000000
_cell_angle_beta   90.00000000
_cell_angle_gamma   119.55381821
_symmetry_Int_Tables_number   1
_chemical_formula_structural   Na3Gd(Al3Pd)6
_chemical_formula_sum   'Na3 Gd1 Al18 Pd6'
_cell_volume   490.97507928
_cell_formula_units_Z   1
loop_
 _symmetry_equiv_pos_site_id
 _symmetry_equiv_pos_as_xyz
  1  'x, y, z'
loop_
 _atom_site_type_symbol
 _atom_site_label
 _atom_site_symmetry_multiplicity
 _atom_site_fract_x
 _atom_site_fract_y
 _atom_site_fract_z
 _atom_site_occupancy
  Na  Na0  1  0.990489  0.669003  0.250000  1
  Na  Na1  1  0.006291  0.329428  0.750000  1
  Na  Na2  1  0.673980  0.995120  0.250000  1
  Gd  Gd3  1  0.331606  0.999645  0.750000  1
  Al  Al4  1  0.128074  0.133035  0.250000  1
  Al  Al5  1  0.872946  0.866191  0.750000  1
  Al  Al6  1  0.998124  0.334706  0.074658  1
  Al  Al7  1  0.998339  0.661722  0.928380  1
  Al  Al8  1  0.998339  0.661722  0.571620  1
  Al  Al9  1  0.334115  0.998352  0.418219  1
  Al  Al10  1  0.998124  0.334706  0.425342  1
  Al  Al11  1  0.670202  0.002214  0.571740  1
  Al  Al12  1  0.670202  0.002214  0.928260  1
  Al  Al13  1  0.334115  0.998352  0.081781  1
  Al  Al14  1  0.331120  0.332757  0.551727  1
  Al  Al15  1  0.666742  0.667736  0.447101  1
  Al  Al16  1  0.666742  0.667736  0.052899  1
  Al  Al17  1  0.331120  0.332757  0.948273  1
  Al  Al18  1  0.336626  0.546806  0.250000  1
  Al  Al19  1  0.657776  0.455736  0.750000  1
  Al  Al20  1  0.545048  0.342005  0.250000  1
  Al  Al21  1  0.461549  0.668920  0.750000  1
  Pd  Pd22  1  0.667101  0.327529  0.998185  1
  Pd  Pd23  1  0.329372  0.671200  0.997564  1
  Pd  Pd24  1  0.329372  0.671200  0.502436  1
  Pd  Pd25  1  0.667101  0.327529  0.501815  1
  Pd  Pd26  1  0.002696  0.000841  0.997966  1
  Pd  Pd27  1  0.002696  0.000841  0.502034  1
