# generated using pymatgen
data_Y2LuCd3Sn2Au
_symmetry_space_group_name_H-M   'P 1'
_cell_length_a   7.46767227
_cell_length_b   7.46767282
_cell_length_c   4.51573700
_cell_angle_alpha   90.00000000
_cell_angle_beta   90.00000000
_cell_angle_gamma   119.44499980
_symmetry_Int_Tables_number   1
_chemical_formula_structural   Y2LuCd3Sn2Au
_chemical_formula_sum   'Y2 Lu1 Cd3 Sn2 Au1'
_cell_volume   219.29642480
_cell_formula_units_Z   1
loop_
 _symmetry_equiv_pos_site_id
 _symmetry_equiv_pos_as_xyz
  1  'x, y, z'
loop_
 _atom_site_type_symbol
 _atom_site_label
 _atom_site_symmetry_multiplicity
 _atom_site_fract_x
 _atom_site_fract_y
 _atom_site_fract_z
 _atom_site_occupancy
  Y  Y0  1  0.590512  0.999113  0.000000  1
  Y  Y1  1  0.999113  0.590512  0.000000  1
  Lu  Lu2  1  0.404546  0.404546  0.000000  1
  Cd  Cd3  1  0.241372  0.999105  0.500000  1
  Cd  Cd4  1  0.999105  0.241372  0.500000  1
  Cd  Cd5  1  0.761100  0.761100  0.500000  1
  Sn  Sn6  1  0.335398  0.663937  0.500000  1
  Sn  Sn7  1  0.663937  0.335398  0.500000  1
  Au  Au8  1  0.004918  0.004918  0.000000  1
