# generated using pymatgen
data_Tm7LuC14
_symmetry_space_group_name_H-M   'P 1'
_cell_length_a   3.64012179
_cell_length_b   6.34651622
_cell_length_c   13.60858482
_cell_angle_alpha   89.96787959
_cell_angle_beta   90.08523027
_cell_angle_gamma   105.12798016
_symmetry_Int_Tables_number   1
_chemical_formula_structural   Tm7LuC14
_chemical_formula_sum   'Tm7 Lu1 C14'
_cell_volume   303.49145852
_cell_formula_units_Z   1
loop_
 _symmetry_equiv_pos_site_id
 _symmetry_equiv_pos_as_xyz
  1  'x, y, z'
loop_
 _atom_site_type_symbol
 _atom_site_label
 _atom_site_symmetry_multiplicity
 _atom_site_fract_x
 _atom_site_fract_y
 _atom_site_fract_z
 _atom_site_occupancy
  Tm  Tm0  1  0.054936  0.160557  0.160945  1
  Tm  Tm1  1  0.054964  0.660751  0.338866  1
  Tm  Tm2  1  0.945409  0.339227  0.661655  1
  Tm  Tm3  1  0.633121  0.760262  0.554638  1
  Tm  Tm4  1  0.367389  0.239907  0.445663  1
  Tm  Tm5  1  0.366944  0.739690  0.054237  1
  Tm  Tm6  1  0.631800  0.259904  0.945170  1
  Lu  Lu7  1  0.943923  0.840132  0.839665  1
  C  C8  1  0.737116  0.951752  0.395887  1
  C  C9  1  0.263522  0.048709  0.604130  1
  C  C10  1  0.261581  0.549891  0.895503  1
  C  C11  1  0.736661  0.451527  0.103976  1
  C  C12  1  0.541819  0.576266  0.715135  1
  C  C13  1  0.461943  0.424493  0.284902  1
  C  C14  1  0.462135  0.924492  0.214770  1
  C  C15  1  0.535663  0.072290  0.785451  1
  C  C16  1  0.622380  0.955711  0.302850  1
  C  C17  1  0.376425  0.042962  0.697215  1
  C  C18  1  0.380007  0.546107  0.802884  1
  C  C19  1  0.622263  0.455610  0.196975  1
  C  C20  1  0.999986  0.999827  0.999368  1
  C  C21  1  0.000015  0.499932  0.500114  1
