# generated using pymatgen
data_La5Zn2Os2Ru
_symmetry_space_group_name_H-M   'P 1'
_cell_length_a   8.62828454
_cell_length_b   8.61033661
_cell_length_c   8.61191909
_cell_angle_alpha   109.38643298
_cell_angle_beta   109.72755752
_cell_angle_gamma   109.45529417
_symmetry_Int_Tables_number   1
_chemical_formula_structural   La5Zn2Os2Ru
_chemical_formula_sum   'La10 Zn4 Os4 Ru2'
_cell_volume   491.56674480
_cell_formula_units_Z   2
loop_
 _symmetry_equiv_pos_site_id
 _symmetry_equiv_pos_as_xyz
  1  'x, y, z'
loop_
 _atom_site_type_symbol
 _atom_site_label
 _atom_site_symmetry_multiplicity
 _atom_site_fract_x
 _atom_site_fract_y
 _atom_site_fract_z
 _atom_site_occupancy
  La  La0  1  0.248825  0.687889  0.438755  1
  La  La1  1  0.750648  0.812028  0.060806  1
  La  La2  1  0.438572  0.248892  0.687825  1
  La  La3  1  0.688325  0.438367  0.250043  1
  La  La4  1  0.061204  0.750741  0.812316  1
  La  La5  1  0.811732  0.061719  0.749880  1
  La  La6  1  0.217800  0.217796  0.217801  1
  La  La7  1  0.500170  0.999740  0.282937  1
  La  La8  1  0.283789  0.500307  0.000140  1
  La  La9  1  0.000471  0.283245  0.500352  1
  Zn  Zn10  1  0.500213  0.000856  0.915336  1
  Zn  Zn11  1  0.585468  0.584690  0.585307  1
  Zn  Zn12  1  0.915152  0.500035  0.000109  1
  Zn  Zn13  1  0.000798  0.915254  0.500040  1
  Os  Os14  1  0.249536  0.125214  0.874316  1
  Os  Os15  1  0.749860  0.375057  0.624800  1
  Os  Os16  1  0.873924  0.249698  0.124487  1
  Os  Os17  1  0.124227  0.873826  0.249934  1
  Ru  Ru18  1  0.624384  0.749650  0.374632  1
  Ru  Ru19  1  0.374905  0.624998  0.750186  1
