# generated using pymatgen
data_Pr2Rh2O7
_symmetry_space_group_name_H-M   'P 1'
_cell_length_a   7.42763077
_cell_length_b   7.42830165
_cell_length_c   7.42776301
_cell_angle_alpha   59.99748251
_cell_angle_beta   60.00227658
_cell_angle_gamma   60.00018761
_symmetry_Int_Tables_number   1
_chemical_formula_structural   Pr2Rh2O7
_chemical_formula_sum   'Pr4 Rh4 O14'
_cell_volume   289.78953804
_cell_formula_units_Z   2
loop_
 _symmetry_equiv_pos_site_id
 _symmetry_equiv_pos_as_xyz
  1  'x, y, z'
loop_
 _atom_site_type_symbol
 _atom_site_label
 _atom_site_symmetry_multiplicity
 _atom_site_fract_x
 _atom_site_fract_y
 _atom_site_fract_z
 _atom_site_occupancy
  Pr  Pr0  1  0.125000  0.125000  0.125000  1
  Pr  Pr1  1  0.625000  0.125000  0.125000  1
  Pr  Pr2  1  0.125000  0.125000  0.625000  1
  Pr  Pr3  1  0.125000  0.625000  0.125000  1
  Rh  Rh4  1  0.625000  0.625000  0.625000  1
  Rh  Rh5  1  0.125000  0.625000  0.625000  1
  Rh  Rh6  1  0.625000  0.625000  0.125000  1
  Rh  Rh7  1  0.625000  0.125000  0.625000  1
  O  O8  1  0.000006  0.000000  0.999995  1
  O  O9  1  0.249994  0.250000  0.250005  1
  O  O10  1  0.294237  0.294195  0.705783  1
  O  O11  1  0.544225  0.544230  0.955765  1
  O  O12  1  0.705760  0.294262  0.705760  1
  O  O13  1  0.705768  0.294246  0.294218  1
  O  O14  1  0.294274  0.705773  0.705770  1
  O  O15  1  0.294271  0.705761  0.294197  1
  O  O16  1  0.705775  0.705770  0.294235  1
  O  O17  1  0.955726  0.544227  0.544230  1
  O  O18  1  0.544232  0.955754  0.955782  1
  O  O19  1  0.955763  0.955805  0.544217  1
  O  O20  1  0.955729  0.544239  0.955803  1
  O  O21  1  0.544240  0.955738  0.544240  1
