# generated using pymatgen
data_K(OsO3)3
_symmetry_space_group_name_H-M   'P 1'
_cell_length_a   7.38431200
_cell_length_b   7.38431219
_cell_length_c   7.49271000
_cell_angle_alpha   90.00000000
_cell_angle_beta   90.00000000
_cell_angle_gamma   119.99999915
_symmetry_Int_Tables_number   1
_chemical_formula_structural   K(OsO3)3
_chemical_formula_sum   'K2 Os6 O18'
_cell_volume   353.82592165
_cell_formula_units_Z   2
loop_
 _symmetry_equiv_pos_site_id
 _symmetry_equiv_pos_as_xyz
  1  'x, y, z'
loop_
 _atom_site_type_symbol
 _atom_site_label
 _atom_site_symmetry_multiplicity
 _atom_site_fract_x
 _atom_site_fract_y
 _atom_site_fract_z
 _atom_site_occupancy
  K  K0  1  0.000000  0.000000  0.267289  1
  K  K1  1  0.000000  0.000000  0.767289  1
  Os  Os2  1  0.999999  0.499999  0.500137  1
  Os  Os3  1  0.000001  0.500001  0.000137  1
  Os  Os4  1  0.500001  0.499999  0.500137  1
  Os  Os5  1  0.499999  0.500001  0.000137  1
  Os  Os6  1  0.499999  0.999999  0.000137  1
  Os  Os7  1  0.500001  0.000001  0.500137  1
  O  O8  1  0.013004  0.506502  0.750060  1
  O  O9  1  0.206125  0.793875  0.008079  1
  O  O10  1  0.206128  0.793872  0.491866  1
  O  O11  1  0.206128  0.412255  0.491866  1
  O  O12  1  0.493498  0.986996  0.750060  1
  O  O13  1  0.206125  0.412250  0.008079  1
  O  O14  1  0.587750  0.793875  0.008079  1
  O  O15  1  0.587745  0.793872  0.491866  1
  O  O16  1  0.493498  0.506502  0.750060  1
  O  O17  1  0.506502  0.493498  0.250060  1
  O  O18  1  0.412255  0.206128  0.991866  1
  O  O19  1  0.412250  0.206125  0.508078  1
  O  O20  1  0.793875  0.587750  0.508078  1
  O  O21  1  0.506502  0.013004  0.250060  1
  O  O22  1  0.793872  0.587745  0.991866  1
  O  O23  1  0.793872  0.206128  0.991866  1
  O  O24  1  0.793875  0.206125  0.508078  1
  O  O25  1  0.986996  0.493498  0.250060  1
