# generated using pymatgen
data_Tb4ThRu2
_symmetry_space_group_name_H-M   'P 1'
_cell_length_a   8.71890343
_cell_length_b   8.71890257
_cell_length_c   7.23078918
_cell_angle_alpha   83.57913150
_cell_angle_beta   83.57913185
_cell_angle_gamma   43.30336773
_symmetry_Int_Tables_number   1
_chemical_formula_structural   Tb4ThRu2
_chemical_formula_sum   'Tb8 Th2 Ru4'
_cell_volume   374.26479356
_cell_formula_units_Z   2
loop_
 _symmetry_equiv_pos_site_id
 _symmetry_equiv_pos_as_xyz
  1  'x, y, z'
loop_
 _atom_site_type_symbol
 _atom_site_label
 _atom_site_symmetry_multiplicity
 _atom_site_fract_x
 _atom_site_fract_y
 _atom_site_fract_z
 _atom_site_occupancy
  Tb  Tb0  1  0.210572  0.356974  0.311469  1
  Tb  Tb1  1  0.643026  0.789428  0.188531  1
  Tb  Tb2  1  0.791137  0.641724  0.685279  1
  Tb  Tb3  1  0.358276  0.208863  0.814721  1
  Tb  Tb4  1  0.978872  0.206953  0.085152  1
  Tb  Tb5  1  0.793047  0.021128  0.414848  1
  Tb  Tb6  1  0.577323  0.422677  0.750000  1
  Tb  Tb7  1  0.420471  0.579529  0.250000  1
  Th  Th8  1  0.200924  0.991058  0.591179  1
  Th  Th9  1  0.008942  0.799076  0.908821  1
  Ru  Ru10  1  0.169943  0.611802  0.586813  1
  Ru  Ru11  1  0.388198  0.830057  0.913187  1
  Ru  Ru12  1  0.841477  0.382207  0.429130  1
  Ru  Ru13  1  0.617793  0.158523  0.070870  1
