# generated using pymatgen
data_Cs6Rb2Hf6BI20
_symmetry_space_group_name_H-M   'P 1'
_cell_length_a   13.16774175
_cell_length_b   13.19587277
_cell_length_c   13.19587200
_cell_angle_alpha   60.00000192
_cell_angle_beta   59.92930657
_cell_angle_gamma   59.92930578
_symmetry_Int_Tables_number   1
_chemical_formula_structural   Cs6Rb2Hf6BI20
_chemical_formula_sum   'Cs6 Rb2 Hf6 B1 I20'
_cell_volume   1619.59950620
_cell_formula_units_Z   1
loop_
 _symmetry_equiv_pos_site_id
 _symmetry_equiv_pos_as_xyz
  1  'x, y, z'
loop_
 _atom_site_type_symbol
 _atom_site_label
 _atom_site_symmetry_multiplicity
 _atom_site_fract_x
 _atom_site_fract_y
 _atom_site_fract_z
 _atom_site_occupancy
  Cs  Cs0  1  0.362541  0.360778  0.360778  1
  Cs  Cs1  1  0.637459  0.639222  0.639222  1
  Cs  Cs2  1  0.362541  0.360778  0.915905  1
  Cs  Cs3  1  0.362541  0.915905  0.360778  1
  Cs  Cs4  1  0.637459  0.639222  0.084095  1
  Cs  Cs5  1  0.637459  0.084095  0.639222  1
  Rb  Rb6  1  0.904537  0.365155  0.365155  1
  Rb  Rb7  1  0.095463  0.634845  0.634845  1
  Hf  Hf8  1  0.875567  0.124578  0.124578  1
  Hf  Hf9  1  0.124433  0.875422  0.875422  1
  Hf  Hf10  1  0.124433  0.875422  0.124724  1
  Hf  Hf11  1  0.875567  0.124578  0.875276  1
  Hf  Hf12  1  0.124433  0.124724  0.875422  1
  Hf  Hf13  1  0.875567  0.875276  0.124578  1
  B  B14  1  0.000000  0.000000  0.000000  1
  I  I15  1  0.307652  0.999682  0.999682  1
  I  I16  1  0.692348  0.000318  0.000318  1
  I  I17  1  0.000000  0.306424  0.693576  1
  I  I18  1  0.000000  0.693576  0.306424  1
  I  I19  1  0.000000  0.306424  0.000000  1
  I  I20  1  0.692348  0.000318  0.307017  1
  I  I21  1  0.000000  0.693576  0.000000  1
  I  I22  1  0.307652  0.999682  0.692983  1
  I  I23  1  0.000000  0.000000  0.306424  1
  I  I24  1  0.000000  0.000000  0.693576  1
  I  I25  1  0.692348  0.307017  0.000318  1
  I  I26  1  0.307652  0.692983  0.999682  1
  I  I27  1  0.702500  0.300495  0.300495  1
  I  I28  1  0.297500  0.699505  0.699505  1
  I  I29  1  0.297500  0.699505  0.303491  1
  I  I30  1  0.702500  0.300495  0.696509  1
  I  I31  1  0.297500  0.303491  0.699505  1
  I  I32  1  0.702500  0.696509  0.300495  1
  I  I33  1  0.231705  0.256098  0.256098  1
  I  I34  1  0.768295  0.743902  0.743902  1
