# generated using pymatgen
data_Ba6Ho3Er(WO9)2
_symmetry_space_group_name_H-M   'P 1'
_cell_length_a   6.07779027
_cell_length_b   8.61278574
_cell_length_c   10.53484503
_cell_angle_alpha   65.87202601
_cell_angle_beta   73.23413959
_cell_angle_gamma   90.00000353
_symmetry_Int_Tables_number   1
_chemical_formula_structural   Ba6Ho3Er(WO9)2
_chemical_formula_sum   'Ba6 Ho3 Er1 W2 O18'
_cell_volume   477.48418009
_cell_formula_units_Z   1
loop_
 _symmetry_equiv_pos_site_id
 _symmetry_equiv_pos_as_xyz
  1  'x, y, z'
loop_
 _atom_site_type_symbol
 _atom_site_label
 _atom_site_symmetry_multiplicity
 _atom_site_fract_x
 _atom_site_fract_y
 _atom_site_fract_z
 _atom_site_occupancy
  Ba  Ba0  1  0.500000  0.266081  0.000000  1
  Ba  Ba1  1  0.839542  0.579733  0.320914  1
  Ba  Ba2  1  0.160458  0.900648  0.679086  1
  Ba  Ba3  1  0.500000  0.733919  0.000000  1
  Ba  Ba4  1  0.839542  0.099352  0.320914  1
  Ba  Ba5  1  0.160458  0.420267  0.679086  1
  Ho  Ho6  1  0.000000  0.000000  0.000000  1
  Ho  Ho7  1  0.329037  0.329037  0.341926  1
  Ho  Ho8  1  0.670963  0.670963  0.658074  1
  Er  Er9  1  0.000000  0.500000  0.000000  1
  W  W10  1  0.334246  0.834246  0.331508  1
  W  W11  1  0.665754  0.165754  0.668491  1
  O  O12  1  0.000000  0.247309  0.000000  1
  O  O13  1  0.330475  0.601048  0.339049  1
  O  O14  1  0.669525  0.940100  0.660951  1
  O  O15  1  0.161655  0.411165  0.177669  1
  O  O16  1  0.489943  0.759403  0.481194  1
  O  O17  1  0.818269  0.089461  0.821077  1
  O  O18  1  0.339323  0.588835  0.822331  1
  O  O19  1  0.639346  0.910539  0.178923  1
  O  O20  1  0.971138  0.240597  0.518806  1
  O  O21  1  0.000000  0.752691  0.000000  1
  O  O22  1  0.330475  0.059900  0.339049  1
  O  O23  1  0.669525  0.398952  0.660951  1
  O  O24  1  0.838345  0.588835  0.822331  1
  O  O25  1  0.181731  0.910539  0.178923  1
  O  O26  1  0.510057  0.240597  0.518806  1
  O  O27  1  0.660677  0.411165  0.177669  1
  O  O28  1  0.028862  0.759403  0.481194  1
  O  O29  1  0.360654  0.089461  0.821077  1
