# generated using pymatgen
data_HfTh3(InRh5)2
_symmetry_space_group_name_H-M   'P 1'
_cell_length_a   4.24700600
_cell_length_b   5.85886169
_cell_length_c   11.62307229
_cell_angle_alpha   89.85505223
_cell_angle_beta   90.00000000
_cell_angle_gamma   90.00000000
_symmetry_Int_Tables_number   1
_chemical_formula_structural   HfTh3(InRh5)2
_chemical_formula_sum   'Hf1 Th3 In2 Rh10'
_cell_volume   289.21157434
_cell_formula_units_Z   1
loop_
 _symmetry_equiv_pos_site_id
 _symmetry_equiv_pos_as_xyz
  1  'x, y, z'
loop_
 _atom_site_type_symbol
 _atom_site_label
 _atom_site_symmetry_multiplicity
 _atom_site_fract_x
 _atom_site_fract_y
 _atom_site_fract_z
 _atom_site_occupancy
  Hf  Hf0  1  0.500000  0.319121  0.140751  1
  Th  Th1  1  0.500000  0.185549  0.641548  1
  Th  Th2  1  0.500000  0.815831  0.354195  1
  Th  Th3  1  0.500000  0.683845  0.864710  1
  In  In4  1  0.000000  0.499328  0.496662  1
  In  In5  1  0.000000  0.007282  0.007245  1
  Rh  Rh6  1  0.500000  0.203775  0.892875  1
  Rh  Rh7  1  0.500000  0.787212  0.114428  1
  Rh  Rh8  1  0.500000  0.703539  0.614890  1
  Rh  Rh9  1  0.500000  0.297228  0.375745  1
  Rh  Rh10  1  0.000000  0.444336  0.749158  1
  Rh  Rh11  1  0.000000  0.548599  0.245893  1
  Rh  Rh12  1  0.000000  0.001431  0.497664  1
  Rh  Rh13  1  0.000000  0.489208  0.006944  1
  Rh  Rh14  1  0.000000  0.068738  0.241804  1
  Rh  Rh15  1  0.000000  0.944978  0.755487  1
