# generated using pymatgen
data_TmLu5(P2Ir3)6
_symmetry_space_group_name_H-M   'P 1'
_cell_length_a   3.94473200
_cell_length_b   11.13955800
_cell_length_c   12.80393500
_cell_angle_alpha   90.00000000
_cell_angle_beta   90.00000000
_cell_angle_gamma   90.00000000
_symmetry_Int_Tables_number   1
_chemical_formula_structural   TmLu5(P2Ir3)6
_chemical_formula_sum   'Tm1 Lu5 P12 Ir18'
_cell_volume   562.63782164
_cell_formula_units_Z   1
loop_
 _symmetry_equiv_pos_site_id
 _symmetry_equiv_pos_as_xyz
  1  'x, y, z'
loop_
 _atom_site_type_symbol
 _atom_site_label
 _atom_site_symmetry_multiplicity
 _atom_site_fract_x
 _atom_site_fract_y
 _atom_site_fract_z
 _atom_site_occupancy
  Tm  Tm0  1  0.000000  0.500000  0.522864  1
  Lu  Lu1  1  0.500000  0.000000  0.477079  1
  Lu  Lu2  1  0.500000  0.814105  0.204421  1
  Lu  Lu3  1  0.500000  0.185895  0.204421  1
  Lu  Lu4  1  0.000000  0.685878  0.795591  1
  Lu  Lu5  1  0.000000  0.314122  0.795591  1
  P  P6  1  0.500000  0.500000  0.872735  1
  P  P7  1  0.000000  0.000000  0.127324  1
  P  P8  1  0.500000  0.500000  0.361797  1
  P  P9  1  0.000000  0.000000  0.637915  1
  P  P10  1  0.500000  0.315740  0.617422  1
  P  P11  1  0.500000  0.684260  0.617422  1
  P  P12  1  0.000000  0.184232  0.382653  1
  P  P13  1  0.000000  0.815768  0.382653  1
  P  P14  1  0.500000  0.846245  0.892719  1
  P  P15  1  0.500000  0.153755  0.892719  1
  P  P16  1  0.000000  0.653740  0.107272  1
  P  P17  1  0.000000  0.346260  0.107272  1
  Ir  Ir18  1  0.500000  0.500000  0.183340  1
  Ir  Ir19  1  0.000000  0.000000  0.816583  1
  Ir  Ir20  1  0.500000  0.500000  0.697839  1
  Ir  Ir21  1  0.000000  0.000000  0.302617  1
  Ir  Ir22  1  0.000000  0.500000  0.965668  1
  Ir  Ir23  1  0.500000  0.000000  0.034342  1
  Ir  Ir24  1  0.500000  0.336870  0.004954  1
  Ir  Ir25  1  0.500000  0.663130  0.004954  1
  Ir  Ir26  1  0.000000  0.163109  0.995047  1
  Ir  Ir27  1  0.000000  0.836891  0.995047  1
  Ir  Ir28  1  0.500000  0.294453  0.430399  1
  Ir  Ir29  1  0.500000  0.705547  0.430399  1
  Ir  Ir30  1  0.000000  0.205231  0.569499  1
  Ir  Ir31  1  0.000000  0.794769  0.569499  1
  Ir  Ir32  1  0.500000  0.867068  0.713924  1
  Ir  Ir33  1  0.500000  0.132932  0.713924  1
  Ir  Ir34  1  0.000000  0.632961  0.286047  1
  Ir  Ir35  1  0.000000  0.367039  0.286047  1
