# generated using pymatgen
data_Ho8Ti12Si15Ir
_symmetry_space_group_name_H-M   'P 1'
_cell_length_a   7.05535003
_cell_length_b   7.03926332
_cell_length_c   12.97025765
_cell_angle_alpha   89.89178537
_cell_angle_beta   89.79906414
_cell_angle_gamma   90.02466915
_symmetry_Int_Tables_number   1
_chemical_formula_structural   Ho8Ti12Si15Ir
_chemical_formula_sum   'Ho8 Ti12 Si15 Ir1'
_cell_volume   644.15575799
_cell_formula_units_Z   1
loop_
 _symmetry_equiv_pos_site_id
 _symmetry_equiv_pos_as_xyz
  1  'x, y, z'
loop_
 _atom_site_type_symbol
 _atom_site_label
 _atom_site_symmetry_multiplicity
 _atom_site_fract_x
 _atom_site_fract_y
 _atom_site_fract_z
 _atom_site_occupancy
  Ho  Ho0  1  0.338252  0.001876  0.466659  1
  Ho  Ho1  1  0.499169  0.841588  0.717118  1
  Ho  Ho2  1  0.501336  0.159794  0.216813  1
  Ho  Ho3  1  0.840962  0.497439  0.283509  1
  Ho  Ho4  1  0.157378  0.502376  0.783039  1
  Ho  Ho5  1  0.660581  0.997953  0.967295  1
  Ho  Ho6  1  0.002803  0.338744  0.535063  1
  Ho  Ho7  1  0.999140  0.659269  0.033250  1
  Ti  Ti8  1  0.327298  0.326253  0.001241  1
  Ti  Ti9  1  0.172670  0.827599  0.249961  1
  Ti  Ti10  1  0.833383  0.171363  0.747404  1
  Ti  Ti11  1  0.672329  0.671623  0.498923  1
  Ti  Ti12  1  0.157737  0.010323  0.874605  1
  Ti  Ti13  1  0.491787  0.652452  0.126087  1
  Ti  Ti14  1  0.499201  0.342197  0.626992  1
  Ti  Ti15  1  0.656145  0.496490  0.874956  1
  Ti  Ti16  1  0.348097  0.506406  0.373517  1
  Ti  Ti17  1  0.846495  0.992061  0.374784  1
  Ti  Ti18  1  0.007992  0.152107  0.125784  1
  Ti  Ti19  1  0.992586  0.850438  0.619841  1
  Si  Si20  1  0.370592  0.702232  0.934968  1
  Si  Si21  1  0.631438  0.296766  0.434186  1
  Si  Si22  1  0.703717  0.369420  0.066476  1
  Si  Si23  1  0.301076  0.630605  0.563920  1
  Si  Si24  1  0.796047  0.868896  0.182700  1
  Si  Si25  1  0.130453  0.202816  0.315856  1
  Si  Si26  1  0.867955  0.799149  0.815623  1
  Si  Si27  1  0.292341  0.953594  0.065717  1
  Si  Si28  1  0.546079  0.790838  0.314811  1
  Si  Si29  1  0.458224  0.214784  0.817079  1
  Si  Si30  1  0.787165  0.549013  0.685190  1
  Si  Si31  1  0.208194  0.453683  0.185310  1
  Si  Si32  1  0.705190  0.044900  0.561883  1
  Si  Si33  1  0.952710  0.291061  0.937660  1
  Si  Si34  1  0.046601  0.707823  0.433432  1
  Ir  Ir35  1  0.196877  0.126071  0.688349  1
