# generated using pymatgen
data_Lu5HfB4(Ir4Ru)2
_symmetry_space_group_name_H-M   'P 1'
_cell_length_a   9.79440700
_cell_length_b   9.79440700
_cell_length_c   3.12678200
_cell_angle_alpha   90.00000000
_cell_angle_beta   90.00000000
_cell_angle_gamma   90.00000000
_symmetry_Int_Tables_number   1
_chemical_formula_structural   Lu5HfB4(Ir4Ru)2
_chemical_formula_sum   'Lu5 Hf1 B4 Ir8 Ru2'
_cell_volume   299.95347449
_cell_formula_units_Z   1
loop_
 _symmetry_equiv_pos_site_id
 _symmetry_equiv_pos_as_xyz
  1  'x, y, z'
loop_
 _atom_site_type_symbol
 _atom_site_label
 _atom_site_symmetry_multiplicity
 _atom_site_fract_x
 _atom_site_fract_y
 _atom_site_fract_z
 _atom_site_occupancy
  Lu  Lu0  1  0.174595  0.674494  0.000000  1
  Lu  Lu1  1  0.325506  0.174595  0.000000  1
  Lu  Lu2  1  0.825405  0.325506  0.000000  1
  Lu  Lu3  1  0.500000  0.500000  0.000000  1
  Lu  Lu4  1  0.674494  0.825405  0.000000  1
  Hf  Hf5  1  0.000000  0.000000  0.000000  1
  B  B6  1  0.382917  0.880754  0.000000  1
  B  B7  1  0.119246  0.382917  0.000000  1
  B  B8  1  0.880754  0.617083  0.000000  1
  B  B9  1  0.617083  0.119246  0.000000  1
  Ir  Ir10  1  0.222320  0.931234  0.500000  1
  Ir  Ir11  1  0.931234  0.777680  0.500000  1
  Ir  Ir12  1  0.426028  0.727781  0.500000  1
  Ir  Ir13  1  0.573972  0.272219  0.500000  1
  Ir  Ir14  1  0.727781  0.573972  0.500000  1
  Ir  Ir15  1  0.272219  0.426028  0.500000  1
  Ir  Ir16  1  0.068766  0.222320  0.500000  1
  Ir  Ir17  1  0.777680  0.068766  0.500000  1
  Ru  Ru18  1  0.000000  0.500000  0.500000  1
  Ru  Ru19  1  0.500000  0.000000  0.500000  1
