# generated using pymatgen
data_Pr11Nd7(BiO)10
_symmetry_space_group_name_H-M   'P 1'
_cell_length_a   10.39332404
_cell_length_b   10.40050209
_cell_length_c   9.37979311
_cell_angle_alpha   89.98568526
_cell_angle_beta   90.00995600
_cell_angle_gamma   90.00340633
_symmetry_Int_Tables_number   1
_chemical_formula_structural   Pr11Nd7(BiO)10
_chemical_formula_sum   'Pr11 Nd7 Bi10 O10'
_cell_volume   1013.91608232
_cell_formula_units_Z   1
loop_
 _symmetry_equiv_pos_site_id
 _symmetry_equiv_pos_as_xyz
  1  'x, y, z'
loop_
 _atom_site_type_symbol
 _atom_site_label
 _atom_site_symmetry_multiplicity
 _atom_site_fract_x
 _atom_site_fract_y
 _atom_site_fract_z
 _atom_site_occupancy
  Pr  Pr0  1  0.499882  0.000051  0.671619  1
  Pr  Pr1  1  0.000006  0.499997  0.328276  1
  Pr  Pr2  1  0.104289  0.205083  0.659737  1
  Pr  Pr3  1  0.895829  0.794830  0.659565  1
  Pr  Pr4  1  0.294915  0.604291  0.659726  1
  Pr  Pr5  1  0.705079  0.395707  0.659702  1
  Pr  Pr6  1  0.395714  0.294930  0.340276  1
  Pr  Pr7  1  0.604251  0.704987  0.340323  1
  Pr  Pr8  1  0.205073  0.895699  0.340264  1
  Pr  Pr9  1  0.794970  0.104442  0.340467  1
  Pr  Pr10  1  0.725737  0.917796  0.001256  1
  Nd  Nd11  1  0.274215  0.082484  0.001455  1
  Nd  Nd12  1  0.582373  0.226051  0.001465  1
  Nd  Nd13  1  0.417265  0.774093  0.001476  1
  Nd  Nd14  1  0.774248  0.582225  0.998552  1
  Nd  Nd15  1  0.225769  0.417503  0.998523  1
  Nd  Nd16  1  0.917582  0.274373  0.998540  1
  Nd  Nd17  1  0.082637  0.725670  0.998575  1
  Bi  Bi18  1  0.499987  0.000002  0.312138  1
  Bi  Bi19  1  0.000012  0.499976  0.687896  1
  Bi  Bi20  1  0.403709  0.304122  0.699789  1
  Bi  Bi21  1  0.596281  0.695869  0.699771  1
  Bi  Bi22  1  0.195879  0.903704  0.699789  1
  Bi  Bi23  1  0.804187  0.096450  0.699527  1
  Bi  Bi24  1  0.096301  0.195889  0.300212  1
  Bi  Bi25  1  0.903811  0.804040  0.300388  1
  Bi  Bi26  1  0.304108  0.596285  0.300219  1
  Bi  Bi27  1  0.695877  0.403721  0.300229  1
  O  O28  1  0.499319  0.000242  0.934208  1
  O  O29  1  0.000001  0.500011  0.065543  1
  O  O30  1  0.774842  0.122221  0.086270  1
  O  O31  1  0.225477  0.879161  0.085624  1
  O  O32  1  0.379143  0.274540  0.085619  1
  O  O33  1  0.620358  0.724479  0.086066  1
  O  O34  1  0.725445  0.379150  0.914377  1
  O  O35  1  0.274560  0.620843  0.914390  1
  O  O36  1  0.120873  0.225467  0.914367  1
  O  O37  1  0.879995  0.773613  0.913780  1
