# generated using pymatgen
data_Ho12TlCd(TcNi)2
_symmetry_space_group_name_H-M   'P 1'
_cell_length_a   8.42459388
_cell_length_b   8.42459546
_cell_length_c   8.42459600
_cell_angle_alpha   113.48116743
_cell_angle_beta   110.52204574
_cell_angle_gamma   104.53579416
_symmetry_Int_Tables_number   1
_chemical_formula_structural   Ho12TlCd(TcNi)2
_chemical_formula_sum   'Ho12 Tl1 Cd1 Tc2 Ni2'
_cell_volume   457.41571376
_cell_formula_units_Z   1
loop_
 _symmetry_equiv_pos_site_id
 _symmetry_equiv_pos_as_xyz
  1  'x, y, z'
loop_
 _atom_site_type_symbol
 _atom_site_label
 _atom_site_symmetry_multiplicity
 _atom_site_fract_x
 _atom_site_fract_y
 _atom_site_fract_z
 _atom_site_occupancy
  Ho  Ho0  1  0.438213  0.240256  0.197956  1
  Ho  Ho1  1  0.561787  0.759744  0.802044  1
  Ho  Ho2  1  0.042298  0.240256  0.802044  1
  Ho  Ho3  1  0.957702  0.759744  0.197956  1
  Ho  Ho4  1  0.183121  0.285665  0.468787  1
  Ho  Ho5  1  0.816879  0.714335  0.531213  1
  Ho  Ho6  1  0.183121  0.714335  0.897457  1
  Ho  Ho7  1  0.816879  0.285665  0.102543  1
  Ho  Ho8  1  0.331668  0.648291  0.316623  1
  Ho  Ho9  1  0.668332  0.351709  0.683377  1
  Ho  Ho10  1  0.331668  0.015044  0.683377  1
  Ho  Ho11  1  0.668332  0.984956  0.316623  1
  Tl  Tl12  1  0.500000  0.500000  0.000000  1
  Cd  Cd13  1  0.000000  0.000000  0.000000  1
  Tc  Tc14  1  0.324177  0.000000  0.324177  1
  Tc  Tc15  1  0.675823  0.000000  0.675823  1
  Ni  Ni16  1  0.116905  0.616905  0.500000  1
  Ni  Ni17  1  0.883095  0.383095  0.500000  1
