# generated using pymatgen
data_La8Er11ScPt16
_symmetry_space_group_name_H-M   'P 1'
_cell_length_a   7.65608368
_cell_length_b   7.79593487
_cell_length_c   14.76883500
_cell_angle_alpha   90.08745841
_cell_angle_beta   90.10831904
_cell_angle_gamma   90.02555031
_symmetry_Int_Tables_number   1
_chemical_formula_structural   La8Er11ScPt16
_chemical_formula_sum   'La8 Er11 Sc1 Pt16'
_cell_volume   881.49486443
_cell_formula_units_Z   1
loop_
 _symmetry_equiv_pos_site_id
 _symmetry_equiv_pos_as_xyz
  1  'x, y, z'
loop_
 _atom_site_type_symbol
 _atom_site_label
 _atom_site_symmetry_multiplicity
 _atom_site_fract_x
 _atom_site_fract_y
 _atom_site_fract_z
 _atom_site_occupancy
  La  La0  1  0.493081  0.324035  0.901563  1
  La  La1  1  0.991602  0.175458  0.601177  1
  La  La2  1  0.507844  0.676132  0.401387  1
  La  La3  1  0.008764  0.823335  0.097379  1
  La  La4  1  0.506663  0.678705  0.094049  1
  La  La5  1  0.007792  0.823563  0.401569  1
  La  La6  1  0.491032  0.322801  0.599691  1
  La  La7  1  0.995792  0.171805  0.901487  1
  Er  Er8  1  0.836938  0.666965  0.624334  1
  Er  Er9  1  0.662956  0.167163  0.376894  1
  Er  Er10  1  0.164819  0.332163  0.121216  1
  Er  Er11  1  0.661768  0.165462  0.121199  1
  Er  Er12  1  0.162000  0.332141  0.377521  1
  Er  Er13  1  0.337509  0.832854  0.623491  1
  Er  Er14  1  0.838617  0.666950  0.878549  1
  Er  Er15  1  0.173134  0.500707  0.752014  1
  Er  Er16  1  0.668573  0.000561  0.752275  1
  Er  Er17  1  0.828139  0.502393  0.248719  1
  Er  Er18  1  0.328363  0.997222  0.249243  1
  Sc  Sc19  1  0.337672  0.832398  0.875133  1
  Pt  Pt20  1  0.324541  0.032873  0.040323  1
  Pt  Pt21  1  0.827455  0.464912  0.454212  1
  Pt  Pt22  1  0.672439  0.964840  0.546757  1
  Pt  Pt23  1  0.180486  0.546343  0.954242  1
  Pt  Pt24  1  0.665144  0.962581  0.952250  1
  Pt  Pt25  1  0.171585  0.534411  0.547147  1
  Pt  Pt26  1  0.327826  0.034055  0.453683  1
  Pt  Pt27  1  0.830148  0.463955  0.045516  1
  Pt  Pt28  1  0.538246  0.635707  0.753767  1
  Pt  Pt29  1  0.044003  0.867505  0.752549  1
  Pt  Pt30  1  0.459289  0.368224  0.249081  1
  Pt  Pt31  1  0.959236  0.131661  0.249091  1
  Pt  Pt32  1  0.302790  0.134051  0.752331  1
  Pt  Pt33  1  0.800989  0.366214  0.751586  1
  Pt  Pt34  1  0.694986  0.865028  0.249025  1
  Pt  Pt35  1  0.197778  0.634827  0.249551  1
