# generated using pymatgen
data_YbCoP2O7
_symmetry_space_group_name_H-M   'P 1'
_cell_length_a   6.28176208
_cell_length_b   6.53756424
_cell_length_c   6.91242233
_cell_angle_alpha   83.83302343
_cell_angle_beta   90.04993608
_cell_angle_gamma   67.94780620
_symmetry_Int_Tables_number   1
_chemical_formula_structural   YbCoP2O7
_chemical_formula_sum   'Yb2 Co2 P4 O14'
_cell_volume   261.32343490
_cell_formula_units_Z   2
loop_
 _symmetry_equiv_pos_site_id
 _symmetry_equiv_pos_as_xyz
  1  'x, y, z'
loop_
 _atom_site_type_symbol
 _atom_site_label
 _atom_site_symmetry_multiplicity
 _atom_site_fract_x
 _atom_site_fract_y
 _atom_site_fract_z
 _atom_site_occupancy
  Yb  Yb0  1  0.292934  0.739697  0.608944  1
  Yb  Yb1  1  0.707067  0.260302  0.391056  1
  Co  Co2  1  0.242109  0.134824  0.193104  1
  Co  Co3  1  0.757892  0.865176  0.806897  1
  P  P4  1  0.168690  0.657776  0.121660  1
  P  P5  1  0.831311  0.342224  0.878339  1
  P  P6  1  0.245013  0.223557  0.631624  1
  P  P7  1  0.754986  0.776443  0.368376  1
  O  O8  1  0.092484  0.752501  0.907412  1
  O  O9  1  0.907517  0.247499  0.092588  1
  O  O10  1  0.239990  0.809833  0.236497  1
  O  O11  1  0.760010  0.190166  0.763504  1
  O  O12  1  0.335232  0.414765  0.144338  1
  O  O13  1  0.664768  0.585236  0.855662  1
  O  O14  1  0.646458  0.616237  0.449508  1
  O  O15  1  0.353542  0.383762  0.550491  1
  O  O16  1  0.113846  0.156456  0.475346  1
  O  O17  1  0.886154  0.843544  0.524655  1
  O  O18  1  0.066546  0.353006  0.782730  1
  O  O19  1  0.587541  0.995071  0.257691  1
  O  O20  1  0.412459  0.004929  0.742309  1
  O  O21  1  0.933454  0.646995  0.217270  1
