# generated using pymatgen
data_Cs12Rb5Tl(GaBi4)2
_symmetry_space_group_name_H-M   'P 1'
_cell_length_a   11.52863600
_cell_length_b   11.45002158
_cell_length_c   12.10708400
_cell_angle_alpha   90.00000000
_cell_angle_beta   90.00000000
_cell_angle_gamma   120.22737663
_symmetry_Int_Tables_number   1
_chemical_formula_structural   Cs12Rb5Tl(GaBi4)2
_chemical_formula_sum   'Cs12 Rb5 Tl1 Ga2 Bi8'
_cell_volume   1380.87637155
_cell_formula_units_Z   1
loop_
 _symmetry_equiv_pos_site_id
 _symmetry_equiv_pos_as_xyz
  1  'x, y, z'
loop_
 _atom_site_type_symbol
 _atom_site_label
 _atom_site_symmetry_multiplicity
 _atom_site_fract_x
 _atom_site_fract_y
 _atom_site_fract_z
 _atom_site_occupancy
  Cs  Cs0  1  0.206782  0.413563  0.532683  1
  Cs  Cs1  1  0.796586  0.210478  0.045576  1
  Cs  Cs2  1  0.413891  0.210478  0.045576  1
  Cs  Cs3  1  0.580370  0.790182  0.541101  1
  Cs  Cs4  1  0.209814  0.790182  0.541101  1
  Cs  Cs5  1  0.790114  0.580231  0.459691  1
  Cs  Cs6  1  0.796586  0.210478  0.454424  1
  Cs  Cs7  1  0.790114  0.580231  0.040309  1
  Cs  Cs8  1  0.413891  0.210478  0.454424  1
  Cs  Cs9  1  0.580370  0.790182  0.958899  1
  Cs  Cs10  1  0.206782  0.413563  0.967317  1
  Cs  Cs11  1  0.209814  0.790182  0.958899  1
  Rb  Rb12  1  0.880821  0.120753  0.750000  1
  Rb  Rb13  1  0.239931  0.120753  0.750000  1
  Rb  Rb14  1  0.767841  0.888978  0.250000  1
  Rb  Rb15  1  0.121138  0.888978  0.250000  1
  Rb  Rb16  1  0.881126  0.762254  0.750000  1
  Tl  Tl17  1  0.118891  0.237781  0.250000  1
  Ga  Ga18  1  0.334221  0.668442  0.250000  1
  Ga  Ga19  1  0.666532  0.333064  0.750000  1
  Bi  Bi20  1  0.461235  0.516107  0.250000  1
  Bi  Bi21  1  0.947790  0.474932  0.750000  1
  Bi  Bi22  1  0.525015  0.050029  0.750000  1
  Bi  Bi23  1  0.474202  0.948403  0.250000  1
  Bi  Bi24  1  0.054872  0.516107  0.250000  1
  Bi  Bi25  1  0.527143  0.474932  0.750000  1
  Bi  Bi26  1  0.002064  0.004128  0.004038  1
  Bi  Bi27  1  0.002064  0.004128  0.495962  1
