# generated using pymatgen
data_Sc3Pa(Al8Pt3)3
_symmetry_space_group_name_H-M   'P 1'
_cell_length_a   7.49599808
_cell_length_b   7.49876910
_cell_length_c   13.03740235
_cell_angle_alpha   84.53375165
_cell_angle_beta   100.98339462
_cell_angle_gamma   119.91313570
_symmetry_Int_Tables_number   1
_chemical_formula_structural   Sc3Pa(Al8Pt3)3
_chemical_formula_sum   'Sc3 Pa1 Al24 Pt9'
_cell_volume   623.57920993
_cell_formula_units_Z   1
loop_
 _symmetry_equiv_pos_site_id
 _symmetry_equiv_pos_as_xyz
  1  'x, y, z'
loop_
 _atom_site_type_symbol
 _atom_site_label
 _atom_site_symmetry_multiplicity
 _atom_site_fract_x
 _atom_site_fract_y
 _atom_site_fract_z
 _atom_site_occupancy
  Sc  Sc0  1  0.437152  0.832222  0.807328  1
  Sc  Sc1  1  0.562893  0.169027  0.191466  1
  Sc  Sc2  1  0.767011  0.500806  0.807146  1
  Pa  Pa3  1  0.232825  0.498328  0.193375  1
  Al  Al4  1  0.484652  0.166501  0.940204  1
  Al  Al5  1  0.518359  0.837190  0.054642  1
  Al  Al6  1  0.020622  0.166166  0.564138  1
  Al  Al7  1  0.979380  0.832822  0.439042  1
  Al  Al8  1  0.353728  0.834107  0.561330  1
  Al  Al9  1  0.647256  0.166720  0.440851  1
  Al  Al10  1  0.618362  0.838756  0.327647  1
  Al  Al11  1  0.387547  0.165484  0.676574  1
  Al  Al12  1  0.057804  0.496493  0.676359  1
  Al  Al13  1  0.939096  0.503889  0.327689  1
  Al  Al14  1  0.728629  0.836829  0.675440  1
  Al  Al15  1  0.272007  0.157459  0.329250  1
  Al  Al16  1  0.146172  0.504243  0.939072  1
  Al  Al17  1  0.848576  0.497096  0.054603  1
  Al  Al18  1  0.811236  0.828823  0.946886  1
  Al  Al19  1  0.185153  0.166637  0.046236  1
  Al  Al20  1  0.314277  0.500564  0.442022  1
  Al  Al21  1  0.687403  0.499447  0.561190  1
  Al  Al22  1  0.104099  0.839201  0.182323  1
  Al  Al23  1  0.893421  0.163774  0.816775  1
  Al  Al24  1  0.311967  0.372938  0.815469  1
  Al  Al25  1  0.693518  0.629739  0.183641  1
  Al  Al26  1  0.103015  0.954591  0.816510  1
  Al  Al27  1  0.894077  0.040162  0.183034  1
  Pt  Pt28  1  0.388113  0.508733  0.639192  1
  Pt  Pt29  1  0.611197  0.491291  0.360073  1
  Pt  Pt30  1  0.171633  0.828160  0.000052  1
  Pt  Pt31  1  0.829610  0.172365  0.000580  1
  Pt  Pt32  1  0.295428  0.832755  0.360325  1
  Pt  Pt33  1  0.704204  0.166740  0.639429  1
  Pt  Pt34  1  0.045678  0.824441  0.638240  1
  Pt  Pt35  1  0.954523  0.175384  0.361726  1
  Pt  Pt36  1  0.499371  0.500114  0.000141  1
