# generated using pymatgen
data_Y2Ho3OsRu
_symmetry_space_group_name_H-M   'P 1'
_cell_length_a   6.34661444
_cell_length_b   7.32083229
_cell_length_c   8.46208343
_cell_angle_alpha   96.85404414
_cell_angle_beta   112.02450024
_cell_angle_gamma   89.99999821
_symmetry_Int_Tables_number   1
_chemical_formula_structural   Y2Ho3OsRu
_chemical_formula_sum   'Y4 Ho6 Os2 Ru2'
_cell_volume   361.44463341
_cell_formula_units_Z   2
loop_
 _symmetry_equiv_pos_site_id
 _symmetry_equiv_pos_as_xyz
  1  'x, y, z'
loop_
 _atom_site_type_symbol
 _atom_site_label
 _atom_site_symmetry_multiplicity
 _atom_site_fract_x
 _atom_site_fract_y
 _atom_site_fract_z
 _atom_site_occupancy
  Y  Y0  1  0.977840  0.916882  0.185415  1
  Y  Y1  1  0.792424  0.583118  0.814585  1
  Y  Y2  1  0.021402  0.083603  0.812356  1
  Y  Y3  1  0.209047  0.416397  0.187644  1
  Ho  Ho4  1  0.637445  0.815770  0.434951  1
  Ho  Ho5  1  0.202494  0.684230  0.565049  1
  Ho  Ho6  1  0.362218  0.184170  0.565581  1
  Ho  Ho7  1  0.796636  0.315830  0.434419  1
  Ho  Ho8  1  0.421764  0.750000  0.000000  1
  Ho  Ho9  1  0.578587  0.250000  0.000000  1
  Os  Os10  1  0.818999  0.576402  0.220941  1
  Os  Os11  1  0.598059  0.923598  0.779059  1
  Ru  Ru12  1  0.180280  0.423455  0.777474  1
  Ru  Ru13  1  0.402805  0.076545  0.222526  1
