# generated using pymatgen
data_SmTh3(HgAu2)2
_symmetry_space_group_name_H-M   'P 1'
_cell_length_a   8.11876855
_cell_length_b   8.11876815
_cell_length_c   3.89990500
_cell_angle_alpha   90.00000000
_cell_angle_beta   90.00000000
_cell_angle_gamma   90.28015743
_symmetry_Int_Tables_number   1
_chemical_formula_structural   SmTh3(HgAu2)2
_chemical_formula_sum   'Sm1 Th3 Hg2 Au4'
_cell_volume   257.05682318
_cell_formula_units_Z   1
loop_
 _symmetry_equiv_pos_site_id
 _symmetry_equiv_pos_as_xyz
  1  'x, y, z'
loop_
 _atom_site_type_symbol
 _atom_site_label
 _atom_site_symmetry_multiplicity
 _atom_site_fract_x
 _atom_site_fract_y
 _atom_site_fract_z
 _atom_site_occupancy
  Sm  Sm0  1  0.824289  0.675711  0.500000  1
  Th  Th1  1  0.676172  0.173399  0.500000  1
  Th  Th2  1  0.326601  0.823828  0.500000  1
  Th  Th3  1  0.172901  0.327099  0.500000  1
  Hg  Hg4  1  0.998654  0.996968  0.000000  1
  Hg  Hg5  1  0.503032  0.501346  0.000000  1
  Au  Au6  1  0.126412  0.626341  0.000000  1
  Au  Au7  1  0.873659  0.373588  0.000000  1
  Au  Au8  1  0.625644  0.874356  0.000000  1
  Au  Au9  1  0.372638  0.127362  0.000000  1
