# generated using pymatgen
data_Tb3Sc(CuP)6
_symmetry_space_group_name_H-M   'P 1'
_cell_length_a   3.85413400
_cell_length_b   10.68142100
_cell_length_c   12.93528600
_cell_angle_alpha   90.00000000
_cell_angle_beta   90.00000000
_cell_angle_gamma   90.00000000
_symmetry_Int_Tables_number   1
_chemical_formula_structural   Tb3Sc(CuP)6
_chemical_formula_sum   'Tb6 Sc2 Cu12 P12'
_cell_volume   532.51504011
_cell_formula_units_Z   2
loop_
 _symmetry_equiv_pos_site_id
 _symmetry_equiv_pos_as_xyz
  1  'x, y, z'
loop_
 _atom_site_type_symbol
 _atom_site_label
 _atom_site_symmetry_multiplicity
 _atom_site_fract_x
 _atom_site_fract_y
 _atom_site_fract_z
 _atom_site_occupancy
  Tb  Tb0  1  0.250000  0.930800  0.794551  1
  Tb  Tb1  1  0.750000  0.430800  0.705449  1
  Tb  Tb2  1  0.250000  0.568149  0.289263  1
  Tb  Tb3  1  0.750000  0.068149  0.210737  1
  Tb  Tb4  1  0.250000  0.842543  0.503910  1
  Tb  Tb5  1  0.750000  0.342543  0.996090  1
  Sc  Sc6  1  0.250000  0.659476  0.003109  1
  Sc  Sc7  1  0.750000  0.159476  0.496891  1
  Cu  Cu8  1  0.250000  0.403238  0.512074  1
  Cu  Cu9  1  0.750000  0.903238  0.987926  1
  Cu  Cu10  1  0.250000  0.094888  0.012815  1
  Cu  Cu11  1  0.750000  0.594888  0.487185  1
  Cu  Cu12  1  0.250000  0.270855  0.333590  1
  Cu  Cu13  1  0.750000  0.770855  0.166410  1
  Cu  Cu14  1  0.250000  0.229488  0.829228  1
  Cu  Cu15  1  0.750000  0.729488  0.670772  1
  Cu  Cu16  1  0.250000  0.860888  0.281102  1
  Cu  Cu17  1  0.750000  0.360888  0.218898  1
  Cu  Cu18  1  0.250000  0.641956  0.784234  1
  Cu  Cu19  1  0.750000  0.141956  0.715766  1
  P  P20  1  0.250000  0.239015  0.636849  1
  P  P21  1  0.750000  0.739015  0.863151  1
  P  P22  1  0.250000  0.256915  0.144080  1
  P  P23  1  0.750000  0.756915  0.355920  1
  P  P24  1  0.250000  0.605322  0.603036  1
  P  P25  1  0.750000  0.105322  0.896964  1
  P  P26  1  0.250000  0.890268  0.100160  1
  P  P27  1  0.750000  0.390268  0.399840  1
  P  P28  1  0.250000  0.060045  0.376642  1
  P  P29  1  0.750000  0.560045  0.123358  1
  P  P30  1  0.250000  0.446155  0.869016  1
  P  P31  1  0.750000  0.946155  0.630984  1
