# generated using pymatgen
data_Sr10Si17Hg
_symmetry_space_group_name_H-M   'P 1'
_cell_length_a   6.38834161
_cell_length_b   6.38834206
_cell_length_c   17.56634058
_cell_angle_alpha   81.40781886
_cell_angle_beta   81.40781731
_cell_angle_gamma   98.77929174
_symmetry_Int_Tables_number   1
_chemical_formula_structural   Sr10Si17Hg
_chemical_formula_sum   'Sr10 Si17 Hg1'
_cell_volume   689.58395158
_cell_formula_units_Z   1
loop_
 _symmetry_equiv_pos_site_id
 _symmetry_equiv_pos_as_xyz
  1  'x, y, z'
loop_
 _atom_site_type_symbol
 _atom_site_label
 _atom_site_symmetry_multiplicity
 _atom_site_fract_x
 _atom_site_fract_y
 _atom_site_fract_z
 _atom_site_occupancy
  Sr  Sr0  1  0.752792  0.254648  0.995664  1
  Sr  Sr1  1  0.112858  0.577306  0.789436  1
  Sr  Sr2  1  0.287086  0.708844  0.500420  1
  Sr  Sr3  1  0.756271  0.756271  0.647245  1
  Sr  Sr4  1  0.244615  0.244615  0.353378  1
  Sr  Sr5  1  0.577306  0.112858  0.789436  1
  Sr  Sr6  1  0.254648  0.752792  0.995664  1
  Sr  Sr7  1  0.708844  0.287086  0.500420  1
  Sr  Sr8  1  0.421629  0.885621  0.213237  1
  Sr  Sr9  1  0.885621  0.421629  0.213237  1
  Si  Si10  1  0.927987  0.927987  0.266088  1
  Si  Si11  1  0.065612  0.065612  0.734510  1
  Si  Si12  1  0.777377  0.777377  0.929537  1
  Si  Si13  1  0.351486  0.351486  0.647563  1
  Si  Si14  1  0.304425  0.304425  0.921303  1
  Si  Si15  1  0.926407  0.926407  0.133349  1
  Si  Si16  1  0.643404  0.643404  0.357926  1
  Si  Si17  1  0.433846  0.433846  0.155678  1
  Si  Si18  1  0.064527  0.064527  0.866974  1
  Si  Si19  1  0.817123  0.817123  0.455478  1
  Si  Si20  1  0.338904  0.960832  0.641890  1
  Si  Si21  1  0.653312  0.033261  0.359995  1
  Si  Si22  1  0.179892  0.179892  0.546149  1
  Si  Si23  1  0.960832  0.338904  0.641890  1
  Si  Si24  1  0.033261  0.653312  0.359995  1
  Si  Si25  1  0.702725  0.702725  0.069561  1
  Si  Si26  1  0.588718  0.588718  0.844438  1
  Hg  Hg27  1  0.228494  0.228494  0.069539  1
