# generated using pymatgen
data_Ce8ScCdSn6
_symmetry_space_group_name_H-M   'P 1'
_cell_length_a   9.08825249
_cell_length_b   9.08825208
_cell_length_c   9.08825300
_cell_angle_alpha   96.61816513
_cell_angle_beta   96.61815848
_cell_angle_gamma   140.30866709
_symmetry_Int_Tables_number   1
_chemical_formula_structural   Ce8ScCdSn6
_chemical_formula_sum   'Ce8 Sc1 Cd1 Sn6'
_cell_volume   450.93588960
_cell_formula_units_Z   1
loop_
 _symmetry_equiv_pos_site_id
 _symmetry_equiv_pos_as_xyz
  1  'x, y, z'
loop_
 _atom_site_type_symbol
 _atom_site_label
 _atom_site_symmetry_multiplicity
 _atom_site_fract_x
 _atom_site_fract_y
 _atom_site_fract_z
 _atom_site_occupancy
  Ce  Ce0  1  0.099403  0.236108  0.332039  1
  Ce  Ce1  1  0.904069  0.767363  0.667961  1
  Ce  Ce2  1  0.763892  0.095931  0.863295  1
  Ce  Ce3  1  0.400597  0.732637  0.136705  1
  Ce  Ce4  1  0.232637  0.900597  0.136705  1
  Ce  Ce5  1  0.595931  0.263892  0.863295  1
  Ce  Ce6  1  0.736108  0.599403  0.332039  1
  Ce  Ce7  1  0.267363  0.404069  0.667961  1
  Sc  Sc8  1  0.250000  0.750000  0.500000  1
  Cd  Cd9  1  0.750000  0.250000  0.500000  1
  Sn  Sn10  1  0.156392  0.656392  0.801086  1
  Sn  Sn11  1  0.855305  0.355305  0.198914  1
  Sn  Sn12  1  0.343608  0.144695  0.500000  1
  Sn  Sn13  1  0.644695  0.843608  0.500000  1
  Sn  Sn14  1  0.250000  0.250000  0.000000  1
  Sn  Sn15  1  0.750000  0.750000  0.000000  1
