# generated using pymatgen
data_Na3IrO4
_symmetry_space_group_name_H-M   'P 1'
_cell_length_a   5.52964448
_cell_length_b   10.92336578
_cell_length_c   6.56698300
_cell_angle_alpha   90.00034389
_cell_angle_beta   89.99943903
_cell_angle_gamma   81.22327491
_symmetry_Int_Tables_number   1
_chemical_formula_structural   Na3IrO4
_chemical_formula_sum   'Na12 Ir4 O16'
_cell_volume   392.01634527
_cell_formula_units_Z   4
loop_
 _symmetry_equiv_pos_site_id
 _symmetry_equiv_pos_as_xyz
  1  'x, y, z'
loop_
 _atom_site_type_symbol
 _atom_site_label
 _atom_site_symmetry_multiplicity
 _atom_site_fract_x
 _atom_site_fract_y
 _atom_site_fract_z
 _atom_site_occupancy
  Na  Na0  1  0.749946  0.999921  0.382469  1
  Na  Na1  1  0.249981  0.500051  0.381685  1
  Na  Na2  1  0.249944  0.999900  0.618319  1
  Na  Na3  1  0.750117  0.500102  0.617806  1
  Na  Na4  1  0.500277  0.249936  0.120970  1
  Na  Na5  1  0.999820  0.750042  0.121154  1
  Na  Na6  1  0.000296  0.249854  0.878914  1
  Na  Na7  1  0.500018  0.750072  0.878709  1
  Na  Na8  1  0.499957  0.249843  0.620212  1
  Na  Na9  1  0.000276  0.750435  0.619887  1
  Na  Na10  1  0.999959  0.250110  0.380972  1
  Na  Na11  1  0.500301  0.750067  0.380874  1
  Ir  Ir12  1  0.250066  0.500005  0.874525  1
  Ir  Ir13  1  0.249841  0.999973  0.125389  1
  Ir  Ir14  1  0.749848  0.999972  0.874986  1
  Ir  Ir15  1  0.750094  0.499982  0.124861  1
  O  O16  1  0.849864  0.111676  0.668297  1
  O  O17  1  0.349830  0.611825  0.667796  1
  O  O18  1  0.349547  0.111734  0.331871  1
  O  O19  1  0.849746  0.611702  0.331491  1
  O  O20  1  0.150132  0.388204  0.667821  1
  O  O21  1  0.649905  0.888265  0.668178  1
  O  O22  1  0.650348  0.388283  0.331443  1
  O  O23  1  0.150220  0.888211  0.332008  1
  O  O24  1  0.406363  0.096653  0.900898  1
  O  O25  1  0.906668  0.596733  0.900535  1
  O  O26  1  0.906503  0.096607  0.099420  1
  O  O27  1  0.406818  0.596662  0.098845  1
  O  O28  1  0.093441  0.403333  0.098901  1
  O  O29  1  0.593129  0.903315  0.099379  1
  O  O30  1  0.593504  0.403268  0.900416  1
  O  O31  1  0.093241  0.903264  0.900971  1
