# generated using pymatgen
data_LaPrDy4Ta2O14
_symmetry_space_group_name_H-M   'P 1'
_cell_length_a   6.52914828
_cell_length_b   6.52914941
_cell_length_c   7.62513409
_cell_angle_alpha   90.00986917
_cell_angle_beta   90.00987437
_cell_angle_gamma   110.04489315
_symmetry_Int_Tables_number   1
_chemical_formula_structural   LaPrDy4Ta2O14
_chemical_formula_sum   'La1 Pr1 Dy4 Ta2 O14'
_cell_volume   305.36722049
_cell_formula_units_Z   1
loop_
 _symmetry_equiv_pos_site_id
 _symmetry_equiv_pos_as_xyz
  1  'x, y, z'
loop_
 _atom_site_type_symbol
 _atom_site_label
 _atom_site_symmetry_multiplicity
 _atom_site_fract_x
 _atom_site_fract_y
 _atom_site_fract_z
 _atom_site_occupancy
  La  La0  1  0.000000  0.000000  0.000000  1
  Pr  Pr1  1  0.000000  0.000000  0.500000  1
  Dy  Dy2  1  0.515273  0.053593  0.250123  1
  Dy  Dy3  1  0.946407  0.484727  0.749877  1
  Dy  Dy4  1  0.053593  0.515273  0.250123  1
  Dy  Dy5  1  0.484727  0.946407  0.749877  1
  Ta  Ta6  1  0.500000  0.500000  0.000000  1
  Ta  Ta7  1  0.500000  0.500000  0.500000  1
  O  O8  1  0.880012  0.160213  0.250836  1
  O  O9  1  0.839787  0.119988  0.749164  1
  O  O10  1  0.819042  0.558941  0.033981  1
  O  O11  1  0.819452  0.560458  0.466201  1
  O  O12  1  0.441059  0.180958  0.966019  1
  O  O13  1  0.439542  0.180548  0.533799  1
  O  O14  1  0.574704  0.574704  0.750022  1
  O  O15  1  0.425296  0.425296  0.249978  1
  O  O16  1  0.558941  0.819042  0.033981  1
  O  O17  1  0.180548  0.439542  0.533799  1
  O  O18  1  0.560458  0.819452  0.466201  1
  O  O19  1  0.180958  0.441059  0.966019  1
  O  O20  1  0.119988  0.839787  0.749164  1
  O  O21  1  0.160213  0.880012  0.250836  1
