# generated using pymatgen
data_La2ThNi2Sn7
_symmetry_space_group_name_H-M   'P 1'
_cell_length_a   13.84375479
_cell_length_b   13.84375572
_cell_length_c   4.60772200
_cell_angle_alpha   90.00000000
_cell_angle_beta   90.00000000
_cell_angle_gamma   160.12424398
_symmetry_Int_Tables_number   1
_chemical_formula_structural   La2ThNi2Sn7
_chemical_formula_sum   'La2 Th1 Ni2 Sn7'
_cell_volume   300.22687794
_cell_formula_units_Z   1
loop_
 _symmetry_equiv_pos_site_id
 _symmetry_equiv_pos_as_xyz
  1  'x, y, z'
loop_
 _atom_site_type_symbol
 _atom_site_label
 _atom_site_symmetry_multiplicity
 _atom_site_fract_x
 _atom_site_fract_y
 _atom_site_fract_z
 _atom_site_occupancy
  La  La0  1  0.184683  0.815317  0.000000  1
  La  La1  1  0.815317  0.184683  0.000000  1
  Th  Th2  1  0.500000  0.500000  0.500000  1
  Ni  Ni3  1  0.373005  0.626995  0.500000  1
  Ni  Ni4  1  0.626995  0.373005  0.500000  1
  Sn  Sn5  1  0.088445  0.911555  0.500000  1
  Sn  Sn6  1  0.911555  0.088445  0.500000  1
  Sn  Sn7  1  0.279946  0.720054  0.500000  1
  Sn  Sn8  1  0.720054  0.279946  0.500000  1
  Sn  Sn9  1  0.000000  0.000000  0.000000  1
  Sn  Sn10  1  0.588142  0.411858  0.000000  1
  Sn  Sn11  1  0.411858  0.588142  0.000000  1
