# generated using pymatgen
data_TbHo9(IrRu)2
_symmetry_space_group_name_H-M   'P 1'
_cell_length_a   6.38159810
_cell_length_b   7.26893574
_cell_length_c   8.46596900
_cell_angle_alpha   96.81806720
_cell_angle_beta   112.11018430
_cell_angle_gamma   89.99209812
_symmetry_Int_Tables_number   1
_chemical_formula_structural   TbHo9(IrRu)2
_chemical_formula_sum   'Tb1 Ho9 Ir2 Ru2'
_cell_volume   360.83816683
_cell_formula_units_Z   1
loop_
 _symmetry_equiv_pos_site_id
 _symmetry_equiv_pos_as_xyz
  1  'x, y, z'
loop_
 _atom_site_type_symbol
 _atom_site_label
 _atom_site_symmetry_multiplicity
 _atom_site_fract_x
 _atom_site_fract_y
 _atom_site_fract_z
 _atom_site_occupancy
  Tb  Tb0  1  0.978792  0.917832  0.186325  1
  Ho  Ho1  1  0.792642  0.582524  0.813763  1
  Ho  Ho2  1  0.023915  0.085031  0.814637  1
  Ho  Ho3  1  0.209083  0.414993  0.184982  1
  Ho  Ho4  1  0.642742  0.816278  0.435575  1
  Ho  Ho5  1  0.207378  0.683729  0.564705  1
  Ho  Ho6  1  0.355604  0.185993  0.563434  1
  Ho  Ho7  1  0.792389  0.314237  0.437028  1
  Ho  Ho8  1  0.422552  0.749751  0.999777  1
  Ho  Ho9  1  0.576016  0.250093  0.999818  1
  Ir  Ir10  1  0.823752  0.576041  0.221656  1
  Ir  Ir11  1  0.602570  0.923104  0.778531  1
  Ru  Ru12  1  0.175771  0.424993  0.779219  1
  Ru  Ru13  1  0.396793  0.075401  0.220550  1
