# generated using pymatgen
data_NaSr3(CrN3)2
_symmetry_space_group_name_H-M   'P 1'
_cell_length_a   6.16525317
_cell_length_b   6.16525265
_cell_length_c   12.22995164
_cell_angle_alpha   89.96439823
_cell_angle_beta   89.96438741
_cell_angle_gamma   125.55458869
_symmetry_Int_Tables_number   1
_chemical_formula_structural   NaSr3(CrN3)2
_chemical_formula_sum   'Na2 Sr6 Cr4 N12'
_cell_volume   378.19582135
_cell_formula_units_Z   2
loop_
 _symmetry_equiv_pos_site_id
 _symmetry_equiv_pos_as_xyz
  1  'x, y, z'
loop_
 _atom_site_type_symbol
 _atom_site_label
 _atom_site_symmetry_multiplicity
 _atom_site_fract_x
 _atom_site_fract_y
 _atom_site_fract_z
 _atom_site_occupancy
  Na  Na0  1  0.553379  0.942723  0.862947  1
  Na  Na1  1  0.942723  0.553379  0.362947  1
  Sr  Sr2  1  0.443902  0.052807  0.144030  1
  Sr  Sr3  1  0.052807  0.443902  0.644030  1
  Sr  Sr4  1  0.646216  0.856537  0.416163  1
  Sr  Sr5  1  0.140386  0.356438  0.080651  1
  Sr  Sr6  1  0.356438  0.140386  0.580651  1
  Sr  Sr7  1  0.856537  0.646216  0.916163  1
  Cr  Cr8  1  0.738497  0.760288  0.664022  1
  Cr  Cr9  1  0.260010  0.242841  0.336615  1
  Cr  Cr10  1  0.242841  0.260010  0.836615  1
  Cr  Cr11  1  0.760288  0.738497  0.164022  1
  N  N12  1  0.665870  0.839470  0.052426  1
  N  N13  1  0.162378  0.333905  0.450857  1
  N  N14  1  0.333905  0.162378  0.950857  1
  N  N15  1  0.839470  0.665870  0.552426  1
  N  N16  1  0.980525  0.021745  0.248408  1
  N  N17  1  0.021745  0.980525  0.748408  1
  N  N18  1  0.473754  0.525564  0.248341  1
  N  N19  1  0.096276  0.416136  0.868719  1
  N  N20  1  0.416136  0.096276  0.368719  1
  N  N21  1  0.907875  0.582480  0.126821  1
  N  N22  1  0.582480  0.907875  0.626821  1
  N  N23  1  0.525564  0.473754  0.748341  1
