# generated using pymatgen
data_Nb6FeCuS12
_symmetry_space_group_name_H-M   'P 1'
_cell_length_a   5.79054900
_cell_length_b   5.79055002
_cell_length_c   11.92363200
_cell_angle_alpha   90.00000000
_cell_angle_beta   90.00000000
_cell_angle_gamma   119.99998847
_symmetry_Int_Tables_number   1
_chemical_formula_structural   Nb6FeCuS12
_chemical_formula_sum   'Nb6 Fe1 Cu1 S12'
_cell_volume   346.24124793
_cell_formula_units_Z   1
loop_
 _symmetry_equiv_pos_site_id
 _symmetry_equiv_pos_as_xyz
  1  'x, y, z'
loop_
 _atom_site_type_symbol
 _atom_site_label
 _atom_site_symmetry_multiplicity
 _atom_site_fract_x
 _atom_site_fract_y
 _atom_site_fract_z
 _atom_site_occupancy
  Nb  Nb0  1  0.000000  0.000000  0.511258  1
  Nb  Nb1  1  0.000000  0.000000  0.988742  1
  Nb  Nb2  1  0.333333  0.666667  0.988460  1
  Nb  Nb3  1  0.666667  0.333333  0.993332  1
  Nb  Nb4  1  0.666667  0.333333  0.506668  1
  Nb  Nb5  1  0.333333  0.666667  0.511540  1
  Fe  Fe6  1  0.666667  0.333333  0.750000  1
  Cu  Cu7  1  0.333333  0.666667  0.250000  1
  S  S8  1  0.329850  0.329002  0.377047  1
  S  S9  1  0.670998  0.000848  0.377047  1
  S  S10  1  0.999152  0.670150  0.377047  1
  S  S11  1  0.338029  0.333801  0.640887  1
  S  S12  1  0.995772  0.661971  0.640887  1
  S  S13  1  0.666199  0.004228  0.640887  1
  S  S14  1  0.666199  0.661971  0.859113  1
  S  S15  1  0.338029  0.004228  0.859113  1
  S  S16  1  0.995772  0.333801  0.859113  1
  S  S17  1  0.670998  0.670150  0.122953  1
  S  S18  1  0.999152  0.329002  0.122953  1
  S  S19  1  0.329850  0.000848  0.122953  1
