# generated using pymatgen
data_TbErU(SnRu)3
_symmetry_space_group_name_H-M   'P 1'
_cell_length_a   7.85797117
_cell_length_b   7.35494365
_cell_length_c   3.88179000
_cell_angle_alpha   90.00000000
_cell_angle_beta   90.00000000
_cell_angle_gamma   122.31275468
_symmetry_Int_Tables_number   1
_chemical_formula_structural   TbErU(SnRu)3
_chemical_formula_sum   'Tb1 Er1 U1 Sn3 Ru3'
_cell_volume   189.60594237
_cell_formula_units_Z   1
loop_
 _symmetry_equiv_pos_site_id
 _symmetry_equiv_pos_as_xyz
  1  'x, y, z'
loop_
 _atom_site_type_symbol
 _atom_site_label
 _atom_site_symmetry_multiplicity
 _atom_site_fract_x
 _atom_site_fract_y
 _atom_site_fract_z
 _atom_site_occupancy
  Tb  Tb0  1  0.006315  0.406649  0.500000  1
  Er  Er1  1  0.600829  0.593843  0.500000  1
  U  U2  1  0.412459  0.000401  0.500000  1
  Sn  Sn3  1  0.984471  0.725005  0.000000  1
  Sn  Sn4  1  0.261048  0.275899  0.000000  1
  Sn  Sn5  1  0.758940  0.998418  0.000000  1
  Ru  Ru6  1  0.342731  0.721848  0.000000  1
  Ru  Ru7  1  0.620784  0.279583  0.000000  1
  Ru  Ru8  1  0.012424  0.998355  0.500000  1
