# generated using pymatgen
data_Pr4ThMn2O12
_symmetry_space_group_name_H-M   'P 1'
_cell_length_a   7.07033614
_cell_length_b   7.07033539
_cell_length_c   7.57884257
_cell_angle_alpha   74.42088797
_cell_angle_beta   74.42089184
_cell_angle_gamma   50.13685386
_symmetry_Int_Tables_number   1
_chemical_formula_structural   Pr4ThMn2O12
_chemical_formula_sum   'Pr4 Th1 Mn2 O12'
_cell_volume   277.73066715
_cell_formula_units_Z   1
loop_
 _symmetry_equiv_pos_site_id
 _symmetry_equiv_pos_as_xyz
  1  'x, y, z'
loop_
 _atom_site_type_symbol
 _atom_site_label
 _atom_site_symmetry_multiplicity
 _atom_site_fract_x
 _atom_site_fract_y
 _atom_site_fract_z
 _atom_site_occupancy
  Pr  Pr0  1  0.690561  0.690561  0.648558  1
  Pr  Pr1  1  0.694336  0.694336  0.158224  1
  Pr  Pr2  1  0.304240  0.304240  0.842813  1
  Pr  Pr3  1  0.999980  0.999980  0.499218  1
  Th  Th4  1  0.309592  0.309592  0.351158  1
  Mn  Mn5  1  0.759189  0.242148  0.999721  1
  Mn  Mn6  1  0.242148  0.759189  0.999721  1
  O  O7  1  0.099994  0.591386  0.569506  1
  O  O8  1  0.999562  0.999562  0.170571  1
  O  O9  1  0.399707  0.914682  0.421206  1
  O  O10  1  0.499429  0.499429  0.173224  1
  O  O11  1  0.103534  0.579734  0.084848  1
  O  O12  1  0.914682  0.399707  0.421206  1
  O  O13  1  0.999018  0.999018  0.830294  1
  O  O14  1  0.591386  0.099993  0.569506  1
  O  O15  1  0.498775  0.498775  0.831253  1
  O  O16  1  0.579734  0.103534  0.084848  1
  O  O17  1  0.415254  0.898881  0.922063  1
  O  O18  1  0.898881  0.415254  0.922063  1
