# generated using pymatgen
data_YTm5(Co3P2)6
_symmetry_space_group_name_H-M   'P 1'
_cell_length_a   3.67372200
_cell_length_b   10.47844700
_cell_length_c   12.12110300
_cell_angle_alpha   90.00000000
_cell_angle_beta   90.00000000
_cell_angle_gamma   90.00000000
_symmetry_Int_Tables_number   1
_chemical_formula_structural   YTm5(Co3P2)6
_chemical_formula_sum   'Y1 Tm5 Co18 P12'
_cell_volume   466.60066327
_cell_formula_units_Z   1
loop_
 _symmetry_equiv_pos_site_id
 _symmetry_equiv_pos_as_xyz
  1  'x, y, z'
loop_
 _atom_site_type_symbol
 _atom_site_label
 _atom_site_symmetry_multiplicity
 _atom_site_fract_x
 _atom_site_fract_y
 _atom_site_fract_z
 _atom_site_occupancy
  Y  Y0  1  0.000000  0.500000  0.522543  1
  Tm  Tm1  1  0.500000  0.000000  0.477251  1
  Tm  Tm2  1  0.500000  0.818363  0.206047  1
  Tm  Tm3  1  0.500000  0.181637  0.206047  1
  Tm  Tm4  1  0.000000  0.682064  0.794401  1
  Tm  Tm5  1  0.000000  0.317936  0.794401  1
  Co  Co6  1  0.500000  0.500000  0.158771  1
  Co  Co7  1  0.000000  0.000000  0.840139  1
  Co  Co8  1  0.500000  0.500000  0.704776  1
  Co  Co9  1  0.000000  0.000000  0.296544  1
  Co  Co10  1  0.000000  0.500000  0.986832  1
  Co  Co11  1  0.500000  0.000000  0.013807  1
  Co  Co12  1  0.500000  0.332873  0.994569  1
  Co  Co13  1  0.500000  0.667127  0.994569  1
  Co  Co14  1  0.000000  0.166623  0.005376  1
  Co  Co15  1  0.000000  0.833377  0.005376  1
  Co  Co16  1  0.500000  0.296100  0.430503  1
  Co  Co17  1  0.500000  0.703900  0.430503  1
  Co  Co18  1  0.000000  0.201364  0.569350  1
  Co  Co19  1  0.000000  0.798636  0.569350  1
  Co  Co20  1  0.500000  0.878878  0.709496  1
  Co  Co21  1  0.500000  0.121122  0.709496  1
  Co  Co22  1  0.000000  0.621871  0.290091  1
  Co  Co23  1  0.000000  0.378129  0.290091  1
  P  P24  1  0.500000  0.500000  0.882874  1
  P  P25  1  0.000000  0.000000  0.117850  1
  P  P26  1  0.500000  0.500000  0.343698  1
  P  P27  1  0.000000  0.000000  0.654487  1
  P  P28  1  0.500000  0.310540  0.617214  1
  P  P29  1  0.500000  0.689460  0.617214  1
  P  P30  1  0.000000  0.187860  0.383421  1
  P  P31  1  0.000000  0.812140  0.383421  1
  P  P32  1  0.500000  0.847091  0.892115  1
  P  P33  1  0.500000  0.152909  0.892115  1
  P  P34  1  0.000000  0.653751  0.107635  1
  P  P35  1  0.000000  0.346249  0.107635  1
