# generated using pymatgen
data_Cd2GaPt3
_symmetry_space_group_name_H-M   'P 1'
_cell_length_a   5.09516091
_cell_length_b   5.56552528
_cell_length_c   5.56552700
_cell_angle_alpha   59.99999573
_cell_angle_beta   56.89616567
_cell_angle_gamma   56.89616590
_symmetry_Int_Tables_number   1
_chemical_formula_structural   Cd2GaPt3
_chemical_formula_sum   'Cd2 Ga1 Pt3'
_cell_volume   106.07202970
_cell_formula_units_Z   1
loop_
 _symmetry_equiv_pos_site_id
 _symmetry_equiv_pos_as_xyz
  1  'x, y, z'
loop_
 _atom_site_type_symbol
 _atom_site_label
 _atom_site_symmetry_multiplicity
 _atom_site_fract_x
 _atom_site_fract_y
 _atom_site_fract_z
 _atom_site_occupancy
  Cd  Cd0  1  0.255881  0.248039  0.248039  1
  Cd  Cd1  1  0.994119  0.001961  0.001961  1
  Ga  Ga2  1  0.125000  0.625000  0.625000  1
  Pt  Pt3  1  0.625000  0.125000  0.625000  1
  Pt  Pt4  1  0.625000  0.625000  0.125000  1
  Pt  Pt5  1  0.625000  0.625000  0.625000  1
