# generated using pymatgen
data_HoEr(Tm3Bi2)6
_symmetry_space_group_name_H-M   'P 1'
_cell_length_a   8.16975101
_cell_length_b   9.44948400
_cell_length_c   11.88547701
_cell_angle_alpha   90.00000000
_cell_angle_beta   90.00482768
_cell_angle_gamma   90.00000000
_symmetry_Int_Tables_number   1
_chemical_formula_structural   HoEr(Tm3Bi2)6
_chemical_formula_sum   'Ho1 Er1 Tm18 Bi12'
_cell_volume   917.55800693
_cell_formula_units_Z   1
loop_
 _symmetry_equiv_pos_site_id
 _symmetry_equiv_pos_as_xyz
  1  'x, y, z'
loop_
 _atom_site_type_symbol
 _atom_site_label
 _atom_site_symmetry_multiplicity
 _atom_site_fract_x
 _atom_site_fract_y
 _atom_site_fract_z
 _atom_site_occupancy
  Ho  Ho0  1  0.186230  0.750000  0.718100  1
  Er  Er1  1  0.686255  0.750000  0.782079  1
  Tm  Tm2  1  0.353764  0.750000  0.217378  1
  Tm  Tm3  1  0.853729  0.750000  0.282639  1
  Tm  Tm4  1  0.646308  0.250000  0.782737  1
  Tm  Tm5  1  0.146344  0.250000  0.717226  1
  Tm  Tm6  1  0.692381  0.565636  0.059408  1
  Tm  Tm7  1  0.192367  0.934378  0.440549  1
  Tm  Tm8  1  0.307702  0.065611  0.940762  1
  Tm  Tm9  1  0.807721  0.434409  0.559256  1
  Tm  Tm10  1  0.307702  0.434389  0.940762  1
  Tm  Tm11  1  0.807721  0.065591  0.559256  1
  Tm  Tm12  1  0.692381  0.934364  0.059408  1
  Tm  Tm13  1  0.192367  0.565622  0.440549  1
  Tm  Tm14  1  0.476869  0.250000  0.488963  1
  Tm  Tm15  1  0.976824  0.250000  0.011031  1
  Tm  Tm16  1  0.523216  0.750000  0.510613  1
  Tm  Tm17  1  0.023040  0.750000  0.989398  1
  Tm  Tm18  1  0.313441  0.250000  0.217626  1
  Tm  Tm19  1  0.813471  0.250000  0.282409  1
  Bi  Bi20  1  0.404750  0.750000  0.957877  1
  Bi  Bi21  1  0.904255  0.750000  0.541955  1
  Bi  Bi22  1  0.595345  0.250000  0.042641  1
  Bi  Bi23  1  0.095372  0.250000  0.457354  1
  Bi  Bi24  1  0.566163  0.996375  0.325483  1
  Bi  Bi25  1  0.066200  0.503636  0.174492  1
  Bi  Bi26  1  0.434133  0.495720  0.674260  1
  Bi  Bi27  1  0.933728  0.004195  0.825777  1
  Bi  Bi28  1  0.434133  0.004280  0.674260  1
  Bi  Bi29  1  0.933728  0.495805  0.825777  1
  Bi  Bi30  1  0.566163  0.503625  0.325483  1
  Bi  Bi31  1  0.066200  0.996364  0.174492  1
