# generated using pymatgen
data_Lu20Si12F
_symmetry_space_group_name_H-M   'P 1'
_cell_length_a   14.31862400
_cell_length_b   6.12988892
_cell_length_c   8.21539605
_cell_angle_alpha   89.97510102
_cell_angle_beta   90.00000000
_cell_angle_gamma   90.00000000
_symmetry_Int_Tables_number   1
_chemical_formula_structural   Lu20Si12F
_chemical_formula_sum   'Lu20 Si12 F1'
_cell_volume   721.07817984
_cell_formula_units_Z   1
loop_
 _symmetry_equiv_pos_site_id
 _symmetry_equiv_pos_as_xyz
  1  'x, y, z'
loop_
 _atom_site_type_symbol
 _atom_site_label
 _atom_site_symmetry_multiplicity
 _atom_site_fract_x
 _atom_site_fract_y
 _atom_site_fract_z
 _atom_site_occupancy
  Lu  Lu0  1  0.667511  0.500000  0.500000  1
  Lu  Lu1  1  0.167560  0.500000  0.000000  1
  Lu  Lu2  1  0.832440  0.500000  0.000000  1
  Lu  Lu3  1  0.332489  0.500000  0.500000  1
  Lu  Lu4  1  0.833303  0.000000  0.000000  1
  Lu  Lu5  1  0.333909  0.000000  0.500000  1
  Lu  Lu6  1  0.666091  0.000000  0.500000  1
  Lu  Lu7  1  0.166697  0.000000  0.000000  1
  Lu  Lu8  1  0.500000  0.249549  0.757078  1
  Lu  Lu9  1  0.000000  0.248279  0.252516  1
  Lu  Lu10  1  0.620649  0.249839  0.122112  1
  Lu  Lu11  1  0.123045  0.243141  0.623734  1
  Lu  Lu12  1  0.876955  0.243141  0.623734  1
  Lu  Lu13  1  0.379351  0.249839  0.122112  1
  Lu  Lu14  1  0.000000  0.751721  0.747484  1
  Lu  Lu15  1  0.500000  0.750451  0.242922  1
  Lu  Lu16  1  0.876955  0.756859  0.376266  1
  Lu  Lu17  1  0.379351  0.750161  0.877888  1
  Lu  Lu18  1  0.620649  0.750161  0.877888  1
  Lu  Lu19  1  0.123045  0.756859  0.376266  1
  Si  Si20  1  0.000000  0.250545  0.892610  1
  Si  Si21  1  0.500000  0.250834  0.394009  1
  Si  Si22  1  0.803925  0.247464  0.304572  1
  Si  Si23  1  0.302955  0.248752  0.803834  1
  Si  Si24  1  0.697045  0.248752  0.803834  1
  Si  Si25  1  0.196075  0.247464  0.304572  1
  Si  Si26  1  0.500000  0.749166  0.605991  1
  Si  Si27  1  0.000000  0.749455  0.107390  1
  Si  Si28  1  0.697045  0.751248  0.196166  1
  Si  Si29  1  0.196075  0.752536  0.695428  1
  Si  Si30  1  0.803925  0.752536  0.695428  1
  Si  Si31  1  0.302955  0.751248  0.196166  1
  F  F32  1  0.000000  0.500000  0.500000  1
