# generated using pymatgen
data_Tb15DyIn4NiRh3
_symmetry_space_group_name_H-M   'P 1'
_cell_length_a   9.69147964
_cell_length_b   9.70065988
_cell_length_c   9.67125400
_cell_angle_alpha   60.10085460
_cell_angle_beta   60.06835836
_cell_angle_gamma   60.10765379
_symmetry_Int_Tables_number   1
_chemical_formula_structural   Tb15DyIn4NiRh3
_chemical_formula_sum   'Tb15 Dy1 In4 Ni1 Rh3'
_cell_volume   644.26759650
_cell_formula_units_Z   1
loop_
 _symmetry_equiv_pos_site_id
 _symmetry_equiv_pos_as_xyz
  1  'x, y, z'
loop_
 _atom_site_type_symbol
 _atom_site_label
 _atom_site_symmetry_multiplicity
 _atom_site_fract_x
 _atom_site_fract_y
 _atom_site_fract_z
 _atom_site_occupancy
  Tb  Tb0  1  0.810788  0.190495  0.810766  1
  Tb  Tb1  1  0.188422  0.190385  0.810598  1
  Tb  Tb2  1  0.649011  0.050176  0.650406  1
  Tb  Tb3  1  0.061492  0.061260  0.438624  1
  Tb  Tb4  1  0.436481  0.438465  0.062526  1
  Tb  Tb5  1  0.651920  0.649079  0.652682  1
  Tb  Tb6  1  0.810788  0.190496  0.187950  1
  Tb  Tb7  1  0.189718  0.810920  0.810064  1
  Tb  Tb8  1  0.047928  0.648184  0.651944  1
  Tb  Tb9  1  0.438315  0.061202  0.062093  1
  Tb  Tb10  1  0.438315  0.061201  0.438391  1
  Tb  Tb11  1  0.062070  0.438587  0.062594  1
  Tb  Tb12  1  0.651919  0.649079  0.046321  1
  Tb  Tb13  1  0.189717  0.810920  0.189299  1
  Tb  Tb14  1  0.062069  0.438587  0.436750  1
  Dy  Dy15  1  0.809936  0.810902  0.189582  1
  In  In16  1  0.417206  0.418043  0.416800  1
  In  In17  1  0.417212  0.418038  0.747949  1
  In  In18  1  0.418169  0.746097  0.417867  1
  In  In19  1  0.747642  0.418259  0.417051  1
  Ni  Ni20  1  0.858094  0.426541  0.857677  1
  Rh  Rh21  1  0.857876  0.857647  0.857950  1
  Rh  Rh22  1  0.857875  0.857644  0.426530  1
  Rh  Rh23  1  0.427036  0.857788  0.857586  1
