# generated using pymatgen
data_Ti4Mo2IrPt
_symmetry_space_group_name_H-M   'P 1'
_cell_length_a   6.25494100
_cell_length_b   4.43430900
_cell_length_c   8.87002300
_cell_angle_alpha   90.00000000
_cell_angle_beta   89.99957616
_cell_angle_gamma   90.00000000
_symmetry_Int_Tables_number   1
_chemical_formula_structural   Ti4Mo2IrPt
_chemical_formula_sum   'Ti8 Mo4 Ir2 Pt2'
_cell_volume   246.02198412
_cell_formula_units_Z   2
loop_
 _symmetry_equiv_pos_site_id
 _symmetry_equiv_pos_as_xyz
  1  'x, y, z'
loop_
 _atom_site_type_symbol
 _atom_site_label
 _atom_site_symmetry_multiplicity
 _atom_site_fract_x
 _atom_site_fract_y
 _atom_site_fract_z
 _atom_site_occupancy
  Ti  Ti0  1  0.997402  0.749999  0.121824  1
  Ti  Ti1  1  0.502560  0.749999  0.121826  1
  Ti  Ti2  1  0.002586  0.249999  0.378169  1
  Ti  Ti3  1  0.497429  0.249999  0.378168  1
  Ti  Ti4  1  0.496771  0.749999  0.627907  1
  Ti  Ti5  1  0.003222  0.749999  0.627903  1
  Ti  Ti6  1  0.503242  0.249999  0.872098  1
  Ti  Ti7  1  0.996787  0.249999  0.872100  1
  Mo  Mo8  1  0.750054  0.249999  0.126017  1
  Mo  Mo9  1  0.249934  0.749999  0.373968  1
  Mo  Mo10  1  0.750055  0.249999  0.624192  1
  Mo  Mo11  1  0.249957  0.749999  0.875825  1
  Ir  Ir12  1  0.249978  0.249999  0.625394  1
  Ir  Ir13  1  0.750030  0.749999  0.874608  1
  Pt  Pt14  1  0.249968  0.249999  0.124630  1
  Pt  Pt15  1  0.750024  0.749999  0.375369  1
