# generated using pymatgen
data_La17Y3Sn9Bi7
_symmetry_space_group_name_H-M   'P 1'
_cell_length_a   8.52583295
_cell_length_b   8.59903363
_cell_length_c   16.30662200
_cell_angle_alpha   89.95582398
_cell_angle_beta   90.20192395
_cell_angle_gamma   90.05591174
_symmetry_Int_Tables_number   1
_chemical_formula_structural   La17Y3Sn9Bi7
_chemical_formula_sum   'La17 Y3 Sn9 Bi7'
_cell_volume   1195.49410380
_cell_formula_units_Z   1
loop_
 _symmetry_equiv_pos_site_id
 _symmetry_equiv_pos_as_xyz
  1  'x, y, z'
loop_
 _atom_site_type_symbol
 _atom_site_label
 _atom_site_symmetry_multiplicity
 _atom_site_fract_x
 _atom_site_fract_y
 _atom_site_fract_z
 _atom_site_occupancy
  La  La0  1  0.069943  0.168295  0.388195  1
  La  La1  1  0.409119  0.837883  0.115611  1
  La  La2  1  0.092225  0.335410  0.617656  1
  La  La3  1  0.436688  0.672557  0.889444  1
  La  La4  1  0.904362  0.668510  0.117960  1
  La  La5  1  0.091715  0.334281  0.883114  1
  La  La6  1  0.430971  0.669185  0.612790  1
  La  La7  1  0.591928  0.165457  0.615718  1
  La  La8  1  0.763725  0.502922  0.750413  1
  La  La9  1  0.907402  0.664234  0.381548  1
  La  La10  1  0.062891  0.167867  0.109988  1
  La  La11  1  0.930406  0.831028  0.890834  1
  La  La12  1  0.596159  0.162204  0.885637  1
  La  La13  1  0.568155  0.326980  0.112858  1
  La  La14  1  0.406629  0.835326  0.383905  1
  La  La15  1  0.931019  0.829831  0.611567  1
  La  La16  1  0.570093  0.331893  0.385749  1
  Y  Y17  1  0.237446  0.497305  0.249165  1
  Y  Y18  1  0.737395  0.002408  0.246306  1
  Y  Y19  1  0.262840  0.997552  0.750474  1
  Sn  Sn20  1  0.627238  0.868664  0.749699  1
  Sn  Sn21  1  0.873276  0.361247  0.250029  1
  Sn  Sn22  1  0.603392  0.631918  0.250240  1
  Sn  Sn23  1  0.391273  0.367968  0.750828  1
  Sn  Sn24  1  0.133441  0.639772  0.750906  1
  Sn  Sn25  1  0.895686  0.125110  0.749678  1
  Sn  Sn26  1  0.741072  0.990940  0.050247  1
  Sn  Sn27  1  0.369384  0.136360  0.250126  1
  Sn  Sn28  1  0.106883  0.871019  0.250358  1
  Bi  Bi29  1  0.756580  0.492598  0.545585  1
  Bi  Bi30  1  0.742836  0.992856  0.448694  1
  Bi  Bi31  1  0.243026  0.506041  0.449734  1
  Bi  Bi32  1  0.258189  0.008957  0.949640  1
  Bi  Bi33  1  0.758649  0.489442  0.955136  1
  Bi  Bi34  1  0.241364  0.509028  0.049289  1
  Bi  Bi35  1  0.256600  0.006957  0.550875  1
