# generated using pymatgen
data_Cs8HfAs4
_symmetry_space_group_name_H-M   'P 1'
_cell_length_a   11.97769685
_cell_length_b   11.97769695
_cell_length_c   11.97769700
_cell_angle_alpha   60.00000263
_cell_angle_beta   60.00000236
_cell_angle_gamma   60.00000344
_symmetry_Int_Tables_number   1
_chemical_formula_structural   Cs8HfAs4
_chemical_formula_sum   'Cs16 Hf2 As8'
_cell_volume   1215.08032980
_cell_formula_units_Z   2
loop_
 _symmetry_equiv_pos_site_id
 _symmetry_equiv_pos_as_xyz
  1  'x, y, z'
loop_
 _atom_site_type_symbol
 _atom_site_label
 _atom_site_symmetry_multiplicity
 _atom_site_fract_x
 _atom_site_fract_y
 _atom_site_fract_z
 _atom_site_occupancy
  Cs  Cs0  1  0.625000  0.125000  0.625000  1
  Cs  Cs1  1  0.625000  0.625000  0.125000  1
  Cs  Cs2  1  0.125000  0.625000  0.625000  1
  Cs  Cs3  1  0.625000  0.625000  0.625000  1
  Cs  Cs4  1  0.025616  0.025616  0.474384  1
  Cs  Cs5  1  0.775616  0.224384  0.224384  1
  Cs  Cs6  1  0.224384  0.775616  0.775616  1
  Cs  Cs7  1  0.775616  0.775616  0.224384  1
  Cs  Cs8  1  0.775616  0.224384  0.775616  1
  Cs  Cs9  1  0.224384  0.775616  0.224384  1
  Cs  Cs10  1  0.474384  0.025616  0.474384  1
  Cs  Cs11  1  0.474384  0.025616  0.025616  1
  Cs  Cs12  1  0.025616  0.474384  0.474384  1
  Cs  Cs13  1  0.025616  0.474384  0.025616  1
  Cs  Cs14  1  0.224384  0.224384  0.775616  1
  Cs  Cs15  1  0.474384  0.474384  0.025616  1
  Hf  Hf16  1  0.750000  0.750000  0.750000  1
  Hf  Hf17  1  0.500000  0.500000  0.500000  1
  As  As18  1  0.408175  0.775475  0.408175  1
  As  As19  1  0.841825  0.841825  0.474525  1
  As  As20  1  0.474525  0.841825  0.841825  1
  As  As21  1  0.841825  0.841825  0.841825  1
  As  As22  1  0.775475  0.408175  0.408175  1
  As  As23  1  0.408175  0.408175  0.408175  1
  As  As24  1  0.408175  0.408175  0.775475  1
  As  As25  1  0.841825  0.474525  0.841825  1
