# generated using pymatgen
data_Cd2HgMo2O9
_symmetry_space_group_name_H-M   'P 1'
_cell_length_a   7.37168800
_cell_length_b   8.87193264
_cell_length_c   9.54366270
_cell_angle_alpha   118.12432056
_cell_angle_beta   90.00000000
_cell_angle_gamma   90.00000000
_symmetry_Int_Tables_number   1
_chemical_formula_structural   Cd2HgMo2O9
_chemical_formula_sum   'Cd4 Hg2 Mo4 O18'
_cell_volume   550.46895427
_cell_formula_units_Z   2
loop_
 _symmetry_equiv_pos_site_id
 _symmetry_equiv_pos_as_xyz
  1  'x, y, z'
loop_
 _atom_site_type_symbol
 _atom_site_label
 _atom_site_symmetry_multiplicity
 _atom_site_fract_x
 _atom_site_fract_y
 _atom_site_fract_z
 _atom_site_occupancy
  Cd  Cd0  1  0.249999  0.378999  0.222587  1
  Cd  Cd1  1  0.750000  0.883697  0.253144  1
  Cd  Cd2  1  0.249999  0.116303  0.746856  1
  Cd  Cd3  1  0.750000  0.621001  0.777413  1
  Hg  Hg4  1  0.999999  0.000000  0.000000  1
  Hg  Hg5  1  0.500003  0.000000  0.000000  1
  Mo  Mo6  1  0.249999  0.834465  0.287725  1
  Mo  Mo7  1  0.750000  0.464306  0.309814  1
  Mo  Mo8  1  0.249999  0.535694  0.690188  1
  Mo  Mo9  1  0.750000  0.165535  0.712272  1
  O  O10  1  0.750000  0.885189  0.007586  1
  O  O11  1  0.249999  0.606182  0.184115  1
  O  O12  1  0.552409  0.335867  0.214156  1
  O  O13  1  0.947589  0.335867  0.214156  1
  O  O14  1  0.051130  0.914032  0.232194  1
  O  O15  1  0.448867  0.914032  0.232194  1
  O  O16  1  0.750000  0.655056  0.290386  1
  O  O17  1  0.249999  0.480167  0.485157  1
  O  O18  1  0.249999  0.905329  0.495801  1
  O  O19  1  0.750000  0.094667  0.504191  1
  O  O20  1  0.750000  0.519832  0.514846  1
  O  O21  1  0.249999  0.344946  0.709618  1
  O  O22  1  0.551123  0.085964  0.767807  1
  O  O23  1  0.948876  0.085964  0.767807  1
  O  O24  1  0.052412  0.664133  0.785845  1
  O  O25  1  0.447590  0.664133  0.785845  1
  O  O26  1  0.750000  0.393826  0.815889  1
  O  O27  1  0.249999  0.114816  0.992415  1
