# generated using pymatgen
data_LuNb8CdSe16
_symmetry_space_group_name_H-M   'P 1'
_cell_length_a   7.02238600
_cell_length_b   7.02238592
_cell_length_c   14.47327300
_cell_angle_alpha   90.00000000
_cell_angle_beta   90.00000000
_cell_angle_gamma   120.00000980
_symmetry_Int_Tables_number   1
_chemical_formula_structural   LuNb8CdSe16
_chemical_formula_sum   'Lu1 Nb8 Cd1 Se16'
_cell_volume   618.11137104
_cell_formula_units_Z   1
loop_
 _symmetry_equiv_pos_site_id
 _symmetry_equiv_pos_as_xyz
  1  'x, y, z'
loop_
 _atom_site_type_symbol
 _atom_site_label
 _atom_site_symmetry_multiplicity
 _atom_site_fract_x
 _atom_site_fract_y
 _atom_site_fract_z
 _atom_site_occupancy
  Lu  Lu0  1  0.000000  0.000000  0.000000  1
  Nb  Nb1  1  0.000000  0.000000  0.238360  1
  Nb  Nb2  1  0.000000  0.000000  0.761640  1
  Nb  Nb3  1  0.506363  0.493637  0.242681  1
  Nb  Nb4  1  0.506363  0.012728  0.242681  1
  Nb  Nb5  1  0.987272  0.493637  0.242681  1
  Nb  Nb6  1  0.493637  0.506363  0.757319  1
  Nb  Nb7  1  0.493637  0.987272  0.757319  1
  Nb  Nb8  1  0.012728  0.506363  0.757319  1
  Cd  Cd9  1  0.000000  0.000000  0.500000  1
  Se  Se10  1  0.333333  0.666667  0.876496  1
  Se  Se11  1  0.666667  0.333333  0.123504  1
  Se  Se12  1  0.666667  0.333333  0.360584  1
  Se  Se13  1  0.333333  0.666667  0.639416  1
  Se  Se14  1  0.165152  0.834848  0.355196  1
  Se  Se15  1  0.165152  0.330303  0.355196  1
  Se  Se16  1  0.669697  0.834848  0.355196  1
  Se  Se17  1  0.834848  0.165152  0.644804  1
  Se  Se18  1  0.834848  0.669697  0.644804  1
  Se  Se19  1  0.330303  0.165152  0.644804  1
  Se  Se20  1  0.829067  0.170933  0.873461  1
  Se  Se21  1  0.829067  0.658136  0.873461  1
  Se  Se22  1  0.341864  0.170933  0.873461  1
  Se  Se23  1  0.170933  0.829067  0.126539  1
  Se  Se24  1  0.170933  0.341864  0.126539  1
  Se  Se25  1  0.658136  0.829067  0.126539  1
