# generated using pymatgen
data_Y2AlZn16
_symmetry_space_group_name_H-M   'P 1'
_cell_length_a   6.81114162
_cell_length_b   6.81114131
_cell_length_c   6.81114117
_cell_angle_alpha   82.72565388
_cell_angle_beta   82.72565118
_cell_angle_gamma   82.72564318
_symmetry_Int_Tables_number   1
_chemical_formula_structural   Y2AlZn16
_chemical_formula_sum   'Y2 Al1 Zn16'
_cell_volume   308.94414265
_cell_formula_units_Z   1
loop_
 _symmetry_equiv_pos_site_id
 _symmetry_equiv_pos_as_xyz
  1  'x, y, z'
loop_
 _atom_site_type_symbol
 _atom_site_label
 _atom_site_symmetry_multiplicity
 _atom_site_fract_x
 _atom_site_fract_y
 _atom_site_fract_z
 _atom_site_occupancy
  Y  Y0  1  0.665596  0.665596  0.665596  1
  Y  Y1  1  0.334763  0.334763  0.334763  1
  Al  Al2  1  0.098613  0.098613  0.098613  1
  Zn  Zn3  1  0.352231  0.838715  0.352231  1
  Zn  Zn4  1  0.352231  0.352231  0.838715  1
  Zn  Zn5  1  0.838715  0.352231  0.352231  1
  Zn  Zn6  1  0.649041  0.160878  0.649041  1
  Zn  Zn7  1  0.649041  0.649041  0.160878  1
  Zn  Zn8  1  0.160878  0.649041  0.649041  1
  Zn  Zn9  1  0.299754  0.700620  0.999643  1
  Zn  Zn10  1  0.999643  0.299754  0.700620  1
  Zn  Zn11  1  0.700620  0.999643  0.299754  1
  Zn  Zn12  1  0.999643  0.700620  0.299754  1
  Zn  Zn13  1  0.299754  0.999643  0.700620  1
  Zn  Zn14  1  0.700620  0.299754  0.999643  1
  Zn  Zn15  1  0.999032  0.999032  0.502826  1
  Zn  Zn16  1  0.502826  0.999032  0.999032  1
  Zn  Zn17  1  0.999032  0.502826  0.999032  1
  Zn  Zn18  1  0.897966  0.897966  0.897966  1
