# generated using pymatgen
data_Hf10Be2SnSb5
_symmetry_space_group_name_H-M   'P 1'
_cell_length_a   8.50568373
_cell_length_b   8.50568418
_cell_length_c   5.74312200
_cell_angle_alpha   90.00000000
_cell_angle_beta   90.00000000
_cell_angle_gamma   120.00622685
_symmetry_Int_Tables_number   1
_chemical_formula_structural   Hf10Be2SnSb5
_chemical_formula_sum   'Hf10 Be2 Sn1 Sb5'
_cell_volume   359.80724450
_cell_formula_units_Z   1
loop_
 _symmetry_equiv_pos_site_id
 _symmetry_equiv_pos_as_xyz
  1  'x, y, z'
loop_
 _atom_site_type_symbol
 _atom_site_label
 _atom_site_symmetry_multiplicity
 _atom_site_fract_x
 _atom_site_fract_y
 _atom_site_fract_z
 _atom_site_occupancy
  Hf  Hf0  1  0.667549  0.332993  0.999550  1
  Hf  Hf1  1  0.332993  0.667549  0.999550  1
  Hf  Hf2  1  0.332993  0.667549  0.500450  1
  Hf  Hf3  1  0.667549  0.332993  0.500450  1
  Hf  Hf4  1  0.748884  0.748884  0.750000  1
  Hf  Hf5  1  0.252124  0.000220  0.750000  1
  Hf  Hf6  1  0.000220  0.252124  0.750000  1
  Hf  Hf7  1  0.249290  0.249290  0.250000  1
  Hf  Hf8  1  0.749601  0.999540  0.250000  1
  Hf  Hf9  1  0.999540  0.749601  0.250000  1
  Be  Be10  1  0.000295  0.000295  0.502248  1
  Be  Be11  1  0.000295  0.000295  0.997752  1
  Sn  Sn12  1  0.391113  0.391113  0.750000  1
  Sb  Sb13  1  0.608786  0.000362  0.750000  1
  Sb  Sb14  1  0.000362  0.608786  0.750000  1
  Sb  Sb15  1  0.606045  0.606045  0.250000  1
  Sb  Sb16  1  0.392089  0.000270  0.250000  1
  Sb  Sb17  1  0.000270  0.392089  0.250000  1
