# generated using pymatgen
data_Ho4TiTc3B16
_symmetry_space_group_name_H-M   'P 1'
_cell_length_a   3.59034100
_cell_length_b   5.97953274
_cell_length_c   11.55353601
_cell_angle_alpha   90.13308047
_cell_angle_beta   90.00000000
_cell_angle_gamma   90.00000000
_symmetry_Int_Tables_number   1
_chemical_formula_structural   Ho4TiTc3B16
_chemical_formula_sum   'Ho4 Ti1 Tc3 B16'
_cell_volume   248.03713018
_cell_formula_units_Z   1
loop_
 _symmetry_equiv_pos_site_id
 _symmetry_equiv_pos_as_xyz
  1  'x, y, z'
loop_
 _atom_site_type_symbol
 _atom_site_label
 _atom_site_symmetry_multiplicity
 _atom_site_fract_x
 _atom_site_fract_y
 _atom_site_fract_z
 _atom_site_occupancy
  Ho  Ho0  1  0.500000  0.124462  0.649988  1
  Ho  Ho1  1  0.500000  0.874504  0.351085  1
  Ho  Ho2  1  0.500000  0.627256  0.847897  1
  Ho  Ho3  1  0.500000  0.373191  0.151055  1
  Ti  Ti4  1  0.500000  0.370440  0.416378  1
  Tc  Tc5  1  0.500000  0.132930  0.914542  1
  Tc  Tc6  1  0.500000  0.866228  0.083318  1
  Tc  Tc7  1  0.500000  0.629096  0.587006  1
  B  B8  1  0.000000  0.477536  0.692897  1
  B  B9  1  0.000000  0.525336  0.306232  1
  B  B10  1  0.000000  0.977552  0.807355  1
  B  B11  1  0.000000  0.021959  0.192548  1
  B  B12  1  0.000000  0.285592  0.814223  1
  B  B13  1  0.000000  0.714828  0.184944  1
  B  B14  1  0.000000  0.786943  0.684971  1
  B  B15  1  0.000000  0.209581  0.312733  1
  B  B16  1  0.000000  0.364765  0.968364  1
  B  B17  1  0.000000  0.635839  0.031355  1
  B  B18  1  0.000000  0.864285  0.532800  1
  B  B19  1  0.000000  0.132874  0.468430  1
  B  B20  1  0.000000  0.387930  0.548267  1
  B  B21  1  0.000000  0.615761  0.454209  1
  B  B22  1  0.000000  0.887455  0.952085  1
  B  B23  1  0.000000  0.113655  0.047317  1
