# generated using pymatgen
data_TbEr15(TmSn4)4
_symmetry_space_group_name_H-M   'P 1'
_cell_length_a   7.97676072
_cell_length_b   8.09778078
_cell_length_c   15.34159909
_cell_angle_alpha   90.00459322
_cell_angle_beta   89.89415371
_cell_angle_gamma   89.93928756
_symmetry_Int_Tables_number   1
_chemical_formula_structural   TbEr15(TmSn4)4
_chemical_formula_sum   'Tb1 Er15 Tm4 Sn16'
_cell_volume   990.97391565
_cell_formula_units_Z   1
loop_
 _symmetry_equiv_pos_site_id
 _symmetry_equiv_pos_as_xyz
  1  'x, y, z'
loop_
 _atom_site_type_symbol
 _atom_site_label
 _atom_site_symmetry_multiplicity
 _atom_site_fract_x
 _atom_site_fract_y
 _atom_site_fract_z
 _atom_site_occupancy
  Tb  Tb0  1  0.020697  0.179474  0.903402  1
  Er  Er1  1  0.367747  0.837099  0.877173  1
  Er  Er2  1  0.868322  0.663014  0.622243  1
  Er  Er3  1  0.631576  0.162750  0.377368  1
  Er  Er4  1  0.132469  0.337517  0.122964  1
  Er  Er5  1  0.632567  0.162821  0.122906  1
  Er  Er6  1  0.131671  0.337223  0.377384  1
  Er  Er7  1  0.368511  0.837041  0.622434  1
  Er  Er8  1  0.868054  0.662697  0.877321  1
  Er  Er9  1  0.522034  0.321095  0.903015  1
  Er  Er10  1  0.022575  0.179299  0.597259  1
  Er  Er11  1  0.477703  0.679124  0.402887  1
  Er  Er12  1  0.978329  0.820394  0.097112  1
  Er  Er13  1  0.478176  0.679354  0.097087  1
  Er  Er14  1  0.977713  0.820894  0.402942  1
  Er  Er15  1  0.522305  0.321047  0.596656  1
  Tm  Tm16  1  0.198660  0.503563  0.749684  1
  Tm  Tm17  1  0.698385  0.996279  0.749593  1
  Tm  Tm18  1  0.801456  0.496495  0.250151  1
  Tm  Tm19  1  0.301580  0.003464  0.250180  1
  Sn  Sn20  1  0.293560  0.035438  0.042347  1
  Sn  Sn21  1  0.791956  0.463854  0.458351  1
  Sn  Sn22  1  0.708109  0.964273  0.541511  1
  Sn  Sn23  1  0.208217  0.537286  0.958721  1
  Sn  Sn24  1  0.705443  0.962072  0.958835  1
  Sn  Sn25  1  0.207985  0.536150  0.541454  1
  Sn  Sn26  1  0.292047  0.036059  0.458432  1
  Sn  Sn27  1  0.792434  0.463641  0.041581  1
  Sn  Sn28  1  0.564666  0.618994  0.749885  1
  Sn  Sn29  1  0.064658  0.880359  0.749869  1
  Sn  Sn30  1  0.435430  0.381278  0.250081  1
  Sn  Sn31  1  0.935464  0.118971  0.250167  1
  Sn  Sn32  1  0.332388  0.149321  0.749749  1
  Sn  Sn33  1  0.830521  0.351524  0.749217  1
  Sn  Sn34  1  0.668338  0.850647  0.249975  1
  Sn  Sn35  1  0.168252  0.649492  0.250070  1
