# generated using pymatgen
data_Pt3(PbS)2
_symmetry_space_group_name_H-M   'P 1'
_cell_length_a   7.43313522
_cell_length_b   7.43313465
_cell_length_c   7.43313500
_cell_angle_alpha   109.47122432
_cell_angle_beta   109.47122276
_cell_angle_gamma   109.47121621
_symmetry_Int_Tables_number   1
_chemical_formula_structural   Pt3(PbS)2
_chemical_formula_sum   'Pt6 Pb4 S4'
_cell_volume   316.15070561
_cell_formula_units_Z   2
loop_
 _symmetry_equiv_pos_site_id
 _symmetry_equiv_pos_as_xyz
  1  'x, y, z'
loop_
 _atom_site_type_symbol
 _atom_site_label
 _atom_site_symmetry_multiplicity
 _atom_site_fract_x
 _atom_site_fract_y
 _atom_site_fract_z
 _atom_site_occupancy
  Pt  Pt0  1  0.968334  0.218334  0.750000  1
  Pt  Pt1  1  0.750000  0.968334  0.218334  1
  Pt  Pt2  1  0.218334  0.750000  0.968334  1
  Pt  Pt3  1  0.531666  0.281666  0.250000  1
  Pt  Pt4  1  0.250000  0.531666  0.281666  1
  Pt  Pt5  1  0.281666  0.250000  0.531666  1
  Pb  Pb6  1  0.501715  0.500000  0.000000  1
  Pb  Pb7  1  0.500000  0.000000  0.501715  1
  Pb  Pb8  1  0.998285  0.998285  0.998285  1
  Pb  Pb9  1  0.000000  0.501715  0.500000  1
  S  S10  1  0.500000  0.000000  0.958319  1
  S  S11  1  0.541681  0.541681  0.541681  1
  S  S12  1  0.000000  0.958319  0.500000  1
  S  S13  1  0.958319  0.500000  0.000000  1
