# generated using pymatgen
data_NaCa20NdGa14
_symmetry_space_group_name_H-M   'P 1'
_cell_length_a   11.40747798
_cell_length_b   11.40747901
_cell_length_c   11.40747932
_cell_angle_alpha   59.48540140
_cell_angle_beta   59.48539684
_cell_angle_gamma   59.48540136
_symmetry_Int_Tables_number   1
_chemical_formula_structural   NaCa20NdGa14
_chemical_formula_sum   'Na1 Ca20 Nd1 Ga14'
_cell_volume   1037.38714266
_cell_formula_units_Z   1
loop_
 _symmetry_equiv_pos_site_id
 _symmetry_equiv_pos_as_xyz
  1  'x, y, z'
loop_
 _atom_site_type_symbol
 _atom_site_label
 _atom_site_symmetry_multiplicity
 _atom_site_fract_x
 _atom_site_fract_y
 _atom_site_fract_z
 _atom_site_occupancy
  Na  Na0  1  0.500137  0.500137  0.500137  1
  Ca  Ca1  1  0.999036  0.999036  0.999036  1
  Ca  Ca2  1  0.387404  0.871459  0.871459  1
  Ca  Ca3  1  0.871459  0.387404  0.871459  1
  Ca  Ca4  1  0.871459  0.871459  0.387404  1
  Ca  Ca5  1  0.129395  0.612535  0.129395  1
  Ca  Ca6  1  0.129395  0.129395  0.612535  1
  Ca  Ca7  1  0.612535  0.129395  0.129395  1
  Ca  Ca8  1  0.870839  0.870839  0.870839  1
  Ca  Ca9  1  0.500324  0.832903  0.500324  1
  Ca  Ca10  1  0.832903  0.500324  0.500324  1
  Ca  Ca11  1  0.500163  0.832692  0.166826  1
  Ca  Ca12  1  0.166826  0.500163  0.832692  1
  Ca  Ca13  1  0.832692  0.500163  0.166826  1
  Ca  Ca14  1  0.500324  0.500324  0.832903  1
  Ca  Ca15  1  0.166826  0.832692  0.500163  1
  Ca  Ca16  1  0.500163  0.166826  0.832692  1
  Ca  Ca17  1  0.498989  0.498989  0.167852  1
  Ca  Ca18  1  0.832692  0.166826  0.500163  1
  Ca  Ca19  1  0.167852  0.498989  0.498989  1
  Ca  Ca20  1  0.498989  0.167852  0.498989  1
  Nd  Nd21  1  0.128531  0.128531  0.128531  1
  Ga  Ga22  1  0.216813  0.787778  0.216813  1
  Ga  Ga23  1  0.217778  0.781456  0.781456  1
  Ga  Ga24  1  0.787778  0.216813  0.216813  1
  Ga  Ga25  1  0.781456  0.781456  0.217778  1
  Ga  Ga26  1  0.216813  0.216813  0.787778  1
  Ga  Ga27  1  0.781456  0.217778  0.781456  1
  Ga  Ga28  1  0.309103  0.309102  0.309102  1
  Ga  Ga29  1  0.928237  0.690347  0.690347  1
  Ga  Ga30  1  0.690347  0.928237  0.690347  1
  Ga  Ga31  1  0.690347  0.690347  0.928237  1
  Ga  Ga32  1  0.309515  0.071469  0.309515  1
  Ga  Ga33  1  0.309515  0.309515  0.071469  1
  Ga  Ga34  1  0.071469  0.309515  0.309515  1
  Ga  Ga35  1  0.690442  0.690442  0.690441  1
