# generated using pymatgen
data_Ba5LiAg5
_symmetry_space_group_name_H-M   'P 1'
_cell_length_a   17.67576559
_cell_length_b   17.67576602
_cell_length_c   4.85393600
_cell_angle_alpha   90.00000000
_cell_angle_beta   90.00000000
_cell_angle_gamma   164.78834051
_symmetry_Int_Tables_number   1
_chemical_formula_structural   Ba5LiAg5
_chemical_formula_sum   'Ba5 Li1 Ag5'
_cell_volume   397.91511687
_cell_formula_units_Z   1
loop_
 _symmetry_equiv_pos_site_id
 _symmetry_equiv_pos_as_xyz
  1  'x, y, z'
loop_
 _atom_site_type_symbol
 _atom_site_label
 _atom_site_symmetry_multiplicity
 _atom_site_fract_x
 _atom_site_fract_y
 _atom_site_fract_z
 _atom_site_occupancy
  Ba  Ba0  1  0.002178  0.997822  0.000000  1
  Ba  Ba1  1  0.614045  0.385953  0.000000  1
  Ba  Ba2  1  0.383747  0.616251  0.000000  1
  Ba  Ba3  1  0.800482  0.199516  0.500001  1
  Ba  Ba4  1  0.197713  0.802285  0.500001  1
  Li  Li5  1  0.917950  0.082049  0.500001  1
  Ag  Ag6  1  0.723188  0.276810  0.000000  1
  Ag  Ag7  1  0.275281  0.724717  0.000000  1
  Ag  Ag8  1  0.540388  0.459610  0.500001  1
  Ag  Ag9  1  0.457458  0.542540  0.500001  1
  Ag  Ag10  1  0.087561  0.912438  0.500001  1
