# generated using pymatgen
data_Mo2Ru4PtRh
_symmetry_space_group_name_H-M   'P 1'
_cell_length_a   5.50905937
_cell_length_b   5.50905950
_cell_length_c   4.40152000
_cell_angle_alpha   90.00000000
_cell_angle_beta   90.00000000
_cell_angle_gamma   119.55723518
_symmetry_Int_Tables_number   1
_chemical_formula_structural   Mo2Ru4PtRh
_chemical_formula_sum   'Mo2 Ru4 Pt1 Rh1'
_cell_volume   116.20067023
_cell_formula_units_Z   1
loop_
 _symmetry_equiv_pos_site_id
 _symmetry_equiv_pos_as_xyz
  1  'x, y, z'
loop_
 _atom_site_type_symbol
 _atom_site_label
 _atom_site_symmetry_multiplicity
 _atom_site_fract_x
 _atom_site_fract_y
 _atom_site_fract_z
 _atom_site_occupancy
  Mo  Mo0  1  0.663950  0.336050  0.250000  1
  Mo  Mo1  1  0.339905  0.660095  0.750000  1
  Ru  Ru2  1  0.331993  0.172004  0.750000  1
  Ru  Ru3  1  0.827996  0.668007  0.750000  1
  Ru  Ru4  1  0.667596  0.830893  0.250000  1
  Ru  Ru5  1  0.169107  0.332404  0.250000  1
  Pt  Pt6  1  0.166117  0.833883  0.250000  1
  Rh  Rh7  1  0.833336  0.166664  0.750000  1
