# generated using pymatgen
data_SrYb7(Si3Pd)4
_symmetry_space_group_name_H-M   'P 1'
_cell_length_a   8.28948153
_cell_length_b   8.28948187
_cell_length_c   8.33381900
_cell_angle_alpha   90.00000000
_cell_angle_beta   90.00000000
_cell_angle_gamma   120.00802880
_symmetry_Int_Tables_number   1
_chemical_formula_structural   SrYb7(Si3Pd)4
_chemical_formula_sum   'Sr1 Yb7 Si12 Pd4'
_cell_volume   495.90022870
_cell_formula_units_Z   1
loop_
 _symmetry_equiv_pos_site_id
 _symmetry_equiv_pos_as_xyz
  1  'x, y, z'
loop_
 _atom_site_type_symbol
 _atom_site_label
 _atom_site_symmetry_multiplicity
 _atom_site_fract_x
 _atom_site_fract_y
 _atom_site_fract_z
 _atom_site_occupancy
  Sr  Sr0  1  0.499376  0.500624  0.750000  1
  Yb  Yb1  1  0.500497  0.499503  0.250000  1
  Yb  Yb2  1  0.000613  0.500339  0.750000  1
  Yb  Yb3  1  0.999099  0.499574  0.250000  1
  Yb  Yb4  1  0.499661  0.999387  0.750000  1
  Yb  Yb5  1  0.500426  0.000901  0.250000  1
  Yb  Yb6  1  0.999996  0.000004  0.750000  1
  Yb  Yb7  1  0.000061  0.999939  0.250000  1
  Si  Si8  1  0.836096  0.163904  0.000495  1
  Si  Si9  1  0.163969  0.836031  0.000551  1
  Si  Si10  1  0.327277  0.162531  0.004686  1
  Si  Si11  1  0.163969  0.836031  0.499449  1
  Si  Si12  1  0.672742  0.837483  0.005061  1
  Si  Si13  1  0.836096  0.163904  0.499505  1
  Si  Si14  1  0.837469  0.672723  0.004686  1
  Si  Si15  1  0.672742  0.837483  0.494939  1
  Si  Si16  1  0.162517  0.327258  0.005061  1
  Si  Si17  1  0.327277  0.162531  0.495314  1
  Si  Si18  1  0.162517  0.327258  0.494939  1
  Si  Si19  1  0.837469  0.672723  0.495314  1
  Pd  Pd20  1  0.668013  0.331987  0.005009  1
  Pd  Pd21  1  0.332054  0.667946  0.008106  1
  Pd  Pd22  1  0.332054  0.667946  0.491894  1
  Pd  Pd23  1  0.668013  0.331987  0.494991  1
