# generated using pymatgen
data_Lu2GaIrRu
_symmetry_space_group_name_H-M   'P 1'
_cell_length_a   4.03644020
_cell_length_b   5.44122229
_cell_length_c   5.44122396
_cell_angle_alpha   64.86487291
_cell_angle_beta   68.22806781
_cell_angle_gamma   68.22807510
_symmetry_Int_Tables_number   1
_chemical_formula_structural   Lu2GaIrRu
_chemical_formula_sum   'Lu2 Ga1 Ir1 Ru1'
_cell_volume   97.18336018
_cell_formula_units_Z   1
loop_
 _symmetry_equiv_pos_site_id
 _symmetry_equiv_pos_as_xyz
  1  'x, y, z'
loop_
 _atom_site_type_symbol
 _atom_site_label
 _atom_site_symmetry_multiplicity
 _atom_site_fract_x
 _atom_site_fract_y
 _atom_site_fract_z
 _atom_site_occupancy
  Lu  Lu0  1  0.204009  0.293663  0.298319  1
  Lu  Lu1  1  0.795991  0.701681  0.706337  1
  Ga  Ga2  1  0.000000  0.005615  0.994385  1
  Ir  Ir3  1  0.500000  0.729023  0.270977  1
  Ru  Ru4  1  0.500000  0.270018  0.729982  1
