# generated using pymatgen
data_CaYFe3Re14C3
_symmetry_space_group_name_H-M   'P 1'
_cell_length_a   6.93362219
_cell_length_b   6.93362210
_cell_length_c   6.93362221
_cell_angle_alpha   82.51360686
_cell_angle_beta   82.51360323
_cell_angle_gamma   82.51359803
_symmetry_Int_Tables_number   1
_chemical_formula_structural   CaYFe3Re14C3
_chemical_formula_sum   'Ca1 Y1 Fe3 Re14 C3'
_cell_volume   325.49180663
_cell_formula_units_Z   1
loop_
 _symmetry_equiv_pos_site_id
 _symmetry_equiv_pos_as_xyz
  1  'x, y, z'
loop_
 _atom_site_type_symbol
 _atom_site_label
 _atom_site_symmetry_multiplicity
 _atom_site_fract_x
 _atom_site_fract_y
 _atom_site_fract_z
 _atom_site_occupancy
  Ca  Ca0  1  0.648558  0.648558  0.648558  1
  Y  Y1  1  0.351411  0.351411  0.351411  1
  Fe  Fe2  1  0.999561  0.999561  0.500097  1
  Fe  Fe3  1  0.500097  0.999561  0.999561  1
  Fe  Fe4  1  0.999561  0.500097  0.999561  1
  Re  Re5  1  0.721547  0.278150  0.000139  1
  Re  Re6  1  0.000139  0.721547  0.278150  1
  Re  Re7  1  0.278150  0.000139  0.721547  1
  Re  Re8  1  0.000139  0.278150  0.721547  1
  Re  Re9  1  0.721547  0.000139  0.278150  1
  Re  Re10  1  0.278150  0.721547  0.000139  1
  Re  Re11  1  0.346071  0.346071  0.861679  1
  Re  Re12  1  0.861679  0.346071  0.346071  1
  Re  Re13  1  0.346071  0.861679  0.346071  1
  Re  Re14  1  0.653873  0.653873  0.139223  1
  Re  Re15  1  0.139223  0.653873  0.653873  1
  Re  Re16  1  0.653873  0.139223  0.653873  1
  Re  Re17  1  0.898323  0.898323  0.898323  1
  Re  Re18  1  0.102046  0.102046  0.102046  1
  C  C19  1  0.499747  0.499747  0.000484  1
  C  C20  1  0.000484  0.499747  0.499747  1
  C  C21  1  0.499747  0.000484  0.499747  1
