# generated using pymatgen
data_Er9Sc11Sn16
_symmetry_space_group_name_H-M   'P 1'
_cell_length_a   7.72687179
_cell_length_b   7.92596394
_cell_length_c   14.90309500
_cell_angle_alpha   90.09306454
_cell_angle_beta   90.08640857
_cell_angle_gamma   90.06079898
_symmetry_Int_Tables_number   1
_chemical_formula_structural   Er9Sc11Sn16
_chemical_formula_sum   'Er9 Sc11 Sn16'
_cell_volume   912.70610504
_cell_formula_units_Z   1
loop_
 _symmetry_equiv_pos_site_id
 _symmetry_equiv_pos_as_xyz
  1  'x, y, z'
loop_
 _atom_site_type_symbol
 _atom_site_label
 _atom_site_symmetry_multiplicity
 _atom_site_fract_x
 _atom_site_fract_y
 _atom_site_fract_z
 _atom_site_occupancy
  Er  Er0  1  0.851879  0.662916  0.876254  1
  Er  Er1  1  0.513892  0.322183  0.905471  1
  Er  Er2  1  0.013934  0.177892  0.592357  1
  Er  Er3  1  0.486416  0.677624  0.405969  1
  Er  Er4  1  0.985826  0.822344  0.096478  1
  Er  Er5  1  0.487771  0.677001  0.095303  1
  Er  Er6  1  0.986495  0.822455  0.405314  1
  Er  Er7  1  0.512665  0.321395  0.593089  1
  Er  Er8  1  0.013821  0.178199  0.905341  1
  Sc  Sc9  1  0.350193  0.837770  0.872495  1
  Sc  Sc10  1  0.849973  0.661570  0.625505  1
  Sc  Sc11  1  0.649586  0.160740  0.373497  1
  Sc  Sc12  1  0.149270  0.338599  0.126912  1
  Sc  Sc13  1  0.646890  0.160281  0.129647  1
  Sc  Sc14  1  0.149606  0.338843  0.373670  1
  Sc  Sc15  1  0.351139  0.839995  0.624343  1
  Sc  Sc16  1  0.181188  0.504339  0.749388  1
  Sc  Sc17  1  0.680042  0.995257  0.749019  1
  Sc  Sc18  1  0.819161  0.494205  0.251017  1
  Sc  Sc19  1  0.318977  0.004680  0.249854  1
  Sn  Sn20  1  0.308945  0.042074  0.042375  1
  Sn  Sn21  1  0.810032  0.457100  0.457580  1
  Sn  Sn22  1  0.691236  0.956900  0.541292  1
  Sn  Sn23  1  0.198967  0.542199  0.959442  1
  Sn  Sn24  1  0.685164  0.965111  0.959680  1
  Sn  Sn25  1  0.189354  0.543436  0.541636  1
  Sn  Sn26  1  0.309621  0.042795  0.456646  1
  Sn  Sn27  1  0.808369  0.452781  0.046410  1
  Sn  Sn28  1  0.541403  0.623662  0.746995  1
  Sn  Sn29  1  0.045669  0.879495  0.746743  1
  Sn  Sn30  1  0.455364  0.375817  0.251275  1
  Sn  Sn31  1  0.956596  0.124319  0.250459  1
  Sn  Sn32  1  0.320776  0.150701  0.749035  1
  Sn  Sn33  1  0.820246  0.347081  0.748044  1
  Sn  Sn34  1  0.679584  0.848418  0.250917  1
  Sn  Sn35  1  0.179952  0.649821  0.250554  1
