# generated using pymatgen
data_Yb2CoReN4
_symmetry_space_group_name_H-M   'P 1'
_cell_length_a   5.61694900
_cell_length_b   5.88812393
_cell_length_c   6.40970256
_cell_angle_alpha   73.87991368
_cell_angle_beta   90.00000000
_cell_angle_gamma   90.00000000
_symmetry_Int_Tables_number   1
_chemical_formula_structural   Yb2CoReN4
_chemical_formula_sum   'Yb4 Co2 Re2 N8'
_cell_volume   203.65491574
_cell_formula_units_Z   2
loop_
 _symmetry_equiv_pos_site_id
 _symmetry_equiv_pos_as_xyz
  1  'x, y, z'
loop_
 _atom_site_type_symbol
 _atom_site_label
 _atom_site_symmetry_multiplicity
 _atom_site_fract_x
 _atom_site_fract_y
 _atom_site_fract_z
 _atom_site_occupancy
  Yb  Yb0  1  0.250000  0.261806  0.062231  1
  Yb  Yb1  1  0.750000  0.738194  0.937769  1
  Yb  Yb2  1  0.750000  0.768340  0.434831  1
  Yb  Yb3  1  0.250000  0.231660  0.565169  1
  Co  Co4  1  0.750000  0.287546  0.308101  1
  Co  Co5  1  0.250000  0.712454  0.691899  1
  Re  Re6  1  0.250000  0.724060  0.195834  1
  Re  Re7  1  0.750000  0.275940  0.804166  1
  N  N8  1  0.497028  0.481157  0.751966  1
  N  N9  1  0.997028  0.518843  0.248034  1
  N  N10  1  0.502972  0.518843  0.248034  1
  N  N11  1  0.002972  0.481157  0.751966  1
  N  N12  1  0.750000  0.083649  0.613098  1
  N  N13  1  0.250000  0.916351  0.386902  1
  N  N14  1  0.750000  0.092582  0.095318  1
  N  N15  1  0.250000  0.907418  0.904682  1
