# generated using pymatgen
data_Hf4V7Pt
_symmetry_space_group_name_H-M   'P 1'
_cell_length_a   5.14046300
_cell_length_b   5.26367724
_cell_length_c   8.35349800
_cell_angle_alpha   90.00000000
_cell_angle_beta   90.00000000
_cell_angle_gamma   119.22863728
_symmetry_Int_Tables_number   1
_chemical_formula_structural   Hf4V7Pt
_chemical_formula_sum   'Hf4 V7 Pt1'
_cell_volume   197.24861072
_cell_formula_units_Z   1
loop_
 _symmetry_equiv_pos_site_id
 _symmetry_equiv_pos_as_xyz
  1  'x, y, z'
loop_
 _atom_site_type_symbol
 _atom_site_label
 _atom_site_symmetry_multiplicity
 _atom_site_fract_x
 _atom_site_fract_y
 _atom_site_fract_z
 _atom_site_occupancy
  Hf  Hf0  1  0.335687  0.671374  0.439391  1
  Hf  Hf1  1  0.665278  0.330555  0.935849  1
  Hf  Hf2  1  0.665278  0.330555  0.564151  1
  Hf  Hf3  1  0.335687  0.671374  0.060609  1
  V  V4  1  0.834121  0.168581  0.250000  1
  V  V5  1  0.334460  0.168581  0.250000  1
  V  V6  1  0.662018  0.832867  0.750000  1
  V  V7  1  0.998656  0.997312  0.001401  1
  V  V8  1  0.998656  0.997312  0.498599  1
  V  V9  1  0.828798  0.657595  0.250000  1
  V  V10  1  0.170848  0.832867  0.750000  1
  Pt  Pt11  1  0.170512  0.341026  0.750000  1
