# generated using pymatgen
data_Tm2MnFe3Co8P7
_symmetry_space_group_name_H-M   'P 1'
_cell_length_a   8.99518905
_cell_length_b   9.00155473
_cell_length_c   3.60171800
_cell_angle_alpha   90.00000000
_cell_angle_beta   90.00000000
_cell_angle_gamma   120.09497971
_symmetry_Int_Tables_number   1
_chemical_formula_structural   Tm2MnFe3Co8P7
_chemical_formula_sum   'Tm2 Mn1 Fe3 Co8 P7'
_cell_volume   252.32001950
_cell_formula_units_Z   1
loop_
 _symmetry_equiv_pos_site_id
 _symmetry_equiv_pos_as_xyz
  1  'x, y, z'
loop_
 _atom_site_type_symbol
 _atom_site_label
 _atom_site_symmetry_multiplicity
 _atom_site_fract_x
 _atom_site_fract_y
 _atom_site_fract_z
 _atom_site_occupancy
  Tm  Tm0  1  0.331582  0.664378  0.000000  1
  Tm  Tm1  1  0.000938  0.999977  0.500000  1
  Mn  Mn2  1  0.765896  0.213448  0.500000  1
  Fe  Fe3  1  0.547890  0.491458  0.000000  1
  Fe  Fe4  1  0.445616  0.237779  0.500000  1
  Fe  Fe5  1  0.791507  0.556997  0.500000  1
  Co  Co6  1  0.727866  0.961251  0.000000  1
  Co  Co7  1  0.234810  0.271921  0.000000  1
  Co  Co8  1  0.038721  0.766257  0.000000  1
  Co  Co9  1  0.940459  0.450352  0.000000  1
  Co  Co10  1  0.508630  0.056538  0.000000  1
  Co  Co11  1  0.104008  0.385282  0.500000  1
  Co  Co12  1  0.281469  0.896522  0.500000  1
  Co  Co13  1  0.616021  0.718455  0.500000  1
  P  P14  1  0.965734  0.219761  0.000000  1
  P  P15  1  0.257820  0.037877  0.000000  1
  P  P16  1  0.780298  0.743051  0.000000  1
  P  P17  1  0.068638  0.622562  0.500000  1
  P  P18  1  0.549443  0.924865  0.500000  1
  P  P19  1  0.379473  0.446968  0.500000  1
  P  P20  1  0.663185  0.334296  0.000000  1
