# generated using pymatgen
data_ErSi3AsRh6
_symmetry_space_group_name_H-M   'P 1'
_cell_length_a   7.10486943
_cell_length_b   7.10486912
_cell_length_c   3.77214400
_cell_angle_alpha   90.00000000
_cell_angle_beta   90.00000000
_cell_angle_gamma   120.01226305
_symmetry_Int_Tables_number   1
_chemical_formula_structural   ErSi3AsRh6
_chemical_formula_sum   'Er1 Si3 As1 Rh6'
_cell_volume   164.88357651
_cell_formula_units_Z   1
loop_
 _symmetry_equiv_pos_site_id
 _symmetry_equiv_pos_as_xyz
  1  'x, y, z'
loop_
 _atom_site_type_symbol
 _atom_site_label
 _atom_site_symmetry_multiplicity
 _atom_site_fract_x
 _atom_site_fract_y
 _atom_site_fract_z
 _atom_site_occupancy
  Er  Er0  1  0.005321  0.994679  0.000000  1
  Si  Si1  1  0.799924  0.605484  0.500000  1
  Si  Si2  1  0.333333  0.666667  0.000000  1
  Si  Si3  1  0.394516  0.200076  0.500000  1
  As  As4  1  0.807408  0.192592  0.500000  1
  Rh  Rh5  1  0.523974  0.064317  0.000000  1
  Rh  Rh6  1  0.599718  0.796147  0.500000  1
  Rh  Rh7  1  0.203853  0.400282  0.500000  1
  Rh  Rh8  1  0.533821  0.466179  0.000000  1
  Rh  Rh9  1  0.195785  0.804215  0.500000  1
  Rh  Rh10  1  0.935683  0.476026  0.000000  1
