# generated using pymatgen
data_La5In3Cl
_symmetry_space_group_name_H-M   'P 1'
_cell_length_a   9.78742500
_cell_length_b   9.78738644
_cell_length_c   6.86598700
_cell_angle_alpha   90.00000000
_cell_angle_beta   90.00000000
_cell_angle_gamma   119.99986296
_symmetry_Int_Tables_number   1
_chemical_formula_structural   La5In3Cl
_chemical_formula_sum   'La10 In6 Cl2'
_cell_volume   569.59922737
_cell_formula_units_Z   2
loop_
 _symmetry_equiv_pos_site_id
 _symmetry_equiv_pos_as_xyz
  1  'x, y, z'
loop_
 _atom_site_type_symbol
 _atom_site_label
 _atom_site_symmetry_multiplicity
 _atom_site_fract_x
 _atom_site_fract_y
 _atom_site_fract_z
 _atom_site_occupancy
  La  La0  1  0.666667  0.333333  0.000000  1
  La  La1  1  0.333333  0.666667  0.500000  1
  La  La2  1  0.666667  0.333333  0.500000  1
  La  La3  1  0.333333  0.666667  0.000000  1
  La  La4  1  0.743062  0.999999  0.750000  1
  La  La5  1  0.743062  0.743063  0.250000  1
  La  La6  1  0.000000  0.256943  0.250000  1
  La  La7  1  0.000000  0.743057  0.750000  1
  La  La8  1  0.256938  0.256937  0.750000  1
  La  La9  1  0.256938  0.000001  0.250000  1
  In  In10  1  0.608522  0.608524  0.750000  1
  In  In11  1  0.000000  0.608528  0.250000  1
  In  In12  1  0.608522  0.999998  0.250000  1
  In  In13  1  0.391478  0.000002  0.750000  1
  In  In14  1  0.000000  0.391472  0.750000  1
  In  In15  1  0.391478  0.391476  0.250000  1
  Cl  Cl16  1  0.000000  0.000000  0.500000  1
  Cl  Cl17  1  0.000000  0.000000  0.000000  1
