# generated using pymatgen
data_Ho7ScRe9Si16Tc3
_symmetry_space_group_name_H-M   'P 1'
_cell_length_a   6.75029760
_cell_length_b   6.74631681
_cell_length_c   12.71474083
_cell_angle_alpha   90.42238263
_cell_angle_beta   89.78116455
_cell_angle_gamma   90.06998460
_symmetry_Int_Tables_number   1
_chemical_formula_structural   Ho7ScRe9Si16Tc3
_chemical_formula_sum   'Ho7 Sc1 Re9 Si16 Tc3'
_cell_volume   579.00442917
_cell_formula_units_Z   1
loop_
 _symmetry_equiv_pos_site_id
 _symmetry_equiv_pos_as_xyz
  1  'x, y, z'
loop_
 _atom_site_type_symbol
 _atom_site_label
 _atom_site_symmetry_multiplicity
 _atom_site_fract_x
 _atom_site_fract_y
 _atom_site_fract_z
 _atom_site_occupancy
  Ho  Ho0  1  0.006019  0.664305  0.031011  1
  Ho  Ho1  1  0.992909  0.336006  0.530687  1
  Ho  Ho2  1  0.338293  0.991651  0.468839  1
  Ho  Ho3  1  0.164010  0.493656  0.782116  1
  Ho  Ho4  1  0.838938  0.507817  0.280327  1
  Ho  Ho5  1  0.494094  0.164049  0.219316  1
  Ho  Ho6  1  0.508162  0.838103  0.719251  1
  Sc  Sc7  1  0.659877  0.009700  0.968902  1
  Re  Re8  1  0.020320  0.809878  0.633868  1
  Re  Re9  1  0.984727  0.181312  0.126485  1
  Re  Re10  1  0.808599  0.018464  0.367435  1
  Re  Re11  1  0.309879  0.482092  0.380237  1
  Re  Re12  1  0.682086  0.520482  0.880811  1
  Re  Re13  1  0.486178  0.313656  0.622752  1
  Re  Re14  1  0.523994  0.690093  0.114692  1
  Re  Re15  1  0.182495  0.983551  0.871371  1
  Re  Re16  1  0.834839  0.164042  0.753911  1
  Si  Si17  1  0.015592  0.729960  0.440204  1
  Si  Si18  1  0.611578  0.305549  0.434763  1
  Si  Si19  1  0.385201  0.700820  0.934664  1
  Si  Si20  1  0.195865  0.114284  0.685207  1
  Si  Si21  1  0.305090  0.612129  0.565787  1
  Si  Si22  1  0.695222  0.380194  0.063769  1
  Si  Si23  1  0.803818  0.886753  0.182465  1
  Si  Si24  1  0.112028  0.194429  0.314277  1
  Si  Si25  1  0.972936  0.276766  0.937037  1
  Si  Si26  1  0.729979  0.016191  0.560866  1
  Si  Si27  1  0.229606  0.482370  0.187109  1
  Si  Si28  1  0.777974  0.520958  0.689400  1
  Si  Si29  1  0.479163  0.220321  0.816163  1
  Si  Si30  1  0.516635  0.770961  0.308425  1
  Si  Si31  1  0.284319  0.979144  0.060939  1
  Si  Si32  1  0.880561  0.807223  0.818579  1
  Tc  Tc33  1  0.664718  0.663460  0.501038  1
  Tc  Tc34  1  0.166245  0.836395  0.248146  1
  Tc  Tc35  1  0.338050  0.333238  0.999154  1
