# generated using pymatgen
data_Ta7Nb3Si5Sn
_symmetry_space_group_name_H-M   'P 1'
_cell_length_a   7.62127054
_cell_length_b   7.62047613
_cell_length_c   7.61406834
_cell_angle_alpha   128.05420266
_cell_angle_beta   128.01530347
_cell_angle_gamma   76.52462264
_symmetry_Int_Tables_number   1
_chemical_formula_structural   Ta7Nb3Si5Sn
_chemical_formula_sum   'Ta7 Nb3 Si5 Sn1'
_cell_volume   266.56359803
_cell_formula_units_Z   1
loop_
 _symmetry_equiv_pos_site_id
 _symmetry_equiv_pos_as_xyz
  1  'x, y, z'
loop_
 _atom_site_type_symbol
 _atom_site_label
 _atom_site_symmetry_multiplicity
 _atom_site_fract_x
 _atom_site_fract_y
 _atom_site_fract_z
 _atom_site_occupancy
  Ta  Ta0  1  0.197356  0.680944  0.173469  1
  Ta  Ta1  1  0.992560  0.817736  0.516523  1
  Ta  Ta2  1  0.300905  0.475859  0.482812  1
  Ta  Ta3  1  0.475296  0.992446  0.174096  1
  Ta  Ta4  1  0.817870  0.301115  0.825641  1
  Ta  Ta5  1  0.002717  0.002115  0.000023  1
  Ta  Ta6  1  0.498671  0.499132  0.000129  1
  Nb  Nb7  1  0.025162  0.197280  0.515787  1
  Nb  Nb8  1  0.681243  0.509759  0.484357  1
  Nb  Nb9  1  0.509594  0.024774  0.827439  1
  Si  Si10  1  0.249525  0.249660  0.999705  1
  Si  Si11  1  0.369165  0.130586  0.500317  1
  Si  Si12  1  0.630354  0.868912  0.499485  1
  Si  Si13  1  0.868759  0.369196  0.238534  1
  Si  Si14  1  0.130987  0.630446  0.761799  1
  Sn  Sn15  1  0.749835  0.750038  0.999884  1
