# generated using pymatgen
data_Er3Mg3Sn2Pd
_symmetry_space_group_name_H-M   'P 1'
_cell_length_a   7.41805600
_cell_length_b   7.41805605
_cell_length_c   4.48702800
_cell_angle_alpha   90.00000000
_cell_angle_beta   90.00000000
_cell_angle_gamma   119.99999978
_symmetry_Int_Tables_number   1
_chemical_formula_structural   Er3Mg3Sn2Pd
_chemical_formula_sum   'Er3 Mg3 Sn2 Pd1'
_cell_volume   213.83048959
_cell_formula_units_Z   1
loop_
 _symmetry_equiv_pos_site_id
 _symmetry_equiv_pos_as_xyz
  1  'x, y, z'
loop_
 _atom_site_type_symbol
 _atom_site_label
 _atom_site_symmetry_multiplicity
 _atom_site_fract_x
 _atom_site_fract_y
 _atom_site_fract_z
 _atom_site_occupancy
  Er  Er0  1  0.403911  0.403911  0.500000  1
  Er  Er1  1  0.596089  0.000000  0.500000  1
  Er  Er2  1  0.000000  0.596089  0.500000  1
  Mg  Mg3  1  0.766527  0.766527  0.000000  1
  Mg  Mg4  1  0.233473  0.000000  0.000000  1
  Mg  Mg5  1  0.000000  0.233473  0.000000  1
  Sn  Sn6  1  0.666667  0.333333  0.000000  1
  Sn  Sn7  1  0.333333  0.666667  0.000000  1
  Pd  Pd8  1  0.000000  0.000000  0.500000  1
