# generated using pymatgen
data_Dy3Ho4CoBr12
_symmetry_space_group_name_H-M   'P 1'
_cell_length_a   9.19235962
_cell_length_b   9.19235993
_cell_length_c   9.19236019
_cell_angle_alpha   106.71101409
_cell_angle_beta   106.71101834
_cell_angle_gamma   106.71101683
_symmetry_Int_Tables_number   1
_chemical_formula_structural   Dy3Ho4CoBr12
_chemical_formula_sum   'Dy3 Ho4 Co1 Br12'
_cell_volume   651.91680062
_cell_formula_units_Z   1
loop_
 _symmetry_equiv_pos_site_id
 _symmetry_equiv_pos_as_xyz
  1  'x, y, z'
loop_
 _atom_site_type_symbol
 _atom_site_label
 _atom_site_symmetry_multiplicity
 _atom_site_fract_x
 _atom_site_fract_y
 _atom_site_fract_z
 _atom_site_occupancy
  Dy  Dy0  1  0.300101  0.095879  0.020465  1
  Dy  Dy1  1  0.095879  0.020465  0.300101  1
  Dy  Dy2  1  0.020465  0.300101  0.095879  1
  Ho  Ho3  1  0.700921  0.904184  0.979116  1
  Ho  Ho4  1  0.904184  0.979116  0.700921  1
  Ho  Ho5  1  0.979116  0.700921  0.904184  1
  Ho  Ho6  1  0.500015  0.500015  0.500015  1
  Co  Co7  1  0.999739  0.999739  0.999739  1
  Br  Br8  1  0.220453  0.069696  0.677135  1
  Br  Br9  1  0.069696  0.677135  0.220453  1
  Br  Br10  1  0.677135  0.220453  0.069696  1
  Br  Br11  1  0.778879  0.930134  0.322801  1
  Br  Br12  1  0.930134  0.322801  0.778879  1
  Br  Br13  1  0.322801  0.778879  0.930134  1
  Br  Br14  1  0.386219  0.460504  0.167656  1
  Br  Br15  1  0.460504  0.167656  0.386219  1
  Br  Br16  1  0.167656  0.386219  0.460504  1
  Br  Br17  1  0.613939  0.539801  0.832363  1
  Br  Br18  1  0.539801  0.832363  0.613939  1
  Br  Br19  1  0.832363  0.613939  0.539801  1
