# generated using pymatgen
data_Eu4(PO4)3
_symmetry_space_group_name_H-M   'P 1'
_cell_length_a   9.03738706
_cell_length_b   9.03738752
_cell_length_c   9.03738700
_cell_angle_alpha   109.47122395
_cell_angle_beta   109.47122499
_cell_angle_gamma   109.47121524
_symmetry_Int_Tables_number   1
_chemical_formula_structural   Eu4(PO4)3
_chemical_formula_sum   'Eu8 P6 O24'
_cell_volume   568.20724233
_cell_formula_units_Z   2
loop_
 _symmetry_equiv_pos_site_id
 _symmetry_equiv_pos_as_xyz
  1  'x, y, z'
loop_
 _atom_site_type_symbol
 _atom_site_label
 _atom_site_symmetry_multiplicity
 _atom_site_fract_x
 _atom_site_fract_y
 _atom_site_fract_z
 _atom_site_occupancy
  Eu  Eu0  1  0.360512  0.360512  0.360512  1
  Eu  Eu1  1  0.139488  0.500000  0.000000  1
  Eu  Eu2  1  0.000000  0.139488  0.500000  1
  Eu  Eu3  1  0.860512  0.860512  0.860512  1
  Eu  Eu4  1  0.500000  0.000000  0.139488  1
  Eu  Eu5  1  0.639488  0.500000  0.000000  1
  Eu  Eu6  1  0.500000  0.000000  0.639488  1
  Eu  Eu7  1  0.000000  0.639488  0.500000  1
  P  P8  1  0.125000  0.875000  0.250000  1
  P  P9  1  0.375000  0.625000  0.750000  1
  P  P10  1  0.875000  0.250000  0.125000  1
  P  P11  1  0.625000  0.750000  0.375000  1
  P  P12  1  0.250000  0.125000  0.875000  1
  P  P13  1  0.750000  0.375000  0.625000  1
  O  O14  1  0.322727  0.164107  0.073683  1
  O  O15  1  0.177273  0.250957  0.841381  1
  O  O16  1  0.909575  0.335893  0.658619  1
  O  O17  1  0.164107  0.073683  0.322727  1
  O  O18  1  0.822727  0.573683  0.664107  1
  O  O19  1  0.590425  0.249043  0.426317  1
  O  O20  1  0.250957  0.841381  0.177273  1
  O  O21  1  0.677273  0.341381  0.750957  1
  O  O22  1  0.335893  0.658619  0.909575  1
  O  O23  1  0.409575  0.158619  0.835893  1
  O  O24  1  0.249043  0.426317  0.590425  1
  O  O25  1  0.090425  0.926317  0.749043  1
  O  O26  1  0.073683  0.322727  0.164107  1
  O  O27  1  0.664107  0.822727  0.573683  1
  O  O28  1  0.658619  0.909575  0.335893  1
  O  O29  1  0.835893  0.409575  0.158619  1
  O  O30  1  0.426317  0.590425  0.249043  1
  O  O31  1  0.749043  0.090425  0.926317  1
  O  O32  1  0.841381  0.177273  0.250957  1
  O  O33  1  0.750957  0.677273  0.341381  1
  O  O34  1  0.573683  0.664107  0.822727  1
  O  O35  1  0.341381  0.750957  0.677273  1
  O  O36  1  0.926317  0.749043  0.090425  1
  O  O37  1  0.158619  0.835893  0.409575  1
