# generated using pymatgen
data_Yb3Sc2Si12Ir19
_symmetry_space_group_name_H-M   'P 1'
_cell_length_a   12.76494700
_cell_length_b   12.77890199
_cell_length_c   3.97508700
_cell_angle_alpha   90.00000000
_cell_angle_beta   90.00000000
_cell_angle_gamma   119.96388497
_symmetry_Int_Tables_number   1
_chemical_formula_structural   Yb3Sc2Si12Ir19
_chemical_formula_sum   'Yb3 Sc2 Si12 Ir19'
_cell_volume   561.75604989
_cell_formula_units_Z   1
loop_
 _symmetry_equiv_pos_site_id
 _symmetry_equiv_pos_as_xyz
  1  'x, y, z'
loop_
 _atom_site_type_symbol
 _atom_site_label
 _atom_site_symmetry_multiplicity
 _atom_site_fract_x
 _atom_site_fract_y
 _atom_site_fract_z
 _atom_site_occupancy
  Yb  Yb0  1  0.333044  0.666621  0.000000  1
  Yb  Yb1  1  0.666424  0.333379  0.000000  1
  Yb  Yb2  1  0.817024  0.000000  0.500000  1
  Sc  Sc3  1  0.999796  0.818493  0.500000  1
  Sc  Sc4  1  0.181303  0.181507  0.500000  1
  Si  Si5  1  0.180024  0.000000  0.000000  1
  Si  Si6  1  0.001726  0.181038  0.000000  1
  Si  Si7  1  0.820688  0.818962  0.000000  1
  Si  Si8  1  0.167821  0.481366  0.500000  1
  Si  Si9  1  0.520448  0.687196  0.500000  1
  Si  Si10  1  0.312633  0.832889  0.500000  1
  Si  Si11  1  0.686453  0.518634  0.500000  1
  Si  Si12  1  0.833251  0.312804  0.500000  1
  Si  Si13  1  0.479743  0.167111  0.500000  1
  Si  Si14  1  0.631314  0.000000  0.000000  1
  Si  Si15  1  0.999986  0.633123  0.000000  1
  Si  Si16  1  0.366863  0.366877  0.000000  1
  Ir  Ir17  1  0.446094  0.000000  0.000000  1
  Ir  Ir18  1  0.002030  0.448499  0.000000  1
  Ir  Ir19  1  0.553531  0.551501  0.000000  1
  Ir  Ir20  1  0.360261  0.486821  0.500000  1
  Ir  Ir21  1  0.513315  0.873692  0.500000  1
  Ir  Ir22  1  0.126594  0.640984  0.500000  1
  Ir  Ir23  1  0.873439  0.513179  0.500000  1
  Ir  Ir24  1  0.639623  0.126308  0.500000  1
  Ir  Ir25  1  0.485610  0.359016  0.500000  1
  Ir  Ir26  1  0.183497  0.374600  0.000000  1
  Ir  Ir27  1  0.623187  0.805793  0.000000  1
  Ir  Ir28  1  0.190648  0.817763  0.000000  1
  Ir  Ir29  1  0.808898  0.625400  0.000000  1
  Ir  Ir30  1  0.817394  0.194207  0.000000  1
  Ir  Ir31  1  0.372885  0.182237  0.000000  1
  Ir  Ir32  1  0.280373  0.000000  0.500000  1
  Ir  Ir33  1  0.002222  0.282475  0.500000  1
  Ir  Ir34  1  0.719747  0.717525  0.500000  1
  Ir  Ir35  1  0.002111  0.000000  0.000000  1
