# generated using pymatgen
data_Dy20Si12Br
_symmetry_space_group_name_H-M   'P 1'
_cell_length_a   6.39847237
_cell_length_b   8.48260002
_cell_length_c   14.79055600
_cell_angle_alpha   90.00000675
_cell_angle_beta   90.00000000
_cell_angle_gamma   90.02368038
_symmetry_Int_Tables_number   1
_chemical_formula_structural   Dy20Si12Br
_chemical_formula_sum   'Dy20 Si12 Br1'
_cell_volume   802.76744319
_cell_formula_units_Z   1
loop_
 _symmetry_equiv_pos_site_id
 _symmetry_equiv_pos_as_xyz
  1  'x, y, z'
loop_
 _atom_site_type_symbol
 _atom_site_label
 _atom_site_symmetry_multiplicity
 _atom_site_fract_x
 _atom_site_fract_y
 _atom_site_fract_z
 _atom_site_occupancy
  Dy  Dy0  1  0.499988  0.000013  0.332116  1
  Dy  Dy1  1  0.499994  0.499997  0.832325  1
  Dy  Dy2  1  0.499994  0.499997  0.167675  1
  Dy  Dy3  1  0.499988  0.000013  0.667884  1
  Dy  Dy4  1  0.000001  0.499977  0.172148  1
  Dy  Dy5  1  0.999997  0.000021  0.660741  1
  Dy  Dy6  1  0.999997  0.000021  0.339259  1
  Dy  Dy7  1  0.000001  0.499977  0.827852  1
  Dy  Dy8  1  0.772293  0.261294  0.000000  1
  Dy  Dy9  1  0.745483  0.742698  0.500000  1
  Dy  Dy10  1  0.749849  0.376621  0.380343  1
  Dy  Dy11  1  0.771513  0.869582  0.869830  1
  Dy  Dy12  1  0.771513  0.869582  0.130170  1
  Dy  Dy13  1  0.749849  0.376621  0.619657  1
  Dy  Dy14  1  0.227694  0.738668  0.000000  1
  Dy  Dy15  1  0.254478  0.257324  0.500000  1
  Dy  Dy16  1  0.228625  0.130390  0.130135  1
  Dy  Dy17  1  0.250111  0.623398  0.619658  1
  Dy  Dy18  1  0.250111  0.623398  0.380342  1
  Dy  Dy19  1  0.228625  0.130390  0.869865  1
  Si  Si20  1  0.757568  0.609215  0.000000  1
  Si  Si21  1  0.742269  0.105472  0.500000  1
  Si  Si22  1  0.756422  0.196713  0.198253  1
  Si  Si23  1  0.750134  0.695806  0.694968  1
  Si  Si24  1  0.750134  0.695806  0.305032  1
  Si  Si25  1  0.756422  0.196713  0.801747  1
  Si  Si26  1  0.242441  0.390766  0.000000  1
  Si  Si27  1  0.257697  0.894550  0.500000  1
  Si  Si28  1  0.249835  0.304198  0.305010  1
  Si  Si29  1  0.243562  0.803281  0.801739  1
  Si  Si30  1  0.243562  0.803281  0.198261  1
  Si  Si31  1  0.249835  0.304198  0.694990  1
  Br  Br32  1  0.500015  0.000018  0.000000  1
