# generated using pymatgen
data_Ho3Er3(Tm3Ir2)2
_symmetry_space_group_name_H-M   'P 1'
_cell_length_a   6.33524786
_cell_length_b   7.20928524
_cell_length_c   9.07765819
_cell_angle_alpha   89.99751176
_cell_angle_beta   90.05850492
_cell_angle_gamma   89.99132598
_symmetry_Int_Tables_number   1
_chemical_formula_structural   Ho3Er3(Tm3Ir2)2
_chemical_formula_sum   'Ho3 Er3 Tm6 Ir4'
_cell_volume   414.60011107
_cell_formula_units_Z   1
loop_
 _symmetry_equiv_pos_site_id
 _symmetry_equiv_pos_as_xyz
  1  'x, y, z'
loop_
 _atom_site_type_symbol
 _atom_site_label
 _atom_site_symmetry_multiplicity
 _atom_site_fract_x
 _atom_site_fract_y
 _atom_site_fract_z
 _atom_site_occupancy
  Ho  Ho0  1  0.871726  0.533256  0.250032  1
  Ho  Ho1  1  0.628494  0.033365  0.249974  1
  Ho  Ho2  1  0.128157  0.466600  0.749960  1
  Er  Er3  1  0.328427  0.677775  0.061933  1
  Er  Er4  1  0.172015  0.177244  0.438270  1
  Er  Er5  1  0.371500  0.966322  0.750052  1
  Tm  Tm6  1  0.671501  0.322562  0.562314  1
  Tm  Tm7  1  0.827722  0.822986  0.937587  1
  Tm  Tm8  1  0.671685  0.322357  0.937716  1
  Tm  Tm9  1  0.827543  0.822708  0.562307  1
  Tm  Tm10  1  0.328553  0.677625  0.438108  1
  Tm  Tm11  1  0.171897  0.177051  0.061752  1
  Ir  Ir12  1  0.044973  0.883633  0.250042  1
  Ir  Ir13  1  0.455025  0.383527  0.249954  1
  Ir  Ir14  1  0.955793  0.116004  0.750238  1
  Ir  Ir15  1  0.544985  0.616987  0.749759  1
