# generated using pymatgen
data_Tb8In4Ir3Au5
_symmetry_space_group_name_H-M   'P 1'
_cell_length_a   7.85844992
_cell_length_b   7.85844869
_cell_length_c   7.53447440
_cell_angle_alpha   90.10205809
_cell_angle_beta   90.10205320
_cell_angle_gamma   90.51193528
_symmetry_Int_Tables_number   1
_chemical_formula_structural   Tb8In4Ir3Au5
_chemical_formula_sum   'Tb8 In4 Ir3 Au5'
_cell_volume   465.27310304
_cell_formula_units_Z   1
loop_
 _symmetry_equiv_pos_site_id
 _symmetry_equiv_pos_as_xyz
  1  'x, y, z'
loop_
 _atom_site_type_symbol
 _atom_site_label
 _atom_site_symmetry_multiplicity
 _atom_site_fract_x
 _atom_site_fract_y
 _atom_site_fract_z
 _atom_site_occupancy
  Tb  Tb0  1  0.172500  0.172500  0.011953  1
  Tb  Tb1  1  0.817608  0.817608  0.000645  1
  Tb  Tb2  1  0.662885  0.349348  0.493694  1
  Tb  Tb3  1  0.349348  0.662885  0.493694  1
  Tb  Tb4  1  0.674480  0.341421  0.004733  1
  Tb  Tb5  1  0.341421  0.674480  0.004733  1
  Tb  Tb6  1  0.809115  0.809115  0.499381  1
  Tb  Tb7  1  0.185208  0.185208  0.491440  1
  In  In8  1  0.500388  0.006690  0.246642  1
  In  In9  1  0.502140  0.992096  0.751257  1
  In  In10  1  0.006690  0.500388  0.246642  1
  In  In11  1  0.992096  0.502140  0.751257  1
  Ir  Ir12  1  0.370400  0.370400  0.241647  1
  Ir  Ir13  1  0.626221  0.626221  0.756746  1
  Ir  Ir14  1  0.625392  0.625392  0.241345  1
  Au  Au15  1  0.870879  0.128104  0.737136  1
  Au  Au16  1  0.868814  0.125401  0.263555  1
  Au  Au17  1  0.370910  0.370910  0.762810  1
  Au  Au18  1  0.125401  0.868814  0.263555  1
  Au  Au19  1  0.128104  0.870879  0.737136  1
