# generated using pymatgen
data_La5Nd11Cd4IrPd3
_symmetry_space_group_name_H-M   'P 1'
_cell_length_a   10.07583139
_cell_length_b   10.05419004
_cell_length_c   10.05419097
_cell_angle_alpha   59.87934466
_cell_angle_beta   60.29265584
_cell_angle_gamma   60.29265655
_symmetry_Int_Tables_number   1
_chemical_formula_structural   La5Nd11Cd4IrPd3
_chemical_formula_sum   'La5 Nd11 Cd4 Ir1 Pd3'
_cell_volume   722.71336245
_cell_formula_units_Z   1
loop_
 _symmetry_equiv_pos_site_id
 _symmetry_equiv_pos_as_xyz
  1  'x, y, z'
loop_
 _atom_site_type_symbol
 _atom_site_label
 _atom_site_symmetry_multiplicity
 _atom_site_fract_x
 _atom_site_fract_y
 _atom_site_fract_z
 _atom_site_occupancy
  La  La0  1  0.350307  0.348176  0.348176  1
  La  La1  1  0.354813  0.348480  0.948139  1
  La  La2  1  0.354813  0.948139  0.348480  1
  La  La3  1  0.937468  0.354978  0.354978  1
  La  La4  1  0.807527  0.188210  0.188210  1
  Nd  Nd5  1  0.193311  0.808609  0.808609  1
  Nd  Nd6  1  0.195493  0.808589  0.189388  1
  Nd  Nd7  1  0.807238  0.188420  0.812963  1
  Nd  Nd8  1  0.195493  0.189388  0.808589  1
  Nd  Nd9  1  0.807238  0.812963  0.188420  1
  Nd  Nd10  1  0.938843  0.565430  0.565430  1
  Nd  Nd11  1  0.566470  0.935380  0.935380  1
  Nd  Nd12  1  0.567079  0.936380  0.562980  1
  Nd  Nd13  1  0.937343  0.564562  0.932712  1
  Nd  Nd14  1  0.567079  0.562980  0.936380  1
  Nd  Nd15  1  0.937343  0.932712  0.564562  1
  Cd  Cd16  1  0.579484  0.581354  0.581354  1
  Cd  Cd17  1  0.579001  0.582597  0.256874  1
  Cd  Cd18  1  0.579001  0.256874  0.582597  1
  Cd  Cd19  1  0.257859  0.580483  0.580483  1
  Ir  Ir20  1  0.570564  0.144149  0.144149  1
  Pd  Pd21  1  0.137980  0.145592  0.145592  1
  Pd  Pd22  1  0.139126  0.144086  0.571462  1
  Pd  Pd23  1  0.139126  0.571462  0.144086  1
