# generated using pymatgen
data_Ba6DyEr(NiO6)2
_symmetry_space_group_name_H-M   'P 1'
_cell_length_a   7.14388893
_cell_length_b   7.14388964
_cell_length_c   7.14388908
_cell_angle_alpha   93.63203560
_cell_angle_beta   93.63204133
_cell_angle_gamma   93.63202133
_symmetry_Int_Tables_number   1
_chemical_formula_structural   Ba6DyEr(NiO6)2
_chemical_formula_sum   'Ba6 Dy1 Er1 Ni2 O12'
_cell_volume   362.29491108
_cell_formula_units_Z   1
loop_
 _symmetry_equiv_pos_site_id
 _symmetry_equiv_pos_as_xyz
  1  'x, y, z'
loop_
 _atom_site_type_symbol
 _atom_site_label
 _atom_site_symmetry_multiplicity
 _atom_site_fract_x
 _atom_site_fract_y
 _atom_site_fract_z
 _atom_site_occupancy
  Ba  Ba0  1  0.380445  0.119554  0.750000  1
  Ba  Ba1  1  0.750000  0.380446  0.119555  1
  Ba  Ba2  1  0.249999  0.619804  0.880197  1
  Ba  Ba3  1  0.619803  0.880196  0.250001  1
  Ba  Ba4  1  0.119555  0.750000  0.380446  1
  Ba  Ba5  1  0.880196  0.250000  0.619804  1
  Dy  Dy6  1  0.250001  0.250000  0.250000  1
  Er  Er7  1  0.750000  0.750001  0.750000  1
  Ni  Ni8  1  0.500752  0.500752  0.500752  1
  Ni  Ni9  1  0.999248  0.999248  0.999248  1
  O  O10  1  0.782533  0.594402  0.468371  1
  O  O11  1  0.594403  0.468370  0.782533  1
  O  O12  1  0.468370  0.782533  0.594403  1
  O  O13  1  0.031629  0.905598  0.717468  1
  O  O14  1  0.905597  0.717467  0.031629  1
  O  O15  1  0.717468  0.031629  0.905597  1
  O  O16  1  0.217709  0.407171  0.534100  1
  O  O17  1  0.407171  0.534099  0.217709  1
  O  O18  1  0.534099  0.217709  0.407170  1
  O  O19  1  0.965901  0.092829  0.282292  1
  O  O20  1  0.282292  0.965900  0.092828  1
  O  O21  1  0.092828  0.282291  0.965900  1
