# generated using pymatgen
data_Co6ReSi2W3
_symmetry_space_group_name_H-M   'P 1'
_cell_length_a   4.75750900
_cell_length_b   4.75750855
_cell_length_c   7.40301400
_cell_angle_alpha   90.00000000
_cell_angle_beta   90.00000000
_cell_angle_gamma   119.99998226
_symmetry_Int_Tables_number   1
_chemical_formula_structural   Co6ReSi2W3
_chemical_formula_sum   'Co6 Re1 Si2 W3'
_cell_volume   145.11037888
_cell_formula_units_Z   1
loop_
 _symmetry_equiv_pos_site_id
 _symmetry_equiv_pos_as_xyz
  1  'x, y, z'
loop_
 _atom_site_type_symbol
 _atom_site_label
 _atom_site_symmetry_multiplicity
 _atom_site_fract_x
 _atom_site_fract_y
 _atom_site_fract_z
 _atom_site_occupancy
  Co  Co0  1  0.829878  0.170122  0.248846  1
  Co  Co1  1  0.829878  0.659757  0.248846  1
  Co  Co2  1  0.340243  0.170122  0.248846  1
  Co  Co3  1  0.171226  0.828774  0.750472  1
  Co  Co4  1  0.171226  0.342452  0.750472  1
  Co  Co5  1  0.657548  0.828774  0.750472  1
  Re  Re6  1  0.333333  0.666667  0.437283  1
  Si  Si7  1  0.000000  0.000000  0.500720  1
  Si  Si8  1  0.000000  0.000000  0.998114  1
  W  W9  1  0.666667  0.333333  0.560997  1
  W  W10  1  0.666667  0.333333  0.933518  1
  W  W11  1  0.333333  0.666667  0.071417  1
