# generated using pymatgen
data_Tb3TlIn2Pd2Rh
_symmetry_space_group_name_H-M   'P 1'
_cell_length_a   7.77294640
_cell_length_b   7.77739127
_cell_length_c   3.81605300
_cell_angle_alpha   90.00000000
_cell_angle_beta   90.00000000
_cell_angle_gamma   119.66051851
_symmetry_Int_Tables_number   1
_chemical_formula_structural   Tb3TlIn2Pd2Rh
_chemical_formula_sum   'Tb3 Tl1 In2 Pd2 Rh1'
_cell_volume   200.46574005
_cell_formula_units_Z   1
loop_
 _symmetry_equiv_pos_site_id
 _symmetry_equiv_pos_as_xyz
  1  'x, y, z'
loop_
 _atom_site_type_symbol
 _atom_site_label
 _atom_site_symmetry_multiplicity
 _atom_site_fract_x
 _atom_site_fract_y
 _atom_site_fract_z
 _atom_site_occupancy
  Tb  Tb0  1  0.987581  0.586084  0.500000  1
  Tb  Tb1  1  0.414457  0.400467  0.500000  1
  Tb  Tb2  1  0.600651  0.015034  0.500000  1
  Tl  Tl3  1  0.733404  0.735902  0.000000  1
  In  In4  1  0.002872  0.264614  0.000000  1
  In  In5  1  0.262608  0.998904  0.000000  1
  Pd  Pd6  1  0.326735  0.665143  0.000000  1
  Pd  Pd7  1  0.006894  0.007005  0.500000  1
  Rh  Rh8  1  0.664800  0.326846  0.000000  1
