# generated using pymatgen
data_Pr8ErSc10Si16Hg
_symmetry_space_group_name_H-M   'P 1'
_cell_length_a   7.23321848
_cell_length_b   7.58192211
_cell_length_c   14.35478382
_cell_angle_alpha   89.93153315
_cell_angle_beta   90.11613904
_cell_angle_gamma   90.31237479
_symmetry_Int_Tables_number   1
_chemical_formula_structural   Pr8ErSc10Si16Hg
_chemical_formula_sum   'Pr8 Er1 Sc10 Si16 Hg1'
_cell_volume   787.22686614
_cell_formula_units_Z   1
loop_
 _symmetry_equiv_pos_site_id
 _symmetry_equiv_pos_as_xyz
  1  'x, y, z'
loop_
 _atom_site_type_symbol
 _atom_site_label
 _atom_site_symmetry_multiplicity
 _atom_site_fract_x
 _atom_site_fract_y
 _atom_site_fract_z
 _atom_site_occupancy
  Pr  Pr0  1  0.013006  0.172722  0.400687  1
  Pr  Pr1  1  0.511554  0.330659  0.399517  1
  Pr  Pr2  1  0.491283  0.680331  0.900842  1
  Pr  Pr3  1  0.491320  0.681604  0.600886  1
  Pr  Pr4  1  0.978350  0.827914  0.601929  1
  Pr  Pr5  1  0.980293  0.827901  0.900664  1
  Pr  Pr6  1  0.510337  0.330677  0.098640  1
  Pr  Pr7  1  0.012471  0.173002  0.098588  1
  Er  Er8  1  0.337580  0.174690  0.623079  1
  Sc  Sc9  1  0.671976  0.819366  0.371829  1
  Sc  Sc10  1  0.171300  0.676353  0.374745  1
  Sc  Sc11  1  0.826540  0.316104  0.876788  1
  Sc  Sc12  1  0.826848  0.315025  0.624880  1
  Sc  Sc13  1  0.840562  0.502001  0.249577  1
  Sc  Sc14  1  0.340118  0.997153  0.249282  1
  Sc  Sc15  1  0.336584  0.174923  0.876429  1
  Sc  Sc16  1  0.170890  0.676764  0.124125  1
  Sc  Sc17  1  0.670967  0.820592  0.126357  1
  Sc  Sc18  1  0.156993  0.497524  0.751876  1
  Si  Si19  1  0.269096  0.877547  0.752046  1
  Si  Si20  1  0.465297  0.623795  0.249155  1
  Si  Si21  1  0.045114  0.127463  0.753190  1
  Si  Si22  1  0.532199  0.394497  0.752162  1
  Si  Si23  1  0.148461  0.470490  0.540158  1
  Si  Si24  1  0.967035  0.873120  0.249346  1
  Si  Si25  1  0.710792  0.116091  0.249423  1
  Si  Si26  1  0.849106  0.535524  0.039034  1
  Si  Si27  1  0.347872  0.963406  0.039673  1
  Si  Si28  1  0.153049  0.465754  0.959211  1
  Si  Si29  1  0.661082  0.040944  0.524380  1
  Si  Si30  1  0.351979  0.960504  0.455885  1
  Si  Si31  1  0.848609  0.536401  0.461122  1
  Si  Si32  1  0.793971  0.593030  0.750976  1
  Si  Si33  1  0.209576  0.385758  0.249270  1
  Si  Si34  1  0.653330  0.041750  0.971802  1
  Hg  Hg35  1  0.654460  0.998623  0.752448  1
