# generated using pymatgen
data_LiMg(PaH4)6
_symmetry_space_group_name_H-M   'P 1'
_cell_length_a   6.43253100
_cell_length_b   6.43253100
_cell_length_c   6.43253100
_cell_angle_alpha   90.00000000
_cell_angle_beta   90.00000000
_cell_angle_gamma   90.00000000
_symmetry_Int_Tables_number   1
_chemical_formula_structural   LiMg(PaH4)6
_chemical_formula_sum   'Li1 Mg1 Pa6 H24'
_cell_volume   266.16176241
_cell_formula_units_Z   1
loop_
 _symmetry_equiv_pos_site_id
 _symmetry_equiv_pos_as_xyz
  1  'x, y, z'
loop_
 _atom_site_type_symbol
 _atom_site_label
 _atom_site_symmetry_multiplicity
 _atom_site_fract_x
 _atom_site_fract_y
 _atom_site_fract_z
 _atom_site_occupancy
  Li  Li0  1  0.000000  0.000000  0.000000  1
  Mg  Mg1  1  0.500000  0.500000  0.500000  1
  Pa  Pa2  1  0.248838  0.000000  0.500000  1
  Pa  Pa3  1  0.751162  0.000000  0.500000  1
  Pa  Pa4  1  0.000000  0.500000  0.248838  1
  Pa  Pa5  1  0.000000  0.500000  0.751162  1
  Pa  Pa6  1  0.500000  0.751162  0.000000  1
  Pa  Pa7  1  0.500000  0.248838  0.000000  1
  H  H8  1  0.000000  0.153324  0.303522  1
  H  H9  1  0.500000  0.196295  0.653405  1
  H  H10  1  0.500000  0.803705  0.346595  1
  H  H11  1  0.803705  0.653405  0.500000  1
  H  H12  1  0.196295  0.653405  0.500000  1
  H  H13  1  0.346595  0.500000  0.803705  1
  H  H14  1  0.653405  0.500000  0.803705  1
  H  H15  1  0.303522  0.000000  0.153324  1
  H  H16  1  0.153324  0.303522  0.000000  1
  H  H17  1  0.846676  0.696478  0.000000  1
  H  H18  1  0.303522  0.000000  0.846676  1
  H  H19  1  0.846676  0.303522  0.000000  1
  H  H20  1  0.696478  0.000000  0.153324  1
  H  H21  1  0.696478  0.000000  0.846676  1
  H  H22  1  0.153324  0.696478  0.000000  1
  H  H23  1  0.000000  0.846676  0.696478  1
  H  H24  1  0.000000  0.153324  0.696478  1
  H  H25  1  0.000000  0.846676  0.303522  1
  H  H26  1  0.653405  0.500000  0.196295  1
  H  H27  1  0.346595  0.500000  0.196295  1
  H  H28  1  0.803705  0.346595  0.500000  1
  H  H29  1  0.196295  0.346595  0.500000  1
  H  H30  1  0.500000  0.803705  0.653405  1
  H  H31  1  0.500000  0.196295  0.346595  1
