# generated using pymatgen
data_Dy9Ho(In2Cu)4
_symmetry_space_group_name_H-M   'P 1'
_cell_length_a   3.67949000
_cell_length_b   8.06273003
_cell_length_c   17.98427908
_cell_angle_alpha   89.98975936
_cell_angle_beta   90.00000000
_cell_angle_gamma   90.00000000
_symmetry_Int_Tables_number   1
_chemical_formula_structural   Dy9Ho(In2Cu)4
_chemical_formula_sum   'Dy9 Ho1 In8 Cu4'
_cell_volume   533.53482435
_cell_formula_units_Z   1
loop_
 _symmetry_equiv_pos_site_id
 _symmetry_equiv_pos_as_xyz
  1  'x, y, z'
loop_
 _atom_site_type_symbol
 _atom_site_label
 _atom_site_symmetry_multiplicity
 _atom_site_fract_x
 _atom_site_fract_y
 _atom_site_fract_z
 _atom_site_occupancy
  Dy  Dy0  1  0.000000  0.500170  0.499988  1
  Dy  Dy1  1  0.000000  0.000003  0.000054  1
  Dy  Dy2  1  0.000000  0.738479  0.280847  1
  Dy  Dy3  1  0.000000  0.261547  0.719306  1
  Dy  Dy4  1  0.000000  0.761835  0.780355  1
  Dy  Dy5  1  0.000000  0.238307  0.219742  1
  Dy  Dy6  1  0.000000  0.617822  0.083222  1
  Dy  Dy7  1  0.000000  0.381975  0.916800  1
  Dy  Dy8  1  0.000000  0.882033  0.582867  1
  Ho  Ho9  1  0.000000  0.117706  0.416858  1
  In  In10  1  0.500000  0.708292  0.930472  1
  In  In11  1  0.500000  0.291608  0.069447  1
  In  In12  1  0.500000  0.792292  0.430694  1
  In  In13  1  0.500000  0.208118  0.568682  1
  In  In14  1  0.500000  0.579119  0.650390  1
  In  In15  1  0.500000  0.419933  0.349708  1
  In  In16  1  0.500000  0.920908  0.150834  1
  In  In17  1  0.500000  0.078879  0.849132  1
  Cu  Cu18  1  0.500000  0.524828  0.197375  1
  Cu  Cu19  1  0.500000  0.476150  0.802852  1
  Cu  Cu20  1  0.500000  0.974992  0.696813  1
  Cu  Cu21  1  0.500000  0.025003  0.303563  1
