# generated using pymatgen
data_TmLu2ThZnCo
_symmetry_space_group_name_H-M   'P 1'
_cell_length_a   9.30620528
_cell_length_b   9.30228176
_cell_length_c   9.30228166
_cell_angle_alpha   60.03258412
_cell_angle_beta   59.98309291
_cell_angle_gamma   59.98308339
_symmetry_Int_Tables_number   1
_chemical_formula_structural   TmLu2ThZnCo
_chemical_formula_sum   'Tm4 Lu8 Th4 Zn4 Co4'
_cell_volume   569.41948028
_cell_formula_units_Z   4
loop_
 _symmetry_equiv_pos_site_id
 _symmetry_equiv_pos_as_xyz
  1  'x, y, z'
loop_
 _atom_site_type_symbol
 _atom_site_label
 _atom_site_symmetry_multiplicity
 _atom_site_fract_x
 _atom_site_fract_y
 _atom_site_fract_z
 _atom_site_occupancy
  Tm  Tm0  1  0.565098  0.934834  0.565064  1
  Tm  Tm1  1  0.934472  0.565399  0.934695  1
  Tm  Tm2  1  0.565098  0.565064  0.934834  1
  Tm  Tm3  1  0.934472  0.934695  0.565399  1
  Lu  Lu4  1  0.811855  0.187960  0.187960  1
  Lu  Lu5  1  0.188086  0.811908  0.811908  1
  Lu  Lu6  1  0.187999  0.811851  0.187960  1
  Lu  Lu7  1  0.811900  0.187965  0.812106  1
  Lu  Lu8  1  0.187999  0.187960  0.811851  1
  Lu  Lu9  1  0.811900  0.812106  0.187965  1
  Lu  Lu10  1  0.935743  0.564229  0.564229  1
  Lu  Lu11  1  0.564140  0.935794  0.935794  1
  Th  Th12  1  0.351741  0.350244  0.350244  1
  Th  Th13  1  0.351019  0.350780  0.948250  1
  Th  Th14  1  0.351019  0.948250  0.350780  1
  Th  Th15  1  0.948182  0.350703  0.350703  1
  Zn  Zn16  1  0.582161  0.581652  0.581652  1
  Zn  Zn17  1  0.581657  0.582404  0.254433  1
  Zn  Zn18  1  0.581657  0.254433  0.582404  1
  Zn  Zn19  1  0.254477  0.581755  0.581755  1
  Co  Co20  1  0.143978  0.143262  0.143262  1
  Co  Co21  1  0.143130  0.144194  0.569177  1
  Co  Co22  1  0.143130  0.569177  0.144194  1
  Co  Co23  1  0.569086  0.143384  0.143384  1
