# generated using pymatgen
data_Nd5SnTe2
_symmetry_space_group_name_H-M   'P 1'
_cell_length_a   9.36285234
_cell_length_b   9.33873993
_cell_length_c   6.49941200
_cell_angle_alpha   90.00000000
_cell_angle_beta   90.00000000
_cell_angle_gamma   119.91484154
_symmetry_Int_Tables_number   1
_chemical_formula_structural   Nd5SnTe2
_chemical_formula_sum   'Nd10 Sn2 Te4'
_cell_volume   492.57593420
_cell_formula_units_Z   2
loop_
 _symmetry_equiv_pos_site_id
 _symmetry_equiv_pos_as_xyz
  1  'x, y, z'
loop_
 _atom_site_type_symbol
 _atom_site_label
 _atom_site_symmetry_multiplicity
 _atom_site_fract_x
 _atom_site_fract_y
 _atom_site_fract_z
 _atom_site_occupancy
  Nd  Nd0  1  0.333143  0.666572  0.000000  1
  Nd  Nd1  1  0.665721  0.332860  0.500000  1
  Nd  Nd2  1  0.665721  0.332860  0.000000  1
  Nd  Nd3  1  0.333143  0.666572  0.500000  1
  Nd  Nd4  1  0.254326  0.004090  0.250000  1
  Nd  Nd5  1  0.254326  0.250237  0.750000  1
  Nd  Nd6  1  0.000140  0.747296  0.750000  1
  Nd  Nd7  1  0.000140  0.252844  0.250000  1
  Nd  Nd8  1  0.745125  0.747356  0.250000  1
  Nd  Nd9  1  0.745125  0.997769  0.750000  1
  Sn  Sn10  1  0.385884  0.386546  0.250000  1
  Sn  Sn11  1  0.385884  0.999338  0.750000  1
  Te  Te12  1  0.614730  0.000436  0.250000  1
  Te  Te13  1  0.614730  0.614294  0.750000  1
  Te  Te14  1  0.000931  0.383373  0.750000  1
  Te  Te15  1  0.000931  0.617558  0.250000  1
