# generated using pymatgen
data_Ho9Er11(GaBi2)4
_symmetry_space_group_name_H-M   'P 1'
_cell_length_a   8.03894301
_cell_length_b   9.24572300
_cell_length_c   12.03202902
_cell_angle_alpha   90.00031209
_cell_angle_beta   89.99391377
_cell_angle_gamma   90.00084191
_symmetry_Int_Tables_number   1
_chemical_formula_structural   Ho9Er11(GaBi2)4
_chemical_formula_sum   'Ho9 Er11 Ga4 Bi8'
_cell_volume   894.29066205
_cell_formula_units_Z   1
loop_
 _symmetry_equiv_pos_site_id
 _symmetry_equiv_pos_as_xyz
  1  'x, y, z'
loop_
 _atom_site_type_symbol
 _atom_site_label
 _atom_site_symmetry_multiplicity
 _atom_site_fract_x
 _atom_site_fract_y
 _atom_site_fract_z
 _atom_site_occupancy
  Ho  Ho0  1  0.667894  0.750035  0.715671  1
  Ho  Ho1  1  0.332075  0.250011  0.284302  1
  Ho  Ho2  1  0.167975  0.249968  0.784262  1
  Ho  Ho3  1  0.832100  0.749979  0.215711  1
  Ho  Ho4  1  0.143198  0.749993  0.795038  1
  Ho  Ho5  1  0.856858  0.249956  0.205045  1
  Ho  Ho6  1  0.643144  0.249939  0.704874  1
  Ho  Ho7  1  0.356801  0.749976  0.295058  1
  Ho  Ho8  1  0.819134  0.446647  0.936008  1
  Er  Er9  1  0.540142  0.750059  0.002579  1
  Er  Er10  1  0.459641  0.249975  0.997449  1
  Er  Er11  1  0.040323  0.249977  0.497454  1
  Er  Er12  1  0.959744  0.749980  0.502547  1
  Er  Er13  1  0.180734  0.553502  0.063991  1
  Er  Er14  1  0.319290  0.553454  0.563935  1
  Er  Er15  1  0.180735  0.946531  0.063961  1
  Er  Er16  1  0.680704  0.446551  0.436049  1
  Er  Er17  1  0.819290  0.053367  0.935978  1
  Er  Er18  1  0.680701  0.053441  0.436040  1
  Er  Er19  1  0.319315  0.946567  0.563946  1
  Ga  Ga20  1  0.908900  0.750256  0.975949  1
  Ga  Ga21  1  0.091288  0.249875  0.024191  1
  Ga  Ga22  1  0.408802  0.250013  0.524156  1
  Ga  Ga23  1  0.591177  0.749988  0.475857  1
  Bi  Bi24  1  0.935308  0.008701  0.673937  1
  Bi  Bi25  1  0.064712  0.991265  0.326053  1
  Bi  Bi26  1  0.435312  0.991252  0.826047  1
  Bi  Bi27  1  0.064695  0.508732  0.326048  1
  Bi  Bi28  1  0.564689  0.008710  0.173970  1
  Bi  Bi29  1  0.935371  0.491290  0.673881  1
  Bi  Bi30  1  0.564742  0.491282  0.174003  1
  Bi  Bi31  1  0.435208  0.508725  0.826008  1
