# generated using pymatgen
data_NiSb4Au
_symmetry_space_group_name_H-M   'P 1'
_cell_length_a   4.06740700
_cell_length_b   5.42101901
_cell_length_c   6.57992990
_cell_angle_alpha   90.08598752
_cell_angle_beta   90.00000000
_cell_angle_gamma   90.00000000
_symmetry_Int_Tables_number   1
_chemical_formula_structural   NiSb4Au
_chemical_formula_sum   'Ni1 Sb4 Au1'
_cell_volume   145.08393947
_cell_formula_units_Z   1
loop_
 _symmetry_equiv_pos_site_id
 _symmetry_equiv_pos_as_xyz
  1  'x, y, z'
loop_
 _atom_site_type_symbol
 _atom_site_label
 _atom_site_symmetry_multiplicity
 _atom_site_fract_x
 _atom_site_fract_y
 _atom_site_fract_z
 _atom_site_occupancy
  Ni  Ni0  1  0.000000  0.000000  0.000000  1
  Sb  Sb1  1  0.500000  0.267633  0.879995  1
  Sb  Sb2  1  0.500000  0.732367  0.120005  1
  Sb  Sb3  1  0.000000  0.803461  0.650687  1
  Sb  Sb4  1  0.000000  0.196539  0.349313  1
  Au  Au5  1  0.500000  0.500000  0.500000  1
