# generated using pymatgen
data_K2(GaSb)3
_symmetry_space_group_name_H-M   'P 1'
_cell_length_a   4.47770100
_cell_length_b   7.44559300
_cell_length_c   29.22832700
_cell_angle_alpha   90.00000000
_cell_angle_beta   90.00000000
_cell_angle_gamma   90.00000000
_symmetry_Int_Tables_number   1
_chemical_formula_structural   K2(GaSb)3
_chemical_formula_sum   'K8 Ga12 Sb12'
_cell_volume   974.44726307
_cell_formula_units_Z   4
loop_
 _symmetry_equiv_pos_site_id
 _symmetry_equiv_pos_as_xyz
  1  'x, y, z'
loop_
 _atom_site_type_symbol
 _atom_site_label
 _atom_site_symmetry_multiplicity
 _atom_site_fract_x
 _atom_site_fract_y
 _atom_site_fract_z
 _atom_site_occupancy
  K  K0  1  0.250000  0.231644  0.496564  1
  K  K1  1  0.750000  0.768356  0.503436  1
  K  K2  1  0.750000  0.731644  0.003436  1
  K  K3  1  0.250000  0.268356  0.996564  1
  K  K4  1  0.250000  0.239644  0.812273  1
  K  K5  1  0.750000  0.760356  0.187727  1
  K  K6  1  0.750000  0.739644  0.687727  1
  K  K7  1  0.250000  0.260356  0.312273  1
  Ga  Ga8  1  0.250000  0.550277  0.622105  1
  Ga  Ga9  1  0.750000  0.449723  0.377895  1
  Ga  Ga10  1  0.750000  0.050277  0.877895  1
  Ga  Ga11  1  0.250000  0.949723  0.122105  1
  Ga  Ga12  1  0.250000  0.077622  0.206320  1
  Ga  Ga13  1  0.750000  0.922378  0.793680  1
  Ga  Ga14  1  0.750000  0.577622  0.293680  1
  Ga  Ga15  1  0.250000  0.422378  0.706320  1
  Ga  Ga16  1  0.750000  0.398062  0.126959  1
  Ga  Ga17  1  0.250000  0.601938  0.873041  1
  Ga  Ga18  1  0.250000  0.898062  0.373041  1
  Ga  Ga19  1  0.750000  0.101938  0.626959  1
  Sb  Sb20  1  0.750000  0.204717  0.718748  1
  Sb  Sb21  1  0.250000  0.795283  0.281252  1
  Sb  Sb22  1  0.250000  0.704717  0.781252  1
  Sb  Sb23  1  0.750000  0.295283  0.218748  1
  Sb  Sb24  1  0.250000  0.913553  0.598839  1
  Sb  Sb25  1  0.750000  0.086447  0.401161  1
  Sb  Sb26  1  0.750000  0.413553  0.901161  1
  Sb  Sb27  1  0.250000  0.586447  0.098839  1
  Sb  Sb28  1  0.750000  0.413430  0.581550  1
  Sb  Sb29  1  0.250000  0.586570  0.418450  1
  Sb  Sb30  1  0.250000  0.913430  0.918450  1
  Sb  Sb31  1  0.750000  0.086570  0.081550  1
