# generated using pymatgen
data_Hf3Ga4IrRh
_symmetry_space_group_name_H-M   'P 1'
_cell_length_a   6.99544700
_cell_length_b   6.99544605
_cell_length_c   3.68115100
_cell_angle_alpha   90.00000000
_cell_angle_beta   90.00000000
_cell_angle_gamma   119.99999978
_symmetry_Int_Tables_number   1
_chemical_formula_structural   Hf3Ga4IrRh
_chemical_formula_sum   'Hf3 Ga4 Ir1 Rh1'
_cell_volume   156.00738133
_cell_formula_units_Z   1
loop_
 _symmetry_equiv_pos_site_id
 _symmetry_equiv_pos_as_xyz
  1  'x, y, z'
loop_
 _atom_site_type_symbol
 _atom_site_label
 _atom_site_symmetry_multiplicity
 _atom_site_fract_x
 _atom_site_fract_y
 _atom_site_fract_z
 _atom_site_occupancy
  Hf  Hf0  1  0.405563  0.012195  0.500000  1
  Hf  Hf1  1  0.987805  0.393368  0.500000  1
  Hf  Hf2  1  0.606632  0.594437  0.500000  1
  Ga  Ga3  1  0.740145  0.997748  0.000000  1
  Ga  Ga4  1  0.002252  0.742395  0.000000  1
  Ga  Ga5  1  0.257605  0.259855  0.000000  1
  Ga  Ga6  1  0.333333  0.666667  0.000000  1
  Ir  Ir7  1  0.666667  0.333333  0.000000  1
  Rh  Rh8  1  0.000000  0.000000  0.500000  1
