# generated using pymatgen
data_SrNpNiS3
_symmetry_space_group_name_H-M   'P 1'
_cell_length_a   3.92231211
_cell_length_b   6.75567342
_cell_length_c   10.17462453
_cell_angle_alpha   89.98035202
_cell_angle_beta   90.02611614
_cell_angle_gamma   73.11563237
_symmetry_Int_Tables_number   1
_chemical_formula_structural   SrNpNiS3
_chemical_formula_sum   'Sr2 Np2 Ni2 S6'
_cell_volume   257.98378144
_cell_formula_units_Z   2
loop_
 _symmetry_equiv_pos_site_id
 _symmetry_equiv_pos_as_xyz
  1  'x, y, z'
loop_
 _atom_site_type_symbol
 _atom_site_label
 _atom_site_symmetry_multiplicity
 _atom_site_fract_x
 _atom_site_fract_y
 _atom_site_fract_z
 _atom_site_occupancy
  Sr  Sr0  1  0.257302  0.485937  0.250137  1
  Sr  Sr1  1  0.742693  0.514059  0.749862  1
  Np  Np2  1  0.000008  0.999993  0.999999  1
  Np  Np3  1  0.000003  0.999997  0.500001  1
  Ni  Ni4  1  0.528544  0.943704  0.249905  1
  Ni  Ni5  1  0.471421  0.056330  0.750100  1
  S  S6  1  0.636944  0.727081  0.072911  1
  S  S7  1  0.932375  0.135713  0.249853  1
  S  S8  1  0.636501  0.727157  0.427049  1
  S  S9  1  0.363512  0.272837  0.572965  1
  S  S10  1  0.067604  0.864281  0.750145  1
  S  S11  1  0.363077  0.272907  0.927072  1
