# generated using pymatgen
data_SmLu(OsO4)2
_symmetry_space_group_name_H-M   'P 1'
_cell_length_a   5.35940542
_cell_length_b   7.43695528
_cell_length_c   7.70672961
_cell_angle_alpha   79.72333388
_cell_angle_beta   94.15064602
_cell_angle_gamma   90.93311308
_symmetry_Int_Tables_number   1
_chemical_formula_structural   SmLu(OsO4)2
_chemical_formula_sum   'Sm2 Lu2 Os4 O16'
_cell_volume   301.44996174
_cell_formula_units_Z   2
loop_
 _symmetry_equiv_pos_site_id
 _symmetry_equiv_pos_as_xyz
  1  'x, y, z'
loop_
 _atom_site_type_symbol
 _atom_site_label
 _atom_site_symmetry_multiplicity
 _atom_site_fract_x
 _atom_site_fract_y
 _atom_site_fract_z
 _atom_site_occupancy
  Sm  Sm0  1  0.740244  0.885319  0.379626  1
  Sm  Sm1  1  0.259756  0.114681  0.620374  1
  Lu  Lu2  1  0.808897  0.393989  0.330289  1
  Lu  Lu3  1  0.191103  0.606011  0.669711  1
  Os  Os4  1  0.754836  0.296243  0.838212  1
  Os  Os5  1  0.245164  0.703757  0.161788  1
  Os  Os6  1  0.286461  0.202209  0.162808  1
  Os  Os7  1  0.713539  0.797791  0.837192  1
  O  O8  1  0.944495  0.786061  0.033218  1
  O  O9  1  0.055505  0.213939  0.966782  1
  O  O10  1  0.379569  0.948732  0.171343  1
  O  O11  1  0.620431  0.051268  0.828657  1
  O  O12  1  0.145196  0.445556  0.176668  1
  O  O13  1  0.854804  0.554444  0.823332  1
  O  O14  1  0.597557  0.302782  0.062461  1
  O  O15  1  0.402443  0.697218  0.937539  1
  O  O16  1  0.939359  0.330954  0.609374  1
  O  O17  1  0.060641  0.669046  0.390626  1
  O  O18  1  0.510379  0.186006  0.387854  1
  O  O19  1  0.489621  0.813994  0.612146  1
  O  O20  1  0.554073  0.620703  0.290500  1
  O  O21  1  0.445927  0.379297  0.709500  1
  O  O22  1  0.022171  0.124217  0.334169  1
  O  O23  1  0.977829  0.875783  0.665831  1
