# generated using pymatgen
data_DyY4Co16(MoP4)3
_symmetry_space_group_name_H-M   'P 1'
_cell_length_a   12.08856200
_cell_length_b   12.08856118
_cell_length_c   3.71415300
_cell_angle_alpha   90.00000000
_cell_angle_beta   90.00000000
_cell_angle_gamma   119.99999129
_symmetry_Int_Tables_number   1
_chemical_formula_structural   DyY4Co16(MoP4)3
_chemical_formula_sum   'Dy1 Y4 Co16 Mo3 P12'
_cell_volume   470.04530055
_cell_formula_units_Z   1
loop_
 _symmetry_equiv_pos_site_id
 _symmetry_equiv_pos_as_xyz
  1  'x, y, z'
loop_
 _atom_site_type_symbol
 _atom_site_label
 _atom_site_symmetry_multiplicity
 _atom_site_fract_x
 _atom_site_fract_y
 _atom_site_fract_z
 _atom_site_occupancy
  Dy  Dy0  1  0.333333  0.666667  0.000000  1
  Y  Y1  1  0.666667  0.333333  0.000000  1
  Y  Y2  1  0.185274  0.185274  0.500000  1
  Y  Y3  1  0.814726  0.000000  0.500000  1
  Y  Y4  1  0.000000  0.814726  0.500000  1
  Co  Co5  1  0.822880  0.198167  0.000000  1
  Co  Co6  1  0.801833  0.624714  0.000000  1
  Co  Co7  1  0.375286  0.177120  0.000000  1
  Co  Co8  1  0.198177  0.822871  0.000000  1
  Co  Co9  1  0.624695  0.801823  0.000000  1
  Co  Co10  1  0.177129  0.375305  0.000000  1
  Co  Co11  1  0.644832  0.126962  0.500000  1
  Co  Co12  1  0.873038  0.517871  0.500000  1
  Co  Co13  1  0.482129  0.355168  0.500000  1
  Co  Co14  1  0.126995  0.644836  0.500000  1
  Co  Co15  1  0.517842  0.873005  0.500000  1
  Co  Co16  1  0.355164  0.482158  0.500000  1
  Co  Co17  1  0.719286  0.719284  0.500000  1
  Co  Co18  1  0.280716  0.000001  0.500000  1
  Co  Co19  1  0.999999  0.280714  0.500000  1
  Co  Co20  1  0.000000  0.000000  0.000000  1
  Mo  Mo21  1  0.553781  0.553789  0.000000  1
  Mo  Mo22  1  0.446211  0.999992  0.000000  1
  Mo  Mo23  1  0.000008  0.446219  0.000000  1
  P  P24  1  0.361145  0.361144  0.000000  1
  P  P25  1  0.638856  0.000001  0.000000  1
  P  P26  1  0.999999  0.638855  0.000000  1
  P  P27  1  0.834632  0.313808  0.500000  1
  P  P28  1  0.686192  0.520823  0.500000  1
  P  P29  1  0.479177  0.165368  0.500000  1
  P  P30  1  0.313812  0.834591  0.500000  1
  P  P31  1  0.520779  0.686188  0.500000  1
  P  P32  1  0.165409  0.479221  0.500000  1
  P  P33  1  0.821319  0.821319  0.000000  1
  P  P34  1  0.178681  0.000000  0.000000  1
  P  P35  1  0.000000  0.178681  0.000000  1
