# generated using pymatgen
data_CsAl5(ZnTe3)4
_symmetry_space_group_name_H-M   'P 1'
_cell_length_a   9.58168557
_cell_length_b   9.55264325
_cell_length_c   9.60469515
_cell_angle_alpha   107.47625125
_cell_angle_beta   107.55710061
_cell_angle_gamma   107.35422259
_symmetry_Int_Tables_number   1
_chemical_formula_structural   CsAl5(ZnTe3)4
_chemical_formula_sum   'Cs1 Al5 Zn4 Te12'
_cell_volume   722.70279372
_cell_formula_units_Z   1
loop_
 _symmetry_equiv_pos_site_id
 _symmetry_equiv_pos_as_xyz
  1  'x, y, z'
loop_
 _atom_site_type_symbol
 _atom_site_label
 _atom_site_symmetry_multiplicity
 _atom_site_fract_x
 _atom_site_fract_y
 _atom_site_fract_z
 _atom_site_occupancy
  Cs  Cs0  1  0.997842  0.997273  0.996220  1
  Al  Al1  1  0.485261  0.340159  0.941671  1
  Al  Al2  1  0.940486  0.491623  0.342317  1
  Al  Al3  1  0.334111  0.932659  0.481377  1
  Al  Al4  1  0.017957  0.186991  0.558166  1
  Al  Al5  1  0.557959  0.019794  0.184009  1
  Zn  Zn6  1  0.631417  0.705557  0.398450  1
  Zn  Zn7  1  0.403360  0.638602  0.716511  1
  Zn  Zn8  1  0.711727  0.395579  0.633634  1
  Zn  Zn9  1  0.188162  0.560105  0.017904  1
  Te  Te10  1  0.781292  0.922776  0.297780  1
  Te  Te11  1  0.301557  0.786610  0.924262  1
  Te  Te12  1  0.924030  0.297314  0.779460  1
  Te  Te13  1  0.069689  0.694432  0.227703  1
  Te  Te14  1  0.227922  0.074385  0.692978  1
  Te  Te15  1  0.698511  0.230031  0.076071  1
  Te  Te16  1  0.378409  0.442522  0.154636  1
  Te  Te17  1  0.156162  0.381637  0.445889  1
  Te  Te18  1  0.441371  0.152623  0.377116  1
  Te  Te19  1  0.857804  0.632239  0.561186  1
  Te  Te20  1  0.556750  0.857046  0.630349  1
  Te  Te21  1  0.632861  0.554684  0.856951  1
