# generated using pymatgen
data_Er8Lu2Zn3Bi2Pt
_symmetry_space_group_name_H-M   'P 1'
_cell_length_a   8.59671440
_cell_length_b   8.59671319
_cell_length_c   8.55959875
_cell_angle_alpha   124.28417990
_cell_angle_beta   124.28417254
_cell_angle_gamma   83.00793363
_symmetry_Int_Tables_number   1
_chemical_formula_structural   Er8Lu2Zn3Bi2Pt
_chemical_formula_sum   'Er8 Lu2 Zn3 Bi2 Pt1'
_cell_volume   413.76254329
_cell_formula_units_Z   1
loop_
 _symmetry_equiv_pos_site_id
 _symmetry_equiv_pos_as_xyz
  1  'x, y, z'
loop_
 _atom_site_type_symbol
 _atom_site_label
 _atom_site_symmetry_multiplicity
 _atom_site_fract_x
 _atom_site_fract_y
 _atom_site_fract_z
 _atom_site_occupancy
  Er  Er0  1  0.794316  0.294316  0.809036  1
  Er  Er1  1  0.294566  0.492408  0.506797  1
  Er  Er2  1  0.992408  0.794566  0.506797  1
  Er  Er3  1  0.712231  0.514389  0.506797  1
  Er  Er4  1  0.014389  0.212231  0.506797  1
  Er  Er5  1  0.514719  0.014719  0.809036  1
  Er  Er6  1  0.199920  0.699920  0.176816  1
  Er  Er7  1  0.476896  0.976896  0.176816  1
  Lu  Lu8  1  0.002361  0.995425  0.997786  1
  Lu  Lu9  1  0.495425  0.502361  0.997786  1
  Zn  Zn10  1  0.862118  0.362118  0.224235  1
  Zn  Zn11  1  0.363046  0.139512  0.502558  1
  Zn  Zn12  1  0.639512  0.863046  0.502558  1
  Bi  Bi13  1  0.252712  0.252712  0.005424  1
  Bi  Bi14  1  0.752712  0.752712  0.005424  1
  Pt  Pt15  1  0.132669  0.632669  0.765337  1
