# generated using pymatgen
data_Ba8Na4Al3GaAs12
_symmetry_space_group_name_H-M   'P 1'
_cell_length_a   8.67936438
_cell_length_b   8.67936324
_cell_length_c   12.48551301
_cell_angle_alpha   76.06013046
_cell_angle_beta   76.06013237
_cell_angle_gamma   67.42450856
_symmetry_Int_Tables_number   1
_chemical_formula_structural   Ba8Na4Al3GaAs12
_chemical_formula_sum   'Ba8 Na4 Al3 Ga1 As12'
_cell_volume   831.26291658
_cell_formula_units_Z   1
loop_
 _symmetry_equiv_pos_site_id
 _symmetry_equiv_pos_as_xyz
  1  'x, y, z'
loop_
 _atom_site_type_symbol
 _atom_site_label
 _atom_site_symmetry_multiplicity
 _atom_site_fract_x
 _atom_site_fract_y
 _atom_site_fract_z
 _atom_site_occupancy
  Ba  Ba0  1  0.745310  0.193973  0.685835  1
  Ba  Ba1  1  0.256460  0.805662  0.314038  1
  Ba  Ba2  1  0.193973  0.745310  0.685835  1
  Ba  Ba3  1  0.500557  0.999267  0.499386  1
  Ba  Ba4  1  0.805662  0.256460  0.314038  1
  Ba  Ba5  1  0.000153  0.500133  0.000140  1
  Ba  Ba6  1  0.500133  0.000153  0.000140  1
  Ba  Ba7  1  0.999267  0.500557  0.499386  1
  Na  Na8  1  0.295943  0.703748  0.999314  1
  Na  Na9  1  0.358142  0.358142  0.227892  1
  Na  Na10  1  0.641222  0.641222  0.772500  1
  Na  Na11  1  0.703748  0.295943  0.999314  1
  Al  Al12  1  0.091737  0.091737  0.884450  1
  Al  Al13  1  0.909418  0.909418  0.115594  1
  Al  Al14  1  0.301255  0.301255  0.739044  1
  Ga  Ga15  1  0.696452  0.696452  0.262110  1
  As  As16  1  0.020434  0.617509  0.226470  1
  As  As17  1  0.586250  0.586250  0.133939  1
  As  As18  1  0.981924  0.384434  0.772713  1
  As  As19  1  0.089825  0.089825  0.486269  1
  As  As20  1  0.588498  0.588498  0.486669  1
  As  As21  1  0.914679  0.914679  0.909122  1
  As  As22  1  0.086204  0.086204  0.090917  1
  As  As23  1  0.411782  0.411782  0.863736  1
  As  As24  1  0.617509  0.020434  0.226470  1
  As  As25  1  0.910569  0.910569  0.512761  1
  As  As26  1  0.384434  0.981924  0.772713  1
  As  As27  1  0.408461  0.408461  0.519202  1
