# generated using pymatgen
data_La4Pt13Rh
_symmetry_space_group_name_H-M   'P 1'
_cell_length_a   13.89927558
_cell_length_b   13.89927554
_cell_length_c   13.89650602
_cell_angle_alpha   22.69361947
_cell_angle_beta   22.69361896
_cell_angle_gamma   22.70409125
_symmetry_Int_Tables_number   1
_chemical_formula_structural   La4Pt13Rh
_chemical_formula_sum   'La4 Pt13 Rh1'
_cell_volume   350.68635621
_cell_formula_units_Z   1
loop_
 _symmetry_equiv_pos_site_id
 _symmetry_equiv_pos_as_xyz
  1  'x, y, z'
loop_
 _atom_site_type_symbol
 _atom_site_label
 _atom_site_symmetry_multiplicity
 _atom_site_fract_x
 _atom_site_fract_y
 _atom_site_fract_z
 _atom_site_occupancy
  La  La0  1  0.950918  0.950918  0.950988  1
  La  La1  1  0.049082  0.049082  0.049012  1
  La  La2  1  0.852984  0.852984  0.852558  1
  La  La3  1  0.147016  0.147016  0.147442  1
  Pt  Pt4  1  0.500000  0.500000  0.500000  1
  Pt  Pt5  1  0.720480  0.720480  0.724758  1
  Pt  Pt6  1  0.279520  0.279520  0.275242  1
  Pt  Pt7  1  0.609409  0.609409  0.616996  1
  Pt  Pt8  1  0.390591  0.390591  0.383004  1
  Pt  Pt9  1  0.000000  0.500000  0.500000  1
  Pt  Pt10  1  0.500000  0.000000  0.500000  1
  Pt  Pt11  1  0.388053  0.892313  0.387192  1
  Pt  Pt12  1  0.388128  0.388128  0.891643  1
  Pt  Pt13  1  0.892313  0.388053  0.387192  1
  Pt  Pt14  1  0.611947  0.107687  0.612808  1
  Pt  Pt15  1  0.611872  0.611872  0.108357  1
  Pt  Pt16  1  0.107687  0.611947  0.612808  1
  Rh  Rh17  1  0.500000  0.500000  0.000000  1
