# generated using pymatgen
data_La3ZnCd2IrPd2
_symmetry_space_group_name_H-M   'P 1'
_cell_length_a   7.75567501
_cell_length_b   7.71395891
_cell_length_c   4.05731700
_cell_angle_alpha   90.00000000
_cell_angle_beta   90.00000000
_cell_angle_gamma   120.17603107
_symmetry_Int_Tables_number   1
_chemical_formula_structural   La3ZnCd2IrPd2
_chemical_formula_sum   'La3 Zn1 Cd2 Ir1 Pd2'
_cell_volume   209.84247779
_cell_formula_units_Z   1
loop_
 _symmetry_equiv_pos_site_id
 _symmetry_equiv_pos_as_xyz
  1  'x, y, z'
loop_
 _atom_site_type_symbol
 _atom_site_label
 _atom_site_symmetry_multiplicity
 _atom_site_fract_x
 _atom_site_fract_y
 _atom_site_fract_z
 _atom_site_occupancy
  La  La0  1  0.429221  0.416132  0.500000  1
  La  La1  1  0.596668  0.007763  0.500000  1
  La  La2  1  0.980724  0.583671  0.500000  1
  Zn  Zn3  1  0.751583  0.751138  0.000000  1
  Cd  Cd4  1  0.244936  0.998440  0.000000  1
  Cd  Cd5  1  0.007644  0.249393  0.000000  1
  Ir  Ir6  1  0.669370  0.344215  0.000000  1
  Pd  Pd7  1  0.342661  0.670413  0.000000  1
  Pd  Pd8  1  0.977192  0.978836  0.500000  1
