# generated using pymatgen
data_Li28Mg2Si7Sn
_symmetry_space_group_name_H-M   'P 1'
_cell_length_a   9.28798261
_cell_length_b   9.27186032
_cell_length_c   9.28126196
_cell_angle_alpha   109.25995282
_cell_angle_beta   109.46329741
_cell_angle_gamma   109.55242236
_symmetry_Int_Tables_number   1
_chemical_formula_structural   Li28Mg2Si7Sn
_chemical_formula_sum   'Li28 Mg2 Si7 Sn1'
_cell_volume   616.32328767
_cell_formula_units_Z   1
loop_
 _symmetry_equiv_pos_site_id
 _symmetry_equiv_pos_as_xyz
  1  'x, y, z'
loop_
 _atom_site_type_symbol
 _atom_site_label
 _atom_site_symmetry_multiplicity
 _atom_site_fract_x
 _atom_site_fract_y
 _atom_site_fract_z
 _atom_site_occupancy
  Li  Li0  1  0.056531  0.539033  0.280355  1
  Li  Li1  1  0.263355  0.789954  0.722593  1
  Li  Li2  1  0.184556  0.960160  0.973396  1
  Li  Li3  1  0.978913  0.204362  0.022520  1
  Li  Li4  1  0.039317  0.013745  0.225242  1
  Li  Li5  1  0.789116  0.814471  0.774796  1
  Li  Li6  1  0.466792  0.743038  0.535779  1
  Li  Li7  1  0.211226  0.934235  0.473228  1
  Li  Li8  1  0.717477  0.345010  0.061630  1
  Li  Li9  1  0.958140  0.400231  0.864388  1
  Li  Li10  1  0.285487  0.659219  0.931794  1
  Li  Li11  1  0.532961  0.092454  0.128665  1
  Li  Li12  1  0.691346  0.857985  0.089769  1
  Li  Li13  1  0.487071  0.901782  0.339571  1
  Li  Li14  1  0.558253  0.147281  0.666724  1
  Li  Li15  1  0.771017  0.604021  0.910662  1
  Li  Li16  1  0.850053  0.519401  0.411124  1
  Li  Li17  1  0.402639  0.301933  0.166691  1
  Li  Li18  1  0.139280  0.225229  0.827705  1
  Li  Li19  1  0.107724  0.440988  0.588710  1
  Li  Li20  1  0.904978  0.034698  0.437669  1
  Li  Li21  1  0.344652  0.281640  0.628340  1
  Li  Li22  1  0.595510  0.468072  0.561041  1
  Li  Li23  1  0.661979  0.720451  0.375650  1
  Li  Li24  1  0.001266  0.874446  0.625171  1
  Li  Li25  1  0.249092  0.372199  0.378462  1
  Li  Li26  1  0.122827  0.753444  0.124897  1
  Li  Li27  1  0.624267  0.999536  0.875555  1
  Mg  Mg28  1  0.505303  0.498746  0.996074  1
  Mg  Mg29  1  0.749779  0.251138  0.499224  1
  Si  Si30  1  0.374802  0.126471  0.835702  1
  Si  Si31  1  0.957992  0.623113  0.744223  1
  Si  Si32  1  0.874838  0.212165  0.254969  1
  Si  Si33  1  0.377446  0.124592  0.337652  1
  Si  Si34  1  0.787887  0.042040  0.664150  1
  Si  Si35  1  0.463556  0.625768  0.754496  1
  Si  Si36  1  0.873190  0.709520  0.245493  1
  Sn  Sn37  1  0.289380  0.537430  0.165891  1
