# generated using pymatgen
data_GdSi3N5
_symmetry_space_group_name_H-M   'P 1'
_cell_length_a   4.76269300
_cell_length_b   7.81991400
_cell_length_c   11.29103000
_cell_angle_alpha   90.00000000
_cell_angle_beta   90.00000000
_cell_angle_gamma   90.00000000
_symmetry_Int_Tables_number   1
_chemical_formula_structural   GdSi3N5
_chemical_formula_sum   'Gd4 Si12 N20'
_cell_volume   420.52142392
_cell_formula_units_Z   4
loop_
 _symmetry_equiv_pos_site_id
 _symmetry_equiv_pos_as_xyz
  1  'x, y, z'
loop_
 _atom_site_type_symbol
 _atom_site_label
 _atom_site_symmetry_multiplicity
 _atom_site_fract_x
 _atom_site_fract_y
 _atom_site_fract_z
 _atom_site_occupancy
  Gd  Gd0  1  0.495541  0.054806  0.178871  1
  Gd  Gd1  1  0.004459  0.945194  0.678871  1
  Gd  Gd2  1  0.504459  0.554806  0.321129  1
  Gd  Gd3  1  0.995541  0.445194  0.821129  1
  Si  Si4  1  0.009462  0.207363  0.417260  1
  Si  Si5  1  0.490538  0.792637  0.917260  1
  Si  Si6  1  0.990538  0.707363  0.082740  1
  Si  Si7  1  0.509462  0.292637  0.582740  1
  Si  Si8  1  0.534360  0.464493  0.039712  1
  Si  Si9  1  0.965640  0.535507  0.539712  1
  Si  Si10  1  0.465640  0.964493  0.460288  1
  Si  Si11  1  0.034360  0.035507  0.960288  1
  Si  Si12  1  0.026386  0.336373  0.163201  1
  Si  Si13  1  0.473614  0.663627  0.663201  1
  Si  Si14  1  0.973614  0.836373  0.336799  1
  Si  Si15  1  0.526386  0.163627  0.836799  1
  N  N16  1  0.179397  0.292834  0.298158  1
  N  N17  1  0.320603  0.707166  0.798158  1
  N  N18  1  0.820603  0.792834  0.201842  1
  N  N19  1  0.679397  0.207166  0.701842  1
  N  N20  1  0.197398  0.519813  0.097622  1
  N  N21  1  0.302602  0.480187  0.597622  1
  N  N22  1  0.802602  0.019813  0.402378  1
  N  N23  1  0.697398  0.980187  0.902378  1
  N  N24  1  0.676678  0.383430  0.168111  1
  N  N25  1  0.823322  0.616570  0.668111  1
  N  N26  1  0.323322  0.883430  0.331889  1
  N  N27  1  0.176678  0.116570  0.831889  1
  N  N28  1  0.070031  0.154933  0.083688  1
  N  N29  1  0.429969  0.845067  0.583688  1
  N  N30  1  0.929969  0.654933  0.416312  1
  N  N31  1  0.570031  0.345067  0.916312  1
  N  N32  1  0.281370  0.147123  0.514566  1
  N  N33  1  0.218630  0.852877  0.014566  1
  N  N34  1  0.718630  0.647123  0.985434  1
  N  N35  1  0.781370  0.352877  0.485434  1
