# generated using pymatgen
data_Tm2Ni7(As2Ru)3
_symmetry_space_group_name_H-M   'P 1'
_cell_length_a   3.82146000
_cell_length_b   10.95754800
_cell_length_c   12.36617000
_cell_angle_alpha   90.00000000
_cell_angle_beta   90.00000000
_cell_angle_gamma   90.00000000
_symmetry_Int_Tables_number   1
_chemical_formula_structural   Tm2Ni7(As2Ru)3
_chemical_formula_sum   'Tm4 Ni14 As12 Ru6'
_cell_volume   517.81891740
_cell_formula_units_Z   2
loop_
 _symmetry_equiv_pos_site_id
 _symmetry_equiv_pos_as_xyz
  1  'x, y, z'
loop_
 _atom_site_type_symbol
 _atom_site_label
 _atom_site_symmetry_multiplicity
 _atom_site_fract_x
 _atom_site_fract_y
 _atom_site_fract_z
 _atom_site_occupancy
  Tm  Tm0  1  0.250000  0.587923  0.704722  1
  Tm  Tm1  1  0.250000  0.912077  0.204722  1
  Tm  Tm2  1  0.750000  0.412203  0.293704  1
  Tm  Tm3  1  0.750000  0.087797  0.793704  1
  Ni  Ni4  1  0.750000  0.592108  0.512381  1
  Ni  Ni5  1  0.750000  0.907892  0.012381  1
  Ni  Ni6  1  0.250000  0.217972  0.183146  1
  Ni  Ni7  1  0.250000  0.282028  0.683146  1
  Ni  Ni8  1  0.750000  0.784131  0.817522  1
  Ni  Ni9  1  0.750000  0.715869  0.317522  1
  Ni  Ni10  1  0.250000  0.887384  0.697596  1
  Ni  Ni11  1  0.250000  0.612616  0.197596  1
  Ni  Ni12  1  0.750000  0.108707  0.302226  1
  Ni  Ni13  1  0.750000  0.391293  0.802226  1
  Ni  Ni14  1  0.250000  0.470731  0.930085  1
  Ni  Ni15  1  0.250000  0.029269  0.430085  1
  Ni  Ni16  1  0.750000  0.532763  0.069375  1
  Ni  Ni17  1  0.750000  0.967237  0.569375  1
  As  As18  1  0.250000  0.413023  0.113501  1
  As  As19  1  0.250000  0.086977  0.613501  1
  As  As20  1  0.750000  0.589049  0.886459  1
  As  As21  1  0.750000  0.910951  0.386459  1
  As  As22  1  0.250000  0.270812  0.872881  1
  As  As23  1  0.250000  0.229188  0.372881  1
  As  As24  1  0.750000  0.732764  0.126516  1
  As  As25  1  0.750000  0.767236  0.626516  1
  As  As26  1  0.250000  0.597186  0.384182  1
  As  As27  1  0.250000  0.902814  0.884182  1
  As  As28  1  0.750000  0.404024  0.615911  1
  As  As29  1  0.750000  0.095976  0.115911  1
  Ru  Ru30  1  0.250000  0.715594  0.988641  1
  Ru  Ru31  1  0.250000  0.784406  0.488641  1
  Ru  Ru32  1  0.750000  0.289297  0.012484  1
  Ru  Ru33  1  0.750000  0.210703  0.512484  1
  Ru  Ru34  1  0.250000  0.410892  0.488667  1
  Ru  Ru35  1  0.250000  0.089108  0.988667  1
