# generated using pymatgen
data_Cs6InTe4Br
_symmetry_space_group_name_H-M   'P 1'
_cell_length_a   12.23499800
_cell_length_b   12.23499843
_cell_length_c   9.02017300
_cell_angle_alpha   90.00000000
_cell_angle_beta   90.00000000
_cell_angle_gamma   120.00000425
_symmetry_Int_Tables_number   1
_chemical_formula_structural   Cs6InTe4Br
_chemical_formula_sum   'Cs12 In2 Te8 Br2'
_cell_volume   1169.37364264
_cell_formula_units_Z   2
loop_
 _symmetry_equiv_pos_site_id
 _symmetry_equiv_pos_as_xyz
  1  'x, y, z'
loop_
 _atom_site_type_symbol
 _atom_site_label
 _atom_site_symmetry_multiplicity
 _atom_site_fract_x
 _atom_site_fract_y
 _atom_site_fract_z
 _atom_site_occupancy
  Cs  Cs0  1  0.132511  0.867489  0.516302  1
  Cs  Cs1  1  0.734976  0.867489  0.516302  1
  Cs  Cs2  1  0.954354  0.477177  0.319087  1
  Cs  Cs3  1  0.522823  0.477177  0.319087  1
  Cs  Cs4  1  0.867489  0.734976  0.016302  1
  Cs  Cs5  1  0.265024  0.132511  0.016302  1
  Cs  Cs6  1  0.522823  0.045646  0.319087  1
  Cs  Cs7  1  0.132511  0.265024  0.516302  1
  Cs  Cs8  1  0.867489  0.132511  0.016302  1
  Cs  Cs9  1  0.045646  0.522823  0.819087  1
  Cs  Cs10  1  0.477177  0.954354  0.819087  1
  Cs  Cs11  1  0.477177  0.522823  0.819087  1
  In  In12  1  0.666667  0.333333  0.708081  1
  In  In13  1  0.333333  0.666667  0.208081  1
  Te  Te14  1  0.410700  0.205350  0.608405  1
  Te  Te15  1  0.589300  0.794650  0.108405  1
  Te  Te16  1  0.666667  0.333333  0.026230  1
  Te  Te17  1  0.794650  0.589300  0.608405  1
  Te  Te18  1  0.205350  0.410700  0.108405  1
  Te  Te19  1  0.333333  0.666667  0.526230  1
  Te  Te20  1  0.205350  0.794650  0.108405  1
  Te  Te21  1  0.794650  0.205350  0.608405  1
  Br  Br22  1  0.000000  0.000000  0.274910  1
  Br  Br23  1  0.000000  0.000000  0.774910  1
