# generated using pymatgen
data_Dy2Co5Si4Ir
_symmetry_space_group_name_H-M   'P 1'
_cell_length_a   6.35168013
_cell_length_b   6.35240269
_cell_length_c   6.35168062
_cell_angle_alpha   113.69455286
_cell_angle_beta   86.42189937
_cell_angle_gamma   131.33248742
_symmetry_Int_Tables_number   1
_chemical_formula_structural   Dy2Co5Si4Ir
_chemical_formula_sum   'Dy2 Co5 Si4 Ir1'
_cell_volume   168.36179878
_cell_formula_units_Z   1
loop_
 _symmetry_equiv_pos_site_id
 _symmetry_equiv_pos_as_xyz
  1  'x, y, z'
loop_
 _atom_site_type_symbol
 _atom_site_label
 _atom_site_symmetry_multiplicity
 _atom_site_fract_x
 _atom_site_fract_y
 _atom_site_fract_z
 _atom_site_occupancy
  Dy  Dy0  1  0.030303  0.782089  0.251786  1
  Dy  Dy1  1  0.969699  0.217913  0.748214  1
  Co  Co2  1  0.002061  0.220162  0.226974  1
  Co  Co3  1  0.506811  0.779837  0.281899  1
  Co  Co4  1  0.500000  0.500000  0.500000  1
  Co  Co5  1  0.493189  0.220162  0.718101  1
  Co  Co6  1  0.997939  0.779838  0.773026  1
  Si  Si7  1  0.369255  0.300055  0.079431  1
  Si  Si8  1  0.720624  0.300055  0.430800  1
  Si  Si9  1  0.279376  0.699944  0.569199  1
  Si  Si10  1  0.630745  0.699944  0.920568  1
  Ir  Ir11  1  0.500000  0.000000  0.000000  1
