# generated using pymatgen
data_Er7(IrSe)2
_symmetry_space_group_name_H-M   'P 1'
_cell_length_a   9.06097626
_cell_length_b   9.06097596
_cell_length_c   9.06097666
_cell_angle_alpha   155.38125008
_cell_angle_beta   119.09932212
_cell_angle_gamma   66.70752895
_symmetry_Int_Tables_number   1
_chemical_formula_structural   Er7(IrSe)2
_chemical_formula_sum   'Er7 Ir2 Se2'
_cell_volume   268.54664888
_cell_formula_units_Z   1
loop_
 _symmetry_equiv_pos_site_id
 _symmetry_equiv_pos_as_xyz
  1  'x, y, z'
loop_
 _atom_site_type_symbol
 _atom_site_label
 _atom_site_symmetry_multiplicity
 _atom_site_fract_x
 _atom_site_fract_y
 _atom_site_fract_z
 _atom_site_occupancy
  Er  Er0  1  0.540451  0.124536  0.415916  1
  Er  Er1  1  0.291379  0.875464  0.415916  1
  Er  Er2  1  0.946069  0.318252  0.627817  1
  Er  Er3  1  0.309566  0.681748  0.627817  1
  Er  Er4  1  0.619702  0.359660  0.260041  1
  Er  Er5  1  0.900380  0.640340  0.260041  1
  Er  Er6  1  0.003803  0.000000  0.003803  1
  Ir  Ir7  1  0.167058  0.238354  0.928705  1
  Ir  Ir8  1  0.690351  0.761646  0.928705  1
  Se  Se9  1  0.260895  0.500000  0.760895  1
  Se  Se10  1  0.661205  0.000000  0.661205  1
