# generated using pymatgen
data_NbV4W3O16
_symmetry_space_group_name_H-M   'P 1'
_cell_length_a   5.64847272
_cell_length_b   5.65022101
_cell_length_c   9.19618800
_cell_angle_alpha   92.33461234
_cell_angle_beta   87.61969049
_cell_angle_gamma   108.97044799
_symmetry_Int_Tables_number   1
_chemical_formula_structural   NbV4W3O16
_chemical_formula_sum   'Nb1 V4 W3 O16'
_cell_volume   277.20182197
_cell_formula_units_Z   1
loop_
 _symmetry_equiv_pos_site_id
 _symmetry_equiv_pos_as_xyz
  1  'x, y, z'
loop_
 _atom_site_type_symbol
 _atom_site_label
 _atom_site_symmetry_multiplicity
 _atom_site_fract_x
 _atom_site_fract_y
 _atom_site_fract_z
 _atom_site_occupancy
  Nb  Nb0  1  0.000052  0.000057  0.999992  1
  V  V1  1  0.873027  0.126934  0.623869  1
  V  V2  1  0.126958  0.873056  0.376127  1
  V  V3  1  0.621727  0.378316  0.875185  1
  V  V4  1  0.378296  0.621716  0.124818  1
  W  W5  1  0.247610  0.752263  0.751319  1
  W  W6  1  0.500046  0.500035  0.499998  1
  W  W7  1  0.752329  0.247671  0.248679  1
  O  O8  1  0.023016  0.977259  0.778410  1
  O  O9  1  0.277304  0.722917  0.528156  1
  O  O10  1  0.778624  0.221207  0.024830  1
  O  O11  1  0.530101  0.469775  0.277468  1
  O  O12  1  0.722694  0.277067  0.471845  1
  O  O13  1  0.977010  0.022761  0.221586  1
  O  O14  1  0.469881  0.530203  0.722533  1
  O  O15  1  0.221374  0.778803  0.975171  1
  O  O16  1  0.543616  0.048245  0.749204  1
  O  O17  1  0.796699  0.796211  0.499752  1
  O  O18  1  0.301263  0.301302  0.000016  1
  O  O19  1  0.048083  0.542977  0.250576  1
  O  O20  1  0.951987  0.457143  0.749457  1
  O  O21  1  0.203158  0.203634  0.500255  1
  O  O22  1  0.698632  0.698618  0.999979  1
  O  O23  1  0.456511  0.951832  0.250771  1
