# generated using pymatgen
data_HoEr2Pa(ReB6)2
_symmetry_space_group_name_H-M   'P 1'
_cell_length_a   3.68809000
_cell_length_b   9.14209283
_cell_length_c   11.51151400
_cell_angle_alpha   90.32810928
_cell_angle_beta   90.00000000
_cell_angle_gamma   90.00000000
_symmetry_Int_Tables_number   1
_chemical_formula_structural   HoEr2Pa(ReB6)2
_chemical_formula_sum   'Ho2 Er4 Pa2 Re4 B24'
_cell_volume   388.12575492
_cell_formula_units_Z   2
loop_
 _symmetry_equiv_pos_site_id
 _symmetry_equiv_pos_as_xyz
  1  'x, y, z'
loop_
 _atom_site_type_symbol
 _atom_site_label
 _atom_site_symmetry_multiplicity
 _atom_site_fract_x
 _atom_site_fract_y
 _atom_site_fract_z
 _atom_site_occupancy
  Ho  Ho0  1  0.000000  0.823766  0.085647  1
  Ho  Ho1  1  0.000000  0.176234  0.914353  1
  Er  Er2  1  0.000000  0.944874  0.372484  1
  Er  Er3  1  0.000000  0.055126  0.627516  1
  Er  Er4  1  0.000000  0.443848  0.126359  1
  Er  Er5  1  0.000000  0.556152  0.873641  1
  Pa  Pa6  1  0.000000  0.321379  0.413138  1
  Pa  Pa7  1  0.000000  0.678621  0.586862  1
  Re  Re8  1  0.000000  0.635268  0.324436  1
  Re  Re9  1  0.000000  0.364732  0.675564  1
  Re  Re10  1  0.000000  0.140506  0.181619  1
  Re  Re11  1  0.000000  0.859494  0.818381  1
  B  B12  1  0.500000  0.553638  0.432826  1
  B  B13  1  0.500000  0.446362  0.567174  1
  B  B14  1  0.500000  0.053375  0.067195  1
  B  B15  1  0.500000  0.946625  0.932805  1
  B  B16  1  0.500000  0.748787  0.419478  1
  B  B17  1  0.500000  0.251213  0.580522  1
  B  B18  1  0.500000  0.248247  0.080019  1
  B  B19  1  0.500000  0.751753  0.919981  1
  B  B20  1  0.500000  0.791869  0.265339  1
  B  B21  1  0.500000  0.208131  0.734661  1
  B  B22  1  0.500000  0.292228  0.233665  1
  B  B23  1  0.500000  0.707772  0.766335  1
  B  B24  1  0.500000  0.631382  0.185132  1
  B  B25  1  0.500000  0.368618  0.814868  1
  B  B26  1  0.500000  0.131827  0.314153  1
  B  B27  1  0.500000  0.868173  0.685847  1
  B  B28  1  0.500000  0.981926  0.212201  1
  B  B29  1  0.500000  0.018074  0.787799  1
  B  B30  1  0.500000  0.482865  0.286328  1
  B  B31  1  0.500000  0.517135  0.713672  1
  B  B32  1  0.500000  0.604398  0.029183  1
  B  B33  1  0.500000  0.395602  0.970817  1
  B  B34  1  0.500000  0.109097  0.469811  1
  B  B35  1  0.500000  0.890903  0.530189  1
