# generated using pymatgen
data_Pr4Mg(Ga2Pd)10
_symmetry_space_group_name_H-M   'P 1'
_cell_length_a   4.33435128
_cell_length_b   11.11011398
_cell_length_c   13.71504400
_cell_angle_alpha   80.40186087
_cell_angle_beta   80.51793654
_cell_angle_gamma   78.26919163
_symmetry_Int_Tables_number   1
_chemical_formula_structural   Pr4Mg(Ga2Pd)10
_chemical_formula_sum   'Pr4 Mg1 Ga20 Pd10'
_cell_volume   631.72041844
_cell_formula_units_Z   1
loop_
 _symmetry_equiv_pos_site_id
 _symmetry_equiv_pos_as_xyz
  1  'x, y, z'
loop_
 _atom_site_type_symbol
 _atom_site_label
 _atom_site_symmetry_multiplicity
 _atom_site_fract_x
 _atom_site_fract_y
 _atom_site_fract_z
 _atom_site_occupancy
  Pr  Pr0  1  0.121395  0.091749  0.662694  1
  Pr  Pr1  1  0.878605  0.908251  0.337306  1
  Pr  Pr2  1  0.770137  0.633850  0.820709  1
  Pr  Pr3  1  0.229863  0.366150  0.179291  1
  Mg  Mg4  1  0.500000  0.500000  0.500000  1
  Ga  Ga5  1  0.006611  0.075928  0.912018  1
  Ga  Ga6  1  0.993389  0.924072  0.087982  1
  Ga  Ga7  1  0.061370  0.674946  0.196442  1
  Ga  Ga8  1  0.938630  0.325054  0.803558  1
  Ga  Ga9  1  0.115096  0.327651  0.452575  1
  Ga  Ga10  1  0.884904  0.672349  0.547425  1
  Ga  Ga11  1  0.196283  0.605029  0.994188  1
  Ga  Ga12  1  0.803717  0.394971  0.005812  1
  Ga  Ga13  1  0.253378  0.787517  0.699172  1
  Ga  Ga14  1  0.746622  0.212483  0.300828  1
  Ga  Ga15  1  0.301887  0.894874  0.500571  1
  Ga  Ga16  1  0.698113  0.105126  0.499429  1
  Ga  Ga17  1  0.386290  0.519030  0.705617  1
  Ga  Ga18  1  0.613710  0.480970  0.294383  1
  Ga  Ga19  1  0.395765  0.199653  0.003291  1
  Ga  Ga20  1  0.604235  0.800347  0.996709  1
  Ga  Ga21  1  0.538746  0.285783  0.634215  1
  Ga  Ga22  1  0.461254  0.714217  0.365785  1
  Ga  Ga23  1  0.635268  0.936642  0.797231  1
  Ga  Ga24  1  0.364732  0.063358  0.202769  1
  Pd  Pd25  1  0.027488  0.566259  0.381780  1
  Pd  Pd26  1  0.972512  0.433741  0.618220  1
  Pd  Pd27  1  0.138930  0.839763  0.889258  1
  Pd  Pd28  1  0.861070  0.160237  0.110742  1
  Pd  Pd29  1  0.244836  0.122769  0.390335  1
  Pd  Pd30  1  0.755164  0.877231  0.609665  1
  Pd  Pd31  1  0.348742  0.415645  0.893655  1
  Pd  Pd32  1  0.651258  0.584355  0.106345  1
  Pd  Pd33  1  0.502843  0.172367  0.819840  1
  Pd  Pd34  1  0.497157  0.827633  0.180160  1
