# generated using pymatgen
data_Ba6Zr2RuO12
_symmetry_space_group_name_H-M   'P 1'
_cell_length_a   9.40698308
_cell_length_b   9.40698309
_cell_length_c   7.39009800
_cell_angle_alpha   67.67885126
_cell_angle_beta   67.67885124
_cell_angle_gamma   36.70860839
_symmetry_Int_Tables_number   1
_chemical_formula_structural   Ba6Zr2RuO12
_chemical_formula_sum   'Ba6 Zr2 Ru1 O12'
_cell_volume   358.24075519
_cell_formula_units_Z   1
loop_
 _symmetry_equiv_pos_site_id
 _symmetry_equiv_pos_as_xyz
  1  'x, y, z'
loop_
 _atom_site_type_symbol
 _atom_site_label
 _atom_site_symmetry_multiplicity
 _atom_site_fract_x
 _atom_site_fract_y
 _atom_site_fract_z
 _atom_site_occupancy
  Ba  Ba0  1  0.882378  0.882378  0.709889  1
  Ba  Ba1  1  0.214259  0.214259  0.709514  1
  Ba  Ba2  1  0.547608  0.547608  0.713093  1
  Ba  Ba3  1  0.452392  0.452392  0.286907  1
  Ba  Ba4  1  0.785741  0.785741  0.290486  1
  Ba  Ba5  1  0.117622  0.117622  0.290111  1
  Zr  Zr6  1  0.664672  0.664672  0.999903  1
  Zr  Zr7  1  0.335328  0.335328  0.000097  1
  Ru  Ru8  1  0.000000  0.000000  0.000000  1
  O  O9  1  0.951249  0.951249  0.296475  1
  O  O10  1  0.280799  0.280799  0.315809  1
  O  O11  1  0.613368  0.613368  0.316836  1
  O  O12  1  0.386632  0.386632  0.683164  1
  O  O13  1  0.719201  0.719201  0.684191  1
  O  O14  1  0.048751  0.048751  0.703525  1
  O  O15  1  0.500000  0.000000  0.000000  1
  O  O16  1  0.837369  0.327097  0.000713  1
  O  O17  1  0.162631  0.672903  0.999287  1
  O  O18  1  0.000000  0.500000  0.000000  1
  O  O19  1  0.327097  0.837369  0.000713  1
  O  O20  1  0.672903  0.162631  0.999287  1
