# generated using pymatgen
data_Ta8AlTlSe16
_symmetry_space_group_name_H-M   'P 1'
_cell_length_a   7.00155600
_cell_length_b   7.00155705
_cell_length_c   14.98150100
_cell_angle_alpha   90.00000000
_cell_angle_beta   90.00000000
_cell_angle_gamma   120.00000448
_symmetry_Int_Tables_number   1
_chemical_formula_structural   Ta8AlTlSe16
_chemical_formula_sum   'Ta8 Al1 Tl1 Se16'
_cell_volume   636.02639399
_cell_formula_units_Z   1
loop_
 _symmetry_equiv_pos_site_id
 _symmetry_equiv_pos_as_xyz
  1  'x, y, z'
loop_
 _atom_site_type_symbol
 _atom_site_label
 _atom_site_symmetry_multiplicity
 _atom_site_fract_x
 _atom_site_fract_y
 _atom_site_fract_z
 _atom_site_occupancy
  Ta  Ta0  1  0.000000  0.000000  0.283878  1
  Ta  Ta1  1  0.000000  0.000000  0.716122  1
  Ta  Ta2  1  0.506357  0.012714  0.284012  1
  Ta  Ta3  1  0.493643  0.987286  0.715988  1
  Ta  Ta4  1  0.987286  0.493643  0.284012  1
  Ta  Ta5  1  0.012714  0.506357  0.715988  1
  Ta  Ta6  1  0.506357  0.493643  0.284012  1
  Ta  Ta7  1  0.493643  0.506357  0.715988  1
  Al  Al8  1  0.000000  0.000000  0.500000  1
  Tl  Tl9  1  0.000000  0.000000  0.000000  1
  Se  Se10  1  0.333333  0.666667  0.602870  1
  Se  Se11  1  0.666667  0.333333  0.397130  1
  Se  Se12  1  0.666667  0.333333  0.169778  1
  Se  Se13  1  0.333333  0.666667  0.830222  1
  Se  Se14  1  0.167090  0.334179  0.175039  1
  Se  Se15  1  0.832910  0.665821  0.824961  1
  Se  Se16  1  0.665821  0.832910  0.175039  1
  Se  Se17  1  0.830574  0.661146  0.604723  1
  Se  Se18  1  0.334179  0.167090  0.824961  1
  Se  Se19  1  0.169426  0.338854  0.395277  1
  Se  Se20  1  0.167090  0.832910  0.175039  1
  Se  Se21  1  0.338854  0.169426  0.604723  1
  Se  Se22  1  0.832910  0.167090  0.824961  1
  Se  Se23  1  0.661146  0.830574  0.395277  1
  Se  Se24  1  0.830574  0.169426  0.604723  1
  Se  Se25  1  0.169426  0.830574  0.395277  1
