# generated using pymatgen
data_Tb4ThSiSn3
_symmetry_space_group_name_H-M   'P 1'
_cell_length_a   9.35328349
_cell_length_b   9.35328264
_cell_length_c   6.49193700
_cell_angle_alpha   90.00000000
_cell_angle_beta   90.00000000
_cell_angle_gamma   119.96277325
_symmetry_Int_Tables_number   1
_chemical_formula_structural   Tb4ThSiSn3
_chemical_formula_sum   'Tb8 Th2 Si2 Sn6'
_cell_volume   492.03486261
_cell_formula_units_Z   2
loop_
 _symmetry_equiv_pos_site_id
 _symmetry_equiv_pos_as_xyz
  1  'x, y, z'
loop_
 _atom_site_type_symbol
 _atom_site_label
 _atom_site_symmetry_multiplicity
 _atom_site_fract_x
 _atom_site_fract_y
 _atom_site_fract_z
 _atom_site_occupancy
  Tb  Tb0  1  0.999210  0.735720  0.750000  1
  Tb  Tb1  1  0.262142  0.262142  0.750000  1
  Tb  Tb2  1  0.333401  0.666622  0.501344  1
  Tb  Tb3  1  0.666622  0.333401  0.501344  1
  Tb  Tb4  1  0.757094  0.757094  0.250000  1
  Tb  Tb5  1  0.735720  0.999210  0.750000  1
  Tb  Tb6  1  0.333401  0.666622  0.998656  1
  Tb  Tb7  1  0.666622  0.333401  0.998656  1
  Th  Th8  1  0.000724  0.244311  0.250000  1
  Th  Th9  1  0.244311  0.000724  0.250000  1
  Si  Si10  1  0.997902  0.997902  0.964767  1
  Si  Si11  1  0.997902  0.997902  0.535233  1
  Sn  Sn12  1  0.610269  0.610269  0.750000  1
  Sn  Sn13  1  0.999640  0.388668  0.750000  1
  Sn  Sn14  1  0.388668  0.999640  0.750000  1
  Sn  Sn15  1  0.605319  0.999266  0.250000  1
  Sn  Sn16  1  0.401784  0.401784  0.250000  1
  Sn  Sn17  1  0.999266  0.605319  0.250000  1
