# generated using pymatgen
data_BeNb4Co4SiAs2
_symmetry_space_group_name_H-M   'P 1'
_cell_length_a   3.66025600
_cell_length_b   6.23451010
_cell_length_c   7.08957003
_cell_angle_alpha   89.39235364
_cell_angle_beta   90.00000000
_cell_angle_gamma   90.00000000
_symmetry_Int_Tables_number   1
_chemical_formula_structural   BeNb4Co4SiAs2
_chemical_formula_sum   'Be1 Nb4 Co4 Si1 As2'
_cell_volume   161.77420238
_cell_formula_units_Z   1
loop_
 _symmetry_equiv_pos_site_id
 _symmetry_equiv_pos_as_xyz
  1  'x, y, z'
loop_
 _atom_site_type_symbol
 _atom_site_label
 _atom_site_symmetry_multiplicity
 _atom_site_fract_x
 _atom_site_fract_y
 _atom_site_fract_z
 _atom_site_occupancy
  Be  Be0  1  0.250000  0.275203  0.614538  1
  Nb  Nb1  1  0.250000  0.025616  0.331302  1
  Nb  Nb2  1  0.250000  0.524713  0.187004  1
  Nb  Nb3  1  0.750000  0.993621  0.673048  1
  Nb  Nb4  1  0.750000  0.467248  0.804449  1
  Co  Co5  1  0.250000  0.143681  0.929759  1
  Co  Co6  1  0.250000  0.634932  0.559683  1
  Co  Co7  1  0.750000  0.854830  0.068032  1
  Co  Co8  1  0.750000  0.357649  0.447804  1
  Si  Si9  1  0.750000  0.724653  0.386829  1
  As  As10  1  0.250000  0.768602  0.876063  1
  As  As11  1  0.750000  0.229252  0.121490  1
