# generated using pymatgen
data_TbTm3Fe3Os5
_symmetry_space_group_name_H-M   'P 1'
_cell_length_a   5.24194164
_cell_length_b   5.29206372
_cell_length_c   9.10947942
_cell_angle_alpha   73.11389910
_cell_angle_beta   91.06132281
_cell_angle_gamma   120.31680450
_symmetry_Int_Tables_number   1
_chemical_formula_structural   TbTm3Fe3Os5
_chemical_formula_sum   'Tb1 Tm3 Fe3 Os5'
_cell_volume   206.21451971
_cell_formula_units_Z   1
loop_
 _symmetry_equiv_pos_site_id
 _symmetry_equiv_pos_as_xyz
  1  'x, y, z'
loop_
 _atom_site_type_symbol
 _atom_site_label
 _atom_site_symmetry_multiplicity
 _atom_site_fract_x
 _atom_site_fract_y
 _atom_site_fract_z
 _atom_site_occupancy
  Tb  Tb0  1  0.875519  0.749903  0.375713  1
  Tm  Tm1  1  0.378454  0.752334  0.873787  1
  Tm  Tm2  1  0.996707  0.998139  0.000430  1
  Tm  Tm3  1  0.499183  0.999520  0.500141  1
  Fe  Fe4  1  0.687457  0.375014  0.937429  1
  Fe  Fe5  1  0.940380  0.376799  0.186782  1
  Fe  Fe6  1  0.434435  0.373193  0.688049  1
  Os  Os7  1  0.440612  0.375387  0.182202  1
  Os  Os8  1  0.934499  0.374539  0.692703  1
  Os  Os9  1  0.440612  0.883023  0.182202  1
  Os  Os10  1  0.934499  0.867256  0.692703  1
  Os  Os11  1  0.187641  0.374891  0.437860  1
