# generated using pymatgen
data_Pr16Cd2TcHg2Pt3
_symmetry_space_group_name_H-M   'P 1'
_cell_length_a   10.11528158
_cell_length_b   10.11528219
_cell_length_c   10.13686034
_cell_angle_alpha   59.43272669
_cell_angle_beta   59.43272345
_cell_angle_gamma   59.46868536
_symmetry_Int_Tables_number   1
_chemical_formula_structural   Pr16Cd2TcHg2Pt3
_chemical_formula_sum   'Pr16 Cd2 Tc1 Hg2 Pt3'
_cell_volume   724.14068746
_cell_formula_units_Z   1
loop_
 _symmetry_equiv_pos_site_id
 _symmetry_equiv_pos_as_xyz
  1  'x, y, z'
loop_
 _atom_site_type_symbol
 _atom_site_label
 _atom_site_symmetry_multiplicity
 _atom_site_fract_x
 _atom_site_fract_y
 _atom_site_fract_z
 _atom_site_occupancy
  Pr  Pr0  1  0.352299  0.352299  0.351852  1
  Pr  Pr1  1  0.347448  0.347448  0.954437  1
  Pr  Pr2  1  0.348229  0.952315  0.348004  1
  Pr  Pr3  1  0.952315  0.348229  0.348004  1
  Pr  Pr4  1  0.815787  0.188172  0.189256  1
  Pr  Pr5  1  0.189631  0.806258  0.806631  1
  Pr  Pr6  1  0.188172  0.815787  0.189256  1
  Pr  Pr7  1  0.806258  0.189631  0.806631  1
  Pr  Pr8  1  0.188259  0.188259  0.816098  1
  Pr  Pr9  1  0.804801  0.804801  0.191624  1
  Pr  Pr10  1  0.936296  0.563334  0.564105  1
  Pr  Pr11  1  0.554935  0.938480  0.938929  1
  Pr  Pr12  1  0.563334  0.936296  0.564105  1
  Pr  Pr13  1  0.938480  0.554935  0.938929  1
  Pr  Pr14  1  0.563302  0.563302  0.937611  1
  Pr  Pr15  1  0.938343  0.938343  0.555625  1
  Cd  Cd16  1  0.579285  0.259483  0.580215  1
  Cd  Cd17  1  0.259483  0.579285  0.580215  1
  Tc  Tc18  1  0.142017  0.142017  0.142428  1
  Hg  Hg19  1  0.583081  0.583081  0.585600  1
  Hg  Hg20  1  0.583871  0.583871  0.245796  1
  Pt  Pt21  1  0.145178  0.145178  0.573824  1
  Pt  Pt22  1  0.145029  0.574161  0.145411  1
  Pt  Pt23  1  0.574161  0.145029  0.145411  1
