# generated using pymatgen
data_ErCu4HgO8
_symmetry_space_group_name_H-M   'P 1'
_cell_length_a   6.27330947
_cell_length_b   6.27330974
_cell_length_c   6.27331043
_cell_angle_alpha   125.48446244
_cell_angle_beta   125.48447149
_cell_angle_gamma   80.73711196
_symmetry_Int_Tables_number   1
_chemical_formula_structural   ErCu4HgO8
_chemical_formula_sum   'Er1 Cu4 Hg1 O8'
_cell_volume   157.82110164
_cell_formula_units_Z   1
loop_
 _symmetry_equiv_pos_site_id
 _symmetry_equiv_pos_as_xyz
  1  'x, y, z'
loop_
 _atom_site_type_symbol
 _atom_site_label
 _atom_site_symmetry_multiplicity
 _atom_site_fract_x
 _atom_site_fract_y
 _atom_site_fract_z
 _atom_site_occupancy
  Er  Er0  1  0.250000  0.750000  0.500000  1
  Cu  Cu1  1  0.371757  0.114675  0.236953  1
  Cu  Cu2  1  0.877722  0.134805  0.763047  1
  Cu  Cu3  1  0.865195  0.628243  0.742917  1
  Cu  Cu4  1  0.885325  0.122278  0.257083  1
  Hg  Hg5  1  0.500000  0.500000  0.000000  1
  O  O6  1  0.924650  0.340153  0.159328  1
  O  O7  1  0.180824  0.765320  0.840672  1
  O  O8  1  0.862634  0.924802  0.384620  1
  O  O9  1  0.540183  0.478015  0.615380  1
  O  O10  1  0.521985  0.137366  0.062168  1
  O  O11  1  0.075198  0.459817  0.937832  1
  O  O12  1  0.659847  0.819176  0.584496  1
  O  O13  1  0.234680  0.075350  0.415504  1
