# generated using pymatgen
data_Y4Ho8Co4BiRh
_symmetry_space_group_name_H-M   'P 1'
_cell_length_a   8.34208016
_cell_length_b   8.34206932
_cell_length_c   8.34208055
_cell_angle_alpha   110.72945514
_cell_angle_beta   110.60158438
_cell_angle_gamma   107.10822107
_symmetry_Int_Tables_number   1
_chemical_formula_structural   Y4Ho8Co4BiRh
_chemical_formula_sum   'Y4 Ho8 Co4 Bi1 Rh1'
_cell_volume   446.32203518
_cell_formula_units_Z   1
loop_
 _symmetry_equiv_pos_site_id
 _symmetry_equiv_pos_as_xyz
  1  'x, y, z'
loop_
 _atom_site_type_symbol
 _atom_site_label
 _atom_site_symmetry_multiplicity
 _atom_site_fract_x
 _atom_site_fract_y
 _atom_site_fract_z
 _atom_site_occupancy
  Y  Y0  1  0.815204  0.711046  0.526244  1
  Y  Y1  1  0.184796  0.288954  0.473756  1
  Y  Y2  1  0.184803  0.711046  0.895842  1
  Y  Y3  1  0.815197  0.288954  0.104158  1
  Ho  Ho4  1  0.688473  0.378691  0.690219  1
  Ho  Ho5  1  0.311527  0.621309  0.309781  1
  Ho  Ho6  1  0.688469  0.998251  0.309783  1
  Ho  Ho7  1  0.311531  0.001749  0.690217  1
  Ho  Ho8  1  0.593521  0.790743  0.802775  1
  Ho  Ho9  1  0.406479  0.209257  0.197225  1
  Ho  Ho10  1  0.987968  0.790743  0.197222  1
  Ho  Ho11  1  0.012032  0.209257  0.802778  1
  Co  Co12  1  0.622498  0.000000  0.622498  1
  Co  Co13  1  0.377502  0.000000  0.377502  1
  Co  Co14  1  0.111360  0.611361  0.500001  1
  Co  Co15  1  0.888640  0.388639  0.499999  1
  Bi  Bi16  1  0.500000  0.500000  0.000000  1
  Rh  Rh17  1  0.000000  0.000000  0.000000  1
