# generated using pymatgen
data_Nd2ZnIr6
_symmetry_space_group_name_H-M   'P 1'
_cell_length_a   13.25232278
_cell_length_b   13.25232236
_cell_length_c   13.25232246
_cell_angle_alpha   23.59704476
_cell_angle_beta   23.59705097
_cell_angle_gamma   23.59704714
_symmetry_Int_Tables_number   1
_chemical_formula_structural   Nd2ZnIr6
_chemical_formula_sum   'Nd4 Zn2 Ir12'
_cell_volume   327.54737299
_cell_formula_units_Z   2
loop_
 _symmetry_equiv_pos_site_id
 _symmetry_equiv_pos_as_xyz
  1  'x, y, z'
loop_
 _atom_site_type_symbol
 _atom_site_label
 _atom_site_symmetry_multiplicity
 _atom_site_fract_x
 _atom_site_fract_y
 _atom_site_fract_z
 _atom_site_occupancy
  Nd  Nd0  1  0.949674  0.949674  0.949674  1
  Nd  Nd1  1  0.050326  0.050326  0.050326  1
  Nd  Nd2  1  0.852691  0.852691  0.852691  1
  Nd  Nd3  1  0.147309  0.147309  0.147309  1
  Zn  Zn4  1  0.720940  0.720940  0.720940  1
  Zn  Zn5  1  0.279060  0.279060  0.279060  1
  Ir  Ir6  1  0.500000  0.500000  0.500000  1
  Ir  Ir7  1  0.611594  0.611594  0.611594  1
  Ir  Ir8  1  0.388406  0.388406  0.388406  1
  Ir  Ir9  1  0.500000  0.500000  0.000000  1
  Ir  Ir10  1  0.000000  0.500000  0.500000  1
  Ir  Ir11  1  0.500000  0.000000  0.500000  1
  Ir  Ir12  1  0.387897  0.893838  0.387897  1
  Ir  Ir13  1  0.387897  0.387897  0.893838  1
  Ir  Ir14  1  0.893838  0.387897  0.387897  1
  Ir  Ir15  1  0.612103  0.106162  0.612103  1
  Ir  Ir16  1  0.612103  0.612103  0.106162  1
  Ir  Ir17  1  0.106162  0.612103  0.612103  1
