# generated using pymatgen
data_PrDy3S4
_symmetry_space_group_name_H-M   'P 1'
_cell_length_a   12.98319437
_cell_length_b   12.98319442
_cell_length_c   12.98319561
_cell_angle_alpha   17.63747478
_cell_angle_beta   17.63747427
_cell_angle_gamma   17.63747675
_symmetry_Int_Tables_number   1
_chemical_formula_structural   PrDy3S4
_chemical_formula_sum   'Pr1 Dy3 S4'
_cell_volume   175.37060369
_cell_formula_units_Z   1
loop_
 _symmetry_equiv_pos_site_id
 _symmetry_equiv_pos_as_xyz
  1  'x, y, z'
loop_
 _atom_site_type_symbol
 _atom_site_label
 _atom_site_symmetry_multiplicity
 _atom_site_fract_x
 _atom_site_fract_y
 _atom_site_fract_z
 _atom_site_occupancy
  Pr  Pr0  1  0.000000  0.000000  0.000000  1
  Dy  Dy1  1  0.248132  0.248132  0.248132  1
  Dy  Dy2  1  0.500000  0.500000  0.500000  1
  Dy  Dy3  1  0.751868  0.751868  0.751868  1
  S  S4  1  0.379276  0.379276  0.379276  1
  S  S5  1  0.126375  0.126375  0.126375  1
  S  S6  1  0.620724  0.620724  0.620724  1
  S  S7  1  0.873625  0.873625  0.873625  1
