# generated using pymatgen
data_NbAg(S8F3)2
_symmetry_space_group_name_H-M   'P 1'
_cell_length_a   10.11207351
_cell_length_b   10.11207351
_cell_length_c   16.37794300
_cell_angle_alpha   79.52892692
_cell_angle_beta   79.52892693
_cell_angle_gamma   48.17573755
_symmetry_Int_Tables_number   1
_chemical_formula_structural   NbAg(S8F3)2
_chemical_formula_sum   'Nb2 Ag2 S32 F12'
_cell_volume   1223.00466290
_cell_formula_units_Z   2
loop_
 _symmetry_equiv_pos_site_id
 _symmetry_equiv_pos_as_xyz
  1  'x, y, z'
loop_
 _atom_site_type_symbol
 _atom_site_label
 _atom_site_symmetry_multiplicity
 _atom_site_fract_x
 _atom_site_fract_y
 _atom_site_fract_z
 _atom_site_occupancy
  Nb  Nb0  1  0.500000  0.500000  0.000000  1
  Nb  Nb1  1  0.500000  0.500000  0.500000  1
  Ag  Ag2  1  0.167009  0.832991  0.750000  1
  Ag  Ag3  1  0.832991  0.167009  0.250000  1
  S  S4  1  0.087038  0.275855  0.582959  1
  S  S5  1  0.990234  0.714862  0.937008  1
  S  S6  1  0.298840  0.899552  0.171020  1
  S  S7  1  0.958511  0.359773  0.332839  1
  S  S8  1  0.100448  0.701160  0.328980  1
  S  S9  1  0.098352  0.065729  0.849262  1
  S  S10  1  0.523855  0.215633  0.258429  1
  S  S11  1  0.901648  0.934271  0.150738  1
  S  S12  1  0.215633  0.523855  0.758429  1
  S  S13  1  0.784367  0.476145  0.241571  1
  S  S14  1  0.899552  0.298840  0.671020  1
  S  S15  1  0.701160  0.100448  0.828980  1
  S  S16  1  0.065729  0.098352  0.349262  1
  S  S17  1  0.912962  0.724145  0.417041  1
  S  S18  1  0.009766  0.285138  0.062992  1
  S  S19  1  0.041489  0.640227  0.667161  1
  S  S20  1  0.714862  0.990234  0.437008  1
  S  S21  1  0.640227  0.041489  0.167161  1
  S  S22  1  0.681927  0.065372  0.713557  1
  S  S23  1  0.934271  0.901648  0.650738  1
  S  S24  1  0.065372  0.681927  0.213557  1
  S  S25  1  0.318073  0.934628  0.286443  1
  S  S26  1  0.285138  0.009766  0.562992  1
  S  S27  1  0.498814  0.898999  0.627592  1
  S  S28  1  0.898999  0.498814  0.127592  1
  S  S29  1  0.724145  0.912962  0.917041  1
  S  S30  1  0.476145  0.784367  0.741571  1
  S  S31  1  0.101001  0.501186  0.872408  1
  S  S32  1  0.501186  0.101001  0.372408  1
  S  S33  1  0.934628  0.318073  0.786443  1
  S  S34  1  0.359773  0.958511  0.832839  1
  S  S35  1  0.275855  0.087038  0.082959  1
  F  F36  1  0.255780  0.707712  0.478065  1
  F  F37  1  0.568596  0.641903  0.464690  1
  F  F38  1  0.744221  0.292288  0.521935  1
  F  F39  1  0.563685  0.449946  0.113919  1
  F  F40  1  0.358097  0.431404  0.035310  1
  F  F41  1  0.449946  0.563685  0.613919  1
  F  F42  1  0.436315  0.550054  0.886081  1
  F  F43  1  0.641903  0.568596  0.964690  1
  F  F44  1  0.707712  0.255779  0.978065  1
  F  F45  1  0.550054  0.436315  0.386081  1
  F  F46  1  0.292288  0.744220  0.021935  1
  F  F47  1  0.431404  0.358097  0.535310  1
