# generated using pymatgen
data_TbPaAl16Pt9
_symmetry_space_group_name_H-M   'P 1'
_cell_length_a   11.14569424
_cell_length_b   11.14569442
_cell_length_c   11.14569426
_cell_angle_alpha   158.64793713
_cell_angle_beta   114.78619485
_cell_angle_gamma   69.47634224
_symmetry_Int_Tables_number   1
_chemical_formula_structural   TbPaAl16Pt9
_chemical_formula_sum   'Tb1 Pa1 Al16 Pt9'
_cell_volume   454.34510133
_cell_formula_units_Z   1
loop_
 _symmetry_equiv_pos_site_id
 _symmetry_equiv_pos_as_xyz
  1  'x, y, z'
loop_
 _atom_site_type_symbol
 _atom_site_label
 _atom_site_symmetry_multiplicity
 _atom_site_fract_x
 _atom_site_fract_y
 _atom_site_fract_z
 _atom_site_occupancy
  Tb  Tb0  1  0.227375  0.227375  0.000000  1
  Pa  Pa1  1  0.773201  0.773201  0.000000  1
  Al  Al2  1  0.269358  0.390013  0.879345  1
  Al  Al3  1  0.092916  0.920604  0.172313  1
  Al  Al4  1  0.510304  0.203197  0.307108  1
  Al  Al5  1  0.250709  0.079577  0.171132  1
  Al  Al6  1  0.914281  0.414281  0.500000  1
  Al  Al7  1  0.728557  0.609402  0.119155  1
  Al  Al8  1  0.896088  0.203197  0.692892  1
  Al  Al9  1  0.487712  0.796042  0.691669  1
  Al  Al10  1  0.387436  0.999951  0.387485  1
  Al  Al11  1  0.612467  0.999951  0.612515  1
  Al  Al12  1  0.490248  0.609402  0.880845  1
  Al  Al13  1  0.104374  0.796042  0.308331  1
  Al  Al14  1  0.908444  0.079577  0.828868  1
  Al  Al15  1  0.748291  0.920604  0.827687  1
  Al  Al16  1  0.510667  0.390013  0.120655  1
  Al  Al17  1  0.088128  0.588128  0.500000  1
  Pt  Pt18  1  0.746407  0.499671  0.246736  1
  Pt  Pt19  1  0.017752  0.338337  0.679415  1
  Pt  Pt20  1  0.628697  0.128697  0.500000  1
  Pt  Pt21  1  0.252935  0.499671  0.753264  1
  Pt  Pt22  1  0.373471  0.873471  0.500000  1
  Pt  Pt23  1  0.999844  0.999844  0.000000  1
  Pt  Pt24  1  0.658921  0.338337  0.320585  1
  Pt  Pt25  1  0.344889  0.660709  0.684180  1
  Pt  Pt26  1  0.976528  0.660709  0.315820  1
