# generated using pymatgen
data_Nd2ErMg3AgSn2
_symmetry_space_group_name_H-M   'P 1'
_cell_length_a   7.62741975
_cell_length_b   7.62741953
_cell_length_c   4.56185600
_cell_angle_alpha   90.00000000
_cell_angle_beta   90.00000000
_cell_angle_gamma   119.31477414
_symmetry_Int_Tables_number   1
_chemical_formula_structural   Nd2ErMg3AgSn2
_chemical_formula_sum   'Nd2 Er1 Mg3 Ag1 Sn2'
_cell_volume   231.41152031
_cell_formula_units_Z   1
loop_
 _symmetry_equiv_pos_site_id
 _symmetry_equiv_pos_as_xyz
  1  'x, y, z'
loop_
 _atom_site_type_symbol
 _atom_site_label
 _atom_site_symmetry_multiplicity
 _atom_site_fract_x
 _atom_site_fract_y
 _atom_site_fract_z
 _atom_site_occupancy
  Nd  Nd0  1  0.584160  0.997889  0.000000  1
  Nd  Nd1  1  0.997889  0.584160  0.000000  1
  Er  Er2  1  0.413239  0.413239  0.000000  1
  Mg  Mg3  1  0.237101  0.000732  0.500000  1
  Mg  Mg4  1  0.000732  0.237101  0.500000  1
  Mg  Mg5  1  0.762841  0.762841  0.500000  1
  Ag  Ag6  1  0.007228  0.007228  0.000000  1
  Sn  Sn7  1  0.335670  0.661141  0.500000  1
  Sn  Sn8  1  0.661141  0.335670  0.500000  1
