# generated using pymatgen
data_SmTi3(BiO4)3
_symmetry_space_group_name_H-M   'P 1'
_cell_length_a   5.42931600
_cell_length_b   5.49389143
_cell_length_c   17.16635120
_cell_angle_alpha   81.16966396
_cell_angle_beta   90.00000000
_cell_angle_gamma   90.00000000
_symmetry_Int_Tables_number   1
_chemical_formula_structural   SmTi3(BiO4)3
_chemical_formula_sum   'Sm2 Ti6 Bi6 O24'
_cell_volume   505.97009473
_cell_formula_units_Z   2
loop_
 _symmetry_equiv_pos_site_id
 _symmetry_equiv_pos_as_xyz
  1  'x, y, z'
loop_
 _atom_site_type_symbol
 _atom_site_label
 _atom_site_symmetry_multiplicity
 _atom_site_fract_x
 _atom_site_fract_y
 _atom_site_fract_z
 _atom_site_occupancy
  Sm  Sm0  1  0.262886  0.096867  0.869130  1
  Sm  Sm1  1  0.737114  0.596867  0.869130  1
  Ti  Ti2  1  0.762044  0.065734  0.987848  1
  Ti  Ti3  1  0.237956  0.565734  0.987848  1
  Ti  Ti4  1  0.758740  0.184846  0.748175  1
  Ti  Ti5  1  0.241260  0.684846  0.748175  1
  Ti  Ti6  1  0.757843  0.916536  0.258285  1
  Ti  Ti7  1  0.242157  0.416536  0.258285  1
  Bi  Bi8  1  0.273952  0.179555  0.588570  1
  Bi  Bi9  1  0.726048  0.679555  0.588570  1
  Bi  Bi10  1  0.265672  0.932999  0.133810  1
  Bi  Bi11  1  0.734328  0.432999  0.133810  1
  Bi  Bi12  1  0.233263  0.770350  0.435133  1
  Bi  Bi13  1  0.766737  0.270350  0.435133  1
  O  O14  1  0.456618  0.326355  0.962263  1
  O  O15  1  0.543382  0.826355  0.962263  1
  O  O16  1  0.507092  0.000371  0.505672  1
  O  O17  1  0.492908  0.500371  0.505672  1
  O  O18  1  0.837329  0.171070  0.875765  1
  O  O19  1  0.162671  0.671070  0.875765  1
  O  O20  1  0.675800  0.251392  0.643690  1
  O  O21  1  0.324200  0.751392  0.643690  1
  O  O22  1  0.462597  0.415375  0.783786  1
  O  O23  1  0.537403  0.915375  0.783786  1
  O  O24  1  0.948631  0.507244  0.746562  1
  O  O25  1  0.051369  0.007244  0.746562  1
  O  O26  1  0.940265  0.397609  0.003056  1
  O  O27  1  0.059735  0.897609  0.003056  1
  O  O28  1  0.992368  0.499439  0.507526  1
  O  O29  1  0.007632  0.999439  0.507526  1
  O  O30  1  0.676832  0.049332  0.100028  1
  O  O31  1  0.323168  0.549332  0.100028  1
  O  O32  1  0.794097  0.868794  0.360082  1
  O  O33  1  0.205903  0.368794  0.360082  1
  O  O34  1  0.009198  0.183892  0.220484  1
  O  O35  1  0.990802  0.683892  0.220484  1
  O  O36  1  0.520583  0.210642  0.235934  1
  O  O37  1  0.479417  0.710642  0.235934  1
