# generated using pymatgen
data_LaPrNd5IrBr12
_symmetry_space_group_name_H-M   'P 1'
_cell_length_a   9.59785390
_cell_length_b   9.61786537
_cell_length_c   9.60934266
_cell_angle_alpha   106.39746193
_cell_angle_beta   106.29830924
_cell_angle_gamma   106.53556961
_symmetry_Int_Tables_number   1
_chemical_formula_structural   LaPrNd5IrBr12
_chemical_formula_sum   'La1 Pr1 Nd5 Ir1 Br12'
_cell_volume   750.30224681
_cell_formula_units_Z   1
loop_
 _symmetry_equiv_pos_site_id
 _symmetry_equiv_pos_as_xyz
  1  'x, y, z'
loop_
 _atom_site_type_symbol
 _atom_site_label
 _atom_site_symmetry_multiplicity
 _atom_site_fract_x
 _atom_site_fract_y
 _atom_site_fract_z
 _atom_site_occupancy
  La  La0  1  0.499925  0.500381  0.499391  1
  Pr  Pr1  1  0.899072  0.688669  0.983119  1
  Nd  Nd2  1  0.100388  0.308832  0.017161  1
  Nd  Nd3  1  0.309799  0.017727  0.100410  1
  Nd  Nd4  1  0.017107  0.100834  0.309590  1
  Nd  Nd5  1  0.983294  0.900425  0.691246  1
  Nd  Nd6  1  0.690298  0.981664  0.899882  1
  Ir  Ir7  1  0.000120  0.999927  0.000436  1
  Br  Br8  1  0.223194  0.679991  0.073772  1
  Br  Br9  1  0.455425  0.375634  0.161636  1
  Br  Br10  1  0.679088  0.073022  0.220526  1
  Br  Br11  1  0.927636  0.781553  0.323347  1
  Br  Br12  1  0.161382  0.454975  0.374922  1
  Br  Br13  1  0.375211  0.162143  0.454744  1
  Br  Br14  1  0.624902  0.838677  0.545441  1
  Br  Br15  1  0.838237  0.545204  0.622429  1
  Br  Br16  1  0.073144  0.220898  0.679673  1
  Br  Br17  1  0.320911  0.927292  0.779696  1
  Br  Br18  1  0.542163  0.624046  0.836574  1
  Br  Br19  1  0.778708  0.318110  0.926008  1
