# generated using pymatgen
data_Y2NiB8Ir
_symmetry_space_group_name_H-M   'P 1'
_cell_length_a   6.92492324
_cell_length_b   6.92492723
_cell_length_c   6.92492557
_cell_angle_alpha   111.27177813
_cell_angle_beta   113.24352205
_cell_angle_gamma   104.03821936
_symmetry_Int_Tables_number   1
_chemical_formula_structural   Y2NiB8Ir
_chemical_formula_sum   'Y4 Ni2 B16 Ir2'
_cell_volume   253.85118139
_cell_formula_units_Z   2
loop_
 _symmetry_equiv_pos_site_id
 _symmetry_equiv_pos_as_xyz
  1  'x, y, z'
loop_
 _atom_site_type_symbol
 _atom_site_label
 _atom_site_symmetry_multiplicity
 _atom_site_fract_x
 _atom_site_fract_y
 _atom_site_fract_z
 _atom_site_occupancy
  Y  Y0  1  0.790811  0.790811  0.000000  1
  Y  Y1  1  0.209189  0.209189  0.000000  1
  Y  Y2  1  0.750875  0.250875  0.500000  1
  Y  Y3  1  0.249125  0.749125  0.500000  1
  Ni  Ni4  1  0.500000  0.744485  0.244485  1
  Ni  Ni5  1  0.500000  0.255515  0.755515  1
  B  B6  1  0.273388  0.108602  0.381990  1
  B  B7  1  0.726612  0.891398  0.618010  1
  B  B8  1  0.273388  0.891398  0.164785  1
  B  B9  1  0.726612  0.108602  0.835215  1
  B  B10  1  0.110656  0.731200  0.841856  1
  B  B11  1  0.889344  0.268800  0.158144  1
  B  B12  1  0.110656  0.268800  0.379456  1
  B  B13  1  0.889344  0.731200  0.620544  1
  B  B14  1  0.115086  0.109972  0.529097  1
  B  B15  1  0.580875  0.585989  0.470903  1
  B  B16  1  0.115086  0.585989  0.005114  1
  B  B17  1  0.580875  0.109972  0.994886  1
  B  B18  1  0.884914  0.890028  0.470903  1
  B  B19  1  0.419125  0.414011  0.529097  1
  B  B20  1  0.884914  0.414011  0.994886  1
  B  B21  1  0.419125  0.890028  0.005114  1
  Ir  Ir22  1  0.275974  0.500000  0.775974  1
  Ir  Ir23  1  0.724026  0.500000  0.224026  1
