# generated using pymatgen
data_DyY(AuO3)2
_symmetry_space_group_name_H-M   'P 1'
_cell_length_a   3.83359100
_cell_length_b   5.59550400
_cell_length_c   12.99267300
_cell_angle_alpha   90.00000000
_cell_angle_beta   90.00000000
_cell_angle_gamma   90.00000000
_symmetry_Int_Tables_number   1
_chemical_formula_structural   DyY(AuO3)2
_chemical_formula_sum   'Dy2 Y2 Au4 O12'
_cell_volume   278.70418852
_cell_formula_units_Z   2
loop_
 _symmetry_equiv_pos_site_id
 _symmetry_equiv_pos_as_xyz
  1  'x, y, z'
loop_
 _atom_site_type_symbol
 _atom_site_label
 _atom_site_symmetry_multiplicity
 _atom_site_fract_x
 _atom_site_fract_y
 _atom_site_fract_z
 _atom_site_occupancy
  Dy  Dy0  1  0.738821  0.250000  0.925933  1
  Dy  Dy1  1  0.738821  0.750000  0.574067  1
  Y  Y2  1  0.259031  0.750000  0.074966  1
  Y  Y3  1  0.259031  0.250000  0.425034  1
  Au  Au4  1  0.063889  0.750000  0.830744  1
  Au  Au5  1  0.063889  0.250000  0.669256  1
  Au  Au6  1  0.936828  0.250000  0.169625  1
  Au  Au7  1  0.936828  0.750000  0.330375  1
  O  O8  1  0.201890  0.500000  0.250000  1
  O  O9  1  0.800690  0.000000  0.750000  1
  O  O10  1  0.800690  0.500000  0.750000  1
  O  O11  1  0.201890  0.000000  0.250000  1
  O  O12  1  0.742735  0.500994  0.074500  1
  O  O13  1  0.742735  0.499006  0.425500  1
  O  O14  1  0.256689  0.001692  0.925962  1
  O  O15  1  0.256689  0.998308  0.574038  1
  O  O16  1  0.742735  0.000994  0.425500  1
  O  O17  1  0.742735  0.999006  0.074500  1
  O  O18  1  0.256689  0.501692  0.574038  1
  O  O19  1  0.256689  0.498308  0.925962  1
