# generated using pymatgen
data_Dy2Th(GaPt)3
_symmetry_space_group_name_H-M   'P 1'
_cell_length_a   7.38172017
_cell_length_b   7.36658014
_cell_length_c   3.89562100
_cell_angle_alpha   90.00000000
_cell_angle_beta   90.00000000
_cell_angle_gamma   119.93218533
_symmetry_Int_Tables_number   1
_chemical_formula_structural   Dy2Th(GaPt)3
_chemical_formula_sum   'Dy2 Th1 Ga3 Pt3'
_cell_volume   183.58077261
_cell_formula_units_Z   1
loop_
 _symmetry_equiv_pos_site_id
 _symmetry_equiv_pos_as_xyz
  1  'x, y, z'
loop_
 _atom_site_type_symbol
 _atom_site_label
 _atom_site_symmetry_multiplicity
 _atom_site_fract_x
 _atom_site_fract_y
 _atom_site_fract_z
 _atom_site_occupancy
  Dy  Dy0  1  0.407859  0.408340  0.500000  1
  Dy  Dy1  1  0.592141  0.000480  0.500000  1
  Th  Th2  1  0.000000  0.587675  0.500000  1
  Ga  Ga3  1  0.740343  0.752037  0.000000  1
  Ga  Ga4  1  0.259657  0.011694  0.000000  1
  Ga  Ga5  1  0.000000  0.239690  0.000000  1
  Pt  Pt6  1  0.669988  0.336636  0.000000  1
  Pt  Pt7  1  0.330012  0.666649  0.000000  1
  Pt  Pt8  1  0.000000  0.996799  0.500000  1
