# generated using pymatgen
data_La4Nd3Sm(TeO6)4
_symmetry_space_group_name_H-M   'P 1'
_cell_length_a   5.52770329
_cell_length_b   9.46560108
_cell_length_c   10.37696060
_cell_angle_alpha   89.98689512
_cell_angle_beta   89.96327506
_cell_angle_gamma   89.99378312
_symmetry_Int_Tables_number   1
_chemical_formula_structural   La4Nd3Sm(TeO6)4
_chemical_formula_sum   'La4 Nd3 Sm1 Te4 O24'
_cell_volume   542.95393577
_cell_formula_units_Z   1
loop_
 _symmetry_equiv_pos_site_id
 _symmetry_equiv_pos_as_xyz
  1  'x, y, z'
loop_
 _atom_site_type_symbol
 _atom_site_label
 _atom_site_symmetry_multiplicity
 _atom_site_fract_x
 _atom_site_fract_y
 _atom_site_fract_z
 _atom_site_occupancy
  La  La0  1  0.530778  0.218449  0.358294  1
  La  La1  1  0.030332  0.281127  0.641686  1
  La  La2  1  0.469221  0.718823  0.142041  1
  La  La3  1  0.969399  0.781454  0.857908  1
  Nd  Nd4  1  0.523444  0.103150  0.956200  1
  Nd  Nd5  1  0.023335  0.396751  0.043798  1
  Nd  Nd6  1  0.476115  0.604174  0.543406  1
  Sm  Sm7  1  0.977087  0.897521  0.456028  1
  Te  Te8  1  0.462840  0.992905  0.640264  1
  Te  Te9  1  0.962279  0.507299  0.359032  1
  Te  Te10  1  0.537435  0.493485  0.858850  1
  Te  Te11  1  0.037383  0.006188  0.142067  1
  O  O12  1  0.303822  0.139468  0.172092  1
  O  O13  1  0.803778  0.360277  0.828066  1
  O  O14  1  0.695302  0.639452  0.327791  1
  O  O15  1  0.195816  0.859865  0.669776  1
  O  O16  1  0.723235  0.108982  0.563017  1
  O  O17  1  0.223075  0.391650  0.436735  1
  O  O18  1  0.276719  0.609250  0.936401  1
  O  O19  1  0.776841  0.890909  0.063808  1
  O  O20  1  0.675696  0.634583  0.745721  1
  O  O21  1  0.174383  0.865483  0.256132  1
  O  O22  1  0.324458  0.134099  0.753508  1
  O  O23  1  0.824518  0.365606  0.246084  1
  O  O24  1  0.665630  0.947004  0.786307  1
  O  O25  1  0.166371  0.552865  0.213552  1
  O  O26  1  0.333634  0.447259  0.713518  1
  O  O27  1  0.834231  0.051518  0.288280  1
  O  O28  1  0.255685  0.078983  0.505163  1
  O  O29  1  0.757352  0.419277  0.494055  1
  O  O30  1  0.742522  0.581209  0.993803  1
  O  O31  1  0.242532  0.918619  0.006857  1
  O  O32  1  0.082722  0.656279  0.472323  1
  O  O33  1  0.589671  0.846352  0.526719  1
  O  O34  1  0.916069  0.153588  0.027668  1
  O  O35  1  0.416289  0.346096  0.973051  1
