# generated using pymatgen
data_Ho2Er4LuScO12
_symmetry_space_group_name_H-M   'P 1'
_cell_length_a   6.59428087
_cell_length_b   6.59536720
_cell_length_c   6.59505083
_cell_angle_alpha   92.36267644
_cell_angle_beta   92.39958283
_cell_angle_gamma   92.36420178
_symmetry_Int_Tables_number   1
_chemical_formula_structural   Ho2Er4LuScO12
_chemical_formula_sum   'Ho2 Er4 Lu1 Sc1 O12'
_cell_volume   286.06938727
_cell_formula_units_Z   1
loop_
 _symmetry_equiv_pos_site_id
 _symmetry_equiv_pos_as_xyz
  1  'x, y, z'
loop_
 _atom_site_type_symbol
 _atom_site_label
 _atom_site_symmetry_multiplicity
 _atom_site_fract_x
 _atom_site_fract_y
 _atom_site_fract_z
 _atom_site_occupancy
  Ho  Ho0  1  0.069554  0.561007  0.255999  1
  Ho  Ho1  1  0.560358  0.255379  0.069208  1
  Er  Er2  1  0.743999  0.930342  0.439782  1
  Er  Er3  1  0.930413  0.439084  0.743978  1
  Er  Er4  1  0.439261  0.744423  0.929579  1
  Er  Er5  1  0.255623  0.069503  0.561169  1
  Lu  Lu6  1  0.999900  0.999454  0.999341  1
  Sc  Sc7  1  0.499896  0.500250  0.500620  1
  O  O8  1  0.594198  0.465672  0.807372  1
  O  O9  1  0.464462  0.807667  0.593855  1
  O  O10  1  0.807316  0.594136  0.465432  1
  O  O11  1  0.406971  0.536585  0.192797  1
  O  O12  1  0.535532  0.192285  0.407252  1
  O  O13  1  0.192736  0.405685  0.536487  1
  O  O14  1  0.069277  0.909769  0.314162  1
  O  O15  1  0.908981  0.313794  0.068325  1
  O  O16  1  0.685922  0.929060  0.091905  1
  O  O17  1  0.091690  0.685694  0.929338  1
  O  O18  1  0.930020  0.091555  0.685559  1
  O  O19  1  0.313890  0.068658  0.907839  1
