# generated using pymatgen
data_Ce20TcIr11
_symmetry_space_group_name_H-M   'P 1'
_cell_length_a   11.13813900
_cell_length_b   11.13813900
_cell_length_c   6.18710200
_cell_angle_alpha   90.00000000
_cell_angle_beta   90.00000000
_cell_angle_gamma   90.00000000
_symmetry_Int_Tables_number   1
_chemical_formula_structural   Ce20TcIr11
_chemical_formula_sum   'Ce20 Tc1 Ir11'
_cell_volume   767.56036848
_cell_formula_units_Z   1
loop_
 _symmetry_equiv_pos_site_id
 _symmetry_equiv_pos_as_xyz
  1  'x, y, z'
loop_
 _atom_site_type_symbol
 _atom_site_label
 _atom_site_symmetry_multiplicity
 _atom_site_fract_x
 _atom_site_fract_y
 _atom_site_fract_z
 _atom_site_occupancy
  Ce  Ce0  1  0.290345  0.088933  0.367396  1
  Ce  Ce1  1  0.289702  0.910770  0.871808  1
  Ce  Ce2  1  0.710298  0.089230  0.871808  1
  Ce  Ce3  1  0.709655  0.911067  0.367396  1
  Ce  Ce4  1  0.589230  0.789702  0.871808  1
  Ce  Ce5  1  0.588933  0.209655  0.367396  1
  Ce  Ce6  1  0.411067  0.790345  0.367396  1
  Ce  Ce7  1  0.410770  0.210298  0.871808  1
  Ce  Ce8  1  0.212655  0.408917  0.631960  1
  Ce  Ce9  1  0.212812  0.590755  0.131782  1
  Ce  Ce10  1  0.787188  0.409245  0.131782  1
  Ce  Ce11  1  0.787345  0.591083  0.631960  1
  Ce  Ce12  1  0.909245  0.712812  0.131782  1
  Ce  Ce13  1  0.908917  0.287345  0.631960  1
  Ce  Ce14  1  0.091083  0.712655  0.631960  1
  Ce  Ce15  1  0.090755  0.287188  0.131782  1
  Ce  Ce16  1  0.000000  0.000000  0.497988  1
  Ce  Ce17  1  0.000000  0.000000  0.998316  1
  Ce  Ce18  1  0.500000  0.500000  0.998316  1
  Ce  Ce19  1  0.500000  0.500000  0.497988  1
  Tc  Tc20  1  0.500000  0.000000  0.116226  1
  Ir  Ir21  1  0.844145  0.158282  0.248748  1
  Ir  Ir22  1  0.843271  0.842597  0.746942  1
  Ir  Ir23  1  0.156729  0.157403  0.746942  1
  Ir  Ir24  1  0.155855  0.841718  0.248748  1
  Ir  Ir25  1  0.657403  0.343271  0.746942  1
  Ir  Ir26  1  0.658282  0.655855  0.248748  1
  Ir  Ir27  1  0.341718  0.344145  0.248748  1
  Ir  Ir28  1  0.342597  0.656729  0.746942  1
  Ir  Ir29  1  0.500000  0.000000  0.615564  1
  Ir  Ir30  1  0.000000  0.500000  0.890559  1
  Ir  Ir31  1  0.000000  0.500000  0.390495  1
