# generated using pymatgen
data_Tb5Sc(CI5)2
_symmetry_space_group_name_H-M   'P 1'
_cell_length_a   7.61463343
_cell_length_b   9.48240279
_cell_length_c   9.55743677
_cell_angle_alpha   107.04119087
_cell_angle_beta   96.15151103
_cell_angle_gamma   104.14686229
_symmetry_Int_Tables_number   1
_chemical_formula_structural   Tb5Sc(CI5)2
_chemical_formula_sum   'Tb5 Sc1 C2 I10'
_cell_volume   627.77687107
_cell_formula_units_Z   1
loop_
 _symmetry_equiv_pos_site_id
 _symmetry_equiv_pos_as_xyz
  1  'x, y, z'
loop_
 _atom_site_type_symbol
 _atom_site_label
 _atom_site_symmetry_multiplicity
 _atom_site_fract_x
 _atom_site_fract_y
 _atom_site_fract_z
 _atom_site_occupancy
  Tb  Tb0  1  0.026470  0.739945  0.922977  1
  Tb  Tb1  1  0.101219  0.036249  0.777778  1
  Tb  Tb2  1  0.967166  0.258217  0.073901  1
  Tb  Tb3  1  0.891537  0.960483  0.218745  1
  Tb  Tb4  1  0.374107  0.130860  0.175725  1
  Sc  Sc5  1  0.642754  0.874005  0.831210  1
  C  C6  1  0.088450  0.028799  0.039713  1
  C  C7  1  0.904731  0.969281  0.957711  1
  I  I8  1  0.209873  0.740307  0.654435  1
  I  I9  1  0.911784  0.634042  0.179154  1
  I  I10  1  0.087733  0.365452  0.820116  1
  I  I11  1  0.736094  0.912351  0.549555  1
  I  I12  1  0.252262  0.082756  0.457934  1
  I  I13  1  0.648339  0.558884  0.729351  1
  I  I14  1  0.459867  0.809442  0.085006  1
  I  I15  1  0.806491  0.265395  0.355035  1
  I  I16  1  0.345147  0.453501  0.270578  1
  I  I17  1  0.545974  0.180032  0.901075  1
