# generated using pymatgen
data_Tb4Al18Fe2CuPd3
_symmetry_space_group_name_H-M   'P 1'
_cell_length_a   7.55969453
_cell_length_b   7.55969492
_cell_length_c   9.41659800
_cell_angle_alpha   89.96139127
_cell_angle_beta   89.96139237
_cell_angle_gamma   119.80633647
_symmetry_Int_Tables_number   1
_chemical_formula_structural   Tb4Al18Fe2CuPd3
_chemical_formula_sum   'Tb4 Al18 Fe2 Cu1 Pd3'
_cell_volume   466.95711930
_cell_formula_units_Z   1
loop_
 _symmetry_equiv_pos_site_id
 _symmetry_equiv_pos_as_xyz
  1  'x, y, z'
loop_
 _atom_site_type_symbol
 _atom_site_label
 _atom_site_symmetry_multiplicity
 _atom_site_fract_x
 _atom_site_fract_y
 _atom_site_fract_z
 _atom_site_occupancy
  Tb  Tb0  1  0.992673  0.663131  0.249113  1
  Tb  Tb1  1  0.005691  0.336282  0.750863  1
  Tb  Tb2  1  0.663718  0.994309  0.249137  1
  Tb  Tb3  1  0.336869  0.007327  0.750887  1
  Al  Al4  1  0.112268  0.112276  0.250041  1
  Al  Al5  1  0.887724  0.887732  0.749959  1
  Al  Al6  1  0.999073  0.322715  0.074184  1
  Al  Al7  1  0.000005  0.677606  0.925794  1
  Al  Al8  1  0.000775  0.677470  0.573550  1
  Al  Al9  1  0.322530  0.999225  0.426450  1
  Al  Al10  1  0.998978  0.322167  0.426199  1
  Al  Al11  1  0.677833  0.001022  0.573801  1
  Al  Al12  1  0.677285  0.000927  0.925816  1
  Al  Al13  1  0.322394  0.999995  0.074206  1
  Al  Al14  1  0.323067  0.322898  0.550540  1
  Al  Al15  1  0.677102  0.676933  0.449460  1
  Al  Al16  1  0.676090  0.675580  0.051727  1
  Al  Al17  1  0.324420  0.323910  0.948273  1
  Al  Al18  1  0.340247  0.542391  0.250080  1
  Al  Al19  1  0.660313  0.456377  0.751211  1
  Al  Al20  1  0.543623  0.339687  0.248789  1
  Al  Al21  1  0.457609  0.659753  0.749920  1
  Fe  Fe22  1  0.999442  0.000558  0.000000  1
  Fe  Fe23  1  0.000115  0.999885  0.500000  1
  Cu  Cu24  1  0.672740  0.327260  0.000000  1
  Pd  Pd25  1  0.327425  0.672575  0.000000  1
  Pd  Pd26  1  0.327818  0.672182  0.500000  1
  Pd  Pd27  1  0.672173  0.327827  0.500000  1
