# generated using pymatgen
data_Tb10SmIn(Hg2Pd)4
_symmetry_space_group_name_H-M   'P 1'
_cell_length_a   13.13059315
_cell_length_b   13.13059321
_cell_length_c   3.71627400
_cell_angle_alpha   90.00000000
_cell_angle_beta   90.00000000
_cell_angle_gamma   112.48245243
_symmetry_Int_Tables_number   1
_chemical_formula_structural   Tb10SmIn(Hg2Pd)4
_chemical_formula_sum   'Tb10 Sm1 In1 Hg8 Pd4'
_cell_volume   592.03425376
_cell_formula_units_Z   1
loop_
 _symmetry_equiv_pos_site_id
 _symmetry_equiv_pos_as_xyz
  1  'x, y, z'
loop_
 _atom_site_type_symbol
 _atom_site_label
 _atom_site_symmetry_multiplicity
 _atom_site_fract_x
 _atom_site_fract_y
 _atom_site_fract_z
 _atom_site_occupancy
  Tb  Tb0  1  0.415473  0.075881  0.000000  1
  Tb  Tb1  1  0.584527  0.924119  0.000000  1
  Tb  Tb2  1  0.075881  0.415473  0.000000  1
  Tb  Tb3  1  0.924119  0.584527  0.000000  1
  Tb  Tb4  1  0.166924  0.833076  0.000000  1
  Tb  Tb5  1  0.833076  0.166924  0.000000  1
  Tb  Tb6  1  0.371396  0.628604  0.000000  1
  Tb  Tb7  1  0.628604  0.371396  0.000000  1
  Tb  Tb8  1  0.298473  0.298473  0.000000  1
  Tb  Tb9  1  0.701527  0.701527  0.000000  1
  Sm  Sm10  1  0.000000  0.000000  0.000000  1
  In  In11  1  0.500000  0.500000  0.500000  1
  Hg  Hg12  1  0.369323  0.844476  0.500000  1
  Hg  Hg13  1  0.630677  0.155524  0.500000  1
  Hg  Hg14  1  0.844478  0.369323  0.500000  1
  Hg  Hg15  1  0.155522  0.630677  0.500000  1
  Hg  Hg16  1  0.214888  0.064997  0.500000  1
  Hg  Hg17  1  0.785112  0.935003  0.500000  1
  Hg  Hg18  1  0.064996  0.214887  0.500000  1
  Hg  Hg19  1  0.935004  0.785113  0.500000  1
  Pd  Pd20  1  0.448274  0.250504  0.500000  1
  Pd  Pd21  1  0.551726  0.749496  0.500000  1
  Pd  Pd22  1  0.250505  0.448274  0.500000  1
  Pd  Pd23  1  0.749495  0.551726  0.500000  1
