# generated using pymatgen
data_Nb4TcP4Ru3
_symmetry_space_group_name_H-M   'P 1'
_cell_length_a   3.77295100
_cell_length_b   6.37230201
_cell_length_c   7.23106701
_cell_angle_alpha   89.99423218
_cell_angle_beta   90.00000000
_cell_angle_gamma   90.00000000
_symmetry_Int_Tables_number   1
_chemical_formula_structural   Nb4TcP4Ru3
_chemical_formula_sum   'Nb4 Tc1 P4 Ru3'
_cell_volume   173.85208334
_cell_formula_units_Z   1
loop_
 _symmetry_equiv_pos_site_id
 _symmetry_equiv_pos_as_xyz
  1  'x, y, z'
loop_
 _atom_site_type_symbol
 _atom_site_label
 _atom_site_symmetry_multiplicity
 _atom_site_fract_x
 _atom_site_fract_y
 _atom_site_fract_z
 _atom_site_occupancy
  Nb  Nb0  1  0.250000  0.024990  0.825753  1
  Nb  Nb1  1  0.250000  0.523114  0.671855  1
  Nb  Nb2  1  0.750000  0.977612  0.173297  1
  Nb  Nb3  1  0.750000  0.473815  0.327969  1
  Tc  Tc4  1  0.250000  0.147690  0.440492  1
  P  P5  1  0.250000  0.272905  0.123367  1
  P  P6  1  0.250000  0.771713  0.375236  1
  P  P7  1  0.750000  0.729024  0.876335  1
  P  P8  1  0.750000  0.228434  0.625001  1
  Ru  Ru9  1  0.250000  0.647941  0.060434  1
  Ru  Ru10  1  0.750000  0.849596  0.561824  1
  Ru  Ru11  1  0.750000  0.353166  0.938437  1
