# generated using pymatgen
data_Y8Ho5Lu7Bi12
_symmetry_space_group_name_H-M   'P 1'
_cell_length_a   8.19744748
_cell_length_b   9.41862317
_cell_length_c   11.99455400
_cell_angle_alpha   90.00514034
_cell_angle_beta   90.01952158
_cell_angle_gamma   89.99056922
_symmetry_Int_Tables_number   1
_chemical_formula_structural   Y8Ho5Lu7Bi12
_chemical_formula_sum   'Y8 Ho5 Lu7 Bi12'
_cell_volume   926.08347589
_cell_formula_units_Z   1
loop_
 _symmetry_equiv_pos_site_id
 _symmetry_equiv_pos_as_xyz
  1  'x, y, z'
loop_
 _atom_site_type_symbol
 _atom_site_label
 _atom_site_symmetry_multiplicity
 _atom_site_fract_x
 _atom_site_fract_y
 _atom_site_fract_z
 _atom_site_occupancy
  Y  Y0  1  0.186184  0.750128  0.718933  1
  Y  Y1  1  0.686301  0.750097  0.781412  1
  Y  Y2  1  0.813863  0.249918  0.281269  1
  Y  Y3  1  0.313726  0.250082  0.218731  1
  Y  Y4  1  0.354130  0.750600  0.215925  1
  Y  Y5  1  0.853309  0.750224  0.283631  1
  Y  Y6  1  0.646429  0.250119  0.783859  1
  Y  Y7  1  0.146515  0.250085  0.716097  1
  Ho  Ho8  1  0.192645  0.564875  0.440669  1
  Ho  Ho9  1  0.693135  0.565025  0.059437  1
  Ho  Ho10  1  0.192985  0.935259  0.440442  1
  Ho  Ho11  1  0.306818  0.065004  0.940577  1
  Ho  Ho12  1  0.807116  0.434881  0.559365  1
  Lu  Lu13  1  0.024473  0.750081  0.989196  1
  Lu  Lu14  1  0.525067  0.750193  0.510837  1
  Lu  Lu15  1  0.975476  0.250251  0.010785  1
  Lu  Lu16  1  0.475807  0.249855  0.489184  1
  Lu  Lu17  1  0.307098  0.433715  0.940587  1
  Lu  Lu18  1  0.806921  0.066208  0.559355  1
  Lu  Lu19  1  0.693005  0.933747  0.059339  1
  Bi  Bi20  1  0.434078  0.003810  0.672376  1
  Bi  Bi21  1  0.933904  0.496404  0.827737  1
  Bi  Bi22  1  0.566167  0.503740  0.327533  1
  Bi  Bi23  1  0.065902  0.996446  0.172328  1
  Bi  Bi24  1  0.566103  0.996299  0.327713  1
  Bi  Bi25  1  0.065892  0.503953  0.172164  1
  Bi  Bi26  1  0.433763  0.496310  0.672340  1
  Bi  Bi27  1  0.933961  0.003897  0.827752  1
  Bi  Bi28  1  0.405740  0.748800  0.957563  1
  Bi  Bi29  1  0.905484  0.751609  0.542613  1
  Bi  Bi30  1  0.594259  0.248847  0.042456  1
  Bi  Bi31  1  0.093744  0.249537  0.457798  1
