# generated using pymatgen
data_HfZrNbB2Ru5
_symmetry_space_group_name_H-M   'P 1'
_cell_length_a   9.49490961
_cell_length_b   9.49490961
_cell_length_c   3.11222200
_cell_angle_alpha   90.00000000
_cell_angle_beta   90.00000000
_cell_angle_gamma   90.20099284
_symmetry_Int_Tables_number   1
_chemical_formula_structural   HfZrNbB2Ru5
_chemical_formula_sum   'Hf2 Zr2 Nb2 B4 Ru10'
_cell_volume   280.57538344
_cell_formula_units_Z   2
loop_
 _symmetry_equiv_pos_site_id
 _symmetry_equiv_pos_as_xyz
  1  'x, y, z'
loop_
 _atom_site_type_symbol
 _atom_site_label
 _atom_site_symmetry_multiplicity
 _atom_site_fract_x
 _atom_site_fract_y
 _atom_site_fract_z
 _atom_site_occupancy
  Hf  Hf0  1  0.324531  0.824531  0.000000  1
  Hf  Hf1  1  0.675469  0.175469  0.000000  1
  Zr  Zr2  1  0.823951  0.676049  0.000000  1
  Zr  Zr3  1  0.176049  0.323951  0.000000  1
  Nb  Nb4  1  0.500000  0.500000  0.000000  1
  Nb  Nb5  1  0.000000  0.000000  0.000000  1
  B  B6  1  0.620828  0.879172  0.000000  1
  B  B7  1  0.379172  0.120828  0.000000  1
  B  B8  1  0.121784  0.621784  0.000000  1
  B  B9  1  0.878216  0.378216  0.000000  1
  Ru  Ru10  1  0.569412  0.718814  0.500000  1
  Ru  Ru11  1  0.430588  0.281186  0.500000  1
  Ru  Ru12  1  0.071745  0.782166  0.500000  1
  Ru  Ru13  1  0.928255  0.217834  0.500000  1
  Ru  Ru14  1  0.282166  0.571745  0.500000  1
  Ru  Ru15  1  0.717834  0.428255  0.500000  1
  Ru  Ru16  1  0.218814  0.069412  0.500000  1
  Ru  Ru17  1  0.781186  0.930588  0.500000  1
  Ru  Ru18  1  0.500000  0.000000  0.500000  1
  Ru  Ru19  1  0.000000  0.500000  0.500000  1
