# generated using pymatgen
data_La9TmGa6
_symmetry_space_group_name_H-M   'P 1'
_cell_length_a   7.94460600
_cell_length_b   7.94460600
_cell_length_c   14.94806000
_cell_angle_alpha   90.00000000
_cell_angle_beta   90.00000000
_cell_angle_gamma   90.00000000
_symmetry_Int_Tables_number   1
_chemical_formula_structural   La9TmGa6
_chemical_formula_sum   'La18 Tm2 Ga12'
_cell_volume   943.47318268
_cell_formula_units_Z   2
loop_
 _symmetry_equiv_pos_site_id
 _symmetry_equiv_pos_as_xyz
  1  'x, y, z'
loop_
 _atom_site_type_symbol
 _atom_site_label
 _atom_site_symmetry_multiplicity
 _atom_site_fract_x
 _atom_site_fract_y
 _atom_site_fract_z
 _atom_site_occupancy
  La  La0  1  0.499999  0.000000  0.208395  1
  La  La1  1  0.182219  0.836590  0.895422  1
  La  La2  1  0.000000  0.499999  0.291605  1
  La  La3  1  0.817782  0.163411  0.895422  1
  La  La4  1  0.317781  0.336591  0.604577  1
  La  La5  1  0.163411  0.817782  0.604577  1
  La  La6  1  0.682219  0.663410  0.604577  1
  La  La7  1  0.836590  0.182219  0.604577  1
  La  La8  1  0.663410  0.682219  0.895422  1
  La  La9  1  0.336591  0.317781  0.895422  1
  La  La10  1  0.312885  0.660206  0.102418  1
  La  La11  1  0.687115  0.339795  0.102418  1
  La  La12  1  0.187115  0.160207  0.397582  1
  La  La13  1  0.812886  0.839794  0.397582  1
  La  La14  1  0.339795  0.687115  0.397582  1
  La  La15  1  0.660206  0.312885  0.397582  1
  La  La16  1  0.839794  0.812886  0.102418  1
  La  La17  1  0.160207  0.187115  0.102418  1
  Tm  Tm18  1  0.000000  0.499999  0.773375  1
  Tm  Tm19  1  0.499999  0.000000  0.726625  1
  Ga  Ga20  1  0.000000  0.499999  0.982645  1
  Ga  Ga21  1  0.499999  0.000000  0.517356  1
  Ga  Ga22  1  0.378053  0.621946  0.750000  1
  Ga  Ga23  1  0.621946  0.378053  0.750000  1
  Ga  Ga24  1  0.878054  0.878054  0.750000  1
  Ga  Ga25  1  0.121947  0.121947  0.750000  1
  Ga  Ga26  1  0.118304  0.881697  0.250000  1
  Ga  Ga27  1  0.881697  0.118304  0.250000  1
  Ga  Ga28  1  0.618303  0.618303  0.250000  1
  Ga  Ga29  1  0.381696  0.381696  0.250000  1
  Ga  Ga30  1  0.000000  0.499999  0.499212  1
  Ga  Ga31  1  0.499999  0.000000  0.000787  1
