# generated using pymatgen
data_Tl6In(IrCl6)3
_symmetry_space_group_name_H-M   'P 1'
_cell_length_a   7.23003600
_cell_length_b   7.23003477
_cell_length_c   18.46603700
_cell_angle_alpha   90.00000000
_cell_angle_beta   90.00000000
_cell_angle_gamma   119.99999649
_symmetry_Int_Tables_number   1
_chemical_formula_structural   Tl6In(IrCl6)3
_chemical_formula_sum   'Tl6 In1 Ir3 Cl18'
_cell_volume   835.95941602
_cell_formula_units_Z   1
loop_
 _symmetry_equiv_pos_site_id
 _symmetry_equiv_pos_as_xyz
  1  'x, y, z'
loop_
 _atom_site_type_symbol
 _atom_site_label
 _atom_site_symmetry_multiplicity
 _atom_site_fract_x
 _atom_site_fract_y
 _atom_site_fract_z
 _atom_site_occupancy
  Tl  Tl0  1  0.333333  0.666667  0.059192  1
  Tl  Tl1  1  0.666667  0.333333  0.951124  1
  Tl  Tl2  1  0.666667  0.333333  0.556097  1
  Tl  Tl3  1  0.333333  0.666667  0.448263  1
  Tl  Tl4  1  0.000000  0.000000  0.255196  1
  Tl  Tl5  1  0.000000  0.000000  0.737533  1
  In  In6  1  0.333333  0.666667  0.845826  1
  Ir  Ir7  1  0.333333  0.666667  0.662127  1
  Ir  Ir8  1  0.666667  0.333333  0.335537  1
  Ir  Ir9  1  0.666667  0.333333  0.164693  1
  Cl  Cl10  1  0.180175  0.360352  0.588839  1
  Cl  Cl11  1  0.819287  0.638572  0.408122  1
  Cl  Cl12  1  0.639648  0.819825  0.588839  1
  Cl  Cl13  1  0.819092  0.638184  0.091691  1
  Cl  Cl14  1  0.361428  0.180713  0.408122  1
  Cl  Cl15  1  0.165462  0.330927  0.914117  1
  Cl  Cl16  1  0.180175  0.819825  0.588839  1
  Cl  Cl17  1  0.361816  0.180908  0.091691  1
  Cl  Cl18  1  0.819287  0.180713  0.408122  1
  Cl  Cl19  1  0.669073  0.834538  0.914117  1
  Cl  Cl20  1  0.819092  0.180908  0.091691  1
  Cl  Cl21  1  0.165462  0.834538  0.914117  1
  Cl  Cl22  1  0.520708  0.041418  0.249971  1
  Cl  Cl23  1  0.483632  0.967265  0.742062  1
  Cl  Cl24  1  0.958582  0.479292  0.249971  1
  Cl  Cl25  1  0.032735  0.516368  0.742062  1
  Cl  Cl26  1  0.520708  0.479292  0.249971  1
  Cl  Cl27  1  0.483632  0.516368  0.742062  1
