# generated using pymatgen
data_Ca3Tb(SbPt)4
_symmetry_space_group_name_H-M   'P 1'
_cell_length_a   4.63775400
_cell_length_b   7.37592447
_cell_length_c   7.95331815
_cell_angle_alpha   90.15272533
_cell_angle_beta   90.00000000
_cell_angle_gamma   90.00000000
_symmetry_Int_Tables_number   1
_chemical_formula_structural   Ca3Tb(SbPt)4
_chemical_formula_sum   'Ca3 Tb1 Sb4 Pt4'
_cell_volume   272.06393942
_cell_formula_units_Z   1
loop_
 _symmetry_equiv_pos_site_id
 _symmetry_equiv_pos_as_xyz
  1  'x, y, z'
loop_
 _atom_site_type_symbol
 _atom_site_label
 _atom_site_symmetry_multiplicity
 _atom_site_fract_x
 _atom_site_fract_y
 _atom_site_fract_z
 _atom_site_occupancy
  Ca  Ca0  1  0.250000  0.006179  0.301942  1
  Ca  Ca1  1  0.750000  0.493044  0.801373  1
  Ca  Ca2  1  0.250000  0.507330  0.199233  1
  Tb  Tb3  1  0.750000  0.993002  0.698260  1
  Sb  Sb4  1  0.750000  0.310400  0.408277  1
  Sb  Sb5  1  0.250000  0.187838  0.909866  1
  Sb  Sb6  1  0.250000  0.684274  0.590827  1
  Sb  Sb7  1  0.750000  0.811232  0.090306  1
  Pt  Pt8  1  0.250000  0.809094  0.911544  1
  Pt  Pt9  1  0.250000  0.294874  0.586058  1
  Pt  Pt10  1  0.750000  0.707482  0.422070  1
  Pt  Pt11  1  0.750000  0.195250  0.080243  1
