# generated using pymatgen
data_SrMn7AlO16
_symmetry_space_group_name_H-M   'P 1'
_cell_length_a   5.87199274
_cell_length_b   7.06638608
_cell_length_c   7.16746774
_cell_angle_alpha   88.58480721
_cell_angle_beta   78.16023424
_cell_angle_gamma   77.80116859
_symmetry_Int_Tables_number   1
_chemical_formula_structural   SrMn7AlO16
_chemical_formula_sum   'Sr1 Mn7 Al1 O16'
_cell_volume   284.45141498
_cell_formula_units_Z   1
loop_
 _symmetry_equiv_pos_site_id
 _symmetry_equiv_pos_as_xyz
  1  'x, y, z'
loop_
 _atom_site_type_symbol
 _atom_site_label
 _atom_site_symmetry_multiplicity
 _atom_site_fract_x
 _atom_site_fract_y
 _atom_site_fract_z
 _atom_site_occupancy
  Sr  Sr0  1  0.003004  0.977762  0.013789  1
  Mn  Mn1  1  0.082081  0.506634  0.181799  1
  Mn  Mn2  1  0.172399  0.816793  0.513035  1
  Mn  Mn3  1  0.668511  0.818466  0.519458  1
  Mn  Mn4  1  0.340450  0.185431  0.467828  1
  Mn  Mn5  1  0.838060  0.185158  0.481487  1
  Mn  Mn6  1  0.431458  0.485716  0.820536  1
  Mn  Mn7  1  0.924988  0.491116  0.819495  1
  Al  Al8  1  0.579495  0.518795  0.184228  1
  O  O9  1  0.833913  0.649256  0.057524  1
  O  O10  1  0.320271  0.648103  0.057835  1
  O  O11  1  0.981243  0.695657  0.387359  1
  O  O12  1  0.486091  0.699815  0.384925  1
  O  O13  1  0.857700  0.957069  0.647274  1
  O  O14  1  0.348947  0.961475  0.638920  1
  O  O15  1  0.347906  0.373885  0.280056  1
  O  O16  1  0.837977  0.365565  0.279079  1
  O  O17  1  0.166845  0.638449  0.721945  1
  O  O18  1  0.662012  0.637906  0.723413  1
  O  O19  1  0.141822  0.033298  0.342934  1
  O  O20  1  0.673072  0.034809  0.348468  1
  O  O21  1  0.020076  0.302884  0.616250  1
  O  O22  1  0.530367  0.304495  0.615227  1
  O  O23  1  0.176010  0.350638  0.947288  1
  O  O24  1  0.682404  0.360824  0.949844  1
