# generated using pymatgen
data_Er11Sc(Si3Rh)4
_symmetry_space_group_name_H-M   'P 1'
_cell_length_a   4.19022100
_cell_length_b   10.60771950
_cell_length_c   12.18790430
_cell_angle_alpha   89.88341579
_cell_angle_beta   90.00000000
_cell_angle_gamma   90.00000000
_symmetry_Int_Tables_number   1
_chemical_formula_structural   Er11Sc(Si3Rh)4
_chemical_formula_sum   'Er11 Sc1 Si12 Rh4'
_cell_volume   541.73524627
_cell_formula_units_Z   1
loop_
 _symmetry_equiv_pos_site_id
 _symmetry_equiv_pos_as_xyz
  1  'x, y, z'
loop_
 _atom_site_type_symbol
 _atom_site_label
 _atom_site_symmetry_multiplicity
 _atom_site_fract_x
 _atom_site_fract_y
 _atom_site_fract_z
 _atom_site_occupancy
  Er  Er0  1  0.250000  0.879640  0.018693  1
  Er  Er1  1  0.250000  0.620797  0.519608  1
  Er  Er2  1  0.750000  0.121163  0.978018  1
  Er  Er3  1  0.750000  0.377020  0.481862  1
  Er  Er4  1  0.250000  0.921874  0.604307  1
  Er  Er5  1  0.250000  0.579697  0.103616  1
  Er  Er6  1  0.750000  0.079612  0.397649  1
  Er  Er7  1  0.750000  0.419290  0.895358  1
  Er  Er8  1  0.250000  0.659848  0.800300  1
  Er  Er9  1  0.250000  0.840671  0.300521  1
  Er  Er10  1  0.750000  0.339562  0.199655  1
  Sc  Sc11  1  0.750000  0.161155  0.701845  1
  Si  Si12  1  0.250000  0.016483  0.820215  1
  Si  Si13  1  0.250000  0.485254  0.322160  1
  Si  Si14  1  0.750000  0.986428  0.177795  1
  Si  Si15  1  0.750000  0.514528  0.677998  1
  Si  Si16  1  0.250000  0.246877  0.837029  1
  Si  Si17  1  0.250000  0.250931  0.343469  1
  Si  Si18  1  0.750000  0.751880  0.158461  1
  Si  Si19  1  0.750000  0.748366  0.658099  1
  Si  Si20  1  0.250000  0.197301  0.549394  1
  Si  Si21  1  0.250000  0.300843  0.040871  1
  Si  Si22  1  0.750000  0.801454  0.457976  1
  Si  Si23  1  0.750000  0.698779  0.957174  1
  Rh  Rh24  1  0.250000  0.389699  0.679717  1
  Rh  Rh25  1  0.250000  0.109442  0.180531  1
  Rh  Rh26  1  0.750000  0.609420  0.319861  1
  Rh  Rh27  1  0.750000  0.891984  0.817818  1
