# generated using pymatgen
data_Tb3Ho(Er4Bi3)4
_symmetry_space_group_name_H-M   'P 1'
_cell_length_a   8.21673400
_cell_length_b   9.47797600
_cell_length_c   11.97583201
_cell_angle_alpha   90.00000000
_cell_angle_beta   89.99620397
_cell_angle_gamma   90.00000000
_symmetry_Int_Tables_number   1
_chemical_formula_structural   Tb3Ho(Er4Bi3)4
_chemical_formula_sum   'Tb3 Ho1 Er16 Bi12'
_cell_volume   932.65393509
_cell_formula_units_Z   1
loop_
 _symmetry_equiv_pos_site_id
 _symmetry_equiv_pos_as_xyz
  1  'x, y, z'
loop_
 _atom_site_type_symbol
 _atom_site_label
 _atom_site_symmetry_multiplicity
 _atom_site_fract_x
 _atom_site_fract_y
 _atom_site_fract_z
 _atom_site_occupancy
  Tb  Tb0  1  0.314354  0.250000  0.218347  1
  Tb  Tb1  1  0.814344  0.250000  0.281642  1
  Tb  Tb2  1  0.685725  0.750000  0.781677  1
  Ho  Ho3  1  0.185798  0.750000  0.718047  1
  Er  Er4  1  0.353542  0.750000  0.216689  1
  Er  Er5  1  0.853624  0.750000  0.283289  1
  Er  Er6  1  0.646412  0.250000  0.783310  1
  Er  Er7  1  0.146412  0.250000  0.716702  1
  Er  Er8  1  0.691946  0.564676  0.059266  1
  Er  Er9  1  0.191997  0.935286  0.440806  1
  Er  Er10  1  0.308038  0.064689  0.940680  1
  Er  Er11  1  0.807976  0.435275  0.559277  1
  Er  Er12  1  0.308038  0.435311  0.940680  1
  Er  Er13  1  0.807976  0.064725  0.559277  1
  Er  Er14  1  0.691946  0.935324  0.059266  1
  Er  Er15  1  0.191997  0.564714  0.440806  1
  Er  Er16  1  0.476462  0.250000  0.489184  1
  Er  Er17  1  0.976495  0.250000  0.010838  1
  Er  Er18  1  0.523382  0.750000  0.510967  1
  Er  Er19  1  0.023564  0.750000  0.989072  1
  Bi  Bi20  1  0.404723  0.750000  0.958169  1
  Bi  Bi21  1  0.905380  0.750000  0.542025  1
  Bi  Bi22  1  0.595060  0.250000  0.041673  1
  Bi  Bi23  1  0.095045  0.250000  0.458330  1
  Bi  Bi24  1  0.566058  0.995347  0.326061  1
  Bi  Bi25  1  0.066012  0.504639  0.173979  1
  Bi  Bi26  1  0.433609  0.495678  0.674020  1
  Bi  Bi27  1  0.934202  0.004421  0.825931  1
  Bi  Bi28  1  0.433609  0.004322  0.674020  1
  Bi  Bi29  1  0.934202  0.495579  0.825931  1
  Bi  Bi30  1  0.566058  0.504653  0.326061  1
  Bi  Bi31  1  0.066012  0.995361  0.173979  1
