# generated using pymatgen
data_VTc2(NiP)3
_symmetry_space_group_name_H-M   'P 1'
_cell_length_a   5.79153000
_cell_length_b   5.80809048
_cell_length_c   3.66466800
_cell_angle_alpha   90.00000000
_cell_angle_beta   90.00000000
_cell_angle_gamma   119.90571384
_symmetry_Int_Tables_number   1
_chemical_formula_structural   VTc2(NiP)3
_chemical_formula_sum   'V1 Tc2 Ni3 P3'
_cell_volume   106.85719914
_cell_formula_units_Z   1
loop_
 _symmetry_equiv_pos_site_id
 _symmetry_equiv_pos_as_xyz
  1  'x, y, z'
loop_
 _atom_site_type_symbol
 _atom_site_label
 _atom_site_symmetry_multiplicity
 _atom_site_fract_x
 _atom_site_fract_y
 _atom_site_fract_z
 _atom_site_occupancy
  V  V0  1  0.413947  0.000000  0.500000  1
  Tc  Tc1  1  0.001169  0.412327  0.500000  1
  Tc  Tc2  1  0.588841  0.587673  0.500000  1
  Ni  Ni3  1  0.001970  0.751665  0.000000  1
  Ni  Ni4  1  0.250305  0.248335  0.000000  1
  Ni  Ni5  1  0.742812  0.000000  0.000000  1
  P  P6  1  0.331786  0.664842  0.000000  1
  P  P7  1  0.666945  0.335158  0.000000  1
  P  P8  1  0.002225  0.000000  0.500000  1
