# generated using pymatgen
data_Tb5YMgCo17P12
_symmetry_space_group_name_H-M   'P 1'
_cell_length_a   3.72127900
_cell_length_b   10.58024400
_cell_length_c   12.25658900
_cell_angle_alpha   90.00248900
_cell_angle_beta   90.00000000
_cell_angle_gamma   90.00000000
_symmetry_Int_Tables_number   1
_chemical_formula_structural   Tb5YMgCo17P12
_chemical_formula_sum   'Tb5 Y1 Mg1 Co17 P12'
_cell_volume   482.56690984
_cell_formula_units_Z   1
loop_
 _symmetry_equiv_pos_site_id
 _symmetry_equiv_pos_as_xyz
  1  'x, y, z'
loop_
 _atom_site_type_symbol
 _atom_site_label
 _atom_site_symmetry_multiplicity
 _atom_site_fract_x
 _atom_site_fract_y
 _atom_site_fract_z
 _atom_site_occupancy
  Tb  Tb0  1  0.000000  0.499998  0.525088  1
  Tb  Tb1  1  0.500000  0.000009  0.478791  1
  Tb  Tb2  1  0.500000  0.821453  0.207241  1
  Tb  Tb3  1  0.000000  0.682981  0.794553  1
  Tb  Tb4  1  0.000000  0.317029  0.794537  1
  Y  Y5  1  0.500000  0.178713  0.207152  1
  Mg  Mg6  1  0.500000  0.499995  0.153060  1
  Co  Co7  1  0.000000  0.999990  0.839287  1
  Co  Co8  1  0.500000  0.499983  0.704010  1
  Co  Co9  1  0.000000  0.000034  0.296324  1
  Co  Co10  1  0.000000  0.499978  0.985845  1
  Co  Co11  1  0.500000  0.000039  0.012412  1
  Co  Co12  1  0.500000  0.329165  0.992899  1
  Co  Co13  1  0.500000  0.670788  0.992871  1
  Co  Co14  1  0.000000  0.162913  0.001973  1
  Co  Co15  1  0.000000  0.837121  0.001919  1
  Co  Co16  1  0.500000  0.295658  0.432759  1
  Co  Co17  1  0.500000  0.704347  0.432769  1
  Co  Co18  1  0.000000  0.202170  0.570482  1
  Co  Co19  1  0.000000  0.797852  0.570500  1
  Co  Co20  1  0.500000  0.880389  0.708998  1
  Co  Co21  1  0.500000  0.119619  0.708993  1
  Co  Co22  1  0.000000  0.622634  0.293212  1
  Co  Co23  1  0.000000  0.377258  0.293128  1
  P  P24  1  0.500000  0.499994  0.883460  1
  P  P25  1  0.000000  0.000050  0.116162  1
  P  P26  1  0.500000  0.500035  0.353239  1
  P  P27  1  0.000000  0.999986  0.656200  1
  P  P28  1  0.500000  0.308821  0.616806  1
  P  P29  1  0.500000  0.691167  0.616817  1
  P  P30  1  0.000000  0.189733  0.385887  1
  P  P31  1  0.000000  0.810172  0.386039  1
  P  P32  1  0.500000  0.849934  0.890694  1
  P  P33  1  0.500000  0.150059  0.890660  1
  P  P34  1  0.000000  0.662622  0.102543  1
  P  P35  1  0.000000  0.337310  0.102689  1
