# generated using pymatgen
data_DyY2Lu5(InIr)2
_symmetry_space_group_name_H-M   'P 1'
_cell_length_a   9.55158482
_cell_length_b   9.55158462
_cell_length_c   9.55278100
_cell_angle_alpha   59.99585998
_cell_angle_beta   59.99586069
_cell_angle_gamma   60.00827773
_symmetry_Int_Tables_number   1
_chemical_formula_structural   DyY2Lu5(InIr)2
_chemical_formula_sum   'Dy2 Y4 Lu10 In4 Ir4'
_cell_volume   616.26239746
_cell_formula_units_Z   2
loop_
 _symmetry_equiv_pos_site_id
 _symmetry_equiv_pos_as_xyz
  1  'x, y, z'
loop_
 _atom_site_type_symbol
 _atom_site_label
 _atom_site_symmetry_multiplicity
 _atom_site_fract_x
 _atom_site_fract_y
 _atom_site_fract_z
 _atom_site_occupancy
  Dy  Dy0  1  0.808282  0.808282  0.191718  1
  Dy  Dy1  1  0.191718  0.191718  0.808282  1
  Y  Y2  1  0.191145  0.808855  0.808855  1
  Y  Y3  1  0.808855  0.191145  0.191145  1
  Y  Y4  1  0.808855  0.191145  0.808855  1
  Y  Y5  1  0.191145  0.808855  0.191145  1
  Lu  Lu6  1  0.597741  0.597741  0.597362  1
  Lu  Lu7  1  0.597741  0.597741  0.207154  1
  Lu  Lu8  1  0.597362  0.207154  0.597741  1
  Lu  Lu9  1  0.207154  0.597362  0.597741  1
  Lu  Lu10  1  0.059507  0.440493  0.440493  1
  Lu  Lu11  1  0.440493  0.059507  0.059507  1
  Lu  Lu12  1  0.440493  0.059507  0.440493  1
  Lu  Lu13  1  0.059507  0.440493  0.059507  1
  Lu  Lu14  1  0.440365  0.440365  0.059635  1
  Lu  Lu15  1  0.059635  0.059635  0.440365  1
  In  In16  1  0.833511  0.833511  0.830502  1
  In  In17  1  0.833511  0.833511  0.502476  1
  In  In18  1  0.830502  0.502476  0.833511  1
  In  In19  1  0.502476  0.830502  0.833511  1
  Ir  Ir20  1  0.390556  0.390556  0.390344  1
  Ir  Ir21  1  0.390556  0.390556  0.828544  1
  Ir  Ir22  1  0.390344  0.828544  0.390556  1
  Ir  Ir23  1  0.828544  0.390344  0.390556  1
