# generated using pymatgen
data_LaYb2Pr2Ir3
_symmetry_space_group_name_H-M   'P 1'
_cell_length_a   11.28822200
_cell_length_b   11.15579000
_cell_length_c   6.46678500
_cell_angle_alpha   90.00000000
_cell_angle_beta   90.00000000
_cell_angle_gamma   90.00000000
_symmetry_Int_Tables_number   1
_chemical_formula_structural   LaYb2Pr2Ir3
_chemical_formula_sum   'La4 Yb8 Pr8 Ir12'
_cell_volume   814.35598882
_cell_formula_units_Z   4
loop_
 _symmetry_equiv_pos_site_id
 _symmetry_equiv_pos_as_xyz
  1  'x, y, z'
loop_
 _atom_site_type_symbol
 _atom_site_label
 _atom_site_symmetry_multiplicity
 _atom_site_fract_x
 _atom_site_fract_y
 _atom_site_fract_z
 _atom_site_occupancy
  La  La0  1  0.295576  0.091368  0.386115  1
  La  La1  1  0.295576  0.908632  0.886115  1
  La  La2  1  0.704424  0.091368  0.886115  1
  La  La3  1  0.704424  0.908632  0.386115  1
  Yb  Yb4  1  0.584713  0.789960  0.885260  1
  Yb  Yb5  1  0.584713  0.210040  0.385260  1
  Yb  Yb6  1  0.415287  0.789960  0.385260  1
  Yb  Yb7  1  0.415287  0.210040  0.885260  1
  Yb  Yb8  1  0.000000  0.000000  0.488579  1
  Yb  Yb9  1  0.000000  0.000000  0.988579  1
  Yb  Yb10  1  0.500000  0.500000  0.992786  1
  Yb  Yb11  1  0.500000  0.500000  0.492786  1
  Pr  Pr12  1  0.214931  0.409587  0.623427  1
  Pr  Pr13  1  0.214931  0.590413  0.123427  1
  Pr  Pr14  1  0.785069  0.409587  0.123427  1
  Pr  Pr15  1  0.785069  0.590413  0.623427  1
  Pr  Pr16  1  0.910105  0.712376  0.116467  1
  Pr  Pr17  1  0.910105  0.287624  0.616467  1
  Pr  Pr18  1  0.089895  0.712376  0.616467  1
  Pr  Pr19  1  0.089895  0.287624  0.116467  1
  Ir  Ir20  1  0.845131  0.153268  0.242165  1
  Ir  Ir21  1  0.845131  0.846732  0.742165  1
  Ir  Ir22  1  0.154869  0.153268  0.742165  1
  Ir  Ir23  1  0.154869  0.846732  0.242165  1
  Ir  Ir24  1  0.659453  0.349954  0.747253  1
  Ir  Ir25  1  0.659453  0.650046  0.247253  1
  Ir  Ir26  1  0.340547  0.349954  0.247253  1
  Ir  Ir27  1  0.340547  0.650046  0.747253  1
  Ir  Ir28  1  0.500000  0.000000  0.130503  1
  Ir  Ir29  1  0.500000  0.000000  0.630503  1
  Ir  Ir30  1  0.000000  0.500000  0.886755  1
  Ir  Ir31  1  0.000000  0.500000  0.386755  1
