# generated using pymatgen
data_Ho6Lu14AlBi11
_symmetry_space_group_name_H-M   'P 1'
_cell_length_a   8.08516868
_cell_length_b   9.36130400
_cell_length_c   11.80460200
_cell_angle_alpha   90.00000000
_cell_angle_beta   89.76043211
_cell_angle_gamma   90.00000000
_symmetry_Int_Tables_number   1
_chemical_formula_structural   Ho6Lu14AlBi11
_chemical_formula_sum   'Ho6 Lu14 Al1 Bi11'
_cell_volume   893.45562278
_cell_formula_units_Z   1
loop_
 _symmetry_equiv_pos_site_id
 _symmetry_equiv_pos_as_xyz
  1  'x, y, z'
loop_
 _atom_site_type_symbol
 _atom_site_label
 _atom_site_symmetry_multiplicity
 _atom_site_fract_x
 _atom_site_fract_y
 _atom_site_fract_z
 _atom_site_occupancy
  Ho  Ho0  1  0.148730  0.750000  0.782476  1
  Ho  Ho1  1  0.850950  0.250000  0.215124  1
  Ho  Ho2  1  0.193738  0.250000  0.776971  1
  Ho  Ho3  1  0.809720  0.750000  0.217689  1
  Ho  Ho4  1  0.312806  0.750000  0.282237  1
  Ho  Ho5  1  0.676597  0.250000  0.711698  1
  Lu  Lu6  1  0.034027  0.250000  0.509054  1
  Lu  Lu7  1  0.980911  0.750000  0.490324  1
  Lu  Lu8  1  0.477821  0.750000  0.010551  1
  Lu  Lu9  1  0.524339  0.250000  0.989685  1
  Lu  Lu10  1  0.352613  0.250000  0.292757  1
  Lu  Lu11  1  0.652508  0.750000  0.718238  1
  Lu  Lu12  1  0.192221  0.067450  0.060774  1
  Lu  Lu13  1  0.808237  0.933306  0.940887  1
  Lu  Lu14  1  0.308962  0.947260  0.558216  1
  Lu  Lu15  1  0.808237  0.566694  0.940887  1
  Lu  Lu16  1  0.683608  0.072370  0.444660  1
  Lu  Lu17  1  0.192221  0.432550  0.060774  1
  Lu  Lu18  1  0.683608  0.427630  0.444660  1
  Lu  Lu19  1  0.308962  0.552740  0.558216  1
  Al  Al20  1  0.404071  0.250000  0.539688  1
  Bi  Bi21  1  0.597642  0.750000  0.459752  1
  Bi  Bi22  1  0.097773  0.750000  0.043614  1
  Bi  Bi23  1  0.905732  0.250000  0.953161  1
  Bi  Bi24  1  0.061827  0.002913  0.325251  1
  Bi  Bi25  1  0.935429  0.997417  0.673999  1
  Bi  Bi26  1  0.437916  0.994721  0.825193  1
  Bi  Bi27  1  0.935429  0.502583  0.673999  1
  Bi  Bi28  1  0.561813  0.005186  0.174510  1
  Bi  Bi29  1  0.061827  0.497087  0.325251  1
  Bi  Bi30  1  0.561813  0.494814  0.174510  1
  Bi  Bi31  1  0.437916  0.505279  0.825193  1
