# generated using pymatgen
data_Er8Si12IrPd2Rh
_symmetry_space_group_name_H-M   'P 1'
_cell_length_a   8.15705600
_cell_length_b   8.15705538
_cell_length_c   7.83882800
_cell_angle_alpha   90.00000000
_cell_angle_beta   90.00000000
_cell_angle_gamma   120.00000251
_symmetry_Int_Tables_number   1
_chemical_formula_structural   Er8Si12IrPd2Rh
_chemical_formula_sum   'Er8 Si12 Ir1 Pd2 Rh1'
_cell_volume   451.69846073
_cell_formula_units_Z   1
loop_
 _symmetry_equiv_pos_site_id
 _symmetry_equiv_pos_as_xyz
  1  'x, y, z'
loop_
 _atom_site_type_symbol
 _atom_site_label
 _atom_site_symmetry_multiplicity
 _atom_site_fract_x
 _atom_site_fract_y
 _atom_site_fract_z
 _atom_site_occupancy
  Er  Er0  1  0.000000  0.000000  0.250459  1
  Er  Er1  1  0.000000  0.000000  0.749494  1
  Er  Er2  1  0.488400  0.511600  0.249985  1
  Er  Er3  1  0.488400  0.976798  0.249985  1
  Er  Er4  1  0.023202  0.511600  0.249985  1
  Er  Er5  1  0.504991  0.495009  0.749911  1
  Er  Er6  1  0.990018  0.495009  0.749911  1
  Er  Er7  1  0.504991  0.009982  0.749911  1
  Si  Si8  1  0.835661  0.164339  0.499977  1
  Si  Si9  1  0.835661  0.671322  0.499977  1
  Si  Si10  1  0.328678  0.164339  0.499977  1
  Si  Si11  1  0.835483  0.164517  0.999848  1
  Si  Si12  1  0.835483  0.670966  0.999848  1
  Si  Si13  1  0.329034  0.164517  0.999848  1
  Si  Si14  1  0.166794  0.833206  0.000513  1
  Si  Si15  1  0.666413  0.833206  0.000513  1
  Si  Si16  1  0.166794  0.333587  0.000513  1
  Si  Si17  1  0.167191  0.832809  0.498803  1
  Si  Si18  1  0.665620  0.832809  0.498803  1
  Si  Si19  1  0.167191  0.334380  0.498803  1
  Ir  Ir20  1  0.333333  0.666667  0.966186  1
  Pd  Pd21  1  0.666667  0.333333  0.473869  1
  Pd  Pd22  1  0.666667  0.333333  0.025667  1
  Rh  Rh23  1  0.333333  0.666667  0.537214  1
