# generated using pymatgen
data_DyTm2Lu4Co6Sn23
_symmetry_space_group_name_H-M   'P 1'
_cell_length_a   9.65082955
_cell_length_b   9.65082951
_cell_length_c   9.93416303
_cell_angle_alpha   89.99216375
_cell_angle_beta   90.00783867
_cell_angle_gamma   119.96202839
_symmetry_Int_Tables_number   1
_chemical_formula_structural   DyTm2Lu4Co6Sn23
_chemical_formula_sum   'Dy1 Tm2 Lu4 Co6 Sn23'
_cell_volume   801.59914215
_cell_formula_units_Z   1
loop_
 _symmetry_equiv_pos_site_id
 _symmetry_equiv_pos_as_xyz
  1  'x, y, z'
loop_
 _atom_site_type_symbol
 _atom_site_label
 _atom_site_symmetry_multiplicity
 _atom_site_fract_x
 _atom_site_fract_y
 _atom_site_fract_z
 _atom_site_occupancy
  Dy  Dy0  1  0.000000  0.000000  0.000000  1
  Tm  Tm1  1  0.479891  0.520109  0.306474  1
  Tm  Tm2  1  0.520109  0.479891  0.693526  1
  Lu  Lu3  1  0.480627  0.960732  0.306015  1
  Lu  Lu4  1  0.519373  0.039268  0.693985  1
  Lu  Lu5  1  0.039268  0.519373  0.306015  1
  Lu  Lu6  1  0.960732  0.480627  0.693985  1
  Co  Co7  1  0.831451  0.168549  0.197637  1
  Co  Co8  1  0.168549  0.831451  0.802363  1
  Co  Co9  1  0.832201  0.663386  0.197327  1
  Co  Co10  1  0.167799  0.336614  0.802673  1
  Co  Co11  1  0.336614  0.167799  0.197327  1
  Co  Co12  1  0.663386  0.832201  0.802673  1
  Sn  Sn13  1  0.346632  0.999752  0.999778  1
  Sn  Sn14  1  0.653368  0.000248  0.000222  1
  Sn  Sn15  1  0.999752  0.346632  0.000222  1
  Sn  Sn16  1  0.000248  0.653368  0.999778  1
  Sn  Sn17  1  0.653287  0.653287  0.000000  1
  Sn  Sn18  1  0.346713  0.346713  0.000000  1
  Sn  Sn19  1  0.333396  0.666604  0.819105  1
  Sn  Sn20  1  0.666604  0.333396  0.180895  1
  Sn  Sn21  1  0.000000  0.000000  0.500000  1
  Sn  Sn22  1  0.780627  0.219373  0.452183  1
  Sn  Sn23  1  0.219373  0.780627  0.547817  1
  Sn  Sn24  1  0.781521  0.561090  0.452166  1
  Sn  Sn25  1  0.218479  0.438910  0.547834  1
  Sn  Sn26  1  0.438910  0.218479  0.452166  1
  Sn  Sn27  1  0.561090  0.781521  0.547834  1
  Sn  Sn28  1  0.332775  0.667225  0.124595  1
  Sn  Sn29  1  0.667225  0.332775  0.875405  1
  Sn  Sn30  1  0.119442  0.880558  0.275141  1
  Sn  Sn31  1  0.880558  0.119442  0.724859  1
  Sn  Sn32  1  0.118583  0.237670  0.274988  1
  Sn  Sn33  1  0.881417  0.762330  0.725012  1
  Sn  Sn34  1  0.762330  0.881417  0.274988  1
  Sn  Sn35  1  0.237670  0.118583  0.725012  1
