# generated using pymatgen
data_ZrCoSi3Rh4
_symmetry_space_group_name_H-M   'P 1'
_cell_length_a   3.77921400
_cell_length_b   10.76549000
_cell_length_c   12.23812600
_cell_angle_alpha   90.00000000
_cell_angle_beta   90.00000000
_cell_angle_gamma   90.00000000
_symmetry_Int_Tables_number   1
_chemical_formula_structural   ZrCoSi3Rh4
_chemical_formula_sum   'Zr4 Co4 Si12 Rh16'
_cell_volume   497.90926416
_cell_formula_units_Z   4
loop_
 _symmetry_equiv_pos_site_id
 _symmetry_equiv_pos_as_xyz
  1  'x, y, z'
loop_
 _atom_site_type_symbol
 _atom_site_label
 _atom_site_symmetry_multiplicity
 _atom_site_fract_x
 _atom_site_fract_y
 _atom_site_fract_z
 _atom_site_occupancy
  Zr  Zr0  1  0.250000  0.586943  0.707430  1
  Zr  Zr1  1  0.250000  0.913057  0.207430  1
  Zr  Zr2  1  0.750000  0.413057  0.292570  1
  Zr  Zr3  1  0.750000  0.086943  0.792570  1
  Co  Co4  1  0.250000  0.471143  0.930952  1
  Co  Co5  1  0.250000  0.028857  0.430952  1
  Co  Co6  1  0.750000  0.528857  0.069048  1
  Co  Co7  1  0.750000  0.971143  0.569048  1
  Si  Si8  1  0.250000  0.419036  0.106510  1
  Si  Si9  1  0.250000  0.080964  0.606510  1
  Si  Si10  1  0.750000  0.580964  0.893490  1
  Si  Si11  1  0.750000  0.919036  0.393490  1
  Si  Si12  1  0.250000  0.272953  0.873021  1
  Si  Si13  1  0.250000  0.227047  0.373021  1
  Si  Si14  1  0.750000  0.727047  0.126979  1
  Si  Si15  1  0.750000  0.772953  0.626979  1
  Si  Si16  1  0.250000  0.597729  0.389302  1
  Si  Si17  1  0.250000  0.902271  0.889302  1
  Si  Si18  1  0.750000  0.402271  0.610698  1
  Si  Si19  1  0.750000  0.097729  0.110698  1
  Rh  Rh20  1  0.250000  0.711238  0.989994  1
  Rh  Rh21  1  0.250000  0.788762  0.489994  1
  Rh  Rh22  1  0.750000  0.288762  0.010006  1
  Rh  Rh23  1  0.750000  0.211238  0.510006  1
  Rh  Rh24  1  0.250000  0.406759  0.484373  1
  Rh  Rh25  1  0.250000  0.093241  0.984373  1
  Rh  Rh26  1  0.750000  0.593241  0.515627  1
  Rh  Rh27  1  0.750000  0.906759  0.015627  1
  Rh  Rh28  1  0.250000  0.224321  0.178363  1
  Rh  Rh29  1  0.250000  0.275679  0.678363  1
  Rh  Rh30  1  0.750000  0.775679  0.821637  1
  Rh  Rh31  1  0.750000  0.724321  0.321637  1
  Rh  Rh32  1  0.250000  0.892011  0.699622  1
  Rh  Rh33  1  0.250000  0.607989  0.199622  1
  Rh  Rh34  1  0.750000  0.107989  0.300378  1
  Rh  Rh35  1  0.750000  0.392011  0.800378  1
