# generated using pymatgen
data_Er6Al24Fe2(CuRu)3
_symmetry_space_group_name_H-M   'P 1'
_cell_length_a   8.75455321
_cell_length_b   8.71173099
_cell_length_c   9.34688902
_cell_angle_alpha   90.12071425
_cell_angle_beta   89.99427730
_cell_angle_gamma   119.39062986
_symmetry_Int_Tables_number   1
_chemical_formula_structural   Er6Al24Fe2(CuRu)3
_chemical_formula_sum   'Er6 Al24 Fe2 Cu3 Ru3'
_cell_volume   621.11079833
_cell_formula_units_Z   1
loop_
 _symmetry_equiv_pos_site_id
 _symmetry_equiv_pos_as_xyz
  1  'x, y, z'
loop_
 _atom_site_type_symbol
 _atom_site_label
 _atom_site_symmetry_multiplicity
 _atom_site_fract_x
 _atom_site_fract_y
 _atom_site_fract_z
 _atom_site_occupancy
  Er  Er0  1  0.189921  0.386514  0.252119  1
  Er  Er1  1  0.810079  0.613486  0.747881  1
  Er  Er2  1  0.615846  0.808869  0.247901  1
  Er  Er3  1  0.384154  0.191131  0.752099  1
  Er  Er4  1  0.191731  0.803771  0.248684  1
  Er  Er5  1  0.808269  0.196229  0.751316  1
  Al  Al6  1  0.330767  0.664885  0.023551  1
  Al  Al7  1  0.669233  0.335115  0.976449  1
  Al  Al8  1  0.667393  0.331385  0.523903  1
  Al  Al9  1  0.332607  0.668615  0.476097  1
  Al  Al10  1  0.154866  0.318344  0.576618  1
  Al  Al11  1  0.845134  0.681656  0.423382  1
  Al  Al12  1  0.682312  0.847026  0.574473  1
  Al  Al13  1  0.845174  0.681898  0.077885  1
  Al  Al14  1  0.317688  0.152974  0.425527  1
  Al  Al15  1  0.154826  0.318102  0.922115  1
  Al  Al16  1  0.161903  0.839960  0.575669  1
  Al  Al17  1  0.315466  0.158524  0.079292  1
  Al  Al18  1  0.838097  0.160040  0.424331  1
  Al  Al19  1  0.684534  0.841476  0.920708  1
  Al  Al20  1  0.845261  0.165005  0.079560  1
  Al  Al21  1  0.154739  0.834995  0.920440  1
  Al  Al22  1  0.561033  0.124058  0.251217  1
  Al  Al23  1  0.438967  0.875942  0.748783  1
  Al  Al24  1  0.876116  0.438502  0.249885  1
  Al  Al25  1  0.123884  0.561498  0.750115  1
  Al  Al26  1  0.560165  0.437934  0.250122  1
  Al  Al27  1  0.439835  0.562066  0.749878  1
  Al  Al28  1  0.997325  0.000027  0.250763  1
  Al  Al29  1  0.002675  0.999973  0.749237  1
  Fe  Fe30  1  0.000000  0.000000  0.000000  1
  Fe  Fe31  1  0.000000  0.000000  0.500000  1
  Cu  Cu32  1  0.500000  0.000000  0.000000  1
  Cu  Cu33  1  0.500000  0.500000  0.000000  1
  Cu  Cu34  1  0.500000  0.500000  0.500000  1
  Ru  Ru35  1  0.000000  0.500000  0.000000  1
  Ru  Ru36  1  0.500000  0.000000  0.500000  1
  Ru  Ru37  1  0.000000  0.500000  0.500000  1
