# generated using pymatgen
data_Cs3AgGe4
_symmetry_space_group_name_H-M   'P 1'
_cell_length_a   6.36799800
_cell_length_b   7.30922000
_cell_length_c   13.22952900
_cell_angle_alpha   90.00000000
_cell_angle_beta   90.00000000
_cell_angle_gamma   90.00000000
_symmetry_Int_Tables_number   1
_chemical_formula_structural   Cs3AgGe4
_chemical_formula_sum   'Cs6 Ag2 Ge8'
_cell_volume   615.76972832
_cell_formula_units_Z   2
loop_
 _symmetry_equiv_pos_site_id
 _symmetry_equiv_pos_as_xyz
  1  'x, y, z'
loop_
 _atom_site_type_symbol
 _atom_site_label
 _atom_site_symmetry_multiplicity
 _atom_site_fract_x
 _atom_site_fract_y
 _atom_site_fract_z
 _atom_site_occupancy
  Cs  Cs0  1  0.842112  0.500000  0.265967  1
  Cs  Cs1  1  0.842112  0.500000  0.734033  1
  Cs  Cs2  1  0.426329  0.500000  0.500000  1
  Cs  Cs3  1  0.157888  0.000000  0.234033  1
  Cs  Cs4  1  0.157888  0.000000  0.765967  1
  Cs  Cs5  1  0.573671  0.000000  0.000000  1
  Ag  Ag6  1  0.700108  0.500000  0.000000  1
  Ag  Ag7  1  0.299892  0.000000  0.500000  1
  Ge  Ge8  1  0.069360  0.312544  0.000000  1
  Ge  Ge9  1  0.333732  0.500000  0.104142  1
  Ge  Ge10  1  0.666268  0.000000  0.604142  1
  Ge  Ge11  1  0.069360  0.687456  0.000000  1
  Ge  Ge12  1  0.930640  0.812544  0.500000  1
  Ge  Ge13  1  0.666268  0.000000  0.395858  1
  Ge  Ge14  1  0.333732  0.500000  0.895858  1
  Ge  Ge15  1  0.930640  0.187456  0.500000  1
