# generated using pymatgen
data_Rb2Li3AlO4
_symmetry_space_group_name_H-M   'P 1'
_cell_length_a   7.95000093
_cell_length_b   7.95000151
_cell_length_c   7.95000059
_cell_angle_alpha   143.89315934
_cell_angle_beta   104.22634883
_cell_angle_gamma   86.92330846
_symmetry_Int_Tables_number   1
_chemical_formula_structural   Rb2Li3AlO4
_chemical_formula_sum   'Rb4 Li6 Al2 O8'
_cell_volume   277.63085861
_cell_formula_units_Z   2
loop_
 _symmetry_equiv_pos_site_id
 _symmetry_equiv_pos_as_xyz
  1  'x, y, z'
loop_
 _atom_site_type_symbol
 _atom_site_label
 _atom_site_symmetry_multiplicity
 _atom_site_fract_x
 _atom_site_fract_y
 _atom_site_fract_z
 _atom_site_occupancy
  Rb  Rb0  1  0.371609  0.236875  0.608483  1
  Rb  Rb1  1  0.628391  0.763125  0.391517  1
  Rb  Rb2  1  0.871609  0.263125  0.134734  1
  Rb  Rb3  1  0.128391  0.736875  0.865266  1
  Li  Li4  1  0.489423  0.750000  0.739423  1
  Li  Li5  1  0.989423  0.250000  0.739423  1
  Li  Li6  1  0.010577  0.750000  0.260577  1
  Li  Li7  1  0.250000  0.750000  0.500000  1
  Li  Li8  1  0.510577  0.250000  0.260577  1
  Li  Li9  1  0.750000  0.250000  0.500000  1
  Al  Al10  1  0.750000  0.750000  0.000000  1
  Al  Al11  1  0.250000  0.250000  0.000000  1
  O  O12  1  0.059263  0.948767  0.661186  1
  O  O13  1  0.212419  0.551233  0.110496  1
  O  O14  1  0.787581  0.448767  0.889504  1
  O  O15  1  0.559263  0.898076  0.110496  1
  O  O16  1  0.940737  0.051233  0.338814  1
  O  O17  1  0.712419  0.601924  0.661186  1
  O  O18  1  0.440737  0.101924  0.889504  1
  O  O19  1  0.287581  0.398076  0.338814  1
