# generated using pymatgen
data_Er8TaRu9
_symmetry_space_group_name_H-M   'P 1'
_cell_length_a   8.16361700
_cell_length_b   8.16361768
_cell_length_c   5.79319600
_cell_angle_alpha   90.00093345
_cell_angle_beta   90.00093345
_cell_angle_gamma   120.00028491
_symmetry_Int_Tables_number   1
_chemical_formula_structural   Er8TaRu9
_chemical_formula_sum   'Er8 Ta1 Ru9'
_cell_volume   334.35889857
_cell_formula_units_Z   1
loop_
 _symmetry_equiv_pos_site_id
 _symmetry_equiv_pos_as_xyz
  1  'x, y, z'
loop_
 _atom_site_type_symbol
 _atom_site_label
 _atom_site_symmetry_multiplicity
 _atom_site_fract_x
 _atom_site_fract_y
 _atom_site_fract_z
 _atom_site_occupancy
  Er  Er0  1  0.666705  0.999321  0.224771  1
  Er  Er1  1  0.333695  0.333694  0.225227  1
  Er  Er2  1  0.999321  0.666706  0.224771  1
  Er  Er3  1  0.666983  0.333185  0.558943  1
  Er  Er4  1  0.333186  0.666984  0.558943  1
  Er  Er5  1  0.999826  0.999826  0.559863  1
  Er  Er6  1  0.333414  0.000288  0.892346  1
  Er  Er7  1  0.000288  0.333413  0.892346  1
  Ta  Ta8  1  0.666256  0.666256  0.891031  1
  Ru  Ru9  1  0.666716  0.349634  0.052113  1
  Ru  Ru10  1  0.349635  0.666717  0.052113  1
  Ru  Ru11  1  0.983418  0.983418  0.053050  1
  Ru  Ru12  1  0.333148  0.000239  0.391892  1
  Ru  Ru13  1  0.000239  0.333147  0.391892  1
  Ru  Ru14  1  0.666463  0.666463  0.393601  1
  Ru  Ru15  1  0.666602  0.984168  0.731747  1
  Ru  Ru16  1  0.349938  0.349938  0.731447  1
  Ru  Ru17  1  0.984168  0.666602  0.731747  1
