# generated using pymatgen
data_Sc3MnP3Ru2
_symmetry_space_group_name_H-M   'P 1'
_cell_length_a   6.57679789
_cell_length_b   6.52421394
_cell_length_c   3.55556500
_cell_angle_alpha   90.00000000
_cell_angle_beta   90.00000000
_cell_angle_gamma   119.73586613
_symmetry_Int_Tables_number   1
_chemical_formula_structural   Sc3MnP3Ru2
_chemical_formula_sum   'Sc3 Mn1 P3 Ru2'
_cell_volume   132.47432479
_cell_formula_units_Z   1
loop_
 _symmetry_equiv_pos_site_id
 _symmetry_equiv_pos_as_xyz
  1  'x, y, z'
loop_
 _atom_site_type_symbol
 _atom_site_label
 _atom_site_symmetry_multiplicity
 _atom_site_fract_x
 _atom_site_fract_y
 _atom_site_fract_z
 _atom_site_occupancy
  Sc  Sc0  1  0.411117  0.407520  0.500000  1
  Sc  Sc1  1  0.588883  0.996403  0.500000  1
  Sc  Sc2  1  0.000000  0.590777  0.500000  1
  Mn  Mn3  1  0.000000  0.245108  0.000000  1
  P  P4  1  0.673685  0.330647  0.000000  1
  P  P5  1  0.326315  0.656963  0.000000  1
  P  P6  1  0.000000  0.015356  0.500000  1
  Ru  Ru7  1  0.243554  0.000390  0.000000  1
  Ru  Ru8  1  0.756446  0.756836  0.000000  1
