# generated using pymatgen
data_Ca20Zn7Hg5
_symmetry_space_group_name_H-M   'P 1'
_cell_length_a   8.00021222
_cell_length_b   8.00022906
_cell_length_c   15.10533000
_cell_angle_alpha   89.99715570
_cell_angle_beta   90.00037820
_cell_angle_gamma   90.12713600
_symmetry_Int_Tables_number   1
_chemical_formula_structural   Ca20Zn7Hg5
_chemical_formula_sum   'Ca20 Zn7 Hg5'
_cell_volume   966.79206498
_cell_formula_units_Z   1
loop_
 _symmetry_equiv_pos_site_id
 _symmetry_equiv_pos_as_xyz
  1  'x, y, z'
loop_
 _atom_site_type_symbol
 _atom_site_label
 _atom_site_symmetry_multiplicity
 _atom_site_fract_x
 _atom_site_fract_y
 _atom_site_fract_z
 _atom_site_occupancy
  Ca  Ca0  1  0.668389  0.169588  0.102084  1
  Ca  Ca1  1  0.168324  0.667340  0.604803  1
  Ca  Ca2  1  0.329603  0.832465  0.102133  1
  Ca  Ca3  1  0.831852  0.332429  0.604788  1
  Ca  Ca4  1  0.835563  0.665256  0.101658  1
  Ca  Ca5  1  0.332256  0.168497  0.604146  1
  Ca  Ca6  1  0.166910  0.332230  0.102607  1
  Ca  Ca7  1  0.667332  0.831909  0.604088  1
  Ca  Ca8  1  0.832978  0.331885  0.895740  1
  Ca  Ca9  1  0.330098  0.831449  0.397367  1
  Ca  Ca10  1  0.167273  0.667937  0.895761  1
  Ca  Ca11  1  0.667778  0.170625  0.397313  1
  Ca  Ca12  1  0.667852  0.832968  0.896492  1
  Ca  Ca13  1  0.167976  0.332815  0.396780  1
  Ca  Ca14  1  0.331712  0.167470  0.896447  1
  Ca  Ca15  1  0.834642  0.664656  0.397804  1
  Ca  Ca16  1  0.500063  0.500066  0.751600  1
  Ca  Ca17  1  0.002064  0.000779  0.250161  1
  Ca  Ca18  1  0.999940  0.999946  0.749852  1
  Ca  Ca19  1  0.499203  0.497900  0.248353  1
  Zn  Zn20  1  0.620362  0.120521  0.750442  1
  Zn  Zn21  1  0.120486  0.620426  0.249562  1
  Zn  Zn22  1  0.879531  0.379585  0.249551  1
  Zn  Zn23  1  0.379538  0.879587  0.750436  1
  Zn  Zn24  1  0.879087  0.620867  0.750405  1
  Zn  Zn25  1  0.373436  0.126594  0.249513  1
  Zn  Zn26  1  0.120897  0.379155  0.750400  1
  Hg  Hg27  1  0.499834  0.500280  0.500632  1
  Hg  Hg28  1  0.499797  0.500279  0.999439  1
  Hg  Hg29  1  0.999734  0.000208  0.500649  1
  Hg  Hg30  1  0.625797  0.874123  0.249526  1
  Hg  Hg31  1  0.999693  0.000164  0.999467  1
