# generated using pymatgen
data_CaAc(InPd)2
_symmetry_space_group_name_H-M   'P 1'
_cell_length_a   4.42919700
_cell_length_b   7.63757100
_cell_length_c   8.84720600
_cell_angle_alpha   90.00000000
_cell_angle_beta   90.00000000
_cell_angle_gamma   90.00000000
_symmetry_Int_Tables_number   1
_chemical_formula_structural   CaAc(InPd)2
_chemical_formula_sum   'Ca2 Ac2 In4 Pd4'
_cell_volume   299.28599677
_cell_formula_units_Z   2
loop_
 _symmetry_equiv_pos_site_id
 _symmetry_equiv_pos_as_xyz
  1  'x, y, z'
loop_
 _atom_site_type_symbol
 _atom_site_label
 _atom_site_symmetry_multiplicity
 _atom_site_fract_x
 _atom_site_fract_y
 _atom_site_fract_z
 _atom_site_occupancy
  Ca  Ca0  1  0.750000  0.537886  0.186189  1
  Ca  Ca1  1  0.250000  0.962114  0.686189  1
  Ac  Ac2  1  0.750000  0.036660  0.324132  1
  Ac  Ac3  1  0.250000  0.463340  0.824132  1
  In  In4  1  0.250000  0.851845  0.057646  1
  In  In5  1  0.250000  0.365944  0.437075  1
  In  In6  1  0.750000  0.648155  0.557646  1
  In  In7  1  0.750000  0.134056  0.937075  1
  Pd  Pd8  1  0.250000  0.736377  0.365150  1
  Pd  Pd9  1  0.750000  0.263940  0.629808  1
  Pd  Pd10  1  0.750000  0.763623  0.865150  1
  Pd  Pd11  1  0.250000  0.236060  0.129808  1
