# generated using pymatgen
data_Sr4TmSn3
_symmetry_space_group_name_H-M   'P 1'
_cell_length_a   9.73005729
_cell_length_b   9.73008393
_cell_length_c   9.73005747
_cell_angle_alpha   96.86312745
_cell_angle_beta   96.86298728
_cell_angle_gamma   139.55279457
_symmetry_Int_Tables_number   1
_chemical_formula_structural   Sr4TmSn3
_chemical_formula_sum   'Sr8 Tm2 Sn6'
_cell_volume   560.77497128
_cell_formula_units_Z   2
loop_
 _symmetry_equiv_pos_site_id
 _symmetry_equiv_pos_as_xyz
  1  'x, y, z'
loop_
 _atom_site_type_symbol
 _atom_site_label
 _atom_site_symmetry_multiplicity
 _atom_site_fract_x
 _atom_site_fract_y
 _atom_site_fract_z
 _atom_site_occupancy
  Sr  Sr0  1  0.085631  0.213058  0.298685  1
  Sr  Sr1  1  0.914369  0.786942  0.701315  1
  Sr  Sr2  1  0.786942  0.085628  0.872571  1
  Sr  Sr3  1  0.414372  0.713058  0.127426  1
  Sr  Sr4  1  0.213058  0.914372  0.127429  1
  Sr  Sr5  1  0.585628  0.286942  0.872574  1
  Sr  Sr6  1  0.713057  0.585628  0.298687  1
  Sr  Sr7  1  0.286943  0.414372  0.701313  1
  Tm  Tm8  1  0.250000  0.750000  0.500000  1
  Tm  Tm9  1  0.750000  0.250000  0.500000  1
  Sn  Sn10  1  0.143638  0.643638  0.787272  1
  Sn  Sn11  1  0.856362  0.356362  0.212728  1
  Sn  Sn12  1  0.356363  0.143638  0.500000  1
  Sn  Sn13  1  0.643637  0.856362  0.500000  1
  Sn  Sn14  1  0.250000  0.250000  0.000000  1
  Sn  Sn15  1  0.750000  0.750000  0.000000  1
