# generated using pymatgen
data_Y7Tm(Si4Mo3)4
_symmetry_space_group_name_H-M   'P 1'
_cell_length_a   6.77450603
_cell_length_b   6.95731737
_cell_length_c   12.93387813
_cell_angle_alpha   89.97963540
_cell_angle_beta   90.00060416
_cell_angle_gamma   89.96663810
_symmetry_Int_Tables_number   1
_chemical_formula_structural   Y7Tm(Si4Mo3)4
_chemical_formula_sum   'Y7 Tm1 Si16 Mo12'
_cell_volume   609.60442589
_cell_formula_units_Z   1
loop_
 _symmetry_equiv_pos_site_id
 _symmetry_equiv_pos_as_xyz
  1  'x, y, z'
loop_
 _atom_site_type_symbol
 _atom_site_label
 _atom_site_symmetry_multiplicity
 _atom_site_fract_x
 _atom_site_fract_y
 _atom_site_fract_z
 _atom_site_occupancy
  Y  Y0  1  0.497487  0.332924  0.094099  1
  Y  Y1  1  0.997552  0.166942  0.405976  1
  Y  Y2  1  0.502585  0.666896  0.594074  1
  Y  Y3  1  0.002260  0.833102  0.906501  1
  Y  Y4  1  0.502263  0.667336  0.906344  1
  Y  Y5  1  0.002387  0.833077  0.594064  1
  Y  Y6  1  0.497300  0.332966  0.405409  1
  Tm  Tm7  1  0.996654  0.167314  0.094384  1
  Si  Si8  1  0.658318  0.042339  0.547618  1
  Si  Si9  1  0.158369  0.457165  0.952998  1
  Si  Si10  1  0.339889  0.958907  0.047943  1
  Si  Si11  1  0.841536  0.542245  0.452144  1
  Si  Si12  1  0.341701  0.957599  0.452065  1
  Si  Si13  1  0.842109  0.540685  0.047959  1
  Si  Si14  1  0.658831  0.042292  0.952957  1
  Si  Si15  1  0.158474  0.457912  0.547595  1
  Si  Si16  1  0.534916  0.365095  0.750259  1
  Si  Si17  1  0.034821  0.134609  0.750038  1
  Si  Si18  1  0.465433  0.635126  0.249612  1
  Si  Si19  1  0.965612  0.866361  0.249422  1
  Si  Si20  1  0.802882  0.628137  0.750356  1
  Si  Si21  1  0.302709  0.871564  0.750163  1
  Si  Si22  1  0.196407  0.370685  0.249242  1
  Si  Si23  1  0.698232  0.128611  0.249452  1
  Mo  Mo24  1  0.830725  0.334808  0.625426  1
  Mo  Mo25  1  0.330154  0.164970  0.875057  1
  Mo  Mo26  1  0.169350  0.665234  0.125290  1
  Mo  Mo27  1  0.669779  0.835208  0.374299  1
  Mo  Mo28  1  0.169277  0.665164  0.374224  1
  Mo  Mo29  1  0.670392  0.835565  0.124917  1
  Mo  Mo30  1  0.831023  0.334050  0.875225  1
  Mo  Mo31  1  0.330597  0.164865  0.625281  1
  Mo  Mo32  1  0.665969  0.999789  0.750211  1
  Mo  Mo33  1  0.166014  0.500124  0.750194  1
  Mo  Mo34  1  0.333786  0.000990  0.249559  1
  Mo  Mo35  1  0.834202  0.499342  0.249642  1
