# generated using pymatgen
data_Sr4Dy(TcO4)3
_symmetry_space_group_name_H-M   'P 1'
_cell_length_a   5.68537723
_cell_length_b   5.68946447
_cell_length_c   8.25454077
_cell_angle_alpha   89.99879401
_cell_angle_beta   90.19034503
_cell_angle_gamma   90.00311349
_symmetry_Int_Tables_number   1
_chemical_formula_structural   Sr4Dy(TcO4)3
_chemical_formula_sum   'Sr4 Dy1 Tc3 O12'
_cell_volume   267.00610772
_cell_formula_units_Z   1
loop_
 _symmetry_equiv_pos_site_id
 _symmetry_equiv_pos_as_xyz
  1  'x, y, z'
loop_
 _atom_site_type_symbol
 _atom_site_label
 _atom_site_symmetry_multiplicity
 _atom_site_fract_x
 _atom_site_fract_y
 _atom_site_fract_z
 _atom_site_occupancy
  Sr  Sr0  1  0.475165  0.000028  0.757470  1
  Sr  Sr1  1  0.980294  0.501399  0.759270  1
  Sr  Sr2  1  0.524835  0.999972  0.242530  1
  Sr  Sr3  1  0.019706  0.498601  0.240730  1
  Dy  Dy4  1  0.500000  0.500000  0.500000  1
  Tc  Tc5  1  0.000000  0.000000  0.000000  1
  Tc  Tc6  1  0.500000  0.500000  0.000000  1
  Tc  Tc7  1  0.000000  0.000000  0.500000  1
  O  O8  1  0.011223  0.943134  0.749826  1
  O  O9  1  0.511949  0.554690  0.762981  1
  O  O10  1  0.988777  0.056866  0.250174  1
  O  O11  1  0.488051  0.445310  0.237019  1
  O  O12  1  0.705779  0.173594  0.526131  1
  O  O13  1  0.235322  0.265446  0.974260  1
  O  O14  1  0.264575  0.764328  0.023426  1
  O  O15  1  0.823701  0.708019  0.471046  1
  O  O16  1  0.294221  0.826406  0.473869  1
  O  O17  1  0.764678  0.734554  0.025740  1
  O  O18  1  0.735425  0.235672  0.976574  1
  O  O19  1  0.176299  0.291981  0.528954  1
