# generated using pymatgen
data_Th5P12Ru17Rh2
_symmetry_space_group_name_H-M   'P 1'
_cell_length_a   12.73982700
_cell_length_b   12.68621112
_cell_length_c   4.01433700
_cell_angle_alpha   90.00000000
_cell_angle_beta   90.00000000
_cell_angle_gamma   120.13991184
_symmetry_Int_Tables_number   1
_chemical_formula_structural   Th5P12Ru17Rh2
_chemical_formula_sum   'Th5 P12 Ru17 Rh2'
_cell_volume   561.08144846
_cell_formula_units_Z   1
loop_
 _symmetry_equiv_pos_site_id
 _symmetry_equiv_pos_as_xyz
  1  'x, y, z'
loop_
 _atom_site_type_symbol
 _atom_site_label
 _atom_site_symmetry_multiplicity
 _atom_site_fract_x
 _atom_site_fract_y
 _atom_site_fract_z
 _atom_site_occupancy
  Th  Th0  1  0.000187  0.186421  0.500000  1
  Th  Th1  1  0.813766  0.813579  0.500000  1
  Th  Th2  1  0.187216  0.000000  0.500000  1
  Th  Th3  1  0.665765  0.331144  0.000000  1
  Th  Th4  1  0.334621  0.668856  0.000000  1
  P  P5  1  0.999527  0.811726  0.000000  1
  P  P6  1  0.187802  0.188274  0.000000  1
  P  P7  1  0.814216  0.000000  0.000000  1
  P  P8  1  0.694475  0.170255  0.500000  1
  P  P9  1  0.823902  0.521783  0.500000  1
  P  P10  1  0.476070  0.301805  0.500000  1
  P  P11  1  0.174265  0.698195  0.500000  1
  P  P12  1  0.524220  0.829745  0.500000  1
  P  P13  1  0.302119  0.478217  0.500000  1
  P  P14  1  0.999955  0.372195  0.000000  1
  P  P15  1  0.627760  0.627805  0.000000  1
  P  P16  1  0.375521  0.000000  0.000000  1
  Ru  Ru17  1  0.555115  0.000000  0.000000  1
  Ru  Ru18  1  0.999039  0.712276  0.500000  1
  Ru  Ru19  1  0.286762  0.287724  0.500000  1
  Ru  Ru20  1  0.715798  0.000000  0.500000  1
  Ru  Ru21  1  0.807000  0.183988  0.000000  1
  Ru  Ru22  1  0.815183  0.620711  0.000000  1
  Ru  Ru23  1  0.376868  0.193622  0.000000  1
  Ru  Ru24  1  0.183246  0.806378  0.000000  1
  Ru  Ru25  1  0.623011  0.816012  0.000000  1
  Ru  Ru26  1  0.194471  0.379289  0.000000  1
  Ru  Ru27  1  0.873515  0.367224  0.500000  1
  Ru  Ru28  1  0.630814  0.506718  0.500000  1
  Ru  Ru29  1  0.492417  0.124788  0.500000  1
  Ru  Ru30  1  0.367631  0.875212  0.500000  1
  Ru  Ru31  1  0.506292  0.632776  0.500000  1
  Ru  Ru32  1  0.124096  0.493282  0.500000  1
  Ru  Ru33  1  0.001163  0.000000  0.000000  1
  Rh  Rh34  1  0.999564  0.552939  0.000000  1
  Rh  Rh35  1  0.446626  0.447061  0.000000  1
