# generated using pymatgen
data_Nd3SmRe11Si8Tc5
_symmetry_space_group_name_H-M   'P 1'
_cell_length_a   4.17103600
_cell_length_b   7.31783232
_cell_length_c   15.50268306
_cell_angle_alpha   89.97058848
_cell_angle_beta   90.00000000
_cell_angle_gamma   90.00000000
_symmetry_Int_Tables_number   1
_chemical_formula_structural   Nd3SmRe11Si8Tc5
_chemical_formula_sum   'Nd3 Sm1 Re11 Si8 Tc5'
_cell_volume   473.18743434
_cell_formula_units_Z   1
loop_
 _symmetry_equiv_pos_site_id
 _symmetry_equiv_pos_as_xyz
  1  'x, y, z'
loop_
 _atom_site_type_symbol
 _atom_site_label
 _atom_site_symmetry_multiplicity
 _atom_site_fract_x
 _atom_site_fract_y
 _atom_site_fract_z
 _atom_site_occupancy
  Nd  Nd0  1  0.000000  0.421424  0.882581  1
  Nd  Nd1  1  0.500000  0.079001  0.381785  1
  Nd  Nd2  1  0.500000  0.920798  0.617930  1
  Sm  Sm3  1  0.000000  0.579916  0.118454  1
  Re  Re4  1  0.000000  0.267563  0.679751  1
  Re  Re5  1  0.500000  0.233534  0.178881  1
  Re  Re6  1  0.500000  0.767579  0.820892  1
  Re  Re7  1  0.000000  0.435970  0.417521  1
  Re  Re8  1  0.000000  0.564016  0.580942  1
  Re  Re9  1  0.500000  0.935209  0.082557  1
  Re  Re10  1  0.500000  0.064393  0.919377  1
  Re  Re11  1  0.000000  0.989653  0.204132  1
  Re  Re12  1  0.000000  0.008542  0.794767  1
  Re  Re13  1  0.500000  0.488222  0.294331  1
  Re  Re14  1  0.500000  0.508373  0.705793  1
  Si  Si15  1  0.000000  0.825765  0.474921  1
  Si  Si16  1  0.000000  0.174348  0.524104  1
  Si  Si17  1  0.500000  0.329095  0.024490  1
  Si  Si18  1  0.500000  0.673898  0.976563  1
  Si  Si19  1  0.000000  0.291668  0.272541  1
  Si  Si20  1  0.000000  0.706860  0.726376  1
  Si  Si21  1  0.500000  0.789240  0.226963  1
  Si  Si22  1  0.500000  0.207067  0.774105  1
  Tc  Tc23  1  0.000000  0.142778  0.052031  1
  Tc  Tc24  1  0.000000  0.860652  0.949586  1
  Tc  Tc25  1  0.500000  0.639431  0.447614  1
  Tc  Tc26  1  0.500000  0.360693  0.551122  1
  Tc  Tc27  1  0.000000  0.734317  0.319890  1
