# generated using pymatgen
data_Sr6Al24Ir3Ru2Rh3
_symmetry_space_group_name_H-M   'P 1'
_cell_length_a   9.00831700
_cell_length_b   9.00831743
_cell_length_c   9.72054300
_cell_angle_alpha   90.00000000
_cell_angle_beta   90.00000000
_cell_angle_gamma   120.00000943
_symmetry_Int_Tables_number   1
_chemical_formula_structural   Sr6Al24Ir3Ru2Rh3
_chemical_formula_sum   'Sr6 Al24 Ir3 Ru2 Rh3'
_cell_volume   683.13802206
_cell_formula_units_Z   1
loop_
 _symmetry_equiv_pos_site_id
 _symmetry_equiv_pos_as_xyz
  1  'x, y, z'
loop_
 _atom_site_type_symbol
 _atom_site_label
 _atom_site_symmetry_multiplicity
 _atom_site_fract_x
 _atom_site_fract_y
 _atom_site_fract_z
 _atom_site_occupancy
  Sr  Sr0  1  0.806963  0.193037  0.750657  1
  Sr  Sr1  1  0.193037  0.806963  0.249343  1
  Sr  Sr2  1  0.386075  0.193037  0.750657  1
  Sr  Sr3  1  0.613925  0.806963  0.249343  1
  Sr  Sr4  1  0.806963  0.613925  0.750657  1
  Sr  Sr5  1  0.193037  0.386075  0.249343  1
  Al  Al6  1  0.666667  0.333333  0.007151  1
  Al  Al7  1  0.333333  0.666667  0.992849  1
  Al  Al8  1  0.333333  0.666667  0.508256  1
  Al  Al9  1  0.666667  0.333333  0.491744  1
  Al  Al10  1  0.839386  0.160614  0.421541  1
  Al  Al11  1  0.160614  0.839386  0.578459  1
  Al  Al12  1  0.321229  0.160614  0.421541  1
  Al  Al13  1  0.160681  0.839319  0.923448  1
  Al  Al14  1  0.678771  0.839386  0.578459  1
  Al  Al15  1  0.839319  0.160681  0.076552  1
  Al  Al16  1  0.839386  0.678771  0.421541  1
  Al  Al17  1  0.678639  0.839319  0.923448  1
  Al  Al18  1  0.160614  0.321229  0.578459  1
  Al  Al19  1  0.321361  0.160681  0.076552  1
  Al  Al20  1  0.160681  0.321361  0.923448  1
  Al  Al21  1  0.839319  0.678639  0.076552  1
  Al  Al22  1  0.435970  0.564030  0.749960  1
  Al  Al23  1  0.564030  0.435970  0.250040  1
  Al  Al24  1  0.128059  0.564030  0.749960  1
  Al  Al25  1  0.871941  0.435970  0.250040  1
  Al  Al26  1  0.435970  0.871941  0.749960  1
  Al  Al27  1  0.564030  0.128059  0.250040  1
  Al  Al28  1  0.000000  0.000000  0.750183  1
  Al  Al29  1  0.000000  0.000000  0.249817  1
  Ir  Ir30  1  0.500000  0.500000  0.000000  1
  Ir  Ir31  1  0.000000  0.500000  0.000000  1
  Ir  Ir32  1  0.500000  0.000000  0.000000  1
  Ru  Ru33  1  0.000000  0.000000  0.000000  1
  Ru  Ru34  1  0.000000  0.000000  0.500000  1
  Rh  Rh35  1  0.500000  0.500000  0.500000  1
  Rh  Rh36  1  0.000000  0.500000  0.500000  1
  Rh  Rh37  1  0.500000  0.000000  0.500000  1
