# generated using pymatgen
data_YTaNbB2Ru5
_symmetry_space_group_name_H-M   'P 1'
_cell_length_a   9.57397661
_cell_length_b   9.57397694
_cell_length_c   3.09265500
_cell_angle_alpha   90.00000000
_cell_angle_beta   90.00000000
_cell_angle_gamma   90.70246569
_symmetry_Int_Tables_number   1
_chemical_formula_structural   YTaNbB2Ru5
_chemical_formula_sum   'Y2 Ta2 Nb2 B4 Ru10'
_cell_volume   283.45464142
_cell_formula_units_Z   2
loop_
 _symmetry_equiv_pos_site_id
 _symmetry_equiv_pos_as_xyz
  1  'x, y, z'
loop_
 _atom_site_type_symbol
 _atom_site_label
 _atom_site_symmetry_multiplicity
 _atom_site_fract_x
 _atom_site_fract_y
 _atom_site_fract_z
 _atom_site_occupancy
  Y  Y0  1  0.823498  0.676502  0.000000  1
  Y  Y1  1  0.176502  0.323498  0.000000  1
  Ta  Ta2  1  0.500000  0.500000  0.000000  1
  Ta  Ta3  1  0.000000  0.000000  0.000000  1
  Nb  Nb4  1  0.324724  0.824724  0.000000  1
  Nb  Nb5  1  0.675276  0.175276  0.000000  1
  B  B6  1  0.620542  0.879458  0.000000  1
  B  B7  1  0.379458  0.120542  0.000000  1
  B  B8  1  0.121040  0.621040  0.000000  1
  B  B9  1  0.878960  0.378960  0.000000  1
  Ru  Ru10  1  0.558890  0.723031  0.500000  1
  Ru  Ru11  1  0.441110  0.276969  0.500000  1
  Ru  Ru12  1  0.081611  0.785412  0.500000  1
  Ru  Ru13  1  0.918389  0.214588  0.500000  1
  Ru  Ru14  1  0.285412  0.581611  0.500000  1
  Ru  Ru15  1  0.714588  0.418389  0.500000  1
  Ru  Ru16  1  0.223031  0.058890  0.500000  1
  Ru  Ru17  1  0.776969  0.941110  0.500000  1
  Ru  Ru18  1  0.500000  0.000000  0.500000  1
  Ru  Ru19  1  0.000000  0.500000  0.500000  1
