# generated using pymatgen
data_Cs2Nd10B2Cl17
_symmetry_space_group_name_H-M   'P 1'
_cell_length_a   8.96967723
_cell_length_b   10.52078829
_cell_length_c   10.52087000
_cell_angle_alpha   106.95155604
_cell_angle_beta   94.14353633
_cell_angle_gamma   94.14968282
_symmetry_Int_Tables_number   1
_chemical_formula_structural   Cs2Nd10B2Cl17
_chemical_formula_sum   'Cs2 Nd10 B2 Cl17'
_cell_volume   942.66197803
_cell_formula_units_Z   1
loop_
 _symmetry_equiv_pos_site_id
 _symmetry_equiv_pos_as_xyz
  1  'x, y, z'
loop_
 _atom_site_type_symbol
 _atom_site_label
 _atom_site_symmetry_multiplicity
 _atom_site_fract_x
 _atom_site_fract_y
 _atom_site_fract_z
 _atom_site_occupancy
  Cs  Cs0  1  0.999354  0.819439  0.179577  1
  Cs  Cs1  1  0.999366  0.179609  0.819438  1
  Nd  Nd2  1  0.434748  0.160047  0.160375  1
  Nd  Nd3  1  0.570823  0.514499  0.204328  1
  Nd  Nd4  1  0.836618  0.289731  0.289579  1
  Nd  Nd5  1  0.307917  0.436371  0.436172  1
  Nd  Nd6  1  0.429273  0.795861  0.485661  1
  Nd  Nd7  1  0.570094  0.203726  0.514072  1
  Nd  Nd8  1  0.692283  0.563954  0.563749  1
  Nd  Nd9  1  0.163462  0.710399  0.710265  1
  Nd  Nd10  1  0.429962  0.486051  0.796473  1
  Nd  Nd11  1  0.565308  0.839688  0.840027  1
  B  B12  1  0.573509  0.351345  0.351338  1
  B  B13  1  0.426639  0.648743  0.648752  1
  Cl  Cl14  1  0.580097  0.688653  0.021725  1
  Cl  Cl15  1  0.713437  0.069900  0.069833  1
  Cl  Cl16  1  0.853610  0.450547  0.120104  1
  Cl  Cl17  1  0.137711  0.210929  0.210811  1
  Cl  Cl18  1  0.279470  0.599863  0.256821  1
  Cl  Cl19  1  0.420216  0.978410  0.311517  1
  Cl  Cl20  1  0.720644  0.743394  0.400309  1
  Cl  Cl21  1  0.853491  0.120354  0.450675  1
  Cl  Cl22  1  0.000062  0.499858  0.500066  1
  Cl  Cl23  1  0.146199  0.879613  0.549260  1
  Cl  Cl24  1  0.279494  0.257156  0.600037  1
  Cl  Cl25  1  0.580018  0.021473  0.688630  1
  Cl  Cl26  1  0.720588  0.400183  0.743032  1
  Cl  Cl27  1  0.862454  0.789337  0.789144  1
  Cl  Cl28  1  0.146280  0.549101  0.879396  1
  Cl  Cl29  1  0.286663  0.930175  0.930123  1
  Cl  Cl30  1  0.420214  0.311591  0.978711  1
