# generated using pymatgen
data_Cs3Pa2TlBr12
_symmetry_space_group_name_H-M   'P 1'
_cell_length_a   7.95008400
_cell_length_b   7.95008457
_cell_length_c   11.59571200
_cell_angle_alpha   90.00000000
_cell_angle_beta   90.00000000
_cell_angle_gamma   90.53422214
_symmetry_Int_Tables_number   1
_chemical_formula_structural   Cs3Pa2TlBr12
_chemical_formula_sum   'Cs3 Pa2 Tl1 Br12'
_cell_volume   732.86167052
_cell_formula_units_Z   1
loop_
 _symmetry_equiv_pos_site_id
 _symmetry_equiv_pos_as_xyz
  1  'x, y, z'
loop_
 _atom_site_type_symbol
 _atom_site_label
 _atom_site_symmetry_multiplicity
 _atom_site_fract_x
 _atom_site_fract_y
 _atom_site_fract_z
 _atom_site_occupancy
  Cs  Cs0  1  0.000000  0.500000  0.250000  1
  Cs  Cs1  1  0.000000  0.500000  0.750000  1
  Cs  Cs2  1  0.500000  0.000000  0.750000  1
  Pa  Pa3  1  0.000000  0.000000  0.492866  1
  Pa  Pa4  1  0.500000  0.500000  0.007134  1
  Tl  Tl5  1  0.500000  0.000000  0.250000  1
  Br  Br6  1  0.799172  0.708391  0.500507  1
  Br  Br7  1  0.208391  0.299172  0.999493  1
  Br  Br8  1  0.500000  0.500000  0.762986  1
  Br  Br9  1  0.296547  0.809791  0.486707  1
  Br  Br10  1  0.000000  0.000000  0.251589  1
  Br  Br11  1  0.791609  0.700828  0.999493  1
  Br  Br12  1  0.690209  0.203453  0.013293  1
  Br  Br13  1  0.309791  0.796547  0.013293  1
  Br  Br14  1  0.000000  0.000000  0.737014  1
  Br  Br15  1  0.200828  0.291609  0.500507  1
  Br  Br16  1  0.500000  0.500000  0.248411  1
  Br  Br17  1  0.703453  0.190209  0.486707  1
