# generated using pymatgen
data_Dy15Lu5(Ir5Pt)2
_symmetry_space_group_name_H-M   'P 1'
_cell_length_a   10.88187524
_cell_length_b   10.88401134
_cell_length_c   6.32678822
_cell_angle_alpha   89.97304559
_cell_angle_beta   89.99484546
_cell_angle_gamma   90.00243403
_symmetry_Int_Tables_number   1
_chemical_formula_structural   Dy15Lu5(Ir5Pt)2
_chemical_formula_sum   'Dy15 Lu5 Ir10 Pt2'
_cell_volume   749.33492641
_cell_formula_units_Z   1
loop_
 _symmetry_equiv_pos_site_id
 _symmetry_equiv_pos_as_xyz
  1  'x, y, z'
loop_
 _atom_site_type_symbol
 _atom_site_label
 _atom_site_symmetry_multiplicity
 _atom_site_fract_x
 _atom_site_fract_y
 _atom_site_fract_z
 _atom_site_occupancy
  Dy  Dy0  1  0.290026  0.913028  0.877604  1
  Dy  Dy1  1  0.706746  0.089199  0.875679  1
  Dy  Dy2  1  0.706886  0.911073  0.375539  1
  Dy  Dy3  1  0.584608  0.790018  0.879702  1
  Dy  Dy4  1  0.583791  0.210216  0.379507  1
  Dy  Dy5  1  0.411441  0.790761  0.378487  1
  Dy  Dy6  1  0.411025  0.209637  0.878557  1
  Dy  Dy7  1  0.209814  0.411983  0.621084  1
  Dy  Dy8  1  0.209864  0.587793  0.121498  1
  Dy  Dy9  1  0.789745  0.414308  0.121131  1
  Dy  Dy10  1  0.789461  0.585229  0.621450  1
  Dy  Dy11  1  0.913319  0.708297  0.124860  1
  Dy  Dy12  1  0.913481  0.291661  0.625353  1
  Dy  Dy13  1  0.090319  0.708568  0.621392  1
  Dy  Dy14  1  0.091539  0.290564  0.122399  1
  Lu  Lu15  1  0.291991  0.087039  0.379509  1
  Lu  Lu16  1  0.003985  0.000441  0.499082  1
  Lu  Lu17  1  0.002973  0.000421  0.999326  1
  Lu  Lu18  1  0.499795  0.499672  0.999923  1
  Lu  Lu19  1  0.499587  0.500047  0.499726  1
  Ir  Ir20  1  0.151033  0.150427  0.746912  1
  Ir  Ir21  1  0.150938  0.850569  0.251107  1
  Ir  Ir22  1  0.652254  0.347985  0.749825  1
  Ir  Ir23  1  0.652437  0.651947  0.249729  1
  Ir  Ir24  1  0.348600  0.346686  0.251209  1
  Ir  Ir25  1  0.348727  0.651335  0.750163  1
  Ir  Ir26  1  0.499706  0.000529  0.126034  1
  Ir  Ir27  1  0.499838  0.000683  0.624159  1
  Ir  Ir28  1  0.999744  0.499890  0.875174  1
  Ir  Ir29  1  0.999667  0.499783  0.374952  1
  Pt  Pt30  1  0.848295  0.150519  0.249415  1
  Pt  Pt31  1  0.848366  0.849695  0.749514  1
