# generated using pymatgen
data_UVAs2PRh4
_symmetry_space_group_name_H-M   'P 1'
_cell_length_a   3.97296700
_cell_length_b   7.45310696
_cell_length_c   9.78364547
_cell_angle_alpha   79.61797252
_cell_angle_beta   90.00000000
_cell_angle_gamma   90.00000000
_symmetry_Int_Tables_number   1
_chemical_formula_structural   UVAs2PRh4
_chemical_formula_sum   'U2 V2 As4 P2 Rh8'
_cell_volume   284.96001349
_cell_formula_units_Z   2
loop_
 _symmetry_equiv_pos_site_id
 _symmetry_equiv_pos_as_xyz
  1  'x, y, z'
loop_
 _atom_site_type_symbol
 _atom_site_label
 _atom_site_symmetry_multiplicity
 _atom_site_fract_x
 _atom_site_fract_y
 _atom_site_fract_z
 _atom_site_occupancy
  U  U0  1  0.250000  0.819126  0.781311  1
  U  U1  1  0.750000  0.180548  0.218830  1
  V  V2  1  0.250000  0.304899  0.715445  1
  V  V3  1  0.750000  0.695167  0.284339  1
  As  As4  1  0.250000  0.257697  0.974356  1
  As  As5  1  0.750000  0.742503  0.025927  1
  As  As6  1  0.250000  0.426789  0.331234  1
  As  As7  1  0.750000  0.573453  0.668796  1
  P  P8  1  0.250000  0.898887  0.347823  1
  P  P9  1  0.750000  0.100783  0.652092  1
  Rh  Rh10  1  0.250000  0.544787  0.090200  1
  Rh  Rh11  1  0.750000  0.455219  0.909711  1
  Rh  Rh12  1  0.250000  0.932665  0.107291  1
  Rh  Rh13  1  0.750000  0.067549  0.892561  1
  Rh  Rh14  1  0.250000  0.626192  0.503591  1
  Rh  Rh15  1  0.750000  0.373760  0.496670  1
  Rh  Rh16  1  0.250000  0.124765  0.486341  1
  Rh  Rh17  1  0.750000  0.875213  0.513482  1
