# generated using pymatgen
data_Ac3Sn4Hg
_symmetry_space_group_name_H-M   'P 1'
_cell_length_a   6.89853397
_cell_length_b   6.89853344
_cell_length_c   11.01149891
_cell_angle_alpha   90.69181409
_cell_angle_beta   90.69181237
_cell_angle_gamma   102.72548791
_symmetry_Int_Tables_number   1
_chemical_formula_structural   Ac3Sn4Hg
_chemical_formula_sum   'Ac6 Sn8 Hg2'
_cell_volume   511.06704179
_cell_formula_units_Z   2
loop_
 _symmetry_equiv_pos_site_id
 _symmetry_equiv_pos_as_xyz
  1  'x, y, z'
loop_
 _atom_site_type_symbol
 _atom_site_label
 _atom_site_symmetry_multiplicity
 _atom_site_fract_x
 _atom_site_fract_y
 _atom_site_fract_z
 _atom_site_occupancy
  Ac  Ac0  1  0.795378  0.204622  0.000000  1
  Ac  Ac1  1  0.204622  0.795378  0.000000  1
  Ac  Ac2  1  0.202165  0.797835  0.500000  1
  Ac  Ac3  1  0.797835  0.202165  0.500000  1
  Ac  Ac4  1  0.635244  0.635244  0.252732  1
  Ac  Ac5  1  0.364756  0.364756  0.747268  1
  Sn  Sn6  1  0.082285  0.487814  0.246378  1
  Sn  Sn7  1  0.917716  0.512186  0.753622  1
  Sn  Sn8  1  0.487814  0.082284  0.246378  1
  Sn  Sn9  1  0.512186  0.917716  0.753622  1
  Sn  Sn10  1  0.031908  0.031908  0.248551  1
  Sn  Sn11  1  0.968092  0.968092  0.751449  1
  Sn  Sn12  1  0.690023  0.690023  0.553032  1
  Sn  Sn13  1  0.309977  0.309977  0.446968  1
  Hg  Hg14  1  0.308701  0.308701  0.040486  1
  Hg  Hg15  1  0.691299  0.691299  0.959514  1
