# generated using pymatgen
data_NdDy2Er(NiP)4
_symmetry_space_group_name_H-M   'P 1'
_cell_length_a   3.91011600
_cell_length_b   3.91011705
_cell_length_c   15.63967500
_cell_angle_alpha   90.00000000
_cell_angle_beta   90.00000000
_cell_angle_gamma   119.99999112
_symmetry_Int_Tables_number   1
_chemical_formula_structural   NdDy2Er(NiP)4
_chemical_formula_sum   'Nd1 Dy2 Er1 Ni4 P4'
_cell_volume   207.07982745
_cell_formula_units_Z   1
loop_
 _symmetry_equiv_pos_site_id
 _symmetry_equiv_pos_as_xyz
  1  'x, y, z'
loop_
 _atom_site_type_symbol
 _atom_site_label
 _atom_site_symmetry_multiplicity
 _atom_site_fract_x
 _atom_site_fract_y
 _atom_site_fract_z
 _atom_site_occupancy
  Nd  Nd0  1  0.000000  0.000000  0.998177  1
  Dy  Dy1  1  0.000000  0.000000  0.501586  1
  Dy  Dy2  1  0.000000  0.000000  0.254301  1
  Er  Er3  1  0.000000  0.000000  0.746148  1
  Ni  Ni4  1  0.333333  0.666667  0.375392  1
  Ni  Ni5  1  0.666667  0.333333  0.629228  1
  Ni  Ni6  1  0.666667  0.333333  0.861943  1
  Ni  Ni7  1  0.333333  0.666667  0.132644  1
  P  P8  1  0.333333  0.666667  0.869008  1
  P  P9  1  0.666667  0.333333  0.130105  1
  P  P10  1  0.666667  0.333333  0.379843  1
  P  P11  1  0.333333  0.666667  0.621623  1
