# generated using pymatgen
data_PrFe3As12Rh
_symmetry_space_group_name_H-M   'P 1'
_cell_length_a   7.28028334
_cell_length_b   7.29846090
_cell_length_c   7.29846083
_cell_angle_alpha   109.52162343
_cell_angle_beta   109.42077306
_cell_angle_gamma   109.42077236
_symmetry_Int_Tables_number   1
_chemical_formula_structural   PrFe3As12Rh
_chemical_formula_sum   'Pr1 Fe3 As12 Rh1'
_cell_volume   298.71632561
_cell_formula_units_Z   1
loop_
 _symmetry_equiv_pos_site_id
 _symmetry_equiv_pos_as_xyz
  1  'x, y, z'
loop_
 _atom_site_type_symbol
 _atom_site_label
 _atom_site_symmetry_multiplicity
 _atom_site_fract_x
 _atom_site_fract_y
 _atom_site_fract_z
 _atom_site_occupancy
  Pr  Pr0  1  0.000000  0.000000  0.000000  1
  Fe  Fe1  1  0.000000  0.000000  0.500000  1
  Fe  Fe2  1  0.000000  0.500000  0.000000  1
  Fe  Fe3  1  0.500000  0.500000  0.500000  1
  As  As4  1  0.338418  0.195279  0.839521  1
  As  As5  1  0.661582  0.804721  0.160479  1
  As  As6  1  0.658961  0.502130  0.843972  1
  As  As7  1  0.341039  0.497870  0.156028  1
  As  As8  1  0.185011  0.843972  0.341842  1
  As  As9  1  0.814989  0.156028  0.658158  1
  As  As10  1  0.501103  0.839521  0.644241  1
  As  As11  1  0.498897  0.160479  0.355759  1
  As  As12  1  0.856861  0.355759  0.195279  1
  As  As13  1  0.143139  0.644241  0.804721  1
  As  As14  1  0.843169  0.658158  0.502130  1
  As  As15  1  0.156831  0.341842  0.497870  1
  Rh  Rh16  1  0.500000  0.000000  0.000000  1
