# generated using pymatgen
data_Er9Lu(IrRh2)2
_symmetry_space_group_name_H-M   'P 1'
_cell_length_a   10.79032200
_cell_length_b   10.79032200
_cell_length_c   6.31876000
_cell_angle_alpha   90.00000000
_cell_angle_beta   90.00000000
_cell_angle_gamma   90.00000000
_symmetry_Int_Tables_number   1
_chemical_formula_structural   Er9Lu(IrRh2)2
_chemical_formula_sum   'Er18 Lu2 Ir4 Rh8'
_cell_volume   735.69985432
_cell_formula_units_Z   2
loop_
 _symmetry_equiv_pos_site_id
 _symmetry_equiv_pos_as_xyz
  1  'x, y, z'
loop_
 _atom_site_type_symbol
 _atom_site_label
 _atom_site_symmetry_multiplicity
 _atom_site_fract_x
 _atom_site_fract_y
 _atom_site_fract_z
 _atom_site_occupancy
  Er  Er0  1  0.291292  0.089519  0.377920  1
  Er  Er1  1  0.291292  0.910481  0.877920  1
  Er  Er2  1  0.708708  0.089519  0.877920  1
  Er  Er3  1  0.708708  0.910481  0.377920  1
  Er  Er4  1  0.587228  0.789697  0.878682  1
  Er  Er5  1  0.587228  0.210303  0.378682  1
  Er  Er6  1  0.412772  0.789697  0.378682  1
  Er  Er7  1  0.412772  0.210303  0.878682  1
  Er  Er8  1  0.210303  0.412772  0.621318  1
  Er  Er9  1  0.210303  0.587228  0.121318  1
  Er  Er10  1  0.789697  0.412772  0.121318  1
  Er  Er11  1  0.789697  0.587228  0.621318  1
  Er  Er12  1  0.910481  0.708708  0.122080  1
  Er  Er13  1  0.910481  0.291292  0.622080  1
  Er  Er14  1  0.089519  0.708708  0.622080  1
  Er  Er15  1  0.089519  0.291292  0.122080  1
  Er  Er16  1  0.000000  0.000000  0.500000  1
  Er  Er17  1  0.000000  0.000000  0.000000  1
  Lu  Lu18  1  0.500000  0.500000  0.000000  1
  Lu  Lu19  1  0.500000  0.500000  0.500000  1
  Ir  Ir20  1  0.653914  0.346086  0.750000  1
  Ir  Ir21  1  0.653914  0.653914  0.250000  1
  Ir  Ir22  1  0.346086  0.346086  0.250000  1
  Ir  Ir23  1  0.346086  0.653914  0.750000  1
  Rh  Rh24  1  0.846471  0.153529  0.250000  1
  Rh  Rh25  1  0.846471  0.846471  0.750000  1
  Rh  Rh26  1  0.153529  0.153529  0.750000  1
  Rh  Rh27  1  0.153529  0.846471  0.250000  1
  Rh  Rh28  1  0.500000  0.000000  0.122289  1
  Rh  Rh29  1  0.500000  0.000000  0.622289  1
  Rh  Rh30  1  0.000000  0.500000  0.877711  1
  Rh  Rh31  1  0.000000  0.500000  0.377711  1
