# generated using pymatgen
data_La2Pr2(Ga8Pt3)3
_symmetry_space_group_name_H-M   'P 1'
_cell_length_a   7.63312683
_cell_length_b   7.66883384
_cell_length_c   13.49182668
_cell_angle_alpha   84.75656516
_cell_angle_beta   79.41674647
_cell_angle_gamma   59.99809896
_symmetry_Int_Tables_number   1
_chemical_formula_structural   La2Pr2(Ga8Pt3)3
_chemical_formula_sum   'La2 Pr2 Ga24 Pt9'
_cell_volume   672.31608377
_cell_formula_units_Z   1
loop_
 _symmetry_equiv_pos_site_id
 _symmetry_equiv_pos_as_xyz
  1  'x, y, z'
loop_
 _atom_site_type_symbol
 _atom_site_label
 _atom_site_symmetry_multiplicity
 _atom_site_fract_x
 _atom_site_fract_y
 _atom_site_fract_z
 _atom_site_occupancy
  La  La0  1  0.732386  0.497570  0.810744  1
  La  La1  1  0.267614  0.502430  0.189256  1
  Pr  Pr2  1  0.393844  0.168889  0.810872  1
  Pr  Pr3  1  0.606156  0.831111  0.189128  1
  Ga  Ga4  1  0.687594  0.834093  0.941644  1
  Ga  Ga5  1  0.312406  0.165907  0.058356  1
  Ga  Ga6  1  0.145654  0.832017  0.559156  1
  Ga  Ga7  1  0.854346  0.167983  0.440844  1
  Ga  Ga8  1  0.479626  0.165958  0.556539  1
  Ga  Ga9  1  0.520374  0.834042  0.443461  1
  Ga  Ga10  1  0.218875  0.164378  0.329010  1
  Ga  Ga11  1  0.781125  0.835622  0.670990  1
  Ga  Ga12  1  0.438263  0.504357  0.668379  1
  Ga  Ga13  1  0.561737  0.495643  0.331621  1
  Ga  Ga14  1  0.109666  0.162043  0.668012  1
  Ga  Ga15  1  0.890334  0.837957  0.331988  1
  Ga  Ga16  1  0.351868  0.501031  0.942240  1
  Ga  Ga17  1  0.648132  0.498969  0.057760  1
  Ga  Ga18  1  0.017970  0.166060  0.949561  1
  Ga  Ga19  1  0.982030  0.833940  0.050439  1
  Ga  Ga20  1  0.186583  0.498705  0.442657  1
  Ga  Ga21  1  0.813417  0.501295  0.557343  1
  Ga  Ga22  1  0.737296  0.163025  0.182789  1
  Ga  Ga23  1  0.262704  0.836975  0.817211  1
  Ga  Ga24  1  0.063541  0.633015  0.816549  1
  Ga  Ga25  1  0.936459  0.366985  0.183451  1
  Ga  Ga26  1  0.860948  0.035924  0.816568  1
  Ga  Ga27  1  0.139052  0.964076  0.183432  1
  Pt  Pt28  1  0.118355  0.498601  0.636589  1
  Pt  Pt29  1  0.881645  0.501399  0.363411  1
  Pt  Pt30  1  0.659329  0.169898  0.999581  1
  Pt  Pt31  1  0.340671  0.830102  0.000419  1
  Pt  Pt32  1  0.542234  0.167235  0.362417  1
  Pt  Pt33  1  0.457766  0.832765  0.637583  1
  Pt  Pt34  1  0.782725  0.169010  0.635814  1
  Pt  Pt35  1  0.217275  0.830990  0.364186  1
  Pt  Pt36  1  0.000000  0.500000  0.000000  1
