# generated using pymatgen
data_CsGaSn3O8
_symmetry_space_group_name_H-M   'P 1'
_cell_length_a   7.65068683
_cell_length_b   7.65068626
_cell_length_c   10.66526085
_cell_angle_alpha   46.58694913
_cell_angle_beta   46.58695233
_cell_angle_gamma   24.44710294
_symmetry_Int_Tables_number   1
_chemical_formula_structural   CsGaSn3O8
_chemical_formula_sum   'Cs1 Ga1 Sn3 O8'
_cell_volume   183.69023708
_cell_formula_units_Z   1
loop_
 _symmetry_equiv_pos_site_id
 _symmetry_equiv_pos_as_xyz
  1  'x, y, z'
loop_
 _atom_site_type_symbol
 _atom_site_label
 _atom_site_symmetry_multiplicity
 _atom_site_fract_x
 _atom_site_fract_y
 _atom_site_fract_z
 _atom_site_occupancy
  Cs  Cs0  1  0.496380  0.496380  0.000280  1
  Ga  Ga1  1  0.163788  0.163788  0.185278  1
  Sn  Sn2  1  0.828132  0.828132  0.830468  1
  Sn  Sn3  1  0.652409  0.652409  0.504459  1
  Sn  Sn4  1  0.357368  0.357368  0.480140  1
  O  O5  1  0.164982  0.164982  0.370709  1
  O  O6  1  0.832758  0.832758  0.628745  1
  O  O7  1  0.457912  0.457912  0.709245  1
  O  O8  1  0.547385  0.547385  0.289927  1
  O  O9  1  0.201140  0.201140  0.955219  1
  O  O10  1  0.789869  0.789869  0.058053  1
  O  O11  1  0.848481  0.848481  0.356335  1
  O  O12  1  0.159395  0.159395  0.631141  1
