# generated using pymatgen
data_ThCo3TcB4
_symmetry_space_group_name_H-M   'P 1'
_cell_length_a   7.37028961
_cell_length_b   7.11496704
_cell_length_c   3.85460200
_cell_angle_alpha   90.00000000
_cell_angle_beta   90.00000000
_cell_angle_gamma   89.02421526
_symmetry_Int_Tables_number   1
_chemical_formula_structural   ThCo3TcB4
_chemical_formula_sum   'Th2 Co6 Tc2 B8'
_cell_volume   202.10357849
_cell_formula_units_Z   2
loop_
 _symmetry_equiv_pos_site_id
 _symmetry_equiv_pos_as_xyz
  1  'x, y, z'
loop_
 _atom_site_type_symbol
 _atom_site_label
 _atom_site_symmetry_multiplicity
 _atom_site_fract_x
 _atom_site_fract_y
 _atom_site_fract_z
 _atom_site_occupancy
  Th  Th0  1  0.250000  0.250000  0.282783  1
  Th  Th1  1  0.750000  0.750000  0.806074  1
  Co  Co2  1  0.383056  0.632693  0.137862  1
  Co  Co3  1  0.116944  0.867307  0.137862  1
  Co  Co4  1  0.140965  0.617956  0.634933  1
  Co  Co5  1  0.359035  0.882044  0.634933  1
  Co  Co6  1  0.581837  0.361959  0.851652  1
  Co  Co7  1  0.918163  0.138041  0.851652  1
  Tc  Tc8  1  0.862881  0.392798  0.352664  1
  Tc  Tc9  1  0.637119  0.107202  0.352664  1
  B  B10  1  0.917575  0.036184  0.351963  1
  B  B11  1  0.582425  0.463816  0.351963  1
  B  B12  1  0.516129  0.080792  0.849962  1
  B  B13  1  0.983871  0.419208  0.849962  1
  B  B14  1  0.088275  0.941008  0.639910  1
  B  B15  1  0.411725  0.558992  0.639910  1
  B  B16  1  0.439745  0.907680  0.136626  1
  B  B17  1  0.060255  0.592320  0.136626  1
