# generated using pymatgen
data_Tm12Th4Tl3CdIr4
_symmetry_space_group_name_H-M   'P 1'
_cell_length_a   9.70161571
_cell_length_b   9.70297524
_cell_length_c   9.70621906
_cell_angle_alpha   59.98817733
_cell_angle_beta   59.99605124
_cell_angle_gamma   60.03744661
_symmetry_Int_Tables_number   1
_chemical_formula_structural   Tm12Th4Tl3CdIr4
_chemical_formula_sum   'Tm12 Th4 Tl3 Cd1 Ir4'
_cell_volume   646.18225761
_cell_formula_units_Z   1
loop_
 _symmetry_equiv_pos_site_id
 _symmetry_equiv_pos_as_xyz
  1  'x, y, z'
loop_
 _atom_site_type_symbol
 _atom_site_label
 _atom_site_symmetry_multiplicity
 _atom_site_fract_x
 _atom_site_fract_y
 _atom_site_fract_z
 _atom_site_occupancy
  Tm  Tm0  1  0.062100  0.437911  0.437609  1
  Tm  Tm1  1  0.437048  0.062844  0.062163  1
  Tm  Tm2  1  0.437000  0.062866  0.437959  1
  Tm  Tm3  1  0.062105  0.437901  0.062401  1
  Tm  Tm4  1  0.437001  0.438253  0.062385  1
  Tm  Tm5  1  0.062130  0.062529  0.437673  1
  Tm  Tm6  1  0.188696  0.813997  0.814233  1
  Tm  Tm7  1  0.813850  0.186630  0.187034  1
  Tm  Tm8  1  0.814006  0.186629  0.812433  1
  Tm  Tm9  1  0.188639  0.813960  0.183120  1
  Tm  Tm10  1  0.814551  0.813505  0.186016  1
  Tm  Tm11  1  0.189964  0.184822  0.812549  1
  Th  Th12  1  0.598558  0.600079  0.599203  1
  Th  Th13  1  0.598579  0.600055  0.202160  1
  Th  Th14  1  0.599577  0.200107  0.600136  1
  Th  Th15  1  0.199438  0.600085  0.600279  1
  Tl  Tl16  1  0.835629  0.838996  0.839657  1
  Tl  Tl17  1  0.835679  0.839001  0.485655  1
  Tl  Tl18  1  0.834257  0.486956  0.839389  1
  Cd  Cd19  1  0.495039  0.833975  0.835507  1
  Ir  Ir20  1  0.390975  0.391827  0.393298  1
  Ir  Ir21  1  0.390972  0.391833  0.823883  1
  Ir  Ir22  1  0.390820  0.823936  0.392606  1
  Ir  Ir23  1  0.823385  0.391302  0.392648  1
