# generated using pymatgen
data_TaTi2Re4W
_symmetry_space_group_name_H-M   'P 1'
_cell_length_a   6.31295400
_cell_length_b   4.46195000
_cell_length_c   8.89042000
_cell_angle_alpha   89.99933102
_cell_angle_beta   90.00110142
_cell_angle_gamma   89.99799098
_symmetry_Int_Tables_number   1
_chemical_formula_structural   TaTi2Re4W
_chemical_formula_sum   'Ta2 Ti4 Re8 W2'
_cell_volume   250.42610703
_cell_formula_units_Z   2
loop_
 _symmetry_equiv_pos_site_id
 _symmetry_equiv_pos_as_xyz
  1  'x, y, z'
loop_
 _atom_site_type_symbol
 _atom_site_label
 _atom_site_symmetry_multiplicity
 _atom_site_fract_x
 _atom_site_fract_y
 _atom_site_fract_z
 _atom_site_occupancy
  Ta  Ta0  1  0.750008  0.249999  0.124612  1
  Ta  Ta1  1  0.250012  0.750009  0.375394  1
  Ti  Ti2  1  0.250011  0.250004  0.124964  1
  Ti  Ti3  1  0.750007  0.749995  0.375038  1
  Ti  Ti4  1  0.249990  0.250009  0.625027  1
  Ti  Ti5  1  0.749987  0.749997  0.874973  1
  Re  Re6  1  0.498415  0.749993  0.122276  1
  Re  Re7  1  0.001592  0.750004  0.122266  1
  Re  Re8  1  0.501586  0.250005  0.377724  1
  Re  Re9  1  0.998431  0.249992  0.377722  1
  Re  Re10  1  0.998059  0.750004  0.627686  1
  Re  Re11  1  0.501930  0.750000  0.627688  1
  Re  Re12  1  0.001944  0.249994  0.872310  1
  Re  Re13  1  0.498048  0.250001  0.872309  1
  W  W14  1  0.749988  0.249999  0.625277  1
  W  W15  1  0.249992  0.750011  0.874736  1
