# generated using pymatgen
data_Er2P4Ir7
_symmetry_space_group_name_H-M   'P 1'
_cell_length_a   3.96351100
_cell_length_b   9.64514800
_cell_length_c   10.81813300
_cell_angle_alpha   90.00000000
_cell_angle_beta   90.00000000
_cell_angle_gamma   90.00000000
_symmetry_Int_Tables_number   1
_chemical_formula_structural   Er2P4Ir7
_chemical_formula_sum   'Er4 P8 Ir14'
_cell_volume   413.56262222
_cell_formula_units_Z   2
loop_
 _symmetry_equiv_pos_site_id
 _symmetry_equiv_pos_as_xyz
  1  'x, y, z'
loop_
 _atom_site_type_symbol
 _atom_site_label
 _atom_site_symmetry_multiplicity
 _atom_site_fract_x
 _atom_site_fract_y
 _atom_site_fract_z
 _atom_site_occupancy
  Er  Er0  1  0.000000  0.060177  0.394517  1
  Er  Er1  1  0.500000  0.939823  0.894517  1
  Er  Er2  1  0.000000  0.447135  0.183438  1
  Er  Er3  1  0.500000  0.552865  0.683438  1
  P  P4  1  0.000000  0.171826  0.888185  1
  P  P5  1  0.500000  0.828174  0.388185  1
  P  P6  1  0.000000  0.846785  0.073347  1
  P  P7  1  0.500000  0.153215  0.573347  1
  P  P8  1  0.000000  0.807263  0.720895  1
  P  P9  1  0.500000  0.192737  0.220895  1
  P  P10  1  0.000000  0.481966  0.457445  1
  P  P11  1  0.500000  0.518034  0.957445  1
  Ir  Ir12  1  0.000000  0.048288  0.707331  1
  Ir  Ir13  1  0.500000  0.951712  0.207331  1
  Ir  Ir14  1  0.000000  0.716737  0.524919  1
  Ir  Ir15  1  0.500000  0.283263  0.024919  1
  Ir  Ir16  1  0.000000  0.088039  0.081912  1
  Ir  Ir17  1  0.500000  0.911961  0.581912  1
  Ir  Ir18  1  0.000000  0.758287  0.268842  1
  Ir  Ir19  1  0.500000  0.241713  0.768842  1
  Ir  Ir20  1  0.000000  0.318324  0.604504  1
  Ir  Ir21  1  0.500000  0.681676  0.104504  1
  Ir  Ir22  1  0.000000  0.699073  0.906568  1
  Ir  Ir23  1  0.500000  0.300927  0.406568  1
  Ir  Ir24  1  0.000000  0.409246  0.872195  1
  Ir  Ir25  1  0.500000  0.590754  0.372195  1
