# generated using pymatgen
data_CeLu3(Tc3Ge4)2
_symmetry_space_group_name_H-M   'P 1'
_cell_length_a   8.29517826
_cell_length_b   5.67660565
_cell_length_c   6.97425579
_cell_angle_alpha   75.95314933
_cell_angle_beta   90.31151030
_cell_angle_gamma   90.16152926
_symmetry_Int_Tables_number   1
_chemical_formula_structural   CeLu3(Tc3Ge4)2
_chemical_formula_sum   'Ce1 Lu3 Tc6 Ge8'
_cell_volume   318.58168482
_cell_formula_units_Z   1
loop_
 _symmetry_equiv_pos_site_id
 _symmetry_equiv_pos_as_xyz
  1  'x, y, z'
loop_
 _atom_site_type_symbol
 _atom_site_label
 _atom_site_symmetry_multiplicity
 _atom_site_fract_x
 _atom_site_fract_y
 _atom_site_fract_z
 _atom_site_occupancy
  Ce  Ce0  1  0.552450  0.077580  0.245053  1
  Lu  Lu1  1  0.050375  0.422570  0.755969  1
  Lu  Lu2  1  0.447744  0.922247  0.756279  1
  Lu  Lu3  1  0.947605  0.577949  0.242974  1
  Tc  Tc4  1  0.208922  0.113473  0.114066  1
  Tc  Tc5  1  0.705156  0.381416  0.892029  1
  Tc  Tc6  1  0.796540  0.885272  0.885755  1
  Tc  Tc7  1  0.295321  0.614810  0.109968  1
  Tc  Tc8  1  0.998510  0.999395  0.498411  1
  Tc  Tc9  1  0.500166  0.500332  0.502283  1
  Ge  Ge10  1  0.903855  0.120270  0.128709  1
  Ge  Ge11  1  0.397135  0.385045  0.864662  1
  Ge  Ge12  1  0.100621  0.879039  0.869926  1
  Ge  Ge13  1  0.600253  0.623034  0.126521  1
  Ge  Ge14  1  0.749519  0.225906  0.579286  1
  Ge  Ge15  1  0.244599  0.281139  0.423772  1
  Ge  Ge16  1  0.248445  0.771262  0.424661  1
  Ge  Ge17  1  0.752784  0.719262  0.579677  1
