# generated using pymatgen
data_Ta4AlTe4
_symmetry_space_group_name_H-M   'P 1'
_cell_length_a   4.86259100
_cell_length_b   11.30650500
_cell_length_c   19.46545600
_cell_angle_alpha   90.00000000
_cell_angle_beta   90.00000000
_cell_angle_gamma   90.00000000
_symmetry_Int_Tables_number   1
_chemical_formula_structural   Ta4AlTe4
_chemical_formula_sum   'Ta16 Al4 Te16'
_cell_volume   1070.18954291
_cell_formula_units_Z   4
loop_
 _symmetry_equiv_pos_site_id
 _symmetry_equiv_pos_as_xyz
  1  'x, y, z'
loop_
 _atom_site_type_symbol
 _atom_site_label
 _atom_site_symmetry_multiplicity
 _atom_site_fract_x
 _atom_site_fract_y
 _atom_site_fract_z
 _atom_site_occupancy
  Ta  Ta0  1  0.500000  0.566904  0.384054  1
  Ta  Ta1  1  0.500000  0.433096  0.615946  1
  Ta  Ta2  1  0.500000  0.066904  0.115946  1
  Ta  Ta3  1  0.500000  0.933096  0.884054  1
  Ta  Ta4  1  0.500000  0.702867  0.533585  1
  Ta  Ta5  1  0.500000  0.297133  0.466415  1
  Ta  Ta6  1  0.500000  0.202867  0.966415  1
  Ta  Ta7  1  0.500000  0.797133  0.033585  1
  Ta  Ta8  1  0.000000  0.687598  0.442606  1
  Ta  Ta9  1  0.000000  0.312402  0.557394  1
  Ta  Ta10  1  0.000000  0.187598  0.057394  1
  Ta  Ta11  1  0.000000  0.812402  0.942606  1
  Ta  Ta12  1  0.000000  0.401923  0.392456  1
  Ta  Ta13  1  0.000000  0.598077  0.607544  1
  Ta  Ta14  1  0.000000  0.901923  0.107544  1
  Ta  Ta15  1  0.000000  0.098077  0.892456  1
  Al  Al16  1  0.249693  0.500000  0.500000  1
  Al  Al17  1  0.750307  0.000000  0.000000  1
  Al  Al18  1  0.750307  0.500000  0.500000  1
  Al  Al19  1  0.249693  0.000000  0.000000  1
  Te  Te20  1  0.000000  0.838930  0.561016  1
  Te  Te21  1  0.000000  0.161070  0.438984  1
  Te  Te22  1  0.000000  0.338930  0.938984  1
  Te  Te23  1  0.000000  0.661070  0.061016  1
  Te  Te24  1  0.500000  0.337852  0.320577  1
  Te  Te25  1  0.500000  0.662148  0.679423  1
  Te  Te26  1  0.500000  0.837852  0.179423  1
  Te  Te27  1  0.500000  0.162148  0.820577  1
  Te  Te28  1  0.500000  0.818084  0.402468  1
  Te  Te29  1  0.500000  0.181916  0.597532  1
  Te  Te30  1  0.500000  0.318084  0.097532  1
  Te  Te31  1  0.500000  0.681916  0.902468  1
  Te  Te32  1  0.000000  0.603750  0.303549  1
  Te  Te33  1  0.000000  0.396250  0.696451  1
  Te  Te34  1  0.000000  0.103750  0.196451  1
  Te  Te35  1  0.000000  0.896250  0.803549  1
