# generated using pymatgen
data_Pr17Ho3Si15Os
_symmetry_space_group_name_H-M   'P 1'
_cell_length_a   7.90135731
_cell_length_b   7.86492434
_cell_length_c   15.18660116
_cell_angle_alpha   90.25110396
_cell_angle_beta   89.79812588
_cell_angle_gamma   90.06216240
_symmetry_Int_Tables_number   1
_chemical_formula_structural   Pr17Ho3Si15Os
_chemical_formula_sum   'Pr17 Ho3 Si15 Os1'
_cell_volume   943.73426479
_cell_formula_units_Z   1
loop_
 _symmetry_equiv_pos_site_id
 _symmetry_equiv_pos_as_xyz
  1  'x, y, z'
loop_
 _atom_site_type_symbol
 _atom_site_label
 _atom_site_symmetry_multiplicity
 _atom_site_fract_x
 _atom_site_fract_y
 _atom_site_fract_z
 _atom_site_occupancy
  Pr  Pr0  1  0.697008  0.688273  0.501558  1
  Pr  Pr1  1  0.372509  0.011725  0.449761  1
  Pr  Pr2  1  0.486618  0.879818  0.699139  1
  Pr  Pr3  1  0.511405  0.124527  0.198081  1
  Pr  Pr4  1  0.875942  0.487123  0.299663  1
  Pr  Pr5  1  0.127455  0.502000  0.798383  1
  Pr  Pr6  1  0.625427  0.988880  0.948369  1
  Pr  Pr7  1  0.006483  0.374310  0.552577  1
  Pr  Pr8  1  0.988355  0.625979  0.050859  1
  Pr  Pr9  1  0.133168  0.983948  0.872553  1
  Pr  Pr10  1  0.518562  0.630866  0.125976  1
  Pr  Pr11  1  0.470777  0.361602  0.630576  1
  Pr  Pr12  1  0.628279  0.515875  0.874553  1
  Pr  Pr13  1  0.374619  0.481703  0.372154  1
  Pr  Pr14  1  0.873294  0.021648  0.376629  1
  Pr  Pr15  1  0.981051  0.127137  0.123149  1
  Pr  Pr16  1  0.027253  0.882746  0.626250  1
  Ho  Ho17  1  0.308814  0.308033  0.999242  1
  Ho  Ho18  1  0.189078  0.809962  0.250254  1
  Ho  Ho19  1  0.825166  0.189837  0.748723  1
  Si  Si20  1  0.331293  0.691162  0.952895  1
  Si  Si21  1  0.663224  0.302343  0.452829  1
  Si  Si22  1  0.693227  0.331494  0.047972  1
  Si  Si23  1  0.305504  0.669173  0.546067  1
  Si  Si24  1  0.809574  0.830760  0.204277  1
  Si  Si25  1  0.169505  0.192926  0.295378  1
  Si  Si26  1  0.830077  0.805797  0.798370  1
  Si  Si27  1  0.287621  0.923230  0.061431  1
  Si  Si28  1  0.575229  0.788698  0.309787  1
  Si  Si29  1  0.424626  0.209331  0.815258  1
  Si  Si30  1  0.780290  0.579152  0.691598  1
  Si  Si31  1  0.212417  0.423855  0.186719  1
  Si  Si32  1  0.705463  0.075713  0.561922  1
  Si  Si33  1  0.921574  0.285488  0.939124  1
  Si  Si34  1  0.083542  0.717735  0.436708  1
  Os  Os35  1  0.185570  0.177151  0.701215  1
