# generated using pymatgen
data_Dy3Mg3Cu2Ru
_symmetry_space_group_name_H-M   'P 1'
_cell_length_a   7.46932500
_cell_length_b   7.46932471
_cell_length_c   3.93200300
_cell_angle_alpha   90.00000000
_cell_angle_beta   90.00000000
_cell_angle_gamma   120.00001456
_symmetry_Int_Tables_number   1
_chemical_formula_structural   Dy3Mg3Cu2Ru
_chemical_formula_sum   'Dy3 Mg3 Cu2 Ru1'
_cell_volume   189.97965945
_cell_formula_units_Z   1
loop_
 _symmetry_equiv_pos_site_id
 _symmetry_equiv_pos_as_xyz
  1  'x, y, z'
loop_
 _atom_site_type_symbol
 _atom_site_label
 _atom_site_symmetry_multiplicity
 _atom_site_fract_x
 _atom_site_fract_y
 _atom_site_fract_z
 _atom_site_occupancy
  Dy  Dy0  1  0.400805  0.977457  0.500000  1
  Dy  Dy1  1  0.022543  0.423349  0.500000  1
  Dy  Dy2  1  0.576651  0.599195  0.500000  1
  Mg  Mg3  1  0.752499  0.003881  0.000000  1
  Mg  Mg4  1  0.996119  0.748618  0.000000  1
  Mg  Mg5  1  0.251382  0.247501  0.000000  1
  Cu  Cu6  1  0.000000  0.000000  0.500000  1
  Cu  Cu7  1  0.666667  0.333333  0.000000  1
  Ru  Ru8  1  0.333333  0.666667  0.000000  1
