# generated using pymatgen
data_Nd6Sn6PtRh5
_symmetry_space_group_name_H-M   'P 1'
_cell_length_a   7.66562100
_cell_length_b   7.66562130
_cell_length_c   8.06030000
_cell_angle_alpha   90.00000000
_cell_angle_beta   90.00000000
_cell_angle_gamma   120.00001166
_symmetry_Int_Tables_number   1
_chemical_formula_structural   Nd6Sn6PtRh5
_chemical_formula_sum   'Nd6 Sn6 Pt1 Rh5'
_cell_volume   410.18189808
_cell_formula_units_Z   1
loop_
 _symmetry_equiv_pos_site_id
 _symmetry_equiv_pos_as_xyz
  1  'x, y, z'
loop_
 _atom_site_type_symbol
 _atom_site_label
 _atom_site_symmetry_multiplicity
 _atom_site_fract_x
 _atom_site_fract_y
 _atom_site_fract_z
 _atom_site_occupancy
  Nd  Nd0  1  0.407564  0.997769  0.249138  1
  Nd  Nd1  1  0.590205  0.592436  0.249138  1
  Nd  Nd2  1  0.002231  0.409795  0.249138  1
  Nd  Nd3  1  0.407492  0.997599  0.750874  1
  Nd  Nd4  1  0.590107  0.592508  0.750874  1
  Nd  Nd5  1  0.002401  0.409893  0.750874  1
  Sn  Sn6  1  0.257199  0.256173  0.000003  1
  Sn  Sn7  1  0.998975  0.742801  0.000003  1
  Sn  Sn8  1  0.004301  0.749028  0.499997  1
  Sn  Sn9  1  0.744725  0.995699  0.499997  1
  Sn  Sn10  1  0.250972  0.255275  0.499997  1
  Sn  Sn11  1  0.743827  0.001025  0.000003  1
  Pt  Pt12  1  0.666667  0.333333  0.500226  1
  Rh  Rh13  1  0.000000  0.000000  0.751483  1
  Rh  Rh14  1  0.000000  0.000000  0.248518  1
  Rh  Rh15  1  0.666667  0.333333  0.999734  1
  Rh  Rh16  1  0.333333  0.666667  0.499695  1
  Rh  Rh17  1  0.333333  0.666667  0.000306  1
