# generated using pymatgen
data_Sc20Cd6NiRh
_symmetry_space_group_name_H-M   'P 1'
_cell_length_a   9.02715200
_cell_length_b   9.02715240
_cell_length_c   9.05134000
_cell_angle_alpha   90.00000000
_cell_angle_beta   90.00000000
_cell_angle_gamma   119.99999119
_symmetry_Int_Tables_number   1
_chemical_formula_structural   Sc20Cd6NiRh
_chemical_formula_sum   'Sc20 Cd6 Ni1 Rh1'
_cell_volume   638.77083507
_cell_formula_units_Z   1
loop_
 _symmetry_equiv_pos_site_id
 _symmetry_equiv_pos_as_xyz
  1  'x, y, z'
loop_
 _atom_site_type_symbol
 _atom_site_label
 _atom_site_symmetry_multiplicity
 _atom_site_fract_x
 _atom_site_fract_y
 _atom_site_fract_z
 _atom_site_occupancy
  Sc  Sc0  1  0.000000  0.000000  0.499928  1
  Sc  Sc1  1  0.000000  0.000000  0.000072  1
  Sc  Sc2  1  0.542353  0.457647  0.250000  1
  Sc  Sc3  1  0.542353  0.084704  0.250000  1
  Sc  Sc4  1  0.915296  0.457647  0.250000  1
  Sc  Sc5  1  0.457601  0.542399  0.750000  1
  Sc  Sc6  1  0.457601  0.915202  0.750000  1
  Sc  Sc7  1  0.084798  0.542399  0.750000  1
  Sc  Sc8  1  0.208759  0.791241  0.441820  1
  Sc  Sc9  1  0.208759  0.417520  0.441820  1
  Sc  Sc10  1  0.582480  0.791241  0.441820  1
  Sc  Sc11  1  0.788661  0.211339  0.561833  1
  Sc  Sc12  1  0.788661  0.577322  0.561833  1
  Sc  Sc13  1  0.422678  0.211339  0.561833  1
  Sc  Sc14  1  0.788661  0.211339  0.938167  1
  Sc  Sc15  1  0.788661  0.577322  0.938167  1
  Sc  Sc16  1  0.422678  0.211339  0.938167  1
  Sc  Sc17  1  0.208759  0.791241  0.058180  1
  Sc  Sc18  1  0.208759  0.417520  0.058180  1
  Sc  Sc19  1  0.582480  0.791241  0.058180  1
  Cd  Cd20  1  0.883600  0.116400  0.250000  1
  Cd  Cd21  1  0.883600  0.767200  0.250000  1
  Cd  Cd22  1  0.232800  0.116400  0.250000  1
  Cd  Cd23  1  0.116527  0.883473  0.750000  1
  Cd  Cd24  1  0.116527  0.233053  0.750000  1
  Cd  Cd25  1  0.766947  0.883473  0.750000  1
  Ni  Ni26  1  0.666667  0.333333  0.750000  1
  Rh  Rh27  1  0.333333  0.666667  0.250000  1
