# generated using pymatgen
data_HoTl(Bi3O7)2
_symmetry_space_group_name_H-M   'P 1'
_cell_length_a   6.64977725
_cell_length_b   6.86054924
_cell_length_c   7.84766800
_cell_angle_alpha   106.67823805
_cell_angle_beta   89.38888476
_cell_angle_gamma   99.24528385
_symmetry_Int_Tables_number   1
_chemical_formula_structural   HoTl(Bi3O7)2
_chemical_formula_sum   'Ho1 Tl1 Bi6 O14'
_cell_volume   338.26502759
_cell_formula_units_Z   1
loop_
 _symmetry_equiv_pos_site_id
 _symmetry_equiv_pos_as_xyz
  1  'x, y, z'
loop_
 _atom_site_type_symbol
 _atom_site_label
 _atom_site_symmetry_multiplicity
 _atom_site_fract_x
 _atom_site_fract_y
 _atom_site_fract_z
 _atom_site_occupancy
  Ho  Ho0  1  0.540530  0.996019  0.750297  1
  Tl  Tl1  1  0.466951  0.002924  0.250421  1
  Bi  Bi2  1  0.001937  0.999499  0.500607  1
  Bi  Bi3  1  0.002050  0.999717  0.999687  1
  Bi  Bi4  1  0.260805  0.519142  0.878892  1
  Bi  Bi5  1  0.743622  0.480995  0.119610  1
  Bi  Bi6  1  0.722452  0.460529  0.609986  1
  Bi  Bi7  1  0.273372  0.537642  0.393243  1
  O  O8  1  0.462315  0.662339  0.185369  1
  O  O9  1  0.535366  0.339782  0.816168  1
  O  O10  1  0.300237  0.939939  0.943288  1
  O  O11  1  0.696927  0.059439  0.041569  1
  O  O12  1  0.294152  0.913622  0.517989  1
  O  O13  1  0.703869  0.084356  0.495086  1
  O  O14  1  0.530802  0.347092  0.349198  1
  O  O15  1  0.470508  0.649259  0.646851  1
  O  O16  1  0.916503  0.674318  0.959797  1
  O  O17  1  0.082303  0.326521  0.039994  1
  O  O18  1  0.097073  0.325347  0.624085  1
  O  O19  1  0.903515  0.674527  0.375677  1
  O  O20  1  0.876754  0.933854  0.733308  1
  O  O21  1  0.117956  0.073137  0.268882  1
