# generated using pymatgen
data_YAl2(Ga2Cu3)2
_symmetry_space_group_name_H-M   'P 1'
_cell_length_a   5.19723157
_cell_length_b   6.62840648
_cell_length_c   6.62840728
_cell_angle_alpha   99.32211266
_cell_angle_beta   113.08164649
_cell_angle_gamma   66.91835955
_symmetry_Int_Tables_number   1
_chemical_formula_structural   YAl2(Ga2Cu3)2
_chemical_formula_sum   'Y1 Al2 Ga4 Cu6'
_cell_volume   193.23923850
_cell_formula_units_Z   1
loop_
 _symmetry_equiv_pos_site_id
 _symmetry_equiv_pos_as_xyz
  1  'x, y, z'
loop_
 _atom_site_type_symbol
 _atom_site_label
 _atom_site_symmetry_multiplicity
 _atom_site_fract_x
 _atom_site_fract_y
 _atom_site_fract_z
 _atom_site_occupancy
  Y  Y0  1  0.000000  0.000000  0.000000  1
  Al  Al1  1  0.700816  0.799184  0.200816  1
  Al  Al2  1  0.299184  0.200816  0.799184  1
  Ga  Ga3  1  0.651658  0.348342  0.651658  1
  Ga  Ga4  1  0.348342  0.651658  0.348342  1
  Ga  Ga5  1  0.000000  0.346231  0.346231  1
  Ga  Ga6  1  0.000000  0.653769  0.653769  1
  Cu  Cu7  1  0.500000  0.000000  0.500000  1
  Cu  Cu8  1  0.000000  0.000000  0.500000  1
  Cu  Cu9  1  0.500000  0.500000  0.000000  1
  Cu  Cu10  1  0.000000  0.500000  0.000000  1
  Cu  Cu11  1  0.500000  0.775435  0.775435  1
  Cu  Cu12  1  0.500000  0.224565  0.224565  1
