# generated using pymatgen
data_Ba2Si3GeRh6
_symmetry_space_group_name_H-M   'P 1'
_cell_length_a   5.88034946
_cell_length_b   6.89928225
_cell_length_c   6.89928244
_cell_angle_alpha   62.54730797
_cell_angle_beta   64.71133376
_cell_angle_gamma   64.71132980
_symmetry_Int_Tables_number   1
_chemical_formula_structural   Ba2Si3GeRh6
_chemical_formula_sum   'Ba2 Si3 Ge1 Rh6'
_cell_volume   215.13669840
_cell_formula_units_Z   1
loop_
 _symmetry_equiv_pos_site_id
 _symmetry_equiv_pos_as_xyz
  1  'x, y, z'
loop_
 _atom_site_type_symbol
 _atom_site_label
 _atom_site_symmetry_multiplicity
 _atom_site_fract_x
 _atom_site_fract_y
 _atom_site_fract_z
 _atom_site_occupancy
  Ba  Ba0  1  0.526104  0.749636  0.749636  1
  Ba  Ba1  1  0.480526  0.250828  0.250828  1
  Si  Si2  1  0.778206  0.428206  0.428206  1
  Si  Si3  1  0.134525  0.074140  0.074140  1
  Si  Si4  1  0.872833  0.913536  0.913536  1
  Ge  Ge5  1  0.202791  0.585770  0.585770  1
  Rh  Rh6  1  0.503698  0.215549  0.783549  1
  Rh  Rh7  1  0.999917  0.724958  0.270475  1
  Rh  Rh8  1  0.503698  0.783549  0.215549  1
  Rh  Rh9  1  0.999917  0.270475  0.724958  1
  Rh  Rh10  1  0.998893  0.481398  0.021955  1
  Rh  Rh11  1  0.998893  0.021955  0.481398  1
