# generated using pymatgen
data_Hf2(Ti2Bi3)3
_symmetry_space_group_name_H-M   'P 1'
_cell_length_a   10.41055300
_cell_length_b   10.41055300
_cell_length_c   7.50121200
_cell_angle_alpha   90.00000000
_cell_angle_beta   90.00000000
_cell_angle_gamma   90.00000000
_symmetry_Int_Tables_number   1
_chemical_formula_structural   Hf2(Ti2Bi3)3
_chemical_formula_sum   'Hf4 Ti12 Bi18'
_cell_volume   812.97845934
_cell_formula_units_Z   2
loop_
 _symmetry_equiv_pos_site_id
 _symmetry_equiv_pos_as_xyz
  1  'x, y, z'
loop_
 _atom_site_type_symbol
 _atom_site_label
 _atom_site_symmetry_multiplicity
 _atom_site_fract_x
 _atom_site_fract_y
 _atom_site_fract_z
 _atom_site_occupancy
  Hf  Hf0  1  0.500000  0.000000  0.423591  1
  Hf  Hf1  1  0.000000  0.500000  0.077777  1
  Hf  Hf2  1  0.500000  0.000000  0.922223  1
  Hf  Hf3  1  0.000000  0.500000  0.576409  1
  Ti  Ti4  1  0.858312  0.000000  0.851788  1
  Ti  Ti5  1  0.000000  0.141688  0.148212  1
  Ti  Ti6  1  0.000000  0.858312  0.148212  1
  Ti  Ti7  1  0.641688  0.500000  0.148212  1
  Ti  Ti8  1  0.141688  0.000000  0.851788  1
  Ti  Ti9  1  0.358312  0.500000  0.148212  1
  Ti  Ti10  1  0.250000  0.750000  0.000000  1
  Ti  Ti11  1  0.500000  0.358312  0.851788  1
  Ti  Ti12  1  0.750000  0.250000  0.000000  1
  Ti  Ti13  1  0.500000  0.641688  0.851788  1
  Ti  Ti14  1  0.750000  0.750000  0.000000  1
  Ti  Ti15  1  0.250000  0.250000  0.000000  1
  Bi  Bi16  1  0.668458  0.168458  0.656024  1
  Bi  Bi17  1  0.500000  0.241994  0.191764  1
  Bi  Bi18  1  0.000000  0.000000  0.500000  1
  Bi  Bi19  1  0.168458  0.668458  0.343976  1
  Bi  Bi20  1  0.241994  0.500000  0.808236  1
  Bi  Bi21  1  0.668458  0.831542  0.656024  1
  Bi  Bi22  1  0.000000  0.258006  0.808236  1
  Bi  Bi23  1  0.741994  0.000000  0.191764  1
  Bi  Bi24  1  0.500000  0.758006  0.191764  1
  Bi  Bi25  1  0.258006  0.000000  0.191764  1
  Bi  Bi26  1  0.331542  0.831542  0.656024  1
  Bi  Bi27  1  0.758006  0.500000  0.808236  1
  Bi  Bi28  1  0.500000  0.500000  0.500000  1
  Bi  Bi29  1  0.000000  0.741994  0.808236  1
  Bi  Bi30  1  0.168458  0.331542  0.343976  1
  Bi  Bi31  1  0.831542  0.331542  0.343976  1
  Bi  Bi32  1  0.331542  0.168458  0.656024  1
  Bi  Bi33  1  0.831542  0.668458  0.343976  1
