# generated using pymatgen
data_Zn8Pt3Rh4Au
_symmetry_space_group_name_H-M   'P 1'
_cell_length_a   6.13968800
_cell_length_b   4.33254900
_cell_length_c   8.62618500
_cell_angle_alpha   90.00000000
_cell_angle_beta   90.00009584
_cell_angle_gamma   90.00000000
_symmetry_Int_Tables_number   1
_chemical_formula_structural   Zn8Pt3Rh4Au
_chemical_formula_sum   'Zn8 Pt3 Rh4 Au1'
_cell_volume   229.46082637
_cell_formula_units_Z   1
loop_
 _symmetry_equiv_pos_site_id
 _symmetry_equiv_pos_as_xyz
  1  'x, y, z'
loop_
 _atom_site_type_symbol
 _atom_site_label
 _atom_site_symmetry_multiplicity
 _atom_site_fract_x
 _atom_site_fract_y
 _atom_site_fract_z
 _atom_site_occupancy
  Zn  Zn0  1  0.492466  0.749999  0.125223  1
  Zn  Zn1  1  0.007547  0.749999  0.125232  1
  Zn  Zn2  1  0.496668  0.250000  0.378678  1
  Zn  Zn3  1  0.003343  0.250000  0.378689  1
  Zn  Zn4  1  0.998762  0.749999  0.625200  1
  Zn  Zn5  1  0.501221  0.749999  0.625207  1
  Zn  Zn6  1  0.003350  0.250000  0.870867  1
  Zn  Zn7  1  0.496629  0.250000  0.870879  1
  Pt  Pt8  1  0.249999  0.749999  0.375941  1
  Pt  Pt9  1  0.750017  0.250000  0.624897  1
  Pt  Pt10  1  0.249986  0.749999  0.874452  1
  Rh  Rh11  1  0.249996  0.250000  0.124821  1
  Rh  Rh12  1  0.749992  0.749999  0.372242  1
  Rh  Rh13  1  0.250036  0.250000  0.624826  1
  Rh  Rh14  1  0.749985  0.749999  0.878049  1
  Au  Au15  1  0.750005  0.250000  0.124797  1
