# generated using pymatgen
data_Te12PIrCl6
_symmetry_space_group_name_H-M   'P 1'
_cell_length_a   9.27781750
_cell_length_b   9.27781660
_cell_length_c   9.27781728
_cell_angle_alpha   108.58755159
_cell_angle_beta   108.58754970
_cell_angle_gamma   108.58754668
_symmetry_Int_Tables_number   1
_chemical_formula_structural   Te12PIrCl6
_chemical_formula_sum   'Te12 P1 Ir1 Cl6'
_cell_volume   634.09013240
_cell_formula_units_Z   1
loop_
 _symmetry_equiv_pos_site_id
 _symmetry_equiv_pos_as_xyz
  1  'x, y, z'
loop_
 _atom_site_type_symbol
 _atom_site_label
 _atom_site_symmetry_multiplicity
 _atom_site_fract_x
 _atom_site_fract_y
 _atom_site_fract_z
 _atom_site_occupancy
  Te  Te0  1  0.911112  0.175249  0.194730  1
  Te  Te1  1  0.194730  0.911112  0.175249  1
  Te  Te2  1  0.175249  0.194730  0.911112  1
  Te  Te3  1  0.677851  0.668759  0.420435  1
  Te  Te4  1  0.420435  0.677851  0.668759  1
  Te  Te5  1  0.668759  0.420435  0.677851  1
  Te  Te6  1  0.079565  0.831241  0.822149  1
  Te  Te7  1  0.822149  0.079565  0.831241  1
  Te  Te8  1  0.831241  0.822149  0.079565  1
  Te  Te9  1  0.305270  0.324751  0.588888  1
  Te  Te10  1  0.588888  0.305270  0.324751  1
  Te  Te11  1  0.324751  0.588888  0.305270  1
  P  P12  1  0.250000  0.250000  0.250000  1
  Ir  Ir13  1  0.750000  0.750000  0.750000  1
  Cl  Cl14  1  0.984373  0.515627  0.250000  1
  Cl  Cl15  1  0.250000  0.984373  0.515627  1
  Cl  Cl16  1  0.515627  0.250000  0.984373  1
  Cl  Cl17  1  0.750000  0.011015  0.488985  1
  Cl  Cl18  1  0.488985  0.750000  0.011015  1
  Cl  Cl19  1  0.011015  0.488985  0.750000  1
