# generated using pymatgen
data_TbEr7Re3B24Ir
_symmetry_space_group_name_H-M   'P 1'
_cell_length_a   3.65572800
_cell_length_b   9.13247196
_cell_length_c   11.51307308
_cell_angle_alpha   90.11899046
_cell_angle_beta   90.00000000
_cell_angle_gamma   90.00000000
_symmetry_Int_Tables_number   1
_chemical_formula_structural   TbEr7Re3B24Ir
_chemical_formula_sum   'Tb1 Er7 Re3 B24 Ir1'
_cell_volume   384.37271156
_cell_formula_units_Z   1
loop_
 _symmetry_equiv_pos_site_id
 _symmetry_equiv_pos_as_xyz
  1  'x, y, z'
loop_
 _atom_site_type_symbol
 _atom_site_label
 _atom_site_symmetry_multiplicity
 _atom_site_fract_x
 _atom_site_fract_y
 _atom_site_fract_z
 _atom_site_occupancy
  Tb  Tb0  1  0.000000  0.318372  0.415431  1
  Er  Er1  1  0.000000  0.678798  0.591608  1
  Er  Er2  1  0.000000  0.827150  0.081112  1
  Er  Er3  1  0.000000  0.177310  0.912605  1
  Er  Er4  1  0.000000  0.944009  0.370445  1
  Er  Er5  1  0.000000  0.055714  0.629078  1
  Er  Er6  1  0.000000  0.440947  0.127980  1
  Er  Er7  1  0.000000  0.556755  0.871789  1
  Re  Re8  1  0.000000  0.362724  0.678162  1
  Re  Re9  1  0.000000  0.137972  0.179486  1
  Re  Re10  1  0.000000  0.861640  0.820888  1
  B  B11  1  0.500000  0.554264  0.433869  1
  B  B12  1  0.500000  0.447142  0.566977  1
  B  B13  1  0.500000  0.053083  0.066310  1
  B  B14  1  0.500000  0.947160  0.932978  1
  B  B15  1  0.500000  0.749453  0.420365  1
  B  B16  1  0.500000  0.250165  0.581464  1
  B  B17  1  0.500000  0.249235  0.080789  1
  B  B18  1  0.500000  0.751393  0.919182  1
  B  B19  1  0.500000  0.791574  0.265046  1
  B  B20  1  0.500000  0.208085  0.734441  1
  B  B21  1  0.500000  0.291663  0.234530  1
  B  B22  1  0.500000  0.707841  0.765834  1
  B  B23  1  0.500000  0.631834  0.184032  1
  B  B24  1  0.500000  0.369405  0.814533  1
  B  B25  1  0.500000  0.130361  0.314620  1
  B  B26  1  0.500000  0.868421  0.685263  1
  B  B27  1  0.500000  0.982312  0.212036  1
  B  B28  1  0.500000  0.017719  0.787078  1
  B  B29  1  0.500000  0.483195  0.287493  1
  B  B30  1  0.500000  0.518725  0.712581  1
  B  B31  1  0.500000  0.603691  0.029282  1
  B  B32  1  0.500000  0.397313  0.971858  1
  B  B33  1  0.500000  0.101075  0.471422  1
  B  B34  1  0.500000  0.895292  0.528345  1
  Ir  Ir35  1  0.000000  0.638213  0.321086  1
