# generated using pymatgen
data_RbPr6IrBr12
_symmetry_space_group_name_H-M   'P 1'
_cell_length_a   9.65808296
_cell_length_b   9.64194645
_cell_length_c   9.65210841
_cell_angle_alpha   104.59634076
_cell_angle_beta   104.76101431
_cell_angle_gamma   104.67029503
_symmetry_Int_Tables_number   1
_chemical_formula_structural   RbPr6IrBr12
_chemical_formula_sum   'Rb1 Pr6 Ir1 Br12'
_cell_volume   791.23342231
_cell_formula_units_Z   1
loop_
 _symmetry_equiv_pos_site_id
 _symmetry_equiv_pos_as_xyz
  1  'x, y, z'
loop_
 _atom_site_type_symbol
 _atom_site_label
 _atom_site_symmetry_multiplicity
 _atom_site_fract_x
 _atom_site_fract_y
 _atom_site_fract_z
 _atom_site_occupancy
  Rb  Rb0  1  0.500000  0.500000  0.500000  1
  Pr  Pr1  1  0.100801  0.307469  0.009714  1
  Pr  Pr2  1  0.309127  0.009738  0.101422  1
  Pr  Pr3  1  0.009305  0.101305  0.308240  1
  Pr  Pr4  1  0.990696  0.898695  0.691761  1
  Pr  Pr5  1  0.690873  0.990263  0.898578  1
  Pr  Pr6  1  0.899199  0.692531  0.990286  1
  Ir  Ir7  1  0.000000  0.000000  0.000000  1
  Br  Br8  1  0.215220  0.672465  0.074634  1
  Br  Br9  1  0.425962  0.334303  0.113753  1
  Br  Br10  1  0.672178  0.074518  0.214745  1
  Br  Br11  1  0.925376  0.785017  0.327461  1
  Br  Br12  1  0.113861  0.426148  0.334201  1
  Br  Br13  1  0.333929  0.113631  0.425816  1
  Br  Br14  1  0.666071  0.886369  0.574185  1
  Br  Br15  1  0.886140  0.573852  0.665799  1
  Br  Br16  1  0.074625  0.214983  0.672540  1
  Br  Br17  1  0.327823  0.925483  0.785255  1
  Br  Br18  1  0.574038  0.665697  0.886248  1
  Br  Br19  1  0.784780  0.327535  0.925366  1
