# generated using pymatgen
data_Tm12InTc3Sn
_symmetry_space_group_name_H-M   'P 1'
_cell_length_a   8.36327518
_cell_length_b   8.36327438
_cell_length_c   8.36327466
_cell_angle_alpha   109.04340975
_cell_angle_beta   108.99172589
_cell_angle_gamma   110.38239273
_symmetry_Int_Tables_number   1
_chemical_formula_structural   Tm12InTc3Sn
_chemical_formula_sum   'Tm12 In1 Tc3 Sn1'
_cell_volume   450.21977709
_cell_formula_units_Z   1
loop_
 _symmetry_equiv_pos_site_id
 _symmetry_equiv_pos_as_xyz
  1  'x, y, z'
loop_
 _atom_site_type_symbol
 _atom_site_label
 _atom_site_symmetry_multiplicity
 _atom_site_fract_x
 _atom_site_fract_y
 _atom_site_fract_z
 _atom_site_occupancy
  Tm  Tm0  1  0.190501  0.429822  0.239322  1
  Tm  Tm1  1  0.809499  0.570178  0.760678  1
  Tm  Tm2  1  0.190501  0.951180  0.760678  1
  Tm  Tm3  1  0.950124  0.189525  0.760598  1
  Tm  Tm4  1  0.809499  0.048820  0.239322  1
  Tm  Tm5  1  0.049876  0.810475  0.239402  1
  Tm  Tm6  1  0.428926  0.189525  0.239402  1
  Tm  Tm7  1  0.571074  0.810475  0.760598  1
  Tm  Tm8  1  0.306232  0.305384  0.611617  1
  Tm  Tm9  1  0.693768  0.694616  0.388383  1
  Tm  Tm10  1  0.693768  0.305384  0.999153  1
  Tm  Tm11  1  0.306232  0.694616  0.000847  1
  In  In12  1  0.500000  0.000000  0.500000  1
  Tc  Tc13  1  0.371395  0.371395  0.000000  1
  Tc  Tc14  1  0.628605  0.628605  0.000000  1
  Tc  Tc15  1  0.000000  0.000000  0.000000  1
  Sn  Sn16  1  0.000000  0.500000  0.500000  1
