# generated using pymatgen
data_Y3Ti(P3Pd4)2
_symmetry_space_group_name_H-M   'P 1'
_cell_length_a   3.97395000
_cell_length_b   11.36686500
_cell_length_c   13.26277700
_cell_angle_alpha   90.00000000
_cell_angle_beta   90.00000000
_cell_angle_gamma   90.00000000
_symmetry_Int_Tables_number   1
_chemical_formula_structural   Y3Ti(P3Pd4)2
_chemical_formula_sum   'Y6 Ti2 P12 Pd16'
_cell_volume   599.09758384
_cell_formula_units_Z   2
loop_
 _symmetry_equiv_pos_site_id
 _symmetry_equiv_pos_as_xyz
  1  'x, y, z'
loop_
 _atom_site_type_symbol
 _atom_site_label
 _atom_site_symmetry_multiplicity
 _atom_site_fract_x
 _atom_site_fract_y
 _atom_site_fract_z
 _atom_site_occupancy
  Y  Y0  1  0.000000  0.500000  0.520497  1
  Y  Y1  1  0.500000  0.000000  0.479503  1
  Y  Y2  1  0.500000  0.814833  0.204938  1
  Y  Y3  1  0.500000  0.185167  0.204938  1
  Y  Y4  1  0.000000  0.685167  0.795062  1
  Y  Y5  1  0.000000  0.314833  0.795062  1
  Ti  Ti6  1  0.500000  0.500000  0.155018  1
  Ti  Ti7  1  0.000000  0.000000  0.844982  1
  P  P8  1  0.500000  0.500000  0.871696  1
  P  P9  1  0.000000  0.000000  0.128304  1
  P  P10  1  0.500000  0.500000  0.348799  1
  P  P11  1  0.000000  0.000000  0.651201  1
  P  P12  1  0.500000  0.318601  0.616710  1
  P  P13  1  0.500000  0.681399  0.616710  1
  P  P14  1  0.000000  0.181399  0.383290  1
  P  P15  1  0.000000  0.818601  0.383290  1
  P  P16  1  0.500000  0.849984  0.884726  1
  P  P17  1  0.500000  0.150016  0.884726  1
  P  P18  1  0.000000  0.650016  0.115274  1
  P  P19  1  0.000000  0.349984  0.115274  1
  Pd  Pd20  1  0.500000  0.500000  0.698284  1
  Pd  Pd21  1  0.000000  0.000000  0.301716  1
  Pd  Pd22  1  0.000000  0.500000  0.985553  1
  Pd  Pd23  1  0.500000  0.000000  0.014447  1
  Pd  Pd24  1  0.500000  0.330146  0.974652  1
  Pd  Pd25  1  0.500000  0.669854  0.974652  1
  Pd  Pd26  1  0.000000  0.169854  0.025348  1
  Pd  Pd27  1  0.000000  0.830146  0.025348  1
  Pd  Pd28  1  0.500000  0.303976  0.433864  1
  Pd  Pd29  1  0.500000  0.696024  0.433864  1
  Pd  Pd30  1  0.000000  0.196024  0.566136  1
  Pd  Pd31  1  0.000000  0.803976  0.566136  1
  Pd  Pd32  1  0.500000  0.874552  0.707640  1
  Pd  Pd33  1  0.500000  0.125448  0.707640  1
  Pd  Pd34  1  0.000000  0.625448  0.292360  1
  Pd  Pd35  1  0.000000  0.374552  0.292360  1
