# generated using pymatgen
data_Y8ReTc2B24Ru
_symmetry_space_group_name_H-M   'P 1'
_cell_length_a   3.68510000
_cell_length_b   9.17858303
_cell_length_c   11.56926655
_cell_angle_alpha   90.05529396
_cell_angle_beta   90.00000000
_cell_angle_gamma   90.00000000
_symmetry_Int_Tables_number   1
_chemical_formula_structural   Y8ReTc2B24Ru
_chemical_formula_sum   'Y8 Re1 Tc2 B24 Ru1'
_cell_volume   391.31864679
_cell_formula_units_Z   1
loop_
 _symmetry_equiv_pos_site_id
 _symmetry_equiv_pos_as_xyz
  1  'x, y, z'
loop_
 _atom_site_type_symbol
 _atom_site_label
 _atom_site_symmetry_multiplicity
 _atom_site_fract_x
 _atom_site_fract_y
 _atom_site_fract_z
 _atom_site_occupancy
  Y  Y0  1  0.000000  0.824950  0.084102  1
  Y  Y1  1  0.000000  0.176542  0.913962  1
  Y  Y2  1  0.000000  0.321797  0.414232  1
  Y  Y3  1  0.000000  0.677397  0.587235  1
  Y  Y4  1  0.000000  0.441984  0.130680  1
  Y  Y5  1  0.000000  0.558280  0.871091  1
  Y  Y6  1  0.000000  0.941832  0.369081  1
  Y  Y7  1  0.000000  0.056111  0.629663  1
  Re  Re8  1  0.000000  0.362701  0.678049  1
  Tc  Tc9  1  0.000000  0.138017  0.179879  1
  Tc  Tc10  1  0.000000  0.861994  0.820615  1
  B  B11  1  0.500000  0.053312  0.066929  1
  B  B12  1  0.500000  0.947290  0.932581  1
  B  B13  1  0.500000  0.553762  0.432544  1
  B  B14  1  0.500000  0.447222  0.566852  1
  B  B15  1  0.500000  0.248559  0.081686  1
  B  B16  1  0.500000  0.752493  0.918548  1
  B  B17  1  0.500000  0.747858  0.418128  1
  B  B18  1  0.500000  0.250991  0.581401  1
  B  B19  1  0.500000  0.290861  0.235074  1
  B  B20  1  0.500000  0.708892  0.765789  1
  B  B21  1  0.500000  0.790048  0.265188  1
  B  B22  1  0.500000  0.208583  0.734548  1
  B  B23  1  0.500000  0.130634  0.314584  1
  B  B24  1  0.500000  0.868975  0.685931  1
  B  B25  1  0.500000  0.631013  0.185993  1
  B  B26  1  0.500000  0.369784  0.814027  1
  B  B27  1  0.500000  0.483261  0.288536  1
  B  B28  1  0.500000  0.518561  0.711909  1
  B  B29  1  0.500000  0.982330  0.211395  1
  B  B30  1  0.500000  0.017750  0.788012  1
  B  B31  1  0.500000  0.100586  0.471378  1
  B  B32  1  0.500000  0.897178  0.528054  1
  B  B33  1  0.500000  0.602397  0.029265  1
  B  B34  1  0.500000  0.398216  0.972004  1
  Ru  Ru35  1  0.000000  0.637840  0.321057  1
