# generated using pymatgen
data_Pr6NdThTe12
_symmetry_space_group_name_H-M   'P 1'
_cell_length_a   4.42985200
_cell_length_b   12.12720784
_cell_length_c   12.38592005
_cell_angle_alpha   89.74110463
_cell_angle_beta   90.00000000
_cell_angle_gamma   90.00000000
_symmetry_Int_Tables_number   1
_chemical_formula_structural   Pr6NdThTe12
_chemical_formula_sum   'Pr6 Nd1 Th1 Te12'
_cell_volume   665.38633284
_cell_formula_units_Z   1
loop_
 _symmetry_equiv_pos_site_id
 _symmetry_equiv_pos_as_xyz
  1  'x, y, z'
loop_
 _atom_site_type_symbol
 _atom_site_label
 _atom_site_symmetry_multiplicity
 _atom_site_fract_x
 _atom_site_fract_y
 _atom_site_fract_z
 _atom_site_occupancy
  Pr  Pr0  1  0.750000  0.505366  0.301498  1
  Pr  Pr1  1  0.750000  0.007256  0.804650  1
  Pr  Pr2  1  0.250000  0.999228  0.195805  1
  Pr  Pr3  1  0.250000  0.184854  0.515760  1
  Pr  Pr4  1  0.750000  0.813243  0.482588  1
  Pr  Pr5  1  0.750000  0.691451  0.981979  1
  Nd  Nd6  1  0.250000  0.309733  0.021776  1
  Th  Th7  1  0.250000  0.489464  0.696372  1
  Te  Te8  1  0.250000  0.878636  0.952596  1
  Te  Te9  1  0.750000  0.123858  0.044877  1
  Te  Te10  1  0.750000  0.376628  0.543454  1
  Te  Te11  1  0.250000  0.621911  0.460538  1
  Te  Te12  1  0.250000  0.209114  0.773127  1
  Te  Te13  1  0.750000  0.798778  0.225348  1
  Te  Te14  1  0.750000  0.686630  0.719550  1
  Te  Te15  1  0.250000  0.304633  0.277999  1
  Te  Te16  1  0.250000  0.555032  0.116359  1
  Te  Te17  1  0.750000  0.445209  0.883738  1
  Te  Te18  1  0.750000  0.055987  0.379042  1
  Te  Te19  1  0.250000  0.942988  0.622942  1
