# generated using pymatgen
data_Tb2LuSn3Ir2Ru
_symmetry_space_group_name_H-M   'P 1'
_cell_length_a   7.61691000
_cell_length_b   7.54487679
_cell_length_c   3.83586900
_cell_angle_alpha   90.00000000
_cell_angle_beta   90.00000000
_cell_angle_gamma   120.31632792
_symmetry_Int_Tables_number   1
_chemical_formula_structural   Tb2LuSn3Ir2Ru
_chemical_formula_sum   'Tb2 Lu1 Sn3 Ir2 Ru1'
_cell_volume   190.29711507
_cell_formula_units_Z   1
loop_
 _symmetry_equiv_pos_site_id
 _symmetry_equiv_pos_as_xyz
  1  'x, y, z'
loop_
 _atom_site_type_symbol
 _atom_site_label
 _atom_site_symmetry_multiplicity
 _atom_site_fract_x
 _atom_site_fract_y
 _atom_site_fract_z
 _atom_site_occupancy
  Tb  Tb0  1  0.000583  0.406198  0.500000  1
  Tb  Tb1  1  0.594385  0.593802  0.500000  1
  Lu  Lu2  1  0.404280  0.000000  0.500000  1
  Sn  Sn3  1  0.000897  0.739289  0.000000  1
  Sn  Sn4  1  0.261607  0.260711  0.000000  1
  Sn  Sn5  1  0.738104  0.000000  0.000000  1
  Ir  Ir6  1  0.335293  0.673681  0.000000  1
  Ir  Ir7  1  0.661613  0.326319  0.000000  1
  Ru  Ru8  1  0.003238  0.000000  0.500000  1
