# generated using pymatgen
data_Li3(EuCd7)2
_symmetry_space_group_name_H-M   'P 1'
_cell_length_a   7.56405989
_cell_length_b   7.56406064
_cell_length_c   7.56405917
_cell_angle_alpha   82.94251948
_cell_angle_beta   82.94253346
_cell_angle_gamma   82.94251002
_symmetry_Int_Tables_number   1
_chemical_formula_structural   Li3(EuCd7)2
_chemical_formula_sum   'Li3 Eu2 Cd14'
_cell_volume   423.68518704
_cell_formula_units_Z   1
loop_
 _symmetry_equiv_pos_site_id
 _symmetry_equiv_pos_as_xyz
  1  'x, y, z'
loop_
 _atom_site_type_symbol
 _atom_site_label
 _atom_site_symmetry_multiplicity
 _atom_site_fract_x
 _atom_site_fract_y
 _atom_site_fract_z
 _atom_site_occupancy
  Li  Li0  1  0.000000  0.000000  0.500000  1
  Li  Li1  1  0.500000  0.000000  0.000000  1
  Li  Li2  1  0.000000  0.500000  0.000000  1
  Eu  Eu3  1  0.346959  0.346959  0.346959  1
  Eu  Eu4  1  0.653041  0.653041  0.653041  1
  Cd  Cd5  1  0.296305  0.703695  0.000000  1
  Cd  Cd6  1  0.852078  0.347451  0.347451  1
  Cd  Cd7  1  0.652549  0.147922  0.652549  1
  Cd  Cd8  1  0.109362  0.109362  0.109362  1
  Cd  Cd9  1  0.296305  0.000000  0.703695  1
  Cd  Cd10  1  0.703695  0.296305  0.000000  1
  Cd  Cd11  1  0.347451  0.347451  0.852078  1
  Cd  Cd12  1  0.890638  0.890638  0.890638  1
  Cd  Cd13  1  0.000000  0.703695  0.296305  1
  Cd  Cd14  1  0.703695  0.000000  0.296305  1
  Cd  Cd15  1  0.347451  0.852078  0.347451  1
  Cd  Cd16  1  0.147922  0.652549  0.652549  1
  Cd  Cd17  1  0.652549  0.652549  0.147922  1
  Cd  Cd18  1  0.000000  0.296305  0.703695  1
