# generated using pymatgen
data_Ga3Sn(PPd6)2
_symmetry_space_group_name_H-M   'P 1'
_cell_length_a   3.42685100
_cell_length_b   6.83886008
_cell_length_c   11.82795701
_cell_angle_alpha   90.05213861
_cell_angle_beta   90.00000000
_cell_angle_gamma   90.00000000
_symmetry_Int_Tables_number   1
_chemical_formula_structural   Ga3Sn(PPd6)2
_chemical_formula_sum   'Ga3 Sn1 P2 Pd12'
_cell_volume   277.19698199
_cell_formula_units_Z   1
loop_
 _symmetry_equiv_pos_site_id
 _symmetry_equiv_pos_as_xyz
  1  'x, y, z'
loop_
 _atom_site_type_symbol
 _atom_site_label
 _atom_site_symmetry_multiplicity
 _atom_site_fract_x
 _atom_site_fract_y
 _atom_site_fract_z
 _atom_site_occupancy
  Ga  Ga0  1  0.000000  0.501249  0.165812  1
  Ga  Ga1  1  0.000000  0.497122  0.838774  1
  Ga  Ga2  1  0.000000  0.002587  0.328828  1
  Sn  Sn3  1  0.000000  0.998830  0.666711  1
  P  P4  1  0.500000  0.998029  0.005468  1
  P  P5  1  0.500000  0.502541  0.494561  1
  Pd  Pd6  1  0.000000  0.749460  0.003579  1
  Pd  Pd7  1  0.000000  0.251165  0.494927  1
  Pd  Pd8  1  0.000000  0.618113  0.624386  1
  Pd  Pd9  1  0.000000  0.129581  0.126148  1
  Pd  Pd10  1  0.000000  0.125616  0.879979  1
  Pd  Pd11  1  0.000000  0.625015  0.369993  1
  Pd  Pd12  1  0.500000  0.891568  0.487871  1
  Pd  Pd13  1  0.500000  0.401958  0.002690  1
  Pd  Pd14  1  0.500000  0.785493  0.809110  1
  Pd  Pd15  1  0.500000  0.304230  0.297453  1
  Pd  Pd16  1  0.500000  0.314359  0.704166  1
  Pd  Pd17  1  0.500000  0.803285  0.199545  1
