# generated using pymatgen
data_Hf2ZnInCu4
_symmetry_space_group_name_H-M   'P 1'
_cell_length_a   4.44082801
_cell_length_b   6.28452500
_cell_length_c   13.39177400
_cell_angle_alpha   90.00000000
_cell_angle_beta   90.00392898
_cell_angle_gamma   90.00000000
_symmetry_Int_Tables_number   1
_chemical_formula_structural   Hf2ZnInCu4
_chemical_formula_sum   'Hf6 Zn3 In3 Cu12'
_cell_volume   373.74425204
_cell_formula_units_Z   3
loop_
 _symmetry_equiv_pos_site_id
 _symmetry_equiv_pos_as_xyz
  1  'x, y, z'
loop_
 _atom_site_type_symbol
 _atom_site_label
 _atom_site_symmetry_multiplicity
 _atom_site_fract_x
 _atom_site_fract_y
 _atom_site_fract_z
 _atom_site_occupancy
  Hf  Hf0  1  0.999962  0.000000  0.006504  1
  Hf  Hf1  1  0.500230  0.499999  0.166623  1
  Hf  Hf2  1  0.000125  0.000000  0.326962  1
  Hf  Hf3  1  0.499979  0.499999  0.493923  1
  Hf  Hf4  1  0.999836  0.000000  0.666740  1
  Hf  Hf5  1  0.499784  0.499999  0.839444  1
  Zn  Zn6  1  0.999981  0.499999  0.002580  1
  Zn  Zn7  1  0.500202  0.000000  0.166648  1
  Zn  Zn8  1  0.000164  0.499999  0.330836  1
  In  In9  1  0.499983  0.000000  0.496890  1
  In  In10  1  0.999892  0.499999  0.666565  1
  In  In11  1  0.499853  0.000000  0.836315  1
  Cu  Cu12  1  0.499961  0.253305  0.005979  1
  Cu  Cu13  1  0.499961  0.746697  0.005979  1
  Cu  Cu14  1  0.000240  0.256545  0.166740  1
  Cu  Cu15  1  0.000240  0.743453  0.166740  1
  Cu  Cu16  1  0.500126  0.253456  0.327254  1
  Cu  Cu17  1  0.500126  0.746543  0.327254  1
  Cu  Cu18  1  0.999976  0.256735  0.492777  1
  Cu  Cu19  1  0.999976  0.743266  0.492777  1
  Cu  Cu20  1  0.499836  0.251764  0.666695  1
  Cu  Cu21  1  0.499836  0.748236  0.666695  1
  Cu  Cu22  1  0.999776  0.256843  0.840632  1
  Cu  Cu23  1  0.999776  0.743156  0.840632  1
