# generated using pymatgen
data_Er6ScCo16P12W
_symmetry_space_group_name_H-M   'P 1'
_cell_length_a   3.70223900
_cell_length_b   10.58463800
_cell_length_c   12.26747500
_cell_angle_alpha   90.00000000
_cell_angle_beta   90.00000000
_cell_angle_gamma   90.00000000
_symmetry_Int_Tables_number   1
_chemical_formula_structural   Er6ScCo16P12W
_chemical_formula_sum   'Er6 Sc1 Co16 P12 W1'
_cell_volume   480.72382053
_cell_formula_units_Z   1
loop_
 _symmetry_equiv_pos_site_id
 _symmetry_equiv_pos_as_xyz
  1  'x, y, z'
loop_
 _atom_site_type_symbol
 _atom_site_label
 _atom_site_symmetry_multiplicity
 _atom_site_fract_x
 _atom_site_fract_y
 _atom_site_fract_z
 _atom_site_occupancy
  Er  Er0  1  0.750000  0.250000  0.472183  1
  Er  Er1  1  0.250000  0.750000  0.524766  1
  Er  Er2  1  0.250000  0.928254  0.794284  1
  Er  Er3  1  0.250000  0.571746  0.794284  1
  Er  Er4  1  0.750000  0.069197  0.204709  1
  Er  Er5  1  0.750000  0.430803  0.204709  1
  Sc  Sc6  1  0.250000  0.250000  0.846062  1
  Co  Co7  1  0.250000  0.250000  0.297185  1
  Co  Co8  1  0.750000  0.750000  0.702036  1
  Co  Co9  1  0.750000  0.250000  0.015881  1
  Co  Co10  1  0.250000  0.750000  0.988854  1
  Co  Co11  1  0.250000  0.422148  0.009966  1
  Co  Co12  1  0.250000  0.077852  0.009966  1
  Co  Co13  1  0.750000  0.586046  0.994847  1
  Co  Co14  1  0.750000  0.913954  0.994847  1
  Co  Co15  1  0.250000  0.455618  0.565531  1
  Co  Co16  1  0.250000  0.044382  0.565531  1
  Co  Co17  1  0.750000  0.546792  0.430162  1
  Co  Co18  1  0.750000  0.953208  0.430162  1
  Co  Co19  1  0.250000  0.871239  0.293932  1
  Co  Co20  1  0.250000  0.628761  0.293932  1
  Co  Co21  1  0.750000  0.126427  0.703138  1
  Co  Co22  1  0.750000  0.373573  0.703138  1
  P  P23  1  0.250000  0.250000  0.117469  1
  P  P24  1  0.750000  0.750000  0.881577  1
  P  P25  1  0.250000  0.250000  0.641049  1
  P  P26  1  0.750000  0.750000  0.352966  1
  P  P27  1  0.250000  0.439236  0.382516  1
  P  P28  1  0.250000  0.060764  0.382516  1
  P  P29  1  0.750000  0.561791  0.614622  1
  P  P30  1  0.750000  0.938209  0.614622  1
  P  P31  1  0.250000  0.905044  0.111004  1
  P  P32  1  0.250000  0.594956  0.111004  1
  P  P33  1  0.750000  0.087835  0.895534  1
  P  P34  1  0.750000  0.412165  0.895534  1
  W  W35  1  0.750000  0.750000  0.159483  1
