# generated using pymatgen
data_Li4Hf3Nb3N10
_symmetry_space_group_name_H-M   'P 1'
_cell_length_a   5.62149024
_cell_length_b   5.62148975
_cell_length_c   9.89253708
_cell_angle_alpha   86.83962281
_cell_angle_beta   86.83962179
_cell_angle_gamma   44.99479543
_symmetry_Int_Tables_number   1
_chemical_formula_structural   Li4Hf3Nb3N10
_chemical_formula_sum   'Li4 Hf3 Nb3 N10'
_cell_volume   220.63861656
_cell_formula_units_Z   1
loop_
 _symmetry_equiv_pos_site_id
 _symmetry_equiv_pos_as_xyz
  1  'x, y, z'
loop_
 _atom_site_type_symbol
 _atom_site_label
 _atom_site_symmetry_multiplicity
 _atom_site_fract_x
 _atom_site_fract_y
 _atom_site_fract_z
 _atom_site_occupancy
  Li  Li0  1  0.652563  0.652563  0.453105  1
  Li  Li1  1  0.462417  0.462417  0.847934  1
  Li  Li2  1  0.547218  0.547218  0.147730  1
  Li  Li3  1  0.366383  0.366383  0.553805  1
  Hf  Hf4  1  0.049943  0.049943  0.645325  1
  Hf  Hf5  1  0.941974  0.941974  0.351129  1
  Hf  Hf6  1  0.750078  0.750078  0.736338  1
  Nb  Nb7  1  0.244645  0.244645  0.267998  1
  Nb  Nb8  1  0.161902  0.161902  0.963982  1
  Nb  Nb9  1  0.852272  0.852272  0.032900  1
  N  N10  1  0.571490  0.571490  0.653974  1
  N  N11  1  0.417010  0.417010  0.341043  1
  N  N12  1  0.868989  0.868989  0.558618  1
  N  N13  1  0.046506  0.046506  0.142357  1
  N  N14  1  0.947071  0.947071  0.854965  1
  N  N15  1  0.129311  0.129311  0.433285  1
  N  N16  1  0.337675  0.337675  0.054158  1
  N  N17  1  0.663550  0.663550  0.953441  1
  N  N18  1  0.757255  0.757255  0.248958  1
  N  N19  1  0.231747  0.231747  0.758957  1
