# generated using pymatgen
data_Hf6CoSnAs
_symmetry_space_group_name_H-M   'P 1'
_cell_length_a   7.71607528
_cell_length_b   3.46182000
_cell_length_c   7.71607300
_cell_angle_alpha   90.00000000
_cell_angle_beta   120.00018873
_cell_angle_gamma   90.00000000
_symmetry_Int_Tables_number   1
_chemical_formula_structural   Hf6CoSnAs
_chemical_formula_sum   'Hf6 Co1 Sn1 As1'
_cell_volume   178.49541797
_cell_formula_units_Z   1
loop_
 _symmetry_equiv_pos_site_id
 _symmetry_equiv_pos_as_xyz
  1  'x, y, z'
loop_
 _atom_site_type_symbol
 _atom_site_label
 _atom_site_symmetry_multiplicity
 _atom_site_fract_x
 _atom_site_fract_y
 _atom_site_fract_z
 _atom_site_occupancy
  Hf  Hf0  1  0.586406  0.000000  0.978096  1
  Hf  Hf1  1  0.242609  0.499999  0.998135  1
  Hf  Hf2  1  0.001854  0.499999  0.244470  1
  Hf  Hf3  1  0.391684  0.000000  0.413583  1
  Hf  Hf4  1  0.021893  0.000000  0.608305  1
  Hf  Hf5  1  0.755520  0.499999  0.757383  1
  Co  Co6  1  0.999996  0.000000  0.999995  1
  Sn  Sn7  1  0.666663  0.499999  0.333330  1
  As  As8  1  0.333328  0.499999  0.666663  1
