# generated using pymatgen
data_Hf18Ta6ReAs2W
_symmetry_space_group_name_H-M   'P 1'
_cell_length_a   8.74997023
_cell_length_b   8.74996953
_cell_length_c   8.84179809
_cell_angle_alpha   89.99917580
_cell_angle_beta   90.00082142
_cell_angle_gamma   120.01020042
_symmetry_Int_Tables_number   1
_chemical_formula_structural   Hf18Ta6ReAs2W
_chemical_formula_sum   'Hf18 Ta6 Re1 As2 W1'
_cell_volume   586.19173701
_cell_formula_units_Z   1
loop_
 _symmetry_equiv_pos_site_id
 _symmetry_equiv_pos_as_xyz
  1  'x, y, z'
loop_
 _atom_site_type_symbol
 _atom_site_label
 _atom_site_symmetry_multiplicity
 _atom_site_fract_x
 _atom_site_fract_y
 _atom_site_fract_z
 _atom_site_occupancy
  Hf  Hf0  1  0.803347  0.606744  0.546260  1
  Hf  Hf1  1  0.803071  0.196929  0.545918  1
  Hf  Hf2  1  0.393256  0.196653  0.546260  1
  Hf  Hf3  1  0.196653  0.393256  0.453740  1
  Hf  Hf4  1  0.196929  0.803071  0.454082  1
  Hf  Hf5  1  0.606744  0.803347  0.453740  1
  Hf  Hf6  1  0.195784  0.391535  0.047241  1
  Hf  Hf7  1  0.195999  0.804001  0.047055  1
  Hf  Hf8  1  0.608465  0.804216  0.047241  1
  Hf  Hf9  1  0.804216  0.608465  0.952759  1
  Hf  Hf10  1  0.804001  0.195999  0.952945  1
  Hf  Hf11  1  0.391535  0.195784  0.952759  1
  Hf  Hf12  1  0.460655  0.921274  0.751038  1
  Hf  Hf13  1  0.460585  0.539415  0.751061  1
  Hf  Hf14  1  0.078726  0.539345  0.751038  1
  Hf  Hf15  1  0.539345  0.078726  0.248962  1
  Hf  Hf16  1  0.539415  0.460585  0.248939  1
  Hf  Hf17  1  0.921274  0.460655  0.248962  1
  Ta  Ta18  1  0.110614  0.221467  0.750860  1
  Ta  Ta19  1  0.110760  0.889240  0.750867  1
  Ta  Ta20  1  0.778533  0.889386  0.750860  1
  Ta  Ta21  1  0.889386  0.778533  0.249140  1
  Ta  Ta22  1  0.889240  0.110760  0.249133  1
  Ta  Ta23  1  0.221467  0.110614  0.249140  1
  Re  Re24  1  0.000000  0.000000  0.000000  1
  As  As25  1  0.666575  0.333425  0.751023  1
  As  As26  1  0.333425  0.666575  0.248977  1
  W  W27  1  0.000000  0.000000  0.500000  1
