# generated using pymatgen
data_Tb4MnCo4
_symmetry_space_group_name_H-M   'P 1'
_cell_length_a   5.52184857
_cell_length_b   5.52184881
_cell_length_c   8.86087100
_cell_angle_alpha   71.74212444
_cell_angle_beta   71.74212363
_cell_angle_gamma   42.49502552
_symmetry_Int_Tables_number   1
_chemical_formula_structural   Tb4MnCo4
_chemical_formula_sum   'Tb4 Mn1 Co4'
_cell_volume   171.89021316
_cell_formula_units_Z   1
loop_
 _symmetry_equiv_pos_site_id
 _symmetry_equiv_pos_as_xyz
  1  'x, y, z'
loop_
 _atom_site_type_symbol
 _atom_site_label
 _atom_site_symmetry_multiplicity
 _atom_site_fract_x
 _atom_site_fract_y
 _atom_site_fract_z
 _atom_site_occupancy
  Tb  Tb0  1  0.742782  0.742782  0.661206  1
  Tb  Tb1  1  0.257218  0.257218  0.338794  1
  Tb  Tb2  1  0.390575  0.390575  0.884574  1
  Tb  Tb3  1  0.609425  0.609425  0.115426  1
  Mn  Mn4  1  0.500000  0.500000  0.500000  1
  Co  Co5  1  0.033527  0.033527  0.640568  1
  Co  Co6  1  0.966473  0.966473  0.359432  1
  Co  Co7  1  0.089974  0.089974  0.878491  1
  Co  Co8  1  0.910026  0.910026  0.121509  1
