# generated using pymatgen
data_Sb2PdO6
_symmetry_space_group_name_H-M   'P 1'
_cell_length_a   6.78661432
_cell_length_b   6.77811277
_cell_length_c   10.67967498
_cell_angle_alpha   108.50221559
_cell_angle_beta   71.47659425
_cell_angle_gamma   89.99581258
_symmetry_Int_Tables_number   1
_chemical_formula_structural   Sb2PdO6
_chemical_formula_sum   'Sb8 Pd4 O24'
_cell_volume   438.95204011
_cell_formula_units_Z   4
loop_
 _symmetry_equiv_pos_site_id
 _symmetry_equiv_pos_as_xyz
  1  'x, y, z'
loop_
 _atom_site_type_symbol
 _atom_site_label
 _atom_site_symmetry_multiplicity
 _atom_site_fract_x
 _atom_site_fract_y
 _atom_site_fract_z
 _atom_site_occupancy
  Sb  Sb0  1  0.999288  0.000701  0.001414  1
  Sb  Sb1  1  0.499267  0.500714  0.001454  1
  Sb  Sb2  1  0.667315  0.332709  0.665295  1
  Sb  Sb3  1  0.167315  0.832701  0.665277  1
  Sb  Sb4  1  0.417396  0.082577  0.165311  1
  Sb  Sb5  1  0.917411  0.582561  0.165281  1
  Sb  Sb6  1  0.249309  0.250704  0.501402  1
  Sb  Sb7  1  0.749301  0.750712  0.501417  1
  Pd  Pd8  1  0.333421  0.666589  0.333303  1
  Pd  Pd9  1  0.083272  0.416778  0.833344  1
  Pd  Pd10  1  0.833405  0.166595  0.333321  1
  Pd  Pd11  1  0.583300  0.916735  0.833286  1
  O  O12  1  0.396323  0.416659  0.833342  1
  O  O13  1  0.896172  0.916651  0.833327  1
  O  O14  1  0.333343  0.353714  0.333313  1
  O  O15  1  0.833332  0.853430  0.333335  1
  O  O16  1  0.333321  0.979473  0.333333  1
  O  O17  1  0.833314  0.479778  0.333350  1
  O  O18  1  0.770211  0.416656  0.833340  1
  O  O19  1  0.270381  0.916646  0.833327  1
  O  O20  1  0.720088  0.078505  0.156932  1
  O  O21  1  0.220076  0.578539  0.157000  1
  O  O22  1  0.543698  0.254818  0.509763  1
  O  O23  1  0.043720  0.754797  0.509725  1
  O  O24  1  0.495114  0.206253  0.009867  1
  O  O25  1  0.995101  0.706221  0.009885  1
  O  O26  1  0.171509  0.529796  0.656886  1
  O  O27  1  0.671531  0.029769  0.656846  1
  O  O28  1  0.495184  0.803574  0.009693  1
  O  O29  1  0.995171  0.303622  0.009713  1
  O  O30  1  0.171509  0.127241  0.656900  1
  O  O31  1  0.671531  0.627231  0.656860  1
  O  O32  1  0.123104  0.078457  0.156811  1
  O  O33  1  0.623046  0.578486  0.156876  1
  O  O34  1  0.946606  0.254817  0.509756  1
  O  O35  1  0.446616  0.754791  0.509710  1
