# generated using pymatgen
data_CePr3(ZnIr)4
_symmetry_space_group_name_H-M   'P 1'
_cell_length_a   4.06632500
_cell_length_b   7.29226800
_cell_length_c   16.62762200
_cell_angle_alpha   90.00000000
_cell_angle_beta   90.00000000
_cell_angle_gamma   90.00000000
_symmetry_Int_Tables_number   1
_chemical_formula_structural   CePr3(ZnIr)4
_chemical_formula_sum   'Ce2 Pr6 Zn8 Ir8'
_cell_volume   493.05441356
_cell_formula_units_Z   2
loop_
 _symmetry_equiv_pos_site_id
 _symmetry_equiv_pos_as_xyz
  1  'x, y, z'
loop_
 _atom_site_type_symbol
 _atom_site_label
 _atom_site_symmetry_multiplicity
 _atom_site_fract_x
 _atom_site_fract_y
 _atom_site_fract_z
 _atom_site_occupancy
  Ce  Ce0  1  0.750000  0.449291  0.217172  1
  Ce  Ce1  1  0.750000  0.949291  0.282828  1
  Pr  Pr2  1  0.750000  0.831227  0.061479  1
  Pr  Pr3  1  0.250000  0.046162  0.716691  1
  Pr  Pr4  1  0.250000  0.168515  0.941650  1
  Pr  Pr5  1  0.250000  0.546162  0.783309  1
  Pr  Pr6  1  0.750000  0.331227  0.438521  1
  Pr  Pr7  1  0.250000  0.668515  0.558350  1
  Zn  Zn8  1  0.250000  0.002604  0.438438  1
  Zn  Zn9  1  0.750000  0.503001  0.939982  1
  Zn  Zn10  1  0.750000  0.003001  0.560018  1
  Zn  Zn11  1  0.250000  0.621446  0.349097  1
  Zn  Zn12  1  0.750000  0.377367  0.649935  1
  Zn  Zn13  1  0.750000  0.877367  0.850065  1
  Zn  Zn14  1  0.250000  0.502604  0.061562  1
  Zn  Zn15  1  0.250000  0.121446  0.150903  1
  Ir  Ir16  1  0.250000  0.244632  0.564021  1
  Ir  Ir17  1  0.750000  0.267904  0.071097  1
  Ir  Ir18  1  0.250000  0.235327  0.304857  1
  Ir  Ir19  1  0.750000  0.252527  0.815379  1
  Ir  Ir20  1  0.250000  0.744632  0.935979  1
  Ir  Ir21  1  0.750000  0.752527  0.684621  1
  Ir  Ir22  1  0.750000  0.767904  0.428903  1
  Ir  Ir23  1  0.250000  0.735327  0.195143  1
