# generated using pymatgen
data_LiDy7Ho9Cd3Co4
_symmetry_space_group_name_H-M   'P 1'
_cell_length_a   9.44664672
_cell_length_b   9.45649947
_cell_length_c   9.48078963
_cell_angle_alpha   59.97886569
_cell_angle_beta   59.98056289
_cell_angle_gamma   59.91223041
_symmetry_Int_Tables_number   1
_chemical_formula_structural   LiDy7Ho9Cd3Co4
_chemical_formula_sum   'Li1 Dy7 Ho9 Cd3 Co4'
_cell_volume   598.29535479
_cell_formula_units_Z   1
loop_
 _symmetry_equiv_pos_site_id
 _symmetry_equiv_pos_as_xyz
  1  'x, y, z'
loop_
 _atom_site_type_symbol
 _atom_site_label
 _atom_site_symmetry_multiplicity
 _atom_site_fract_x
 _atom_site_fract_y
 _atom_site_fract_z
 _atom_site_occupancy
  Li  Li0  1  0.570855  0.571028  0.286040  1
  Dy  Dy1  1  0.937311  0.937414  0.562671  1
  Dy  Dy2  1  0.813180  0.185596  0.185720  1
  Dy  Dy3  1  0.936986  0.563756  0.563183  1
  Dy  Dy4  1  0.939725  0.560600  0.939185  1
  Dy  Dy5  1  0.813727  0.813657  0.184318  1
  Dy  Dy6  1  0.343742  0.343897  0.346341  1
  Dy  Dy7  1  0.560285  0.939661  0.938976  1
  Ho  Ho8  1  0.563010  0.937458  0.563124  1
  Ho  Ho9  1  0.188692  0.812237  0.809690  1
  Ho  Ho10  1  0.188969  0.188256  0.809253  1
  Ho  Ho11  1  0.347887  0.347588  0.957699  1
  Ho  Ho12  1  0.344964  0.965257  0.347571  1
  Ho  Ho13  1  0.812177  0.188439  0.809565  1
  Ho  Ho14  1  0.560651  0.561588  0.938729  1
  Ho  Ho15  1  0.185872  0.812936  0.185638  1
  Ho  Ho16  1  0.965533  0.344722  0.347748  1
  Cd  Cd17  1  0.258128  0.581544  0.577613  1
  Cd  Cd18  1  0.581627  0.582100  0.576878  1
  Cd  Cd19  1  0.581622  0.257733  0.577984  1
  Co  Co20  1  0.577445  0.142869  0.138691  1
  Co  Co21  1  0.142559  0.142529  0.137793  1
  Co  Co22  1  0.143083  0.577716  0.138134  1
  Co  Co23  1  0.141971  0.141422  0.577463  1
