# generated using pymatgen
data_Lu5ZnSe4
_symmetry_space_group_name_H-M   'P 1'
_cell_length_a   6.94471595
_cell_length_b   6.94471688
_cell_length_c   6.94471700
_cell_angle_alpha   99.56661779
_cell_angle_beta   99.56661908
_cell_angle_gamma   131.88297411
_symmetry_Int_Tables_number   1
_chemical_formula_structural   Lu5ZnSe4
_chemical_formula_sum   'Lu5 Zn1 Se4'
_cell_volume   227.70184945
_cell_formula_units_Z   1
loop_
 _symmetry_equiv_pos_site_id
 _symmetry_equiv_pos_as_xyz
  1  'x, y, z'
loop_
 _atom_site_type_symbol
 _atom_site_label
 _atom_site_symmetry_multiplicity
 _atom_site_fract_x
 _atom_site_fract_y
 _atom_site_fract_z
 _atom_site_occupancy
  Lu  Lu0  1  0.402886  0.791505  0.194368  1
  Lu  Lu1  1  0.000000  0.000000  0.000000  1
  Lu  Lu2  1  0.597114  0.208495  0.805632  1
  Lu  Lu3  1  0.208541  0.403005  0.611472  1
  Lu  Lu4  1  0.791459  0.596995  0.388528  1
  Zn  Zn5  1  0.500000  0.500000  0.000000  1
  Se  Se6  1  0.095772  0.696076  0.791838  1
  Se  Se7  1  0.696061  0.904269  0.600320  1
  Se  Se8  1  0.303939  0.095731  0.399680  1
  Se  Se9  1  0.904228  0.303924  0.208162  1
