# generated using pymatgen
data_Li4La3EuRh4
_symmetry_space_group_name_H-M   'P 1'
_cell_length_a   4.02418000
_cell_length_b   7.14497335
_cell_length_c   8.70225200
_cell_angle_alpha   90.24506241
_cell_angle_beta   90.00000000
_cell_angle_gamma   90.00000000
_symmetry_Int_Tables_number   1
_chemical_formula_structural   Li4La3EuRh4
_chemical_formula_sum   'Li4 La3 Eu1 Rh4'
_cell_volume   250.21059451
_cell_formula_units_Z   1
loop_
 _symmetry_equiv_pos_site_id
 _symmetry_equiv_pos_as_xyz
  1  'x, y, z'
loop_
 _atom_site_type_symbol
 _atom_site_label
 _atom_site_symmetry_multiplicity
 _atom_site_fract_x
 _atom_site_fract_y
 _atom_site_fract_z
 _atom_site_occupancy
  Li  Li0  1  0.750000  0.375970  0.047953  1
  Li  Li1  1  0.250000  0.619810  0.947642  1
  Li  Li2  1  0.750000  0.876892  0.451233  1
  Li  Li3  1  0.250000  0.126383  0.550097  1
  La  La4  1  0.250000  0.042332  0.178296  1
  La  La5  1  0.750000  0.955173  0.817132  1
  La  La6  1  0.250000  0.544712  0.322052  1
  Eu  Eu7  1  0.750000  0.455970  0.681421  1
  Rh  Rh8  1  0.250000  0.757292  0.633391  1
  Rh  Rh9  1  0.750000  0.258613  0.361194  1
  Rh  Rh10  1  0.250000  0.229517  0.874836  1
  Rh  Rh11  1  0.750000  0.757336  0.134752  1
