# generated using pymatgen
data_Er12Mn(Si4Pt)3
_symmetry_space_group_name_H-M   'P 1'
_cell_length_a   4.21220000
_cell_length_b   10.66752517
_cell_length_c   12.24967635
_cell_angle_alpha   90.05382282
_cell_angle_beta   90.00000000
_cell_angle_gamma   90.00000000
_symmetry_Int_Tables_number   1
_chemical_formula_structural   Er12Mn(Si4Pt)3
_chemical_formula_sum   'Er12 Mn1 Si12 Pt3'
_cell_volume   550.42364637
_cell_formula_units_Z   1
loop_
 _symmetry_equiv_pos_site_id
 _symmetry_equiv_pos_as_xyz
  1  'x, y, z'
loop_
 _atom_site_type_symbol
 _atom_site_label
 _atom_site_symmetry_multiplicity
 _atom_site_fract_x
 _atom_site_fract_y
 _atom_site_fract_z
 _atom_site_occupancy
  Er  Er0  1  0.250000  0.877717  0.020646  1
  Er  Er1  1  0.250000  0.621509  0.522562  1
  Er  Er2  1  0.750000  0.120126  0.979587  1
  Er  Er3  1  0.750000  0.378244  0.478322  1
  Er  Er4  1  0.250000  0.921300  0.600778  1
  Er  Er5  1  0.250000  0.580079  0.103104  1
  Er  Er6  1  0.750000  0.079221  0.397150  1
  Er  Er7  1  0.750000  0.420818  0.899852  1
  Er  Er8  1  0.250000  0.662642  0.800299  1
  Er  Er9  1  0.250000  0.838048  0.301039  1
  Er  Er10  1  0.750000  0.339117  0.197660  1
  Er  Er11  1  0.750000  0.159642  0.698492  1
  Mn  Mn12  1  0.250000  0.389993  0.681292  1
  Si  Si13  1  0.250000  0.016571  0.823322  1
  Si  Si14  1  0.250000  0.483676  0.322928  1
  Si  Si15  1  0.750000  0.982695  0.176614  1
  Si  Si16  1  0.750000  0.516102  0.677693  1
  Si  Si17  1  0.250000  0.247934  0.841897  1
  Si  Si18  1  0.250000  0.254133  0.343288  1
  Si  Si19  1  0.750000  0.753727  0.156553  1
  Si  Si20  1  0.750000  0.749116  0.656260  1
  Si  Si21  1  0.250000  0.197350  0.541482  1
  Si  Si22  1  0.250000  0.302627  0.040485  1
  Si  Si23  1  0.750000  0.805661  0.458720  1
  Si  Si24  1  0.750000  0.693838  0.959069  1
  Pt  Pt25  1  0.250000  0.109159  0.181705  1
  Pt  Pt26  1  0.750000  0.609944  0.318953  1
  Pt  Pt27  1  0.750000  0.889011  0.820252  1
