# generated using pymatgen
data_TbLu2Mg3AgPb2
_symmetry_space_group_name_H-M   'P 1'
_cell_length_a   7.50271221
_cell_length_b   7.50271086
_cell_length_c   4.56533200
_cell_angle_alpha   90.00000000
_cell_angle_beta   90.00000000
_cell_angle_gamma   120.34605771
_symmetry_Int_Tables_number   1
_chemical_formula_structural   TbLu2Mg3AgPb2
_chemical_formula_sum   'Tb1 Lu2 Mg3 Ag1 Pb2'
_cell_volume   221.77596513
_cell_formula_units_Z   1
loop_
 _symmetry_equiv_pos_site_id
 _symmetry_equiv_pos_as_xyz
  1  'x, y, z'
loop_
 _atom_site_type_symbol
 _atom_site_label
 _atom_site_symmetry_multiplicity
 _atom_site_fract_x
 _atom_site_fract_y
 _atom_site_fract_z
 _atom_site_occupancy
  Tb  Tb0  1  0.417191  0.417191  0.000000  1
  Lu  Lu1  1  0.586578  0.001023  0.000000  1
  Lu  Lu2  1  0.001023  0.586578  0.000000  1
  Mg  Mg3  1  0.232635  0.000809  0.500000  1
  Mg  Mg4  1  0.000809  0.232635  0.500000  1
  Mg  Mg5  1  0.765754  0.765754  0.500000  1
  Ag  Ag6  1  0.995067  0.995067  0.000000  1
  Pb  Pb7  1  0.331542  0.669402  0.500000  1
  Pb  Pb8  1  0.669402  0.331542  0.500000  1
