# generated using pymatgen
data_Sc2InB2Rh5
_symmetry_space_group_name_H-M   'P 1'
_cell_length_a   9.47481200
_cell_length_b   9.47481200
_cell_length_c   3.15138400
_cell_angle_alpha   90.00000000
_cell_angle_beta   90.00000000
_cell_angle_gamma   90.00000000
_symmetry_Int_Tables_number   1
_chemical_formula_structural   Sc2InB2Rh5
_chemical_formula_sum   'Sc4 In2 B4 Rh10'
_cell_volume   282.90624121
_cell_formula_units_Z   2
loop_
 _symmetry_equiv_pos_site_id
 _symmetry_equiv_pos_as_xyz
  1  'x, y, z'
loop_
 _atom_site_type_symbol
 _atom_site_label
 _atom_site_symmetry_multiplicity
 _atom_site_fract_x
 _atom_site_fract_y
 _atom_site_fract_z
 _atom_site_occupancy
  Sc  Sc0  1  0.825370  0.325370  0.000000  1
  Sc  Sc1  1  0.325370  0.174630  0.000000  1
  Sc  Sc2  1  0.674630  0.825370  0.000000  1
  Sc  Sc3  1  0.174630  0.674630  0.000000  1
  In  In4  1  0.000000  0.000000  0.000000  1
  In  In5  1  0.500000  0.500000  0.000000  1
  B  B6  1  0.622615  0.122615  0.000000  1
  B  B7  1  0.122615  0.377385  0.000000  1
  B  B8  1  0.877385  0.622615  0.000000  1
  B  B9  1  0.377385  0.877385  0.000000  1
  Rh  Rh10  1  0.071885  0.224258  0.500000  1
  Rh  Rh11  1  0.224258  0.928115  0.500000  1
  Rh  Rh12  1  0.775742  0.071885  0.500000  1
  Rh  Rh13  1  0.928115  0.775742  0.500000  1
  Rh  Rh14  1  0.428115  0.724258  0.500000  1
  Rh  Rh15  1  0.571885  0.275742  0.500000  1
  Rh  Rh16  1  0.724258  0.571885  0.500000  1
  Rh  Rh17  1  0.275742  0.428115  0.500000  1
  Rh  Rh18  1  0.500000  0.000000  0.500000  1
  Rh  Rh19  1  0.000000  0.500000  0.500000  1
