# generated using pymatgen
data_NbGaI20
_symmetry_space_group_name_H-M   'P 1'
_cell_length_a   7.43649699
_cell_length_b   15.56354110
_cell_length_c   14.58255326
_cell_angle_alpha   111.53637101
_cell_angle_beta   101.71890864
_cell_angle_gamma   78.75421080
_symmetry_Int_Tables_number   1
_chemical_formula_structural   NbGaI20
_chemical_formula_sum   'Nb1 Ga1 I20'
_cell_volume   1523.70028635
_cell_formula_units_Z   1
loop_
 _symmetry_equiv_pos_site_id
 _symmetry_equiv_pos_as_xyz
  1  'x, y, z'
loop_
 _atom_site_type_symbol
 _atom_site_label
 _atom_site_symmetry_multiplicity
 _atom_site_fract_x
 _atom_site_fract_y
 _atom_site_fract_z
 _atom_site_occupancy
  Nb  Nb0  1  0.612187  0.648239  0.496498  1
  Ga  Ga1  1  0.382959  0.258167  0.494578  1
  I  I2  1  0.534765  0.831901  0.822671  1
  I  I3  1  0.908869  0.594485  0.401639  1
  I  I4  1  0.228274  0.414902  0.593628  1
  I  I5  1  0.455552  0.145858  0.606542  1
  I  I6  1  0.689627  0.555859  0.622216  1
  I  I7  1  0.495416  0.784458  0.374588  1
  I  I8  1  0.447533  0.184935  0.190239  1
  I  I9  1  0.416329  0.522299  0.348514  1
  I  I10  1  0.790543  0.799183  0.640379  1
  I  I11  1  0.101079  0.806449  0.171478  1
  I  I12  1  0.166291  0.174294  0.333347  1
  I  I13  1  0.748911  0.191801  0.105442  1
  I  I14  1  0.776624  0.791019  0.272455  1
  I  I15  1  0.157459  0.193374  0.727897  1
  I  I16  1  0.849696  0.823469  0.000217  1
  I  I17  1  0.874010  0.232012  0.857280  1
  I  I18  1  0.282121  0.758284  0.548491  1
  I  I19  1  0.144552  0.206174  0.025142  1
  I  I20  1  0.230344  0.834238  0.911783  1
  I  I21  1  0.706861  0.248602  0.454973  1
