# generated using pymatgen
data_Nd5Hg2Os
_symmetry_space_group_name_H-M   'P 1'
_cell_length_a   7.76965700
_cell_length_b   9.60628800
_cell_length_c   12.46569600
_cell_angle_alpha   90.00000000
_cell_angle_beta   90.00000000
_cell_angle_gamma   90.00000000
_symmetry_Int_Tables_number   1
_chemical_formula_structural   Nd5Hg2Os
_chemical_formula_sum   'Nd20 Hg8 Os4'
_cell_volume   930.40916809
_cell_formula_units_Z   4
loop_
 _symmetry_equiv_pos_site_id
 _symmetry_equiv_pos_as_xyz
  1  'x, y, z'
loop_
 _atom_site_type_symbol
 _atom_site_label
 _atom_site_symmetry_multiplicity
 _atom_site_fract_x
 _atom_site_fract_y
 _atom_site_fract_z
 _atom_site_occupancy
  Nd  Nd0  1  0.839507  0.750000  0.781098  1
  Nd  Nd1  1  0.160493  0.250000  0.218902  1
  Nd  Nd2  1  0.339507  0.250000  0.718902  1
  Nd  Nd3  1  0.660493  0.750000  0.281098  1
  Nd  Nd4  1  0.375924  0.750000  0.690725  1
  Nd  Nd5  1  0.624076  0.250000  0.309275  1
  Nd  Nd6  1  0.875924  0.250000  0.809275  1
  Nd  Nd7  1  0.124076  0.750000  0.190725  1
  Nd  Nd8  1  0.950105  0.750000  0.500556  1
  Nd  Nd9  1  0.049895  0.250000  0.499444  1
  Nd  Nd10  1  0.450105  0.250000  0.999444  1
  Nd  Nd11  1  0.549895  0.750000  0.000556  1
  Nd  Nd12  1  0.676871  0.033551  0.578753  1
  Nd  Nd13  1  0.323129  0.966449  0.421247  1
  Nd  Nd14  1  0.176871  0.966449  0.921247  1
  Nd  Nd15  1  0.323129  0.533551  0.421247  1
  Nd  Nd16  1  0.823129  0.033551  0.078753  1
  Nd  Nd17  1  0.676871  0.466449  0.578753  1
  Nd  Nd18  1  0.823129  0.466449  0.078753  1
  Nd  Nd19  1  0.176871  0.533551  0.921247  1
  Hg  Hg20  1  0.577780  0.491531  0.835526  1
  Hg  Hg21  1  0.422220  0.508469  0.164474  1
  Hg  Hg22  1  0.077780  0.508469  0.664474  1
  Hg  Hg23  1  0.422220  0.991531  0.164474  1
  Hg  Hg24  1  0.922220  0.491531  0.335526  1
  Hg  Hg25  1  0.577780  0.008469  0.835526  1
  Hg  Hg26  1  0.922220  0.008469  0.335526  1
  Hg  Hg27  1  0.077780  0.991531  0.664474  1
  Os  Os28  1  0.572180  0.750000  0.503157  1
  Os  Os29  1  0.427820  0.250000  0.496843  1
  Os  Os30  1  0.072180  0.250000  0.996843  1
  Os  Os31  1  0.927820  0.750000  0.003157  1
