# generated using pymatgen
data_TbDyB24
_symmetry_space_group_name_H-M   'P 1'
_cell_length_a   5.30583300
_cell_length_b   5.30583188
_cell_length_c   9.19162005
_cell_angle_alpha   73.22443166
_cell_angle_beta   90.00000000
_cell_angle_gamma   120.00000073
_symmetry_Int_Tables_number   1
_chemical_formula_structural   TbDyB24
_chemical_formula_sum   'Tb1 Dy1 B24'
_cell_volume   211.28233632
_cell_formula_units_Z   1
loop_
 _symmetry_equiv_pos_site_id
 _symmetry_equiv_pos_as_xyz
  1  'x, y, z'
loop_
 _atom_site_type_symbol
 _atom_site_label
 _atom_site_symmetry_multiplicity
 _atom_site_fract_x
 _atom_site_fract_y
 _atom_site_fract_z
 _atom_site_occupancy
  Tb  Tb0  1  0.000000  0.000000  0.000000  1
  Dy  Dy1  1  0.500000  0.000000  0.500000  1
  B  B2  1  0.912040  0.499737  0.250292  1
  B  B3  1  0.412302  0.500263  0.749708  1
  B  B4  1  0.081105  0.500057  0.418837  1
  B  B5  1  0.581124  0.500325  0.918551  1
  B  B6  1  0.249971  0.837669  0.250292  1
  B  B7  1  0.750029  0.837989  0.749708  1
  B  B8  1  0.081105  0.162210  0.418837  1
  B  B9  1  0.581124  0.162248  0.918551  1
  B  B10  1  0.912040  0.162011  0.250292  1
  B  B11  1  0.412302  0.162331  0.749708  1
  B  B12  1  0.249971  0.162011  0.250292  1
  B  B13  1  0.750029  0.162331  0.749708  1
  B  B14  1  0.418876  0.837752  0.081449  1
  B  B15  1  0.918895  0.837790  0.581163  1
  B  B16  1  0.418876  0.499675  0.081449  1
  B  B17  1  0.918895  0.499943  0.581163  1
  B  B18  1  0.080799  0.499675  0.081449  1
  B  B19  1  0.581048  0.499943  0.581163  1
  B  B20  1  0.587698  0.499737  0.250292  1
  B  B21  1  0.087960  0.500263  0.749708  1
  B  B22  1  0.587698  0.837669  0.250292  1
  B  B23  1  0.087960  0.837989  0.749708  1
  B  B24  1  0.418952  0.500057  0.418837  1
  B  B25  1  0.919201  0.500325  0.918551  1
