# generated using pymatgen
data_Zr2PdPt2Rh2Au
_symmetry_space_group_name_H-M   'P 1'
_cell_length_a   4.07857100
_cell_length_b   4.02653600
_cell_length_c   8.08990100
_cell_angle_alpha   90.00000000
_cell_angle_beta   90.00000000
_cell_angle_gamma   90.00000000
_symmetry_Int_Tables_number   1
_chemical_formula_structural   Zr2PdPt2Rh2Au
_chemical_formula_sum   'Zr2 Pd1 Pt2 Rh2 Au1'
_cell_volume   132.85650402
_cell_formula_units_Z   1
loop_
 _symmetry_equiv_pos_site_id
 _symmetry_equiv_pos_as_xyz
  1  'x, y, z'
loop_
 _atom_site_type_symbol
 _atom_site_label
 _atom_site_symmetry_multiplicity
 _atom_site_fract_x
 _atom_site_fract_y
 _atom_site_fract_z
 _atom_site_occupancy
  Zr  Zr0  1  0.000000  0.000000  0.231254  1
  Zr  Zr1  1  0.000000  0.000000  0.768746  1
  Pd  Pd2  1  0.000000  0.500000  0.500000  1
  Pt  Pt3  1  0.500000  0.500000  0.245633  1
  Pt  Pt4  1  0.500000  0.500000  0.754367  1
  Rh  Rh5  1  0.000000  0.500000  0.000000  1
  Rh  Rh6  1  0.500000  0.000000  0.000000  1
  Au  Au7  1  0.500000  0.000000  0.500000  1
