# generated using pymatgen
data_La2PrCu5(Ni4B)2
_symmetry_space_group_name_H-M   'P 1'
_cell_length_a   5.16493534
_cell_length_b   5.14474931
_cell_length_c   10.94840303
_cell_angle_alpha   90.00818925
_cell_angle_beta   89.98370770
_cell_angle_gamma   120.12985801
_symmetry_Int_Tables_number   1
_chemical_formula_structural   La2PrCu5(Ni4B)2
_chemical_formula_sum   'La2 Pr1 Cu5 Ni8 B2'
_cell_volume   251.61742767
_cell_formula_units_Z   1
loop_
 _symmetry_equiv_pos_site_id
 _symmetry_equiv_pos_as_xyz
  1  'x, y, z'
loop_
 _atom_site_type_symbol
 _atom_site_label
 _atom_site_symmetry_multiplicity
 _atom_site_fract_x
 _atom_site_fract_y
 _atom_site_fract_z
 _atom_site_occupancy
  La  La0  1  0.999195  0.000000  0.326386  1
  La  La1  1  0.999753  0.000000  0.673670  1
  Pr  Pr2  1  0.000537  0.000000  0.000015  1
  Cu  Cu3  1  0.499263  0.000000  0.499970  1
  Cu  Cu4  1  0.331150  0.663567  0.315354  1
  Cu  Cu5  1  0.667583  0.336433  0.315354  1
  Cu  Cu6  1  0.668011  0.336283  0.684636  1
  Cu  Cu7  1  0.331727  0.663717  0.684636  1
  Ni  Ni8  1  0.499218  0.499859  0.500017  1
  Ni  Ni9  1  0.999359  0.500141  0.500017  1
  Ni  Ni10  1  0.500216  0.000000  0.127968  1
  Ni  Ni11  1  0.500297  0.500039  0.127922  1
  Ni  Ni12  1  0.000258  0.499961  0.127922  1
  Ni  Ni13  1  0.500725  0.000000  0.872038  1
  Ni  Ni14  1  0.500795  0.500083  0.872057  1
  Ni  Ni15  1  0.000712  0.499917  0.872057  1
  B  B16  1  0.333831  0.666559  0.999987  1
  B  B17  1  0.667272  0.333441  0.999987  1
