# generated using pymatgen
data_La3Sm(SeO3)6
_symmetry_space_group_name_H-M   'P 1'
_cell_length_a   7.40957871
_cell_length_b   8.46976493
_cell_length_c   9.47867170
_cell_angle_alpha   70.70789928
_cell_angle_beta   69.97345475
_cell_angle_gamma   65.95773712
_symmetry_Int_Tables_number   1
_chemical_formula_structural   La3Sm(SeO3)6
_chemical_formula_sum   'La3 Sm1 Se6 O18'
_cell_volume   497.61376200
_cell_formula_units_Z   1
loop_
 _symmetry_equiv_pos_site_id
 _symmetry_equiv_pos_as_xyz
  1  'x, y, z'
loop_
 _atom_site_type_symbol
 _atom_site_label
 _atom_site_symmetry_multiplicity
 _atom_site_fract_x
 _atom_site_fract_y
 _atom_site_fract_z
 _atom_site_occupancy
  La  La0  1  0.261374  0.266656  0.193510  1
  La  La1  1  0.335384  0.729271  0.590024  1
  La  La2  1  0.667170  0.266427  0.410983  1
  Sm  Sm3  1  0.737873  0.737207  0.805498  1
  Se  Se4  1  0.110679  0.241851  0.579419  1
  Se  Se5  1  0.424346  0.772306  0.199697  1
  Se  Se6  1  0.150337  0.756558  0.961125  1
  Se  Se7  1  0.848976  0.253310  0.032428  1
  Se  Se8  1  0.578308  0.220880  0.799079  1
  Se  Se9  1  0.888085  0.755205  0.427654  1
  O  O10  1  0.154910  0.022224  0.650699  1
  O  O11  1  0.168167  0.578154  0.112412  1
  O  O12  1  0.023553  0.710871  0.563664  1
  O  O13  1  0.336985  0.250867  0.441159  1
  O  O14  1  0.060005  0.705178  0.839935  1
  O  O15  1  0.600665  0.284928  0.144983  1
  O  O16  1  0.362691  0.208729  0.937697  1
  O  O17  1  0.365409  0.935788  0.297377  1
  O  O18  1  0.513467  0.594486  0.345789  1
  O  O19  1  0.492827  0.399146  0.652204  1
  O  O20  1  0.641414  0.055265  0.702485  1
  O  O21  1  0.635577  0.787049  0.055686  1
  O  O22  1  0.401050  0.716819  0.850458  1
  O  O23  1  0.934747  0.300647  0.158436  1
  O  O24  1  0.661400  0.751215  0.567253  1
  O  O25  1  0.970637  0.289938  0.445485  1
  O  O26  1  0.826221  0.435419  0.885290  1
  O  O27  1  0.847745  0.973607  0.349571  1
