# generated using pymatgen
data_Hf4AlV5Tc2
_symmetry_space_group_name_H-M   'P 1'
_cell_length_a   5.31571762
_cell_length_b   5.20553096
_cell_length_c   8.24485600
_cell_angle_alpha   90.00000000
_cell_angle_beta   90.00000000
_cell_angle_gamma   119.31663688
_symmetry_Int_Tables_number   1
_chemical_formula_structural   Hf4AlV5Tc2
_chemical_formula_sum   'Hf4 Al1 V5 Tc2'
_cell_volume   198.92538361
_cell_formula_units_Z   1
loop_
 _symmetry_equiv_pos_site_id
 _symmetry_equiv_pos_as_xyz
  1  'x, y, z'
loop_
 _atom_site_type_symbol
 _atom_site_label
 _atom_site_symmetry_multiplicity
 _atom_site_fract_x
 _atom_site_fract_y
 _atom_site_fract_z
 _atom_site_occupancy
  Hf  Hf0  1  0.333214  0.666607  0.434755  1
  Hf  Hf1  1  0.669184  0.334592  0.557555  1
  Hf  Hf2  1  0.669184  0.334592  0.942445  1
  Hf  Hf3  1  0.333214  0.666607  0.065245  1
  Al  Al4  1  0.638212  0.819106  0.750000  1
  V  V5  1  0.845730  0.178214  0.250000  1
  V  V6  1  0.845730  0.667516  0.250000  1
  V  V7  1  0.359844  0.179922  0.250000  1
  V  V8  1  0.141501  0.810401  0.750000  1
  V  V9  1  0.141501  0.331100  0.750000  1
  Tc  Tc10  1  0.011343  0.005671  0.500163  1
  Tc  Tc11  1  0.011343  0.005671  0.999837  1
