# generated using pymatgen
data_K4NiSb4Pt
_symmetry_space_group_name_H-M   'P 1'
_cell_length_a   8.09377260
_cell_length_b   8.09377323
_cell_length_c   6.34776542
_cell_angle_alpha   88.98433337
_cell_angle_beta   91.01567097
_cell_angle_gamma   127.65214888
_symmetry_Int_Tables_number   1
_chemical_formula_structural   K4NiSb4Pt
_chemical_formula_sum   'K4 Ni1 Sb4 Pt1'
_cell_volume   329.16788463
_cell_formula_units_Z   1
loop_
 _symmetry_equiv_pos_site_id
 _symmetry_equiv_pos_as_xyz
  1  'x, y, z'
loop_
 _atom_site_type_symbol
 _atom_site_label
 _atom_site_symmetry_multiplicity
 _atom_site_fract_x
 _atom_site_fract_y
 _atom_site_fract_z
 _atom_site_occupancy
  K  K0  1  0.601700  0.398300  0.742969  1
  K  K1  1  0.398300  0.601700  0.257031  1
  K  K2  1  0.197433  0.802567  0.748374  1
  K  K3  1  0.802567  0.197433  0.251626  1
  Ni  Ni4  1  0.000000  0.000000  0.000000  1
  Sb  Sb5  1  0.695185  0.902353  0.763536  1
  Sb  Sb6  1  0.902353  0.695185  0.236464  1
  Sb  Sb7  1  0.304815  0.097647  0.236464  1
  Sb  Sb8  1  0.097647  0.304815  0.763536  1
  Pt  Pt9  1  0.000000  0.000000  0.500000  1
