# generated using pymatgen
data_Sc12CoNi6Os5
_symmetry_space_group_name_H-M   'P 1'
_cell_length_a   4.52201100
_cell_length_b   6.41934800
_cell_length_c   13.53458201
_cell_angle_alpha   90.00000000
_cell_angle_beta   90.00461316
_cell_angle_gamma   90.00000000
_symmetry_Int_Tables_number   1
_chemical_formula_structural   Sc12CoNi6Os5
_chemical_formula_sum   'Sc12 Co1 Ni6 Os5'
_cell_volume   392.88674882
_cell_formula_units_Z   1
loop_
 _symmetry_equiv_pos_site_id
 _symmetry_equiv_pos_as_xyz
  1  'x, y, z'
loop_
 _atom_site_type_symbol
 _atom_site_label
 _atom_site_symmetry_multiplicity
 _atom_site_fract_x
 _atom_site_fract_y
 _atom_site_fract_z
 _atom_site_occupancy
  Sc  Sc0  1  0.500001  0.251244  0.000000  1
  Sc  Sc1  1  0.500001  0.748757  0.000000  1
  Sc  Sc2  1  0.999242  0.250837  0.165536  1
  Sc  Sc3  1  0.999242  0.749164  0.165536  1
  Sc  Sc4  1  0.499316  0.249354  0.333112  1
  Sc  Sc5  1  0.499316  0.750646  0.333112  1
  Sc  Sc6  1  0.000000  0.250051  0.500000  1
  Sc  Sc7  1  0.000000  0.749948  0.500000  1
  Sc  Sc8  1  0.500685  0.249354  0.666888  1
  Sc  Sc9  1  0.500685  0.750646  0.666888  1
  Sc  Sc10  1  0.000757  0.250837  0.834465  1
  Sc  Sc11  1  0.000757  0.749164  0.834465  1
  Co  Co12  1  0.000000  0.500000  0.000000  1
  Ni  Ni13  1  0.000000  0.000000  0.000000  1
  Ni  Ni14  1  0.496177  0.500000  0.167291  1
  Ni  Ni15  1  0.996987  0.000000  0.332392  1
  Ni  Ni16  1  0.500001  0.500000  0.500000  1
  Ni  Ni17  1  0.003012  0.000000  0.667608  1
  Ni  Ni18  1  0.503823  0.500000  0.832709  1
  Os  Os19  1  0.499333  0.000000  0.165157  1
  Os  Os20  1  0.999360  0.500000  0.332538  1
  Os  Os21  1  0.500001  0.000000  0.500000  1
  Os  Os22  1  0.000639  0.500000  0.667461  1
  Os  Os23  1  0.500666  0.000000  0.834843  1
