# generated using pymatgen
data_Rb2Ta3Cl7O5
_symmetry_space_group_name_H-M   'P 1'
_cell_length_a   9.74136389
_cell_length_b   9.74136427
_cell_length_c   11.20306531
_cell_angle_alpha   72.61192626
_cell_angle_beta   72.61192408
_cell_angle_gamma   54.55866488
_symmetry_Int_Tables_number   1
_chemical_formula_structural   Rb2Ta3Cl7O5
_chemical_formula_sum   'Rb4 Ta6 Cl14 O10'
_cell_volume   815.69434163
_cell_formula_units_Z   2
loop_
 _symmetry_equiv_pos_site_id
 _symmetry_equiv_pos_as_xyz
  1  'x, y, z'
loop_
 _atom_site_type_symbol
 _atom_site_label
 _atom_site_symmetry_multiplicity
 _atom_site_fract_x
 _atom_site_fract_y
 _atom_site_fract_z
 _atom_site_occupancy
  Rb  Rb0  1  0.755112  0.840721  0.853650  1
  Rb  Rb1  1  0.159279  0.244888  0.646350  1
  Rb  Rb2  1  0.244888  0.159279  0.146350  1
  Rb  Rb3  1  0.840721  0.755112  0.353650  1
  Ta  Ta4  1  0.214942  0.788289  0.529186  1
  Ta  Ta5  1  0.211711  0.785058  0.970814  1
  Ta  Ta6  1  0.785058  0.211711  0.470814  1
  Ta  Ta7  1  0.788289  0.214942  0.029186  1
  Ta  Ta8  1  0.457661  0.542339  0.250000  1
  Ta  Ta9  1  0.542339  0.457661  0.750000  1
  Cl  Cl10  1  0.059417  0.644909  0.617211  1
  Cl  Cl11  1  0.355091  0.940583  0.882789  1
  Cl  Cl12  1  0.940583  0.355091  0.382789  1
  Cl  Cl13  1  0.644909  0.059417  0.117211  1
  Cl  Cl14  1  0.359900  0.939190  0.462489  1
  Cl  Cl15  1  0.060810  0.640100  0.037511  1
  Cl  Cl16  1  0.640100  0.060810  0.537511  1
  Cl  Cl17  1  0.939190  0.359900  0.962489  1
  Cl  Cl18  1  0.288137  0.417665  0.326125  1
  Cl  Cl19  1  0.582335  0.711863  0.173875  1
  Cl  Cl20  1  0.711863  0.582335  0.673875  1
  Cl  Cl21  1  0.417665  0.288137  0.826125  1
  Cl  Cl22  1  0.089790  0.910210  0.750000  1
  Cl  Cl23  1  0.910210  0.089790  0.250000  1
  O  O24  1  0.291609  0.709008  0.378203  1
  O  O25  1  0.290992  0.708391  0.121797  1
  O  O26  1  0.708391  0.290992  0.621797  1
  O  O27  1  0.709008  0.291609  0.878203  1
  O  O28  1  0.395571  0.604612  0.626860  1
  O  O29  1  0.395388  0.604429  0.873140  1
  O  O30  1  0.604429  0.395388  0.373140  1
  O  O31  1  0.604612  0.395571  0.126860  1
  O  O32  1  0.000000  0.000000  0.500000  1
  O  O33  1  0.000000  0.000000  0.000000  1
