# generated using pymatgen
data_Rb3Er(AsSe2)6
_symmetry_space_group_name_H-M   'P 1'
_cell_length_a   9.89078300
_cell_length_b   9.89078195
_cell_length_c   8.45709100
_cell_angle_alpha   90.00000000
_cell_angle_beta   90.00000000
_cell_angle_gamma   119.99999926
_symmetry_Int_Tables_number   1
_chemical_formula_structural   Rb3Er(AsSe2)6
_chemical_formula_sum   'Rb3 Er1 As6 Se12'
_cell_volume   716.49463065
_cell_formula_units_Z   1
loop_
 _symmetry_equiv_pos_site_id
 _symmetry_equiv_pos_as_xyz
  1  'x, y, z'
loop_
 _atom_site_type_symbol
 _atom_site_label
 _atom_site_symmetry_multiplicity
 _atom_site_fract_x
 _atom_site_fract_y
 _atom_site_fract_z
 _atom_site_occupancy
  Rb  Rb0  1  0.000000  0.000000  0.000000  1
  Rb  Rb1  1  0.333333  0.666667  0.840526  1
  Rb  Rb2  1  0.666667  0.333333  0.159474  1
  Er  Er3  1  0.000000  0.000000  0.500000  1
  As  As4  1  0.291826  0.838557  0.373201  1
  As  As5  1  0.161443  0.453269  0.373201  1
  As  As6  1  0.546731  0.708174  0.373201  1
  As  As7  1  0.708174  0.161443  0.626799  1
  As  As8  1  0.838557  0.546731  0.626799  1
  As  As9  1  0.453269  0.291826  0.626799  1
  Se  Se10  1  0.263436  0.057557  0.305549  1
  Se  Se11  1  0.942443  0.205880  0.305549  1
  Se  Se12  1  0.794120  0.736564  0.305549  1
  Se  Se13  1  0.736564  0.942443  0.694451  1
  Se  Se14  1  0.057557  0.794120  0.694451  1
  Se  Se15  1  0.205880  0.263436  0.694451  1
  Se  Se16  1  0.529088  0.907044  0.212905  1
  Se  Se17  1  0.092956  0.622044  0.212905  1
  Se  Se18  1  0.377956  0.470912  0.212905  1
  Se  Se19  1  0.470912  0.092956  0.787095  1
  Se  Se20  1  0.907044  0.377956  0.787095  1
  Se  Se21  1  0.622044  0.529088  0.787095  1
