# generated using pymatgen
data_Ta6CoB4Os9
_symmetry_space_group_name_H-M   'P 1'
_cell_length_a   9.44810188
_cell_length_b   9.44810207
_cell_length_c   3.03078900
_cell_angle_alpha   90.00000000
_cell_angle_beta   90.00000000
_cell_angle_gamma   90.49398431
_symmetry_Int_Tables_number   1
_chemical_formula_structural   Ta6CoB4Os9
_chemical_formula_sum   'Ta6 Co1 B4 Os9'
_cell_volume   270.53826780
_cell_formula_units_Z   1
loop_
 _symmetry_equiv_pos_site_id
 _symmetry_equiv_pos_as_xyz
  1  'x, y, z'
loop_
 _atom_site_type_symbol
 _atom_site_label
 _atom_site_symmetry_multiplicity
 _atom_site_fract_x
 _atom_site_fract_y
 _atom_site_fract_z
 _atom_site_occupancy
  Ta  Ta0  1  0.827761  0.672239  0.000000  1
  Ta  Ta1  1  0.172239  0.327761  0.000000  1
  Ta  Ta2  1  0.320338  0.820338  0.000000  1
  Ta  Ta3  1  0.679662  0.179662  0.000000  1
  Ta  Ta4  1  0.500000  0.500000  0.000000  1
  Ta  Ta5  1  0.000000  0.000000  0.000000  1
  Co  Co6  1  0.000000  0.500000  0.500000  1
  B  B7  1  0.621129  0.878871  0.000000  1
  B  B8  1  0.378871  0.121129  0.000000  1
  B  B9  1  0.105674  0.605674  0.000000  1
  B  B10  1  0.894326  0.394326  0.000000  1
  Os  Os11  1  0.570550  0.718152  0.500000  1
  Os  Os12  1  0.429450  0.281848  0.500000  1
  Os  Os13  1  0.066934  0.773635  0.500000  1
  Os  Os14  1  0.933066  0.226365  0.500000  1
  Os  Os15  1  0.273635  0.566934  0.500000  1
  Os  Os16  1  0.726365  0.433066  0.500000  1
  Os  Os17  1  0.218152  0.070550  0.500000  1
  Os  Os18  1  0.781848  0.929450  0.500000  1
  Os  Os19  1  0.500000  0.000000  0.500000  1
