# generated using pymatgen
data_Er3Si2GeOs2
_symmetry_space_group_name_H-M   'P 1'
_cell_length_a   5.71163139
_cell_length_b   5.71163108
_cell_length_c   13.74875400
_cell_angle_alpha   90.00000000
_cell_angle_beta   90.00000000
_cell_angle_gamma   137.05591086
_symmetry_Int_Tables_number   1
_chemical_formula_structural   Er3Si2GeOs2
_chemical_formula_sum   'Er6 Si4 Ge2 Os4'
_cell_volume   305.57096087
_cell_formula_units_Z   2
loop_
 _symmetry_equiv_pos_site_id
 _symmetry_equiv_pos_as_xyz
  1  'x, y, z'
loop_
 _atom_site_type_symbol
 _atom_site_label
 _atom_site_symmetry_multiplicity
 _atom_site_fract_x
 _atom_site_fract_y
 _atom_site_fract_z
 _atom_site_occupancy
  Er  Er0  1  0.925808  0.074192  0.386357  1
  Er  Er1  1  0.074192  0.925808  0.613643  1
  Er  Er2  1  0.925808  0.074192  0.113643  1
  Er  Er3  1  0.074192  0.925808  0.886357  1
  Er  Er4  1  0.645418  0.354582  0.250000  1
  Er  Er5  1  0.354582  0.645418  0.750000  1
  Si  Si6  1  0.616270  0.383730  0.461548  1
  Si  Si7  1  0.383730  0.616270  0.538452  1
  Si  Si8  1  0.616270  0.383730  0.038452  1
  Si  Si9  1  0.383730  0.616270  0.961548  1
  Ge  Ge10  1  0.336826  0.663174  0.250000  1
  Ge  Ge11  1  0.663174  0.336826  0.750000  1
  Os  Os12  1  0.788695  0.211305  0.919840  1
  Os  Os13  1  0.211305  0.788695  0.080160  1
  Os  Os14  1  0.788695  0.211305  0.580160  1
  Os  Os15  1  0.211305  0.788695  0.419840  1
