# generated using pymatgen
data_Li3YbPr2Pt3
_symmetry_space_group_name_H-M   'P 1'
_cell_length_a   7.30117950
_cell_length_b   7.30117868
_cell_length_c   4.16327600
_cell_angle_alpha   90.00000000
_cell_angle_beta   90.00000000
_cell_angle_gamma   119.94333045
_symmetry_Int_Tables_number   1
_chemical_formula_structural   Li3YbPr2Pt3
_chemical_formula_sum   'Li3 Yb1 Pr2 Pt3'
_cell_volume   192.30897543
_cell_formula_units_Z   1
loop_
 _symmetry_equiv_pos_site_id
 _symmetry_equiv_pos_as_xyz
  1  'x, y, z'
loop_
 _atom_site_type_symbol
 _atom_site_label
 _atom_site_symmetry_multiplicity
 _atom_site_fract_x
 _atom_site_fract_y
 _atom_site_fract_z
 _atom_site_occupancy
  Li  Li0  1  0.992056  0.767546  0.500000  1
  Li  Li1  1  0.235263  0.235263  0.500000  1
  Li  Li2  1  0.767546  0.992056  0.500000  1
  Yb  Yb3  1  0.591057  0.591057  0.000000  1
  Pr  Pr4  1  0.409866  0.001276  0.000000  1
  Pr  Pr5  1  0.001276  0.409866  0.000000  1
  Pt  Pt6  1  0.667485  0.334616  0.500000  1
  Pt  Pt7  1  0.000834  0.000834  0.000000  1
  Pt  Pt8  1  0.334616  0.667485  0.500000  1
