# generated using pymatgen
data_Y3Er(Si5Pt3)2
_symmetry_space_group_name_H-M   'P 1'
_cell_length_a   8.15327991
_cell_length_b   8.14993692
_cell_length_c   8.14993717
_cell_angle_alpha   136.23779394
_cell_angle_beta   104.67118832
_cell_angle_gamma   91.39804479
_symmetry_Int_Tables_number   1
_chemical_formula_structural   Y3Er(Si5Pt3)2
_chemical_formula_sum   'Y3 Er1 Si10 Pt6'
_cell_volume   344.52969497
_cell_formula_units_Z   1
loop_
 _symmetry_equiv_pos_site_id
 _symmetry_equiv_pos_as_xyz
  1  'x, y, z'
loop_
 _atom_site_type_symbol
 _atom_site_label
 _atom_site_symmetry_multiplicity
 _atom_site_fract_x
 _atom_site_fract_y
 _atom_site_fract_z
 _atom_site_occupancy
  Y  Y0  1  0.641184  0.370421  0.270763  1
  Y  Y1  1  0.358836  0.629520  0.729315  1
  Y  Y2  1  0.099777  0.870449  0.229328  1
  Er  Er3  1  0.900222  0.129735  0.770486  1
  Si  Si4  1  0.271684  0.521474  0.249399  1
  Si  Si5  1  0.728186  0.477839  0.750072  1
  Si  Si6  1  0.728186  0.978113  0.250347  1
  Si  Si7  1  0.271684  0.022284  0.750210  1
  Si  Si8  1  0.460547  0.111886  0.348661  1
  Si  Si9  1  0.539733  0.888261  0.651473  1
  Si  Si10  1  0.763386  0.611928  0.151458  1
  Si  Si11  1  0.236493  0.387900  0.848592  1
  Si  Si12  1  0.999911  0.249691  0.249310  1
  Si  Si13  1  0.999911  0.750601  0.750220  1
  Pt  Pt14  1  0.249484  0.137313  0.112169  1
  Pt  Pt15  1  0.750657  0.862850  0.887807  1
  Pt  Pt16  1  0.025058  0.637323  0.387735  1
  Pt  Pt17  1  0.974691  0.362388  0.612303  1
  Pt  Pt18  1  0.500187  0.249753  0.749916  1
  Pt  Pt19  1  0.500187  0.750271  0.250434  1
