# generated using pymatgen
data_RbIOF4
_symmetry_space_group_name_H-M   'P 1'
_cell_length_a   5.96653300
_cell_length_b   6.17066500
_cell_length_c   15.28161000
_cell_angle_alpha   90.00000000
_cell_angle_beta   90.00000000
_cell_angle_gamma   90.00000000
_symmetry_Int_Tables_number   1
_chemical_formula_structural   RbIOF4
_chemical_formula_sum   'Rb4 I4 O4 F16'
_cell_volume   562.63031483
_cell_formula_units_Z   4
loop_
 _symmetry_equiv_pos_site_id
 _symmetry_equiv_pos_as_xyz
  1  'x, y, z'
loop_
 _atom_site_type_symbol
 _atom_site_label
 _atom_site_symmetry_multiplicity
 _atom_site_fract_x
 _atom_site_fract_y
 _atom_site_fract_z
 _atom_site_occupancy
  Rb  Rb0  1  0.750000  0.773717  0.895829  1
  Rb  Rb1  1  0.750000  0.273717  0.604171  1
  Rb  Rb2  1  0.250000  0.726283  0.395829  1
  Rb  Rb3  1  0.250000  0.226283  0.104171  1
  I  I4  1  0.750000  0.772760  0.160081  1
  I  I5  1  0.750000  0.272760  0.339919  1
  I  I6  1  0.250000  0.227240  0.839919  1
  I  I7  1  0.250000  0.727240  0.660081  1
  O  O8  1  0.250000  0.985141  0.902347  1
  O  O9  1  0.250000  0.485141  0.597653  1
  O  O10  1  0.750000  0.014859  0.097653  1
  O  O11  1  0.750000  0.514859  0.402347  1
  F  F12  1  0.015944  0.853945  0.581440  1
  F  F13  1  0.515944  0.646055  0.081440  1
  F  F14  1  0.984056  0.646055  0.081440  1
  F  F15  1  0.510567  0.901604  0.239624  1
  F  F16  1  0.484056  0.853945  0.581440  1
  F  F17  1  0.989433  0.401604  0.260376  1
  F  F18  1  0.015944  0.353945  0.918560  1
  F  F19  1  0.010567  0.598396  0.739624  1
  F  F20  1  0.984056  0.146055  0.418560  1
  F  F21  1  0.489433  0.598396  0.739624  1
  F  F22  1  0.484056  0.353945  0.918560  1
  F  F23  1  0.489433  0.098396  0.760376  1
  F  F24  1  0.510567  0.401604  0.260376  1
  F  F25  1  0.989433  0.901604  0.239624  1
  F  F26  1  0.515944  0.146055  0.418560  1
  F  F27  1  0.010567  0.098396  0.760376  1
