# generated using pymatgen
data_Tb13Nd7Pb16
_symmetry_space_group_name_H-M   'P 1'
_cell_length_a   8.36138665
_cell_length_b   8.43116339
_cell_length_c   15.96835200
_cell_angle_alpha   90.04025102
_cell_angle_beta   89.61005286
_cell_angle_gamma   90.40108597
_symmetry_Int_Tables_number   1
_chemical_formula_structural   Tb13Nd7Pb16
_chemical_formula_sum   'Tb13 Nd7 Pb16'
_cell_volume   1125.65451341
_cell_formula_units_Z   1
loop_
 _symmetry_equiv_pos_site_id
 _symmetry_equiv_pos_as_xyz
  1  'x, y, z'
loop_
 _atom_site_type_symbol
 _atom_site_label
 _atom_site_symmetry_multiplicity
 _atom_site_fract_x
 _atom_site_fract_y
 _atom_site_fract_z
 _atom_site_occupancy
  Tb  Tb0  1  0.865992  0.658547  0.122297  1
  Tb  Tb1  1  0.363599  0.841076  0.377465  1
  Tb  Tb2  1  0.632582  0.158577  0.879414  1
  Tb  Tb3  1  0.135837  0.341016  0.622835  1
  Tb  Tb4  1  0.131999  0.341215  0.878476  1
  Tb  Tb5  1  0.635429  0.159063  0.621800  1
  Tb  Tb6  1  0.366832  0.842068  0.121150  1
  Tb  Tb7  1  0.864408  0.657846  0.375722  1
  Tb  Tb8  1  0.029925  0.175946  0.099955  1
  Tb  Tb9  1  0.700154  0.996948  0.248863  1
  Tb  Tb10  1  0.199731  0.504065  0.248867  1
  Tb  Tb11  1  0.799938  0.495560  0.750250  1
  Tb  Tb12  1  0.299636  0.003644  0.750954  1
  Nd  Nd13  1  0.522860  0.321350  0.400928  1
  Nd  Nd14  1  0.475187  0.678069  0.902385  1
  Nd  Nd15  1  0.977683  0.821996  0.596612  1
  Nd  Nd16  1  0.975556  0.823763  0.903296  1
  Nd  Nd17  1  0.477909  0.677915  0.597269  1
  Nd  Nd18  1  0.523836  0.321126  0.098223  1
  Nd  Nd19  1  0.021137  0.177493  0.403242  1
  Pb  Pb20  1  0.061341  0.872729  0.249309  1
  Pb  Pb21  1  0.560483  0.628745  0.249288  1
  Pb  Pb22  1  0.438666  0.370843  0.750755  1
  Pb  Pb23  1  0.938186  0.128253  0.750414  1
  Pb  Pb24  1  0.838881  0.347221  0.247737  1
  Pb  Pb25  1  0.332082  0.148390  0.249732  1
  Pb  Pb26  1  0.665373  0.851929  0.749954  1
  Pb  Pb27  1  0.164235  0.650384  0.749983  1
  Pb  Pb28  1  0.793381  0.462370  0.956772  1
  Pb  Pb29  1  0.296095  0.040807  0.543366  1
  Pb  Pb30  1  0.712989  0.965793  0.045025  1
  Pb  Pb31  1  0.203625  0.538938  0.456164  1
  Pb  Pb32  1  0.204684  0.536087  0.044069  1
  Pb  Pb33  1  0.703142  0.957513  0.456096  1
  Pb  Pb34  1  0.290135  0.042505  0.958901  1
  Pb  Pb35  1  0.796469  0.460203  0.542431  1
