# generated using pymatgen
data_CaEr3Zn2(Co2B)6
_symmetry_space_group_name_H-M   'P 1'
_cell_length_a   5.09488416
_cell_length_b   5.09252983
_cell_length_c   12.63509500
_cell_angle_alpha   90.00000000
_cell_angle_beta   90.00000000
_cell_angle_gamma   120.00459824
_symmetry_Int_Tables_number   1
_chemical_formula_structural   CaEr3Zn2(Co2B)6
_chemical_formula_sum   'Ca1 Er3 Zn2 Co12 B6'
_cell_volume   283.89445740
_cell_formula_units_Z   1
loop_
 _symmetry_equiv_pos_site_id
 _symmetry_equiv_pos_as_xyz
  1  'x, y, z'
loop_
 _atom_site_type_symbol
 _atom_site_label
 _atom_site_symmetry_multiplicity
 _atom_site_fract_x
 _atom_site_fract_y
 _atom_site_fract_z
 _atom_site_occupancy
  Ca  Ca0  1  0.000000  0.000000  0.000000  1
  Er  Er1  1  0.000000  0.000000  0.500000  1
  Er  Er2  1  0.000000  0.000000  0.739686  1
  Er  Er3  1  0.000000  0.000000  0.260314  1
  Zn  Zn4  1  0.666739  0.333181  0.000000  1
  Zn  Zn5  1  0.333261  0.666819  0.000000  1
  Co  Co6  1  0.500000  0.500000  0.834793  1
  Co  Co7  1  0.500000  0.000000  0.834783  1
  Co  Co8  1  0.000000  0.500000  0.834794  1
  Co  Co9  1  0.500000  0.500000  0.165207  1
  Co  Co10  1  0.500000  0.000000  0.165217  1
  Co  Co11  1  0.000000  0.500000  0.165206  1
  Co  Co12  1  0.500000  0.500000  0.612192  1
  Co  Co13  1  0.500000  0.000000  0.612184  1
  Co  Co14  1  0.000000  0.500000  0.612146  1
  Co  Co15  1  0.500000  0.500000  0.387808  1
  Co  Co16  1  0.500000  0.000000  0.387816  1
  Co  Co17  1  0.000000  0.500000  0.387854  1
  B  B18  1  0.666591  0.333317  0.500000  1
  B  B19  1  0.333409  0.666683  0.500000  1
  B  B20  1  0.666718  0.333379  0.727513  1
  B  B21  1  0.333282  0.666621  0.727513  1
  B  B22  1  0.333282  0.666621  0.272487  1
  B  B23  1  0.666718  0.333379  0.272487  1
