# generated using pymatgen
data_Pr2Sm3Sn10(PdRh)2
_symmetry_space_group_name_H-M   'P 1'
_cell_length_a   14.23298000
_cell_length_b   14.22396300
_cell_length_c   4.63255500
_cell_angle_alpha   90.00000000
_cell_angle_beta   90.00000000
_cell_angle_gamma   90.00000000
_symmetry_Int_Tables_number   1
_chemical_formula_structural   Pr2Sm3Sn10(PdRh)2
_chemical_formula_sum   'Pr4 Sm6 Sn20 Pd4 Rh4'
_cell_volume   937.85789173
_cell_formula_units_Z   2
loop_
 _symmetry_equiv_pos_site_id
 _symmetry_equiv_pos_as_xyz
  1  'x, y, z'
loop_
 _atom_site_type_symbol
 _atom_site_label
 _atom_site_symmetry_multiplicity
 _atom_site_fract_x
 _atom_site_fract_y
 _atom_site_fract_z
 _atom_site_occupancy
  Pr  Pr0  1  0.892176  0.390529  0.500000  1
  Pr  Pr1  1  0.107824  0.609471  0.500000  1
  Pr  Pr2  1  0.392176  0.109471  0.500000  1
  Pr  Pr3  1  0.607824  0.890529  0.500000  1
  Sm  Sm4  1  0.500000  0.500000  0.000000  1
  Sm  Sm5  1  0.000000  0.000000  0.000000  1
  Sm  Sm6  1  0.677515  0.179802  0.500000  1
  Sm  Sm7  1  0.322485  0.820198  0.500000  1
  Sm  Sm8  1  0.177515  0.320198  0.500000  1
  Sm  Sm9  1  0.822485  0.679802  0.500000  1
  Sn  Sn10  1  0.567279  0.071904  0.000000  1
  Sn  Sn11  1  0.432721  0.928096  0.000000  1
  Sn  Sn12  1  0.067279  0.428096  0.000000  1
  Sn  Sn13  1  0.932721  0.571904  0.000000  1
  Sn  Sn14  1  0.652522  0.702359  0.000000  1
  Sn  Sn15  1  0.347478  0.297641  0.000000  1
  Sn  Sn16  1  0.152522  0.797641  0.000000  1
  Sn  Sn17  1  0.847478  0.202359  0.000000  1
  Sn  Sn18  1  0.301396  0.653551  0.000000  1
  Sn  Sn19  1  0.698604  0.346449  0.000000  1
  Sn  Sn20  1  0.198604  0.153551  0.000000  1
  Sn  Sn21  1  0.801396  0.846449  0.000000  1
  Sn  Sn22  1  0.662089  0.503568  0.500000  1
  Sn  Sn23  1  0.337911  0.496432  0.500000  1
  Sn  Sn24  1  0.162089  0.996432  0.500000  1
  Sn  Sn25  1  0.837911  0.003568  0.500000  1
  Sn  Sn26  1  0.495626  0.662664  0.500000  1
  Sn  Sn27  1  0.504374  0.337336  0.500000  1
  Sn  Sn28  1  0.004374  0.162664  0.500000  1
  Sn  Sn29  1  0.995626  0.837336  0.500000  1
  Pd  Pd30  1  0.746201  0.531459  0.000000  1
  Pd  Pd31  1  0.253799  0.468541  0.000000  1
  Pd  Pd32  1  0.246201  0.968541  0.000000  1
  Pd  Pd33  1  0.753799  0.031459  0.000000  1
  Rh  Rh34  1  0.468689  0.742807  0.000000  1
  Rh  Rh35  1  0.531311  0.257193  0.000000  1
  Rh  Rh36  1  0.031311  0.242807  0.000000  1
  Rh  Rh37  1  0.968689  0.757193  0.000000  1
