# generated using pymatgen
data_Pr15ThMgCd3Ir4
_symmetry_space_group_name_H-M   'P 1'
_cell_length_a   10.06281974
_cell_length_b   10.06281872
_cell_length_c   10.06281893
_cell_angle_alpha   59.98613440
_cell_angle_beta   59.98613680
_cell_angle_gamma   59.98613625
_symmetry_Int_Tables_number   1
_chemical_formula_structural   Pr15ThMgCd3Ir4
_chemical_formula_sum   'Pr15 Th1 Mg1 Cd3 Ir4'
_cell_volume   720.29011460
_cell_formula_units_Z   1
loop_
 _symmetry_equiv_pos_site_id
 _symmetry_equiv_pos_as_xyz
  1  'x, y, z'
loop_
 _atom_site_type_symbol
 _atom_site_label
 _atom_site_symmetry_multiplicity
 _atom_site_fract_x
 _atom_site_fract_y
 _atom_site_fract_z
 _atom_site_occupancy
  Pr  Pr0  1  0.348196  0.348196  0.954971  1
  Pr  Pr1  1  0.348196  0.954971  0.348196  1
  Pr  Pr2  1  0.954971  0.348196  0.348196  1
  Pr  Pr3  1  0.809685  0.190698  0.190698  1
  Pr  Pr4  1  0.188557  0.810234  0.810234  1
  Pr  Pr5  1  0.190698  0.809685  0.190698  1
  Pr  Pr6  1  0.810234  0.188557  0.810234  1
  Pr  Pr7  1  0.190698  0.190698  0.809685  1
  Pr  Pr8  1  0.810234  0.810234  0.188557  1
  Pr  Pr9  1  0.941456  0.562025  0.562025  1
  Pr  Pr10  1  0.559629  0.939391  0.939391  1
  Pr  Pr11  1  0.562025  0.941456  0.562025  1
  Pr  Pr12  1  0.939391  0.559629  0.939391  1
  Pr  Pr13  1  0.562025  0.562025  0.941456  1
  Pr  Pr14  1  0.939391  0.939391  0.559629  1
  Th  Th15  1  0.344174  0.344174  0.344174  1
  Mg  Mg16  1  0.575452  0.575452  0.575452  1
  Cd  Cd17  1  0.579347  0.579347  0.258860  1
  Cd  Cd18  1  0.579347  0.258860  0.579347  1
  Cd  Cd19  1  0.258860  0.579347  0.579347  1
  Ir  Ir20  1  0.142124  0.142124  0.142124  1
  Ir  Ir21  1  0.147321  0.147321  0.570665  1
  Ir  Ir22  1  0.147321  0.570665  0.147321  1
  Ir  Ir23  1  0.570665  0.147321  0.147321  1
