# generated using pymatgen
data_Zr3Al3CoPd2
_symmetry_space_group_name_H-M   'P 1'
_cell_length_a   7.21894900
_cell_length_b   7.21894906
_cell_length_c   3.43193600
_cell_angle_alpha   90.00000000
_cell_angle_beta   90.00000000
_cell_angle_gamma   120.00000432
_symmetry_Int_Tables_number   1
_chemical_formula_structural   Zr3Al3CoPd2
_chemical_formula_sum   'Zr3 Al3 Co1 Pd2'
_cell_volume   154.88798999
_cell_formula_units_Z   1
loop_
 _symmetry_equiv_pos_site_id
 _symmetry_equiv_pos_as_xyz
  1  'x, y, z'
loop_
 _atom_site_type_symbol
 _atom_site_label
 _atom_site_symmetry_multiplicity
 _atom_site_fract_x
 _atom_site_fract_y
 _atom_site_fract_z
 _atom_site_occupancy
  Zr  Zr0  1  0.395511  0.417446  0.500000  1
  Zr  Zr1  1  0.582554  0.978066  0.500000  1
  Zr  Zr2  1  0.021934  0.604489  0.500000  1
  Al  Al3  1  0.738010  0.734547  0.000000  1
  Al  Al4  1  0.265453  0.003463  0.000000  1
  Al  Al5  1  0.996537  0.261990  0.000000  1
  Co  Co6  1  0.333333  0.666667  0.000000  1
  Pd  Pd7  1  0.666667  0.333333  0.000000  1
  Pd  Pd8  1  0.000000  0.000000  0.500000  1
