# generated using pymatgen
data_Sm4Pd3PtO14
_symmetry_space_group_name_H-M   'P 1'
_cell_length_a   7.35832715
_cell_length_b   7.35948603
_cell_length_c   7.35832700
_cell_angle_alpha   60.00520501
_cell_angle_beta   59.99999619
_cell_angle_gamma   60.00520628
_symmetry_Int_Tables_number   1
_chemical_formula_structural   Sm4Pd3PtO14
_chemical_formula_sum   'Sm4 Pd3 Pt1 O14'
_cell_volume   281.78950781
_cell_formula_units_Z   1
loop_
 _symmetry_equiv_pos_site_id
 _symmetry_equiv_pos_as_xyz
  1  'x, y, z'
loop_
 _atom_site_type_symbol
 _atom_site_label
 _atom_site_symmetry_multiplicity
 _atom_site_fract_x
 _atom_site_fract_y
 _atom_site_fract_z
 _atom_site_occupancy
  Sm  Sm0  1  0.125000  0.125000  0.125000  1
  Sm  Sm1  1  0.625000  0.125000  0.125000  1
  Sm  Sm2  1  0.125000  0.625000  0.125000  1
  Sm  Sm3  1  0.125000  0.125000  0.625000  1
  Pd  Pd4  1  0.625000  0.625000  0.125000  1
  Pd  Pd5  1  0.625000  0.625000  0.625000  1
  Pd  Pd6  1  0.125000  0.625000  0.625000  1
  Pt  Pt7  1  0.625000  0.125000  0.625000  1
  O  O8  1  0.712242  0.286478  0.289038  1
  O  O9  1  0.712242  0.286478  0.712242  1
  O  O10  1  0.999937  0.000188  0.999937  1
  O  O11  1  0.287957  0.712105  0.287957  1
  O  O12  1  0.711980  0.712105  0.287957  1
  O  O13  1  0.962043  0.537895  0.538020  1
  O  O14  1  0.287957  0.712105  0.711980  1
  O  O15  1  0.250063  0.249812  0.250063  1
  O  O16  1  0.962043  0.537895  0.962043  1
  O  O17  1  0.537758  0.963522  0.537758  1
  O  O18  1  0.538020  0.537895  0.962043  1
  O  O19  1  0.960962  0.963522  0.537758  1
  O  O20  1  0.537758  0.963522  0.960962  1
  O  O21  1  0.289038  0.286478  0.712242  1
