# generated using pymatgen
data_La3Y13(CdNi)4
_symmetry_space_group_name_H-M   'P 1'
_cell_length_a   9.67089786
_cell_length_b   9.66591582
_cell_length_c   9.66714747
_cell_angle_alpha   60.00924844
_cell_angle_beta   60.04859394
_cell_angle_gamma   60.00634217
_symmetry_Int_Tables_number   1
_chemical_formula_structural   La3Y13(CdNi)4
_chemical_formula_sum   'La3 Y13 Cd4 Ni4'
_cell_volume   639.29835936
_cell_formula_units_Z   1
loop_
 _symmetry_equiv_pos_site_id
 _symmetry_equiv_pos_as_xyz
  1  'x, y, z'
loop_
 _atom_site_type_symbol
 _atom_site_label
 _atom_site_symmetry_multiplicity
 _atom_site_fract_x
 _atom_site_fract_y
 _atom_site_fract_z
 _atom_site_occupancy
  La  La0  1  0.596142  0.601021  0.601022  1
  La  La1  1  0.596124  0.600988  0.201831  1
  La  La2  1  0.596131  0.201829  0.600989  1
  Y  Y3  1  0.195530  0.601472  0.601482  1
  Y  Y4  1  0.063445  0.437345  0.437411  1
  Y  Y5  1  0.437670  0.063325  0.063232  1
  Y  Y6  1  0.437683  0.063288  0.435813  1
  Y  Y7  1  0.063453  0.437374  0.061790  1
  Y  Y8  1  0.437660  0.435764  0.063276  1
  Y  Y9  1  0.063420  0.061826  0.437407  1
  Y  Y10  1  0.184071  0.816018  0.816068  1
  Y  Y11  1  0.815569  0.184322  0.184333  1
  Y  Y12  1  0.815544  0.184331  0.815814  1
  Y  Y13  1  0.184066  0.816034  0.183878  1
  Y  Y14  1  0.815590  0.815796  0.184320  1
  Y  Y15  1  0.184066  0.183839  0.816077  1
  Cd  Cd16  1  0.837441  0.830023  0.830120  1
  Cd  Cd17  1  0.837449  0.830040  0.502493  1
  Cd  Cd18  1  0.837460  0.502402  0.830115  1
  Cd  Cd19  1  0.503968  0.831956  0.832122  1
  Ni  Ni20  1  0.390341  0.392441  0.392335  1
  Ni  Ni21  1  0.390378  0.392556  0.824532  1
  Ni  Ni22  1  0.390288  0.824864  0.392402  1
  Ni  Ni23  1  0.826511  0.391145  0.391139  1
