# generated using pymatgen
data_NaTb3Y3RuI12
_symmetry_space_group_name_H-M   'P 1'
_cell_length_a   9.81691271
_cell_length_b   9.81691130
_cell_length_c   9.81691113
_cell_angle_alpha   106.93322521
_cell_angle_beta   106.93322849
_cell_angle_gamma   106.93320937
_symmetry_Int_Tables_number   1
_chemical_formula_structural   NaTb3Y3RuI12
_chemical_formula_sum   'Na1 Tb3 Y3 Ru1 I12'
_cell_volume   789.32954413
_cell_formula_units_Z   1
loop_
 _symmetry_equiv_pos_site_id
 _symmetry_equiv_pos_as_xyz
  1  'x, y, z'
loop_
 _atom_site_type_symbol
 _atom_site_label
 _atom_site_symmetry_multiplicity
 _atom_site_fract_x
 _atom_site_fract_y
 _atom_site_fract_z
 _atom_site_occupancy
  Na  Na0  1  0.500017  0.500017  0.500017  1
  Tb  Tb1  1  0.100573  0.302157  0.029848  1
  Tb  Tb2  1  0.029848  0.100573  0.302157  1
  Tb  Tb3  1  0.302157  0.029848  0.100573  1
  Y  Y4  1  0.899269  0.697489  0.969891  1
  Y  Y5  1  0.969891  0.899269  0.697489  1
  Y  Y6  1  0.697489  0.969891  0.899269  1
  Ru  Ru7  1  0.000554  0.000554  0.000554  1
  I  I8  1  0.626483  0.856937  0.548361  1
  I  I9  1  0.548361  0.626483  0.856937  1
  I  I10  1  0.856937  0.548361  0.626483  1
  I  I11  1  0.373694  0.143130  0.451930  1
  I  I12  1  0.451930  0.373694  0.143130  1
  I  I13  1  0.143130  0.451930  0.373694  1
  I  I14  1  0.683531  0.074523  0.223448  1
  I  I15  1  0.223448  0.683531  0.074523  1
  I  I16  1  0.074523  0.223448  0.683531  1
  I  I17  1  0.316508  0.925376  0.776283  1
  I  I18  1  0.776283  0.316508  0.925376  1
  I  I19  1  0.925376  0.776283  0.316508  1
