# generated using pymatgen
data_Sm6CoP12Ru13Rh4
_symmetry_space_group_name_H-M   'P 1'
_cell_length_a   3.98591100
_cell_length_b   11.20669294
_cell_length_c   12.68986634
_cell_angle_alpha   89.48421673
_cell_angle_beta   90.00000000
_cell_angle_gamma   90.00000000
_symmetry_Int_Tables_number   1
_chemical_formula_structural   Sm6CoP12Ru13Rh4
_chemical_formula_sum   'Sm6 Co1 P12 Ru13 Rh4'
_cell_volume   566.81915777
_cell_formula_units_Z   1
loop_
 _symmetry_equiv_pos_site_id
 _symmetry_equiv_pos_as_xyz
  1  'x, y, z'
loop_
 _atom_site_type_symbol
 _atom_site_label
 _atom_site_symmetry_multiplicity
 _atom_site_fract_x
 _atom_site_fract_y
 _atom_site_fract_z
 _atom_site_occupancy
  Sm  Sm0  1  0.000000  0.496978  0.522364  1
  Sm  Sm1  1  0.500000  0.002577  0.477563  1
  Sm  Sm2  1  0.500000  0.818716  0.204207  1
  Sm  Sm3  1  0.500000  0.178223  0.205050  1
  Sm  Sm4  1  0.000000  0.682995  0.796021  1
  Sm  Sm5  1  0.000000  0.320240  0.795811  1
  Co  Co6  1  0.500000  0.999348  0.011451  1
  P  P7  1  0.500000  0.501899  0.886120  1
  P  P8  1  0.000000  0.998183  0.114245  1
  P  P9  1  0.500000  0.506168  0.339506  1
  P  P10  1  0.000000  0.993623  0.658938  1
  P  P11  1  0.500000  0.304846  0.613610  1
  P  P12  1  0.500000  0.700259  0.616509  1
  P  P13  1  0.000000  0.195328  0.386805  1
  P  P14  1  0.000000  0.799611  0.383544  1
  P  P15  1  0.500000  0.852259  0.897816  1
  P  P16  1  0.500000  0.150449  0.900764  1
  P  P17  1  0.000000  0.655390  0.103053  1
  P  P18  1  0.000000  0.341902  0.100463  1
  Ru  Ru19  1  0.500000  0.498701  0.156467  1
  Ru  Ru20  1  0.000000  0.001125  0.842749  1
  Ru  Ru21  1  0.000000  0.500620  0.988197  1
  Ru  Ru22  1  0.500000  0.329383  0.991913  1
  Ru  Ru23  1  0.500000  0.672008  0.990890  1
  Ru  Ru24  1  0.000000  0.161873  0.008459  1
  Ru  Ru25  1  0.000000  0.836705  0.008855  1
  Ru  Ru26  1  0.500000  0.299978  0.427377  1
  Ru  Ru27  1  0.500000  0.701094  0.429711  1
  Ru  Ru28  1  0.000000  0.199638  0.573063  1
  Ru  Ru29  1  0.000000  0.798821  0.570233  1
  Ru  Ru30  1  0.500000  0.880838  0.713906  1
  Ru  Ru31  1  0.000000  0.620292  0.285410  1
  Rh  Rh32  1  0.500000  0.501463  0.696680  1
  Rh  Rh33  1  0.000000  0.998945  0.302460  1
  Rh  Rh34  1  0.500000  0.125770  0.717904  1
  Rh  Rh35  1  0.000000  0.373750  0.281882  1
