# generated using pymatgen
data_CaTh3Re15Si8Ir
_symmetry_space_group_name_H-M   'P 1'
_cell_length_a   4.14968000
_cell_length_b   7.32508684
_cell_length_c   15.57257405
_cell_angle_alpha   89.74627598
_cell_angle_beta   90.00000000
_cell_angle_gamma   90.00000000
_symmetry_Int_Tables_number   1
_chemical_formula_structural   CaTh3Re15Si8Ir
_chemical_formula_sum   'Ca1 Th3 Re15 Si8 Ir1'
_cell_volume   473.35125396
_cell_formula_units_Z   1
loop_
 _symmetry_equiv_pos_site_id
 _symmetry_equiv_pos_as_xyz
  1  'x, y, z'
loop_
 _atom_site_type_symbol
 _atom_site_label
 _atom_site_symmetry_multiplicity
 _atom_site_fract_x
 _atom_site_fract_y
 _atom_site_fract_z
 _atom_site_occupancy
  Ca  Ca0  1  0.500000  0.082956  0.379995  1
  Th  Th1  1  0.000000  0.581883  0.121825  1
  Th  Th2  1  0.000000  0.416806  0.878670  1
  Th  Th3  1  0.500000  0.916454  0.615304  1
  Re  Re4  1  0.000000  0.857851  0.951697  1
  Re  Re5  1  0.500000  0.640746  0.448312  1
  Re  Re6  1  0.500000  0.360917  0.552538  1
  Re  Re7  1  0.000000  0.738597  0.319596  1
  Re  Re8  1  0.000000  0.259307  0.678174  1
  Re  Re9  1  0.500000  0.235518  0.178410  1
  Re  Re10  1  0.500000  0.762040  0.823117  1
  Re  Re11  1  0.000000  0.436752  0.418802  1
  Re  Re12  1  0.000000  0.570832  0.581393  1
  Re  Re13  1  0.500000  0.930721  0.081938  1
  Re  Re14  1  0.500000  0.066277  0.921288  1
  Re  Re15  1  0.000000  0.994430  0.204993  1
  Re  Re16  1  0.000000  0.002580  0.794122  1
  Re  Re17  1  0.500000  0.494528  0.292543  1
  Re  Re18  1  0.500000  0.503099  0.706914  1
  Si  Si19  1  0.000000  0.831160  0.473467  1
  Si  Si20  1  0.000000  0.171677  0.522067  1
  Si  Si21  1  0.500000  0.330784  0.024726  1
  Si  Si22  1  0.500000  0.669056  0.977217  1
  Si  Si23  1  0.000000  0.290366  0.276837  1
  Si  Si24  1  0.000000  0.701181  0.726882  1
  Si  Si25  1  0.500000  0.800457  0.229014  1
  Si  Si26  1  0.500000  0.195247  0.772290  1
  Ir  Ir27  1  0.000000  0.157777  0.047867  1
