# generated using pymatgen
data_Lu7GeSe7
_symmetry_space_group_name_H-M   'P 1'
_cell_length_a   8.01930702
_cell_length_b   8.01963168
_cell_length_c   8.01937400
_cell_angle_alpha   120.00100780
_cell_angle_beta   89.99593465
_cell_angle_gamma   120.00216698
_symmetry_Int_Tables_number   1
_chemical_formula_structural   Lu7GeSe7
_chemical_formula_sum   'Lu7 Ge1 Se7'
_cell_volume   364.67945708
_cell_formula_units_Z   1
loop_
 _symmetry_equiv_pos_site_id
 _symmetry_equiv_pos_as_xyz
  1  'x, y, z'
loop_
 _atom_site_type_symbol
 _atom_site_label
 _atom_site_symmetry_multiplicity
 _atom_site_fract_x
 _atom_site_fract_y
 _atom_site_fract_z
 _atom_site_occupancy
  Lu  Lu0  1  0.242738  0.000017  0.242699  1
  Lu  Lu1  1  0.242690  0.485344  0.242645  1
  Lu  Lu2  1  0.757252  0.000006  0.242739  1
  Lu  Lu3  1  0.250015  0.500025  0.750010  1
  Lu  Lu4  1  0.242648  0.000015  0.757346  1
  Lu  Lu5  1  0.757355  0.000015  0.757314  1
  Lu  Lu6  1  0.757294  0.514561  0.757257  1
  Ge  Ge7  1  0.999925  0.999926  0.000062  1
  Se  Se8  1  0.500015  0.000012  0.499984  1
  Se  Se9  1  0.999890  0.999764  0.499867  1
  Se  Se10  1  0.999885  0.500012  0.499859  1
  Se  Se11  1  0.500134  0.500016  0.499868  1
  Se  Se12  1  0.999881  0.500005  0.000127  1
  Se  Se13  1  0.500137  0.500010  0.000116  1
  Se  Se14  1  0.500146  0.000273  0.000113  1
