# generated using pymatgen
data_Ho8Zn(Pd11Au)2
_symmetry_space_group_name_H-M   'P 1'
_cell_length_a   8.31288600
_cell_length_b   8.37755100
_cell_length_c   8.36804000
_cell_angle_alpha   90.00000000
_cell_angle_beta   90.00000000
_cell_angle_gamma   90.00000000
_symmetry_Int_Tables_number   1
_chemical_formula_structural   Ho8Zn(Pd11Au)2
_chemical_formula_sum   'Ho8 Zn1 Pd22 Au2'
_cell_volume   582.76391557
_cell_formula_units_Z   1
loop_
 _symmetry_equiv_pos_site_id
 _symmetry_equiv_pos_as_xyz
  1  'x, y, z'
loop_
 _atom_site_type_symbol
 _atom_site_label
 _atom_site_symmetry_multiplicity
 _atom_site_fract_x
 _atom_site_fract_y
 _atom_site_fract_z
 _atom_site_occupancy
  Ho  Ho0  1  0.250447  0.242045  0.250852  1
  Ho  Ho1  1  0.748914  0.748562  0.748789  1
  Ho  Ho2  1  0.748914  0.748562  0.251211  1
  Ho  Ho3  1  0.748914  0.251438  0.748789  1
  Ho  Ho4  1  0.250447  0.242045  0.749148  1
  Ho  Ho5  1  0.250447  0.757955  0.250852  1
  Ho  Ho6  1  0.250447  0.757955  0.749148  1
  Ho  Ho7  1  0.748914  0.251438  0.251211  1
  Zn  Zn8  1  0.999873  0.000000  0.000000  1
  Pd  Pd9  1  0.740232  0.500000  0.000000  1
  Pd  Pd10  1  0.000357  0.258962  0.500000  1
  Pd  Pd11  1  0.500186  0.259436  0.000000  1
  Pd  Pd12  1  0.000357  0.741038  0.500000  1
  Pd  Pd13  1  0.500186  0.740564  0.000000  1
  Pd  Pd14  1  0.501304  0.000000  0.260637  1
  Pd  Pd15  1  0.259620  0.000000  0.500000  1
  Pd  Pd16  1  0.501304  0.000000  0.739363  1
  Pd  Pd17  1  0.739476  0.000000  0.500000  1
  Pd  Pd18  1  0.001789  0.500000  0.259447  1
  Pd  Pd19  1  0.001789  0.500000  0.740553  1
  Pd  Pd20  1  0.747693  0.500000  0.500000  1
  Pd  Pd21  1  0.499701  0.251525  0.500000  1
  Pd  Pd22  1  0.499701  0.748475  0.500000  1
  Pd  Pd23  1  0.498720  0.500000  0.252996  1
  Pd  Pd24  1  0.498720  0.500000  0.747004  1
  Pd  Pd25  1  0.294398  0.000000  0.000000  1
  Pd  Pd26  1  0.706401  0.000000  0.000000  1
  Pd  Pd27  1  0.999964  0.291212  0.000000  1
  Pd  Pd28  1  0.999964  0.708788  0.000000  1
  Pd  Pd29  1  0.998146  0.000000  0.292564  1
  Pd  Pd30  1  0.998146  0.000000  0.707436  1
  Au  Au31  1  0.261407  0.500000  0.000000  1
  Au  Au32  1  0.253122  0.500000  0.500000  1
