# generated using pymatgen
data_Sc22HgIrOs6
_symmetry_space_group_name_H-M   'P 1'
_cell_length_a   9.56588263
_cell_length_b   9.50157339
_cell_length_c   9.56588191
_cell_angle_alpha   60.22214261
_cell_angle_beta   59.47500227
_cell_angle_gamma   60.22214494
_symmetry_Int_Tables_number   1
_chemical_formula_structural   Sc22HgIrOs6
_chemical_formula_sum   'Sc22 Hg1 Ir1 Os6'
_cell_volume   614.35094666
_cell_formula_units_Z   1
loop_
 _symmetry_equiv_pos_site_id
 _symmetry_equiv_pos_as_xyz
  1  'x, y, z'
loop_
 _atom_site_type_symbol
 _atom_site_label
 _atom_site_symmetry_multiplicity
 _atom_site_fract_x
 _atom_site_fract_y
 _atom_site_fract_z
 _atom_site_occupancy
  Sc  Sc0  1  0.803392  0.803094  0.196608  1
  Sc  Sc1  1  0.195601  0.804399  0.195601  1
  Sc  Sc2  1  0.803392  0.196906  0.196608  1
  Sc  Sc3  1  0.196608  0.196906  0.803392  1
  Sc  Sc4  1  0.804399  0.195601  0.804399  1
  Sc  Sc5  1  0.196608  0.803094  0.803392  1
  Sc  Sc6  1  0.601590  0.624000  0.150409  1
  Sc  Sc7  1  0.614615  0.150992  0.614615  1
  Sc  Sc8  1  0.150409  0.624000  0.601590  1
  Sc  Sc9  1  0.614615  0.619777  0.614615  1
  Sc  Sc10  1  0.398410  0.376000  0.849591  1
  Sc  Sc11  1  0.385385  0.849008  0.385385  1
  Sc  Sc12  1  0.849591  0.376000  0.398410  1
  Sc  Sc13  1  0.385385  0.380223  0.385385  1
  Sc  Sc14  1  0.842718  0.844415  0.468450  1
  Sc  Sc15  1  0.834086  0.472373  0.834086  1
  Sc  Sc16  1  0.468450  0.844415  0.842718  1
  Sc  Sc17  1  0.834086  0.859453  0.834086  1
  Sc  Sc18  1  0.157282  0.155585  0.531550  1
  Sc  Sc19  1  0.165914  0.527627  0.165914  1
  Sc  Sc20  1  0.531550  0.155585  0.157282  1
  Sc  Sc21  1  0.165914  0.140547  0.165914  1
  Hg  Hg22  1  0.000000  0.500000  0.000000  1
  Ir  Ir23  1  0.500000  0.000000  0.500000  1
  Os  Os24  1  0.000000  0.000000  0.000000  1
  Os  Os25  1  0.500000  0.500000  0.500000  1
  Os  Os26  1  0.000000  0.000000  0.500000  1
  Os  Os27  1  0.000000  0.500000  0.500000  1
  Os  Os28  1  0.500000  0.500000  0.000000  1
  Os  Os29  1  0.500000  0.000000  0.000000  1
