# generated using pymatgen
data_Ti8Tc3PdRu4
_symmetry_space_group_name_H-M   'P 1'
_cell_length_a   6.20295202
_cell_length_b   6.20298500
_cell_length_c   6.20333102
_cell_angle_alpha   90.00000000
_cell_angle_beta   89.99130838
_cell_angle_gamma   90.00000000
_symmetry_Int_Tables_number   1
_chemical_formula_structural   Ti8Tc3PdRu4
_chemical_formula_sum   'Ti8 Tc3 Pd1 Ru4'
_cell_volume   238.68443782
_cell_formula_units_Z   1
loop_
 _symmetry_equiv_pos_site_id
 _symmetry_equiv_pos_as_xyz
  1  'x, y, z'
loop_
 _atom_site_type_symbol
 _atom_site_label
 _atom_site_symmetry_multiplicity
 _atom_site_fract_x
 _atom_site_fract_y
 _atom_site_fract_z
 _atom_site_occupancy
  Ti  Ti0  1  0.496066  0.996065  0.253982  1
  Ti  Ti1  1  0.496066  0.503932  0.253982  1
  Ti  Ti2  1  0.003933  0.996062  0.253973  1
  Ti  Ti3  1  0.003933  0.503942  0.253973  1
  Ti  Ti4  1  0.003932  0.996066  0.746020  1
  Ti  Ti5  1  0.003932  0.503931  0.746020  1
  Ti  Ti6  1  0.496074  0.996068  0.746035  1
  Ti  Ti7  1  0.496074  0.503936  0.746035  1
  Tc  Tc8  1  0.249989  0.750001  0.000019  1
  Tc  Tc9  1  0.750012  0.250000  0.499978  1
  Tc  Tc10  1  0.249988  0.750001  0.499982  1
  Pd  Pd11  1  0.750002  0.250000  0.000003  1
  Ru  Ru12  1  0.249993  0.250000  0.000014  1
  Ru  Ru13  1  0.750007  0.750001  0.000010  1
  Ru  Ru14  1  0.750008  0.750001  0.499984  1
  Ru  Ru15  1  0.249992  0.250000  0.499995  1
