# generated using pymatgen
data_Ca3Pr17Si15Sn
_symmetry_space_group_name_H-M   'P 1'
_cell_length_a   7.97261078
_cell_length_b   7.95475004
_cell_length_c   15.25177343
_cell_angle_alpha   90.16499905
_cell_angle_beta   89.65413940
_cell_angle_gamma   89.78913575
_symmetry_Int_Tables_number   1
_chemical_formula_structural   Ca3Pr17Si15Sn
_chemical_formula_sum   'Ca3 Pr17 Si15 Sn1'
_cell_volume   967.24114472
_cell_formula_units_Z   1
loop_
 _symmetry_equiv_pos_site_id
 _symmetry_equiv_pos_as_xyz
  1  'x, y, z'
loop_
 _atom_site_type_symbol
 _atom_site_label
 _atom_site_symmetry_multiplicity
 _atom_site_fract_x
 _atom_site_fract_y
 _atom_site_fract_z
 _atom_site_occupancy
  Ca  Ca0  1  0.309616  0.309336  0.000833  1
  Ca  Ca1  1  0.190938  0.809788  0.250339  1
  Ca  Ca2  1  0.803146  0.189751  0.751292  1
  Pr  Pr3  1  0.690090  0.693678  0.497476  1
  Pr  Pr4  1  0.375486  0.012735  0.449455  1
  Pr  Pr5  1  0.495984  0.870337  0.699023  1
  Pr  Pr6  1  0.509582  0.120550  0.197242  1
  Pr  Pr7  1  0.876788  0.490253  0.300402  1
  Pr  Pr8  1  0.119132  0.515566  0.805840  1
  Pr  Pr9  1  0.623520  0.988398  0.949751  1
  Pr  Pr10  1  0.004129  0.383367  0.546399  1
  Pr  Pr11  1  0.989979  0.621705  0.053547  1
  Pr  Pr12  1  0.125805  0.982028  0.879071  1
  Pr  Pr13  1  0.516480  0.626792  0.126358  1
  Pr  Pr14  1  0.491478  0.383381  0.626252  1
  Pr  Pr15  1  0.628488  0.517775  0.876499  1
  Pr  Pr16  1  0.375657  0.481903  0.371929  1
  Pr  Pr17  1  0.873230  0.018027  0.375146  1
  Pr  Pr18  1  0.983497  0.125895  0.124771  1
  Pr  Pr19  1  0.008075  0.861238  0.621103  1
  Si  Si20  1  0.331055  0.698143  0.953123  1
  Si  Si21  1  0.667312  0.303377  0.450592  1
  Si  Si22  1  0.699009  0.330738  0.049620  1
  Si  Si23  1  0.304730  0.670236  0.546554  1
  Si  Si24  1  0.799669  0.833626  0.200104  1
  Si  Si25  1  0.166970  0.200521  0.299676  1
  Si  Si26  1  0.835726  0.799555  0.800681  1
  Si  Si27  1  0.287856  0.919612  0.060761  1
  Si  Si28  1  0.580721  0.788786  0.309446  1
  Si  Si29  1  0.429500  0.212420  0.814934  1
  Si  Si30  1  0.787847  0.580412  0.691525  1
  Si  Si31  1  0.212678  0.418023  0.189631  1
  Si  Si32  1  0.708649  0.079404  0.559321  1
  Si  Si33  1  0.920557  0.287954  0.941323  1
  Si  Si34  1  0.079619  0.711056  0.438146  1
  Sn  Sn35  1  0.197002  0.163638  0.691836  1
