# generated using pymatgen
data_Lu6GaCuOs
_symmetry_space_group_name_H-M   'P 1'
_cell_length_a   8.23898048
_cell_length_b   8.23897926
_cell_length_c   8.23897870
_cell_angle_alpha   112.95808550
_cell_angle_beta   110.64611747
_cell_angle_gamma   104.91270958
_symmetry_Int_Tables_number   1
_chemical_formula_structural   Lu6GaCuOs
_chemical_formula_sum   'Lu12 Ga2 Cu2 Os2'
_cell_volume   428.31237452
_cell_formula_units_Z   2
loop_
 _symmetry_equiv_pos_site_id
 _symmetry_equiv_pos_as_xyz
  1  'x, y, z'
loop_
 _atom_site_type_symbol
 _atom_site_label
 _atom_site_symmetry_multiplicity
 _atom_site_fract_x
 _atom_site_fract_y
 _atom_site_fract_z
 _atom_site_occupancy
  Lu  Lu0  1  0.434828  0.242917  0.191911  1
  Lu  Lu1  1  0.565172  0.757083  0.808089  1
  Lu  Lu2  1  0.051006  0.242917  0.808089  1
  Lu  Lu3  1  0.948994  0.757083  0.191911  1
  Lu  Lu4  1  0.182777  0.273751  0.456528  1
  Lu  Lu5  1  0.817223  0.726249  0.543472  1
  Lu  Lu6  1  0.182777  0.726249  0.909027  1
  Lu  Lu7  1  0.817223  0.273751  0.090973  1
  Lu  Lu8  1  0.334501  0.644516  0.310015  1
  Lu  Lu9  1  0.665499  0.355484  0.689985  1
  Lu  Lu10  1  0.334501  0.024485  0.689985  1
  Lu  Lu11  1  0.665499  0.975515  0.310015  1
  Ga  Ga12  1  0.500000  0.500000  0.000000  1
  Ga  Ga13  1  0.000000  0.000000  0.000000  1
  Cu  Cu14  1  0.119932  0.619932  0.500000  1
  Cu  Cu15  1  0.880068  0.380068  0.500000  1
  Os  Os16  1  0.329586  0.000000  0.329586  1
  Os  Os17  1  0.670414  0.000000  0.670414  1
