# generated using pymatgen
data_BaNaNbSe4
_symmetry_space_group_name_H-M   'P 1'
_cell_length_a   10.10915100
_cell_length_b   7.01894870
_cell_length_c   13.08754969
_cell_angle_alpha   69.85738160
_cell_angle_beta   90.00000000
_cell_angle_gamma   90.00000000
_symmetry_Int_Tables_number   1
_chemical_formula_structural   BaNaNbSe4
_chemical_formula_sum   'Ba4 Na4 Nb4 Se16'
_cell_volume   871.83826306
_cell_formula_units_Z   4
loop_
 _symmetry_equiv_pos_site_id
 _symmetry_equiv_pos_as_xyz
  1  'x, y, z'
loop_
 _atom_site_type_symbol
 _atom_site_label
 _atom_site_symmetry_multiplicity
 _atom_site_fract_x
 _atom_site_fract_y
 _atom_site_fract_z
 _atom_site_occupancy
  Ba  Ba0  1  0.883333  0.380158  0.344613  1
  Ba  Ba1  1  0.616667  0.380158  0.844613  1
  Ba  Ba2  1  0.116667  0.619842  0.655387  1
  Ba  Ba3  1  0.383333  0.619842  0.155387  1
  Na  Na4  1  0.115674  0.226636  0.028552  1
  Na  Na5  1  0.384326  0.226636  0.528552  1
  Na  Na6  1  0.884326  0.773364  0.971448  1
  Na  Na7  1  0.615674  0.773364  0.471448  1
  Nb  Nb8  1  0.619155  0.119931  0.184608  1
  Nb  Nb9  1  0.880845  0.119931  0.684608  1
  Nb  Nb10  1  0.380845  0.880069  0.815392  1
  Nb  Nb11  1  0.119155  0.880069  0.315392  1
  Se  Se12  1  0.802845  0.326790  0.088929  1
  Se  Se13  1  0.697155  0.326790  0.588929  1
  Se  Se14  1  0.197155  0.673210  0.911071  1
  Se  Se15  1  0.302845  0.673210  0.411071  1
  Se  Se16  1  0.927122  0.813108  0.430534  1
  Se  Se17  1  0.572878  0.813108  0.930534  1
  Se  Se18  1  0.072878  0.186892  0.569466  1
  Se  Se19  1  0.427122  0.186892  0.069466  1
  Se  Se20  1  0.568706  0.215800  0.342021  1
  Se  Se21  1  0.931294  0.215800  0.842021  1
  Se  Se22  1  0.431294  0.784200  0.657979  1
  Se  Se23  1  0.068706  0.784200  0.157979  1
  Se  Se24  1  0.166715  0.237018  0.262355  1
  Se  Se25  1  0.333285  0.237018  0.762355  1
  Se  Se26  1  0.833285  0.762982  0.737645  1
  Se  Se27  1  0.666715  0.762982  0.237645  1
