# generated using pymatgen
data_Er12TlFe3Ag
_symmetry_space_group_name_H-M   'P 1'
_cell_length_a   8.24805724
_cell_length_b   8.24805658
_cell_length_c   8.24805700
_cell_angle_alpha   110.27331714
_cell_angle_beta   106.87769583
_cell_angle_gamma   111.29510268
_symmetry_Int_Tables_number   1
_chemical_formula_structural   Er12TlFe3Ag
_chemical_formula_sum   'Er12 Tl1 Fe3 Ag1'
_cell_volume   431.25352713
_cell_formula_units_Z   1
loop_
 _symmetry_equiv_pos_site_id
 _symmetry_equiv_pos_as_xyz
  1  'x, y, z'
loop_
 _atom_site_type_symbol
 _atom_site_label
 _atom_site_symmetry_multiplicity
 _atom_site_fract_x
 _atom_site_fract_y
 _atom_site_fract_z
 _atom_site_occupancy
  Er  Er0  1  0.193231  0.443111  0.249880  1
  Er  Er1  1  0.806769  0.556889  0.750120  1
  Er  Er2  1  0.193232  0.943352  0.750119  1
  Er  Er3  1  0.960932  0.189349  0.771583  1
  Er  Er4  1  0.806768  0.056648  0.249881  1
  Er  Er5  1  0.039068  0.810651  0.228417  1
  Er  Er6  1  0.417767  0.189349  0.228418  1
  Er  Er7  1  0.582233  0.810651  0.771582  1
  Er  Er8  1  0.309039  0.308294  0.617332  1
  Er  Er9  1  0.690961  0.691706  0.382668  1
  Er  Er10  1  0.690961  0.308294  0.999256  1
  Er  Er11  1  0.309039  0.691706  0.000744  1
  Tl  Tl12  1  0.500000  0.000000  0.500000  1
  Fe  Fe13  1  0.383382  0.383385  0.000004  1
  Fe  Fe14  1  0.616618  0.616615  0.999996  1
  Fe  Fe15  1  0.000000  0.000000  0.000000  1
  Ag  Ag16  1  0.000000  0.500000  0.500000  1
