# generated using pymatgen
data_NaCr3Sb12Ru
_symmetry_space_group_name_H-M   'P 1'
_cell_length_a   8.22650262
_cell_length_b   8.22650338
_cell_length_c   8.22650413
_cell_angle_alpha   109.30594910
_cell_angle_beta   109.30594693
_cell_angle_gamma   109.30594499
_symmetry_Int_Tables_number   1
_chemical_formula_structural   NaCr3Sb12Ru
_chemical_formula_sum   'Na1 Cr3 Sb12 Ru1'
_cell_volume   431.17468769
_cell_formula_units_Z   1
loop_
 _symmetry_equiv_pos_site_id
 _symmetry_equiv_pos_as_xyz
  1  'x, y, z'
loop_
 _atom_site_type_symbol
 _atom_site_label
 _atom_site_symmetry_multiplicity
 _atom_site_fract_x
 _atom_site_fract_y
 _atom_site_fract_z
 _atom_site_occupancy
  Na  Na0  1  0.000000  0.000000  0.000000  1
  Cr  Cr1  1  0.500000  0.000000  0.000000  1
  Cr  Cr2  1  0.000000  0.500000  0.000000  1
  Cr  Cr3  1  0.000000  0.000000  0.500000  1
  Sb  Sb4  1  0.160566  0.495295  0.345889  1
  Sb  Sb5  1  0.504705  0.654111  0.839434  1
  Sb  Sb6  1  0.344517  0.846724  0.193076  1
  Sb  Sb7  1  0.806924  0.655483  0.153276  1
  Sb  Sb8  1  0.654111  0.839434  0.504705  1
  Sb  Sb9  1  0.193076  0.344517  0.846724  1
  Sb  Sb10  1  0.655483  0.153276  0.806924  1
  Sb  Sb11  1  0.345889  0.160566  0.495295  1
  Sb  Sb12  1  0.495295  0.345889  0.160566  1
  Sb  Sb13  1  0.839434  0.504705  0.654111  1
  Sb  Sb14  1  0.846724  0.193076  0.344517  1
  Sb  Sb15  1  0.153276  0.806924  0.655483  1
  Ru  Ru16  1  0.500000  0.500000  0.500000  1
