# generated using pymatgen
data_Er12Tc3Ag
_symmetry_space_group_name_H-M   'P 1'
_cell_length_a   6.27966271
_cell_length_b   7.38249447
_cell_length_c   9.13362500
_cell_angle_alpha   90.00000000
_cell_angle_beta   90.00000000
_cell_angle_gamma   89.80459201
_symmetry_Int_Tables_number   1
_chemical_formula_structural   Er12Tc3Ag
_chemical_formula_sum   'Er12 Tc3 Ag1'
_cell_volume   423.42851264
_cell_formula_units_Z   1
loop_
 _symmetry_equiv_pos_site_id
 _symmetry_equiv_pos_as_xyz
  1  'x, y, z'
loop_
 _atom_site_type_symbol
 _atom_site_label
 _atom_site_symmetry_multiplicity
 _atom_site_fract_x
 _atom_site_fract_y
 _atom_site_fract_z
 _atom_site_occupancy
  Er  Er0  1  0.326584  0.676490  0.070138  1
  Er  Er1  1  0.168141  0.178969  0.435517  1
  Er  Er2  1  0.669413  0.309695  0.553897  1
  Er  Er3  1  0.844188  0.832265  0.944691  1
  Er  Er4  1  0.669413  0.309695  0.946103  1
  Er  Er5  1  0.844188  0.832265  0.555309  1
  Er  Er6  1  0.326584  0.676490  0.429862  1
  Er  Er7  1  0.168141  0.178969  0.064483  1
  Er  Er8  1  0.870301  0.542205  0.250000  1
  Er  Er9  1  0.623861  0.038251  0.250000  1
  Er  Er10  1  0.117177  0.452408  0.750000  1
  Er  Er11  1  0.369105  0.976481  0.750000  1
  Tc  Tc12  1  0.036174  0.886795  0.250000  1
  Tc  Tc13  1  0.464211  0.386771  0.250000  1
  Tc  Tc14  1  0.953871  0.112558  0.750000  1
  Ag  Ag15  1  0.548647  0.609693  0.750000  1
