# generated using pymatgen
data_Lu12Co4TcSb
_symmetry_space_group_name_H-M   'P 1'
_cell_length_a   8.12015494
_cell_length_b   8.12015406
_cell_length_c   8.12015591
_cell_angle_alpha   111.89181251
_cell_angle_beta   110.41827552
_cell_angle_gamma   106.15720924
_symmetry_Int_Tables_number   1
_chemical_formula_structural   Lu12Co4TcSb
_chemical_formula_sum   'Lu12 Co4 Tc1 Sb1'
_cell_volume   411.06605109
_cell_formula_units_Z   1
loop_
 _symmetry_equiv_pos_site_id
 _symmetry_equiv_pos_as_xyz
  1  'x, y, z'
loop_
 _atom_site_type_symbol
 _atom_site_label
 _atom_site_symmetry_multiplicity
 _atom_site_fract_x
 _atom_site_fract_y
 _atom_site_fract_z
 _atom_site_occupancy
  Lu  Lu0  1  0.421365  0.223003  0.198360  1
  Lu  Lu1  1  0.578635  0.776997  0.801640  1
  Lu  Lu2  1  0.024643  0.223003  0.801640  1
  Lu  Lu3  1  0.975357  0.776997  0.198360  1
  Lu  Lu4  1  0.181609  0.275960  0.457570  1
  Lu  Lu5  1  0.818391  0.724040  0.542430  1
  Lu  Lu6  1  0.181609  0.724040  0.905650  1
  Lu  Lu7  1  0.818391  0.275960  0.094350  1
  Lu  Lu8  1  0.312293  0.619753  0.307460  1
  Lu  Lu9  1  0.687707  0.380247  0.692540  1
  Lu  Lu10  1  0.312293  0.004832  0.692540  1
  Lu  Lu11  1  0.687707  0.995168  0.307460  1
  Co  Co12  1  0.373510  0.000000  0.373510  1
  Co  Co13  1  0.626490  0.000000  0.626490  1
  Co  Co14  1  0.112610  0.612610  0.500000  1
  Co  Co15  1  0.887390  0.387390  0.500000  1
  Tc  Tc16  1  0.000000  0.000000  0.000000  1
  Sb  Sb17  1  0.500000  0.500000  0.000000  1
