# generated using pymatgen
data_K2LiErAs2
_symmetry_space_group_name_H-M   'P 1'
_cell_length_a   10.31230169
_cell_length_b   10.31230205
_cell_length_c   6.71043500
_cell_angle_alpha   90.00000000
_cell_angle_beta   90.00000000
_cell_angle_gamma   98.48255924
_symmetry_Int_Tables_number   1
_chemical_formula_structural   K2LiErAs2
_chemical_formula_sum   'K8 Li4 Er4 As8'
_cell_volume   705.80527998
_cell_formula_units_Z   4
loop_
 _symmetry_equiv_pos_site_id
 _symmetry_equiv_pos_as_xyz
  1  'x, y, z'
loop_
 _atom_site_type_symbol
 _atom_site_label
 _atom_site_symmetry_multiplicity
 _atom_site_fract_x
 _atom_site_fract_y
 _atom_site_fract_z
 _atom_site_occupancy
  K  K0  1  0.567985  0.932015  0.750000  1
  K  K1  1  0.932015  0.567985  0.250000  1
  K  K2  1  0.432015  0.067985  0.250000  1
  K  K3  1  0.067985  0.432015  0.750000  1
  K  K4  1  0.677375  0.322625  0.783964  1
  K  K5  1  0.822625  0.177375  0.283964  1
  K  K6  1  0.322625  0.677375  0.216036  1
  K  K7  1  0.177375  0.822625  0.716036  1
  Li  Li8  1  0.617298  0.617298  0.000000  1
  Li  Li9  1  0.882702  0.882702  0.500000  1
  Li  Li10  1  0.382702  0.382702  0.000000  1
  Li  Li11  1  0.117298  0.117298  0.500000  1
  Er  Er12  1  0.868406  0.868406  0.000000  1
  Er  Er13  1  0.631594  0.631594  0.500000  1
  Er  Er14  1  0.131594  0.131594  0.000000  1
  Er  Er15  1  0.368406  0.368406  0.500000  1
  As  As16  1  0.348426  0.151574  0.750000  1
  As  As17  1  0.151574  0.348426  0.250000  1
  As  As18  1  0.651574  0.848426  0.250000  1
  As  As19  1  0.848426  0.651574  0.750000  1
  As  As20  1  0.905234  0.094766  0.762624  1
  As  As21  1  0.594766  0.405234  0.262624  1
  As  As22  1  0.094766  0.905234  0.237376  1
  As  As23  1  0.405234  0.594766  0.737376  1
