# generated using pymatgen
data_Nd3HfGa2Ir3
_symmetry_space_group_name_H-M   'P 1'
_cell_length_a   7.26921674
_cell_length_b   7.13955688
_cell_length_c   4.26899800
_cell_angle_alpha   90.00000000
_cell_angle_beta   90.00000000
_cell_angle_gamma   119.41168790
_symmetry_Int_Tables_number   1
_chemical_formula_structural   Nd3HfGa2Ir3
_chemical_formula_sum   'Nd3 Hf1 Ga2 Ir3'
_cell_volume   193.00103909
_cell_formula_units_Z   1
loop_
 _symmetry_equiv_pos_site_id
 _symmetry_equiv_pos_as_xyz
  1  'x, y, z'
loop_
 _atom_site_type_symbol
 _atom_site_label
 _atom_site_symmetry_multiplicity
 _atom_site_fract_x
 _atom_site_fract_y
 _atom_site_fract_z
 _atom_site_occupancy
  Nd  Nd0  1  0.566018  0.579103  0.000000  1
  Nd  Nd1  1  0.433982  0.013086  0.000000  1
  Nd  Nd2  1  0.000000  0.392409  0.000000  1
  Hf  Hf3  1  0.000000  0.767139  0.500000  1
  Ga  Ga4  1  0.246444  0.243263  0.500000  1
  Ga  Ga5  1  0.753556  0.996819  0.500000  1
  Ir  Ir6  1  0.000000  0.990391  0.000000  1
  Ir  Ir7  1  0.679948  0.348869  0.500000  1
  Ir  Ir8  1  0.320052  0.668922  0.500000  1
