# generated using pymatgen
data_Tb8Lu7Sc5Si15Ir
_symmetry_space_group_name_H-M   'P 1'
_cell_length_a   7.18157371
_cell_length_b   7.60479661
_cell_length_c   14.22159685
_cell_angle_alpha   90.07973580
_cell_angle_beta   90.02536360
_cell_angle_gamma   90.11890982
_symmetry_Int_Tables_number   1
_chemical_formula_structural   Tb8Lu7Sc5Si15Ir
_chemical_formula_sum   'Tb8 Lu7 Sc5 Si15 Ir1'
_cell_volume   776.70158261
_cell_formula_units_Z   1
loop_
 _symmetry_equiv_pos_site_id
 _symmetry_equiv_pos_as_xyz
  1  'x, y, z'
loop_
 _atom_site_type_symbol
 _atom_site_label
 _atom_site_symmetry_multiplicity
 _atom_site_fract_x
 _atom_site_fract_y
 _atom_site_fract_z
 _atom_site_occupancy
  Tb  Tb0  1  0.015657  0.181344  0.097248  1
  Tb  Tb1  1  0.987992  0.823721  0.905644  1
  Tb  Tb2  1  0.485529  0.679631  0.904854  1
  Tb  Tb3  1  0.987050  0.824386  0.596030  1
  Tb  Tb4  1  0.514053  0.321298  0.096133  1
  Tb  Tb5  1  0.015546  0.182620  0.401317  1
  Tb  Tb6  1  0.514819  0.321184  0.402331  1
  Tb  Tb7  1  0.485919  0.679203  0.595274  1
  Lu  Lu8  1  0.312444  0.172472  0.628168  1
  Lu  Lu9  1  0.676663  0.825983  0.372505  1
  Lu  Lu10  1  0.176135  0.677978  0.373228  1
  Lu  Lu11  1  0.676161  0.825912  0.126084  1
  Lu  Lu12  1  0.832668  0.317504  0.628107  1
  Lu  Lu13  1  0.312589  0.172856  0.873149  1
  Lu  Lu14  1  0.832698  0.318887  0.873312  1
  Sc  Sc15  1  0.157033  0.513376  0.750464  1
  Sc  Sc16  1  0.842743  0.491331  0.248570  1
  Sc  Sc17  1  0.342301  0.010560  0.248741  1
  Sc  Sc18  1  0.665280  0.989629  0.750513  1
  Sc  Sc19  1  0.175673  0.677855  0.127157  1
  Si  Si20  1  0.979630  0.892718  0.247885  1
  Si  Si21  1  0.475218  0.605042  0.247559  1
  Si  Si22  1  0.522230  0.398071  0.750571  1
  Si  Si23  1  0.284243  0.862475  0.750509  1
  Si  Si24  1  0.715600  0.135860  0.249154  1
  Si  Si25  1  0.216532  0.368962  0.248532  1
  Si  Si26  1  0.776301  0.628547  0.750366  1
  Si  Si27  1  0.156574  0.471415  0.538296  1
  Si  Si28  1  0.844777  0.532906  0.460578  1
  Si  Si29  1  0.346447  0.969344  0.459253  1
  Si  Si30  1  0.850713  0.533219  0.041274  1
  Si  Si31  1  0.651731  0.032056  0.538915  1
  Si  Si32  1  0.158986  0.473374  0.965100  1
  Si  Si33  1  0.651292  0.031594  0.961030  1
  Si  Si34  1  0.342824  0.964366  0.041227  1
  Ir  Ir35  1  0.017948  0.092322  0.750920  1
