# generated using pymatgen
data_Yb4Ga2PdPt3
_symmetry_space_group_name_H-M   'P 1'
_cell_length_a   5.65584723
_cell_length_b   5.65972555
_cell_length_c   7.80493734
_cell_angle_alpha   101.72632977
_cell_angle_beta   101.76608824
_cell_angle_gamma   59.17193440
_symmetry_Int_Tables_number   1
_chemical_formula_structural   Yb4Ga2PdPt3
_chemical_formula_sum   'Yb4 Ga2 Pd1 Pt3'
_cell_volume   208.57852059
_cell_formula_units_Z   1
loop_
 _symmetry_equiv_pos_site_id
 _symmetry_equiv_pos_as_xyz
  1  'x, y, z'
loop_
 _atom_site_type_symbol
 _atom_site_label
 _atom_site_symmetry_multiplicity
 _atom_site_fract_x
 _atom_site_fract_y
 _atom_site_fract_z
 _atom_site_occupancy
  Yb  Yb0  1  0.509426  0.788707  0.150476  1
  Yb  Yb1  1  0.210856  0.492293  0.350674  1
  Yb  Yb2  1  0.789297  0.510463  0.648694  1
  Yb  Yb3  1  0.490936  0.210017  0.849906  1
  Ga  Ga4  1  0.856697  0.140888  0.250060  1
  Ga  Ga5  1  0.142904  0.855554  0.749281  1
  Pd  Pd6  1  0.997502  0.263021  0.002888  1
  Pt  Pt7  1  0.736031  0.002611  0.498188  1
  Pt  Pt8  1  0.263694  0.998361  0.503335  1
  Pt  Pt9  1  0.002658  0.738085  0.996500  1
