# generated using pymatgen
data_YTm19(CoSb2)4
_symmetry_space_group_name_H-M   'P 1'
_cell_length_a   7.75604411
_cell_length_b   8.70245400
_cell_length_c   12.04018518
_cell_angle_alpha   90.00000000
_cell_angle_beta   89.98036364
_cell_angle_gamma   90.00000000
_symmetry_Int_Tables_number   1
_chemical_formula_structural   YTm19(CoSb2)4
_chemical_formula_sum   'Y1 Tm19 Co4 Sb8'
_cell_volume   812.67172124
_cell_formula_units_Z   1
loop_
 _symmetry_equiv_pos_site_id
 _symmetry_equiv_pos_as_xyz
  1  'x, y, z'
loop_
 _atom_site_type_symbol
 _atom_site_label
 _atom_site_symmetry_multiplicity
 _atom_site_fract_x
 _atom_site_fract_y
 _atom_site_fract_z
 _atom_site_occupancy
  Y  Y0  1  0.876641  0.750000  0.807305  1
  Tm  Tm1  1  0.157260  0.750000  0.204090  1
  Tm  Tm2  1  0.657350  0.250000  0.295879  1
  Tm  Tm3  1  0.842748  0.250000  0.795892  1
  Tm  Tm4  1  0.343158  0.750000  0.703939  1
  Tm  Tm5  1  0.449880  0.750000  0.998133  1
  Tm  Tm6  1  0.950013  0.250000  0.501717  1
  Tm  Tm7  1  0.549740  0.250000  0.002008  1
  Tm  Tm8  1  0.050037  0.750000  0.497976  1
  Tm  Tm9  1  0.621914  0.750000  0.308716  1
  Tm  Tm10  1  0.121964  0.250000  0.191381  1
  Tm  Tm11  1  0.378106  0.250000  0.691305  1
  Tm  Tm12  1  0.823896  0.963097  0.066089  1
  Tm  Tm13  1  0.323874  0.037400  0.434420  1
  Tm  Tm14  1  0.176619  0.461812  0.934682  1
  Tm  Tm15  1  0.675976  0.537263  0.565365  1
  Tm  Tm16  1  0.176619  0.038188  0.934682  1
  Tm  Tm17  1  0.675976  0.962737  0.565365  1
  Tm  Tm18  1  0.823896  0.536903  0.066089  1
  Tm  Tm19  1  0.323874  0.462600  0.434420  1
  Co  Co20  1  0.431497  0.750000  0.490809  1
  Co  Co21  1  0.931398  0.250000  0.009234  1
  Co  Co22  1  0.568481  0.250000  0.509140  1
  Co  Co23  1  0.069508  0.750000  0.991862  1
  Sb  Sb24  1  0.931121  0.991522  0.327557  1
  Sb  Sb25  1  0.431264  0.008464  0.172506  1
  Sb  Sb26  1  0.069465  0.490903  0.672195  1
  Sb  Sb27  1  0.567936  0.507925  0.827493  1
  Sb  Sb28  1  0.069465  0.009097  0.672195  1
  Sb  Sb29  1  0.567936  0.992075  0.827493  1
  Sb  Sb30  1  0.931121  0.508478  0.327557  1
  Sb  Sb31  1  0.431264  0.491536  0.172506  1
