# generated using pymatgen
data_Y20(OsPt3)3
_symmetry_space_group_name_H-M   'P 1'
_cell_length_a   11.08789000
_cell_length_b   11.08789000
_cell_length_c   6.41171100
_cell_angle_alpha   90.00000000
_cell_angle_beta   90.00000000
_cell_angle_gamma   90.00000000
_symmetry_Int_Tables_number   1
_chemical_formula_structural   Y20(OsPt3)3
_chemical_formula_sum   'Y20 Os3 Pt9'
_cell_volume   788.26411539
_cell_formula_units_Z   1
loop_
 _symmetry_equiv_pos_site_id
 _symmetry_equiv_pos_as_xyz
  1  'x, y, z'
loop_
 _atom_site_type_symbol
 _atom_site_label
 _atom_site_symmetry_multiplicity
 _atom_site_fract_x
 _atom_site_fract_y
 _atom_site_fract_z
 _atom_site_occupancy
  Y  Y0  1  0.297322  0.086537  0.373626  1
  Y  Y1  1  0.297707  0.914543  0.874086  1
  Y  Y2  1  0.702293  0.085457  0.874086  1
  Y  Y3  1  0.702678  0.913463  0.373626  1
  Y  Y4  1  0.585457  0.797707  0.874086  1
  Y  Y5  1  0.586537  0.202678  0.373626  1
  Y  Y6  1  0.413463  0.797322  0.373626  1
  Y  Y7  1  0.414543  0.202293  0.874086  1
  Y  Y8  1  0.206749  0.410647  0.631685  1
  Y  Y9  1  0.205229  0.588547  0.121890  1
  Y  Y10  1  0.794771  0.411453  0.121890  1
  Y  Y11  1  0.793251  0.589353  0.631685  1
  Y  Y12  1  0.911453  0.705229  0.121890  1
  Y  Y13  1  0.910647  0.293251  0.631685  1
  Y  Y14  1  0.089353  0.706749  0.631685  1
  Y  Y15  1  0.088547  0.294771  0.121890  1
  Y  Y16  1  0.000000  0.000000  0.497949  1
  Y  Y17  1  0.000000  0.000000  0.998444  1
  Y  Y18  1  0.500000  0.500000  0.998444  1
  Y  Y19  1  0.500000  0.500000  0.497949  1
  Os  Os20  1  0.500000  0.000000  0.127579  1
  Os  Os21  1  0.500000  0.000000  0.627050  1
  Os  Os22  1  0.000000  0.500000  0.872846  1
  Pt  Pt23  1  0.847409  0.154951  0.249735  1
  Pt  Pt24  1  0.847268  0.845789  0.749145  1
  Pt  Pt25  1  0.152732  0.154211  0.749145  1
  Pt  Pt26  1  0.152591  0.845049  0.249735  1
  Pt  Pt27  1  0.654211  0.347268  0.749145  1
  Pt  Pt28  1  0.654951  0.652591  0.249735  1
  Pt  Pt29  1  0.345049  0.347409  0.249735  1
  Pt  Pt30  1  0.345789  0.652732  0.749145  1
  Pt  Pt31  1  0.000000  0.500000  0.379073  1
