# generated using pymatgen
data_Li4Ta3MoH16
_symmetry_space_group_name_H-M   'P 1'
_cell_length_a   5.85610275
_cell_length_b   6.38462126
_cell_length_c   6.38462000
_cell_angle_alpha   54.59490127
_cell_angle_beta   62.70254245
_cell_angle_gamma   62.70255428
_symmetry_Int_Tables_number   1
_chemical_formula_structural   Li4Ta3MoH16
_chemical_formula_sum   'Li4 Ta3 Mo1 H16'
_cell_volume   166.65728493
_cell_formula_units_Z   1
loop_
 _symmetry_equiv_pos_site_id
 _symmetry_equiv_pos_as_xyz
  1  'x, y, z'
loop_
 _atom_site_type_symbol
 _atom_site_label
 _atom_site_symmetry_multiplicity
 _atom_site_fract_x
 _atom_site_fract_y
 _atom_site_fract_z
 _atom_site_occupancy
  Li  Li0  1  0.000000  0.000000  0.500000  1
  Li  Li1  1  0.500000  0.000000  0.500000  1
  Li  Li2  1  0.500000  0.500000  0.000000  1
  Li  Li3  1  0.000000  0.500000  0.000000  1
  Ta  Ta4  1  0.000000  0.500000  0.500000  1
  Ta  Ta5  1  0.500000  0.000000  0.000000  1
  Ta  Ta6  1  0.500000  0.500000  0.500000  1
  Mo  Mo7  1  0.000000  0.000000  0.000000  1
  H  H8  1  0.876610  0.880838  0.365945  1
  H  H9  1  0.876610  0.365945  0.880838  1
  H  H10  1  0.365945  0.876610  0.876610  1
  H  H11  1  0.880838  0.876610  0.876610  1
  H  H12  1  0.123390  0.119162  0.634055  1
  H  H13  1  0.123390  0.634055  0.119162  1
  H  H14  1  0.634055  0.123390  0.123390  1
  H  H15  1  0.119162  0.123390  0.123390  1
  H  H16  1  0.628025  0.623838  0.120114  1
  H  H17  1  0.628025  0.120114  0.623838  1
  H  H18  1  0.120114  0.628025  0.628025  1
  H  H19  1  0.623838  0.628025  0.628025  1
  H  H20  1  0.371975  0.376162  0.879886  1
  H  H21  1  0.371975  0.879886  0.376162  1
  H  H22  1  0.879886  0.371975  0.371975  1
  H  H23  1  0.376162  0.371975  0.371975  1
