# generated using pymatgen
data_Sr2Y2As7Ir8
_symmetry_space_group_name_H-M   'P 1'
_cell_length_a   4.10108600
_cell_length_b   13.29978914
_cell_length_c   13.71422894
_cell_angle_alpha   81.38565509
_cell_angle_beta   90.00000000
_cell_angle_gamma   90.00000000
_symmetry_Int_Tables_number   1
_chemical_formula_structural   Sr2Y2As7Ir8
_chemical_formula_sum   'Sr4 Y4 As14 Ir16'
_cell_volume   739.58461506
_cell_formula_units_Z   2
loop_
 _symmetry_equiv_pos_site_id
 _symmetry_equiv_pos_as_xyz
  1  'x, y, z'
loop_
 _atom_site_type_symbol
 _atom_site_label
 _atom_site_symmetry_multiplicity
 _atom_site_fract_x
 _atom_site_fract_y
 _atom_site_fract_z
 _atom_site_occupancy
  Sr  Sr0  1  0.250000  0.105416  0.789814  1
  Sr  Sr1  1  0.750000  0.894584  0.210186  1
  Sr  Sr2  1  0.250000  0.285393  0.103889  1
  Sr  Sr3  1  0.750000  0.714607  0.896111  1
  Y  Y4  1  0.250000  0.520648  0.293007  1
  Y  Y5  1  0.750000  0.479352  0.706993  1
  Y  Y6  1  0.250000  0.207495  0.441185  1
  Y  Y7  1  0.750000  0.792505  0.558815  1
  As  As8  1  0.250000  0.057035  0.101919  1
  As  As9  1  0.750000  0.942965  0.898081  1
  As  As10  1  0.250000  0.315694  0.685084  1
  As  As11  1  0.750000  0.684306  0.314916  1
  As  As12  1  0.250000  0.607194  0.567192  1
  As  As13  1  0.750000  0.392806  0.432808  1
  As  As14  1  0.250000  0.842368  0.718742  1
  As  As15  1  0.750000  0.157632  0.281258  1
  As  As16  1  0.750000  0.257427  0.916924  1
  As  As17  1  0.250000  0.742573  0.083076  1
  As  As18  1  0.750000  0.095536  0.585476  1
  As  As19  1  0.250000  0.904464  0.414524  1
  As  As20  1  0.750000  0.469572  0.130108  1
  As  As21  1  0.250000  0.530428  0.869892  1
  Ir  Ir22  1  0.250000  0.985083  0.573685  1
  Ir  Ir23  1  0.750000  0.014917  0.426315  1
  Ir  Ir24  1  0.250000  0.661019  0.726425  1
  Ir  Ir25  1  0.750000  0.338981  0.273575  1
  Ir  Ir26  1  0.250000  0.550259  0.050914  1
  Ir  Ir27  1  0.750000  0.449741  0.949086  1
  Ir  Ir28  1  0.250000  0.060440  0.280608  1
  Ir  Ir29  1  0.750000  0.939560  0.719392  1
  Ir  Ir30  1  0.250000  0.425516  0.521920  1
  Ir  Ir31  1  0.750000  0.574484  0.478080  1
  Ir  Ir32  1  0.250000  0.919865  0.998848  1
  Ir  Ir33  1  0.750000  0.080135  0.001152  1
  Ir  Ir34  1  0.250000  0.721919  0.405285  1
  Ir  Ir35  1  0.750000  0.278081  0.594715  1
  Ir  Ir36  1  0.250000  0.347811  0.855950  1
  Ir  Ir37  1  0.750000  0.652189  0.144050  1
