# generated using pymatgen
data_Dy13Er3In4OsRh3
_symmetry_space_group_name_H-M   'P 1'
_cell_length_a   9.63324009
_cell_length_b   9.66383127
_cell_length_c   9.64109736
_cell_angle_alpha   60.11059987
_cell_angle_beta   59.85383041
_cell_angle_gamma   60.14213202
_symmetry_Int_Tables_number   1
_chemical_formula_structural   Dy13Er3In4OsRh3
_chemical_formula_sum   'Dy13 Er3 In4 Os1 Rh3'
_cell_volume   635.14975262
_cell_formula_units_Z   1
loop_
 _symmetry_equiv_pos_site_id
 _symmetry_equiv_pos_as_xyz
  1  'x, y, z'
loop_
 _atom_site_type_symbol
 _atom_site_label
 _atom_site_symmetry_multiplicity
 _atom_site_fract_x
 _atom_site_fract_y
 _atom_site_fract_z
 _atom_site_occupancy
  Dy  Dy0  1  0.188467  0.192243  0.812640  1
  Dy  Dy1  1  0.439458  0.060983  0.061218  1
  Dy  Dy2  1  0.436374  0.063159  0.435821  1
  Dy  Dy3  1  0.059070  0.437960  0.058371  1
  Dy  Dy4  1  0.648115  0.049311  0.648732  1
  Dy  Dy5  1  0.190847  0.808652  0.811679  1
  Dy  Dy6  1  0.060929  0.059707  0.439761  1
  Dy  Dy7  1  0.811827  0.192685  0.188760  1
  Dy  Dy8  1  0.811390  0.809319  0.190731  1
  Dy  Dy9  1  0.649421  0.649054  0.047715  1
  Dy  Dy10  1  0.653181  0.651996  0.652136  1
  Dy  Dy11  1  0.061458  0.435362  0.442018  1
  Dy  Dy12  1  0.047217  0.648512  0.649508  1
  Er  Er13  1  0.808604  0.192809  0.809414  1
  Er  Er14  1  0.444586  0.436555  0.059178  1
  Er  Er15  1  0.192004  0.810087  0.191672  1
  In  In16  1  0.418978  0.746844  0.418966  1
  In  In17  1  0.416835  0.417733  0.749201  1
  In  In18  1  0.748062  0.417808  0.417739  1
  In  In19  1  0.417233  0.415873  0.417289  1
  Os  Os20  1  0.856703  0.423930  0.858486  1
  Rh  Rh21  1  0.859969  0.859728  0.422088  1
  Rh  Rh22  1  0.422436  0.858611  0.860245  1
  Rh  Rh23  1  0.856833  0.861079  0.856631  1
