# generated using pymatgen
data_Ca13Pr(TlN4)2
_symmetry_space_group_name_H-M   'P 1'
_cell_length_a   3.62364300
_cell_length_b   12.10789744
_cell_length_c   11.63134800
_cell_angle_alpha   90.02798564
_cell_angle_beta   90.00000000
_cell_angle_gamma   90.00000000
_symmetry_Int_Tables_number   1
_chemical_formula_structural   Ca13Pr(TlN4)2
_chemical_formula_sum   'Ca13 Pr1 Tl2 N8'
_cell_volume   510.32181785
_cell_formula_units_Z   1
loop_
 _symmetry_equiv_pos_site_id
 _symmetry_equiv_pos_as_xyz
  1  'x, y, z'
loop_
 _atom_site_type_symbol
 _atom_site_label
 _atom_site_symmetry_multiplicity
 _atom_site_fract_x
 _atom_site_fract_y
 _atom_site_fract_z
 _atom_site_occupancy
  Ca  Ca0  1  0.500238  0.672223  0.239763  1
  Ca  Ca1  1  0.500238  0.327777  0.760237  1
  Ca  Ca2  1  0.499799  0.169063  0.264271  1
  Ca  Ca3  1  0.499799  0.830937  0.735729  1
  Ca  Ca4  1  0.500180  0.000000  0.500000  1
  Ca  Ca5  1  0.999539  0.929376  0.264972  1
  Ca  Ca6  1  0.999539  0.070624  0.735028  1
  Ca  Ca7  1  0.000885  0.425196  0.243342  1
  Ca  Ca8  1  0.000885  0.574804  0.756658  1
  Ca  Ca9  1  0.000519  0.767357  0.479459  1
  Ca  Ca10  1  0.000519  0.232643  0.520541  1
  Ca  Ca11  1  0.998717  0.257957  0.022744  1
  Ca  Ca12  1  0.998717  0.742043  0.977256  1
  Pr  Pr13  1  0.499276  0.500000  0.000000  1
  Tl  Tl14  1  0.521549  0.500000  0.500000  1
  Tl  Tl15  1  0.478920  0.000000  0.000000  1
  N  N16  1  0.000410  0.598947  0.124716  1
  N  N17  1  0.000410  0.401053  0.875284  1
  N  N18  1  0.999673  0.101466  0.369318  1
  N  N19  1  0.999673  0.898534  0.630682  1
  N  N20  1  0.500038  0.832288  0.357558  1
  N  N21  1  0.500038  0.167712  0.642442  1
  N  N22  1  0.500218  0.334738  0.139912  1
  N  N23  1  0.500218  0.665262  0.860088  1
