# generated using pymatgen
data_BaFeB2O5
_symmetry_space_group_name_H-M   'P 1'
_cell_length_a   5.73995947
_cell_length_b   5.73995880
_cell_length_c   4.10642243
_cell_angle_alpha   86.52366497
_cell_angle_beta   86.52365307
_cell_angle_gamma   110.23689440
_symmetry_Int_Tables_number   1
_chemical_formula_structural   BaFeB2O5
_chemical_formula_sum   'Ba1 Fe1 B2 O5'
_cell_volume   126.22757041
_cell_formula_units_Z   1
loop_
 _symmetry_equiv_pos_site_id
 _symmetry_equiv_pos_as_xyz
  1  'x, y, z'
loop_
 _atom_site_type_symbol
 _atom_site_label
 _atom_site_symmetry_multiplicity
 _atom_site_fract_x
 _atom_site_fract_y
 _atom_site_fract_z
 _atom_site_occupancy
  Ba  Ba0  1  0.993786  0.006214  0.000000  1
  Fe  Fe1  1  0.402328  0.597672  0.500000  1
  B  B2  1  0.868993  0.484964  0.607123  1
  B  B3  1  0.515036  0.131007  0.392877  1
  O  O4  1  0.758685  0.241315  0.500000  1
  O  O5  1  0.332895  0.230108  0.452072  1
  O  O6  1  0.769892  0.667105  0.547928  1
  O  O7  1  0.078385  0.526789  0.770022  1
  O  O8  1  0.473211  0.921615  0.229978  1
