# generated using pymatgen
data_La3ThZn4IrRh3
_symmetry_space_group_name_H-M   'P 1'
_cell_length_a   4.01211700
_cell_length_b   7.52158975
_cell_length_c   16.70855078
_cell_angle_alpha   90.15309108
_cell_angle_beta   90.00000000
_cell_angle_gamma   90.00000000
_symmetry_Int_Tables_number   1
_chemical_formula_structural   La3ThZn4IrRh3
_chemical_formula_sum   'La6 Th2 Zn8 Ir2 Rh6'
_cell_volume   504.22045971
_cell_formula_units_Z   2
loop_
 _symmetry_equiv_pos_site_id
 _symmetry_equiv_pos_as_xyz
  1  'x, y, z'
loop_
 _atom_site_type_symbol
 _atom_site_label
 _atom_site_symmetry_multiplicity
 _atom_site_fract_x
 _atom_site_fract_y
 _atom_site_fract_z
 _atom_site_occupancy
  La  La0  1  0.250000  0.549458  0.783612  1
  La  La1  1  0.250000  0.674936  0.560158  1
  La  La2  1  0.750000  0.824568  0.059610  1
  La  La3  1  0.250000  0.171879  0.941097  1
  La  La4  1  0.750000  0.449007  0.216000  1
  La  La5  1  0.750000  0.948687  0.284309  1
  Th  Th6  1  0.750000  0.325660  0.440428  1
  Th  Th7  1  0.250000  0.052404  0.717505  1
  Zn  Zn8  1  0.250000  0.123082  0.149897  1
  Zn  Zn9  1  0.250000  0.991814  0.440130  1
  Zn  Zn10  1  0.750000  0.877066  0.850738  1
  Zn  Zn11  1  0.750000  0.002079  0.558637  1
  Zn  Zn12  1  0.250000  0.498201  0.059011  1
  Zn  Zn13  1  0.750000  0.374039  0.649972  1
  Zn  Zn14  1  0.750000  0.500572  0.940207  1
  Zn  Zn15  1  0.250000  0.618779  0.349801  1
  Ir  Ir16  1  0.750000  0.246198  0.807115  1
  Ir  Ir17  1  0.250000  0.250846  0.322546  1
  Rh  Rh18  1  0.250000  0.739694  0.934099  1
  Rh  Rh19  1  0.250000  0.247183  0.560534  1
  Rh  Rh20  1  0.250000  0.749088  0.185705  1
  Rh  Rh21  1  0.750000  0.747162  0.435591  1
  Rh  Rh22  1  0.750000  0.259099  0.065816  1
  Rh  Rh23  1  0.750000  0.778501  0.687481  1
