# generated using pymatgen
data_Nd2Tm4CoI10
_symmetry_space_group_name_H-M   'P 1'
_cell_length_a   7.73117934
_cell_length_b   9.72953244
_cell_length_c   9.77015100
_cell_angle_alpha   106.71368766
_cell_angle_beta   95.93418708
_cell_angle_gamma   105.18836192
_symmetry_Int_Tables_number   1
_chemical_formula_structural   Nd2Tm4CoI10
_chemical_formula_sum   'Nd2 Tm4 Co1 I10'
_cell_volume   666.46332322
_cell_formula_units_Z   1
loop_
 _symmetry_equiv_pos_site_id
 _symmetry_equiv_pos_as_xyz
  1  'x, y, z'
loop_
 _atom_site_type_symbol
 _atom_site_label
 _atom_site_symmetry_multiplicity
 _atom_site_fract_x
 _atom_site_fract_y
 _atom_site_fract_z
 _atom_site_occupancy
  Nd  Nd0  1  0.886395  0.957552  0.230757  1
  Nd  Nd1  1  0.113605  0.042448  0.769243  1
  Tm  Tm2  1  0.028737  0.722435  0.916715  1
  Tm  Tm3  1  0.971263  0.277565  0.083285  1
  Tm  Tm4  1  0.662878  0.879473  0.841663  1
  Tm  Tm5  1  0.337122  0.120527  0.158337  1
  Co  Co6  1  0.000000  0.000000  0.000000  1
  I  I7  1  0.653451  0.555029  0.732326  1
  I  I8  1  0.346549  0.444971  0.267674  1
  I  I9  1  0.732851  0.910943  0.544920  1
  I  I10  1  0.267149  0.089057  0.455080  1
  I  I11  1  0.082585  0.379155  0.826658  1
  I  I12  1  0.917415  0.620845  0.173342  1
  I  I13  1  0.447744  0.817536  0.088686  1
  I  I14  1  0.552256  0.182464  0.911314  1
  I  I15  1  0.229223  0.739831  0.662617  1
  I  I16  1  0.770777  0.260169  0.337383  1
