# generated using pymatgen
data_VGaNi4PtRh
_symmetry_space_group_name_H-M   'P 1'
_cell_length_a   3.65802200
_cell_length_b   3.68772500
_cell_length_c   7.31346500
_cell_angle_alpha   90.00000000
_cell_angle_beta   90.00000000
_cell_angle_gamma   90.00000000
_symmetry_Int_Tables_number   1
_chemical_formula_structural   VGaNi4PtRh
_chemical_formula_sum   'V1 Ga1 Ni4 Pt1 Rh1'
_cell_volume   98.65702789
_cell_formula_units_Z   1
loop_
 _symmetry_equiv_pos_site_id
 _symmetry_equiv_pos_as_xyz
  1  'x, y, z'
loop_
 _atom_site_type_symbol
 _atom_site_label
 _atom_site_symmetry_multiplicity
 _atom_site_fract_x
 _atom_site_fract_y
 _atom_site_fract_z
 _atom_site_occupancy
  V  V0  1  0.000000  0.000000  0.492314  1
  Ga  Ga1  1  0.000000  0.000000  0.004494  1
  Ni  Ni2  1  0.500000  0.500000  0.001944  1
  Ni  Ni3  1  0.500000  0.500000  0.499064  1
  Ni  Ni4  1  0.000000  0.500000  0.259790  1
  Ni  Ni5  1  0.000000  0.500000  0.738845  1
  Pt  Pt6  1  0.500000  0.000000  0.747681  1
  Rh  Rh7  1  0.500000  0.000000  0.255868  1
