# generated using pymatgen
data_PrNd5(RuCl3)2
_symmetry_space_group_name_H-M   'P 1'
_cell_length_a   4.18305400
_cell_length_b   8.77771691
_cell_length_c   11.90732111
_cell_angle_alpha   87.17274046
_cell_angle_beta   90.00000000
_cell_angle_gamma   90.00000000
_symmetry_Int_Tables_number   1
_chemical_formula_structural   PrNd5(RuCl3)2
_chemical_formula_sum   'Pr1 Nd5 Ru2 Cl6'
_cell_volume   436.67683564
_cell_formula_units_Z   1
loop_
 _symmetry_equiv_pos_site_id
 _symmetry_equiv_pos_as_xyz
  1  'x, y, z'
loop_
 _atom_site_type_symbol
 _atom_site_label
 _atom_site_symmetry_multiplicity
 _atom_site_fract_x
 _atom_site_fract_y
 _atom_site_fract_z
 _atom_site_occupancy
  Pr  Pr0  1  0.750000  0.124150  0.154337  1
  Nd  Nd1  1  0.250000  0.325511  0.378925  1
  Nd  Nd2  1  0.750000  0.674536  0.621803  1
  Nd  Nd3  1  0.250000  0.890241  0.380304  1
  Nd  Nd4  1  0.750000  0.109324  0.619894  1
  Nd  Nd5  1  0.250000  0.875675  0.844595  1
  Ru  Ru6  1  0.250000  0.890857  0.621180  1
  Ru  Ru7  1  0.750000  0.109069  0.378994  1
  Cl  Cl8  1  0.250000  0.400326  0.621726  1
  Cl  Cl9  1  0.750000  0.599968  0.378898  1
  Cl  Cl10  1  0.250000  0.896816  0.112271  1
  Cl  Cl11  1  0.750000  0.100002  0.886151  1
  Cl  Cl12  1  0.250000  0.347803  0.131253  1
  Cl  Cl13  1  0.750000  0.655721  0.869670  1
