# generated using pymatgen
data_Tb3Dy2Tc6P12Ir13
_symmetry_space_group_name_H-M   'P 1'
_cell_length_a   12.67553300
_cell_length_b   12.67553311
_cell_length_c   3.99586300
_cell_angle_alpha   90.00000000
_cell_angle_beta   90.00000000
_cell_angle_gamma   119.99999710
_symmetry_Int_Tables_number   1
_chemical_formula_structural   Tb3Dy2Tc6P12Ir13
_chemical_formula_sum   'Tb3 Dy2 Tc6 P12 Ir13'
_cell_volume   555.99860057
_cell_formula_units_Z   1
loop_
 _symmetry_equiv_pos_site_id
 _symmetry_equiv_pos_as_xyz
  1  'x, y, z'
loop_
 _atom_site_type_symbol
 _atom_site_label
 _atom_site_symmetry_multiplicity
 _atom_site_fract_x
 _atom_site_fract_y
 _atom_site_fract_z
 _atom_site_occupancy
  Tb  Tb0  1  0.000288  0.812173  0.000000  1
  Tb  Tb1  1  0.187827  0.188115  0.000000  1
  Tb  Tb2  1  0.811885  0.999712  0.000000  1
  Dy  Dy3  1  0.333333  0.666667  0.500000  1
  Dy  Dy4  1  0.666667  0.333333  0.500000  1
  Tc  Tc5  1  0.990488  0.446596  0.500000  1
  Tc  Tc6  1  0.553404  0.543891  0.500000  1
  Tc  Tc7  1  0.456109  0.009512  0.500000  1
  Tc  Tc8  1  0.620270  0.799121  0.500000  1
  Tc  Tc9  1  0.200879  0.821150  0.500000  1
  Tc  Tc10  1  0.178850  0.379730  0.500000  1
  P  P11  1  0.006972  0.638422  0.500000  1
  P  P12  1  0.361578  0.368551  0.500000  1
  P  P13  1  0.631449  0.993028  0.500000  1
  P  P14  1  0.521349  0.694023  0.000000  1
  P  P15  1  0.305977  0.827326  0.000000  1
  P  P16  1  0.172674  0.478651  0.000000  1
  P  P17  1  0.482284  0.168146  0.000000  1
  P  P18  1  0.685861  0.517716  0.000000  1
  P  P19  1  0.831854  0.314139  0.000000  1
  P  P20  1  0.003829  0.182637  0.500000  1
  P  P21  1  0.817363  0.821192  0.500000  1
  P  P22  1  0.178808  0.996171  0.500000  1
  Ir  Ir23  1  0.506710  0.874555  0.000000  1
  Ir  Ir24  1  0.125445  0.632156  0.000000  1
  Ir  Ir25  1  0.367844  0.493290  0.000000  1
  Ir  Ir26  1  0.493717  0.358015  0.000000  1
  Ir  Ir27  1  0.864299  0.506283  0.000000  1
  Ir  Ir28  1  0.641985  0.135701  0.000000  1
  Ir  Ir29  1  0.995161  0.281679  0.000000  1
  Ir  Ir30  1  0.718321  0.713483  0.000000  1
  Ir  Ir31  1  0.286517  0.004839  0.000000  1
  Ir  Ir32  1  0.374202  0.185043  0.500000  1
  Ir  Ir33  1  0.810841  0.625798  0.500000  1
  Ir  Ir34  1  0.814957  0.189159  0.500000  1
  Ir  Ir35  1  0.000000  0.000000  0.500000  1
