# generated using pymatgen
data_Tb2Nd(Ni3P2)3
_symmetry_space_group_name_H-M   'P 1'
_cell_length_a   3.81455200
_cell_length_b   10.49089500
_cell_length_c   12.36955300
_cell_angle_alpha   90.00000000
_cell_angle_beta   90.00000000
_cell_angle_gamma   90.00000000
_symmetry_Int_Tables_number   1
_chemical_formula_structural   Tb2Nd(Ni3P2)3
_chemical_formula_sum   'Tb4 Nd2 Ni18 P12'
_cell_volume   495.00556984
_cell_formula_units_Z   2
loop_
 _symmetry_equiv_pos_site_id
 _symmetry_equiv_pos_as_xyz
  1  'x, y, z'
loop_
 _atom_site_type_symbol
 _atom_site_label
 _atom_site_symmetry_multiplicity
 _atom_site_fract_x
 _atom_site_fract_y
 _atom_site_fract_z
 _atom_site_occupancy
  Tb  Tb0  1  0.500000  0.815900  0.204391  1
  Tb  Tb1  1  0.500000  0.184100  0.204391  1
  Tb  Tb2  1  0.000000  0.684100  0.795609  1
  Tb  Tb3  1  0.000000  0.315900  0.795609  1
  Nd  Nd4  1  0.000000  0.500000  0.520040  1
  Nd  Nd5  1  0.500000  0.000000  0.479960  1
  Ni  Ni6  1  0.500000  0.500000  0.156282  1
  Ni  Ni7  1  0.000000  0.000000  0.843718  1
  Ni  Ni8  1  0.500000  0.500000  0.701800  1
  Ni  Ni9  1  0.000000  0.000000  0.298200  1
  Ni  Ni10  1  0.000000  0.500000  0.983612  1
  Ni  Ni11  1  0.500000  0.000000  0.016388  1
  Ni  Ni12  1  0.500000  0.332707  0.996102  1
  Ni  Ni13  1  0.500000  0.667293  0.996102  1
  Ni  Ni14  1  0.000000  0.167293  0.003898  1
  Ni  Ni15  1  0.000000  0.832707  0.003898  1
  Ni  Ni16  1  0.500000  0.299991  0.426587  1
  Ni  Ni17  1  0.500000  0.700009  0.426587  1
  Ni  Ni18  1  0.000000  0.200009  0.573413  1
  Ni  Ni19  1  0.000000  0.799991  0.573413  1
  Ni  Ni20  1  0.500000  0.880070  0.713949  1
  Ni  Ni21  1  0.500000  0.119930  0.713949  1
  Ni  Ni22  1  0.000000  0.619930  0.286051  1
  Ni  Ni23  1  0.000000  0.380070  0.286051  1
  P  P24  1  0.500000  0.500000  0.877444  1
  P  P25  1  0.000000  0.000000  0.122556  1
  P  P26  1  0.500000  0.500000  0.338939  1
  P  P27  1  0.000000  0.000000  0.661061  1
  P  P28  1  0.500000  0.310079  0.615457  1
  P  P29  1  0.500000  0.689921  0.615457  1
  P  P30  1  0.000000  0.189921  0.384543  1
  P  P31  1  0.000000  0.810079  0.384543  1
  P  P32  1  0.500000  0.847908  0.894403  1
  P  P33  1  0.500000  0.152092  0.894403  1
  P  P34  1  0.000000  0.652092  0.105597  1
  P  P35  1  0.000000  0.347908  0.105597  1
