# generated using pymatgen
data_Tb2Lu2ReRu7
_symmetry_space_group_name_H-M   'P 1'
_cell_length_a   5.18137398
_cell_length_b   5.42192028
_cell_length_c   8.95153306
_cell_angle_alpha   89.98737019
_cell_angle_beta   90.00347285
_cell_angle_gamma   121.36476615
_symmetry_Int_Tables_number   1
_chemical_formula_structural   Tb2Lu2ReRu7
_chemical_formula_sum   'Tb2 Lu2 Re1 Ru7'
_cell_volume   214.72754289
_cell_formula_units_Z   1
loop_
 _symmetry_equiv_pos_site_id
 _symmetry_equiv_pos_as_xyz
  1  'x, y, z'
loop_
 _atom_site_type_symbol
 _atom_site_label
 _atom_site_symmetry_multiplicity
 _atom_site_fract_x
 _atom_site_fract_y
 _atom_site_fract_z
 _atom_site_occupancy
  Tb  Tb0  1  0.671158  0.334689  0.567153  1
  Tb  Tb1  1  0.342523  0.671441  0.434628  1
  Lu  Lu2  1  0.344609  0.672462  0.064758  1
  Lu  Lu3  1  0.669827  0.334008  0.933913  1
  Re  Re4  1  0.316523  0.158421  0.247134  1
  Ru  Ru5  1  0.023920  0.012108  0.500253  1
  Ru  Ru6  1  0.024997  0.012624  0.999339  1
  Ru  Ru7  1  0.166230  0.335221  0.753186  1
  Ru  Ru8  1  0.161480  0.831877  0.753123  1
  Ru  Ru9  1  0.646074  0.822785  0.753928  1
  Ru  Ru10  1  0.816255  0.645519  0.246264  1
  Ru  Ru11  1  0.816403  0.168847  0.246321  1
