# generated using pymatgen
data_Sc11AgOs3
_symmetry_space_group_name_H-M   'P 1'
_cell_length_a   9.53420411
_cell_length_b   9.59858495
_cell_length_c   9.59858448
_cell_angle_alpha   59.55674249
_cell_angle_beta   60.22163323
_cell_angle_gamma   60.22163234
_symmetry_Int_Tables_number   1
_chemical_formula_structural   Sc11AgOs3
_chemical_formula_sum   'Sc22 Ag2 Os6'
_cell_volume   621.07644776
_cell_formula_units_Z   2
loop_
 _symmetry_equiv_pos_site_id
 _symmetry_equiv_pos_as_xyz
  1  'x, y, z'
loop_
 _atom_site_type_symbol
 _atom_site_label
 _atom_site_symmetry_multiplicity
 _atom_site_fract_x
 _atom_site_fract_y
 _atom_site_fract_z
 _atom_site_occupancy
  Sc  Sc0  1  0.856457  0.837598  0.837598  1
  Sc  Sc1  1  0.531652  0.162402  0.162402  1
  Sc  Sc2  1  0.162402  0.143543  0.531652  1
  Sc  Sc3  1  0.162402  0.531652  0.143543  1
  Sc  Sc4  1  0.837598  0.856457  0.468348  1
  Sc  Sc5  1  0.837598  0.468348  0.856457  1
  Sc  Sc6  1  0.468348  0.837598  0.837598  1
  Sc  Sc7  1  0.143543  0.162402  0.162402  1
  Sc  Sc8  1  0.196563  0.803437  0.196563  1
  Sc  Sc9  1  0.197246  0.802754  0.802754  1
  Sc  Sc10  1  0.802754  0.197246  0.197246  1
  Sc  Sc11  1  0.803437  0.803437  0.196563  1
  Sc  Sc12  1  0.196563  0.196563  0.803437  1
  Sc  Sc13  1  0.803437  0.196563  0.803437  1
  Sc  Sc14  1  0.392567  0.379779  0.379779  1
  Sc  Sc15  1  0.152126  0.620221  0.620221  1
  Sc  Sc16  1  0.620221  0.152126  0.607433  1
  Sc  Sc17  1  0.620221  0.607433  0.152126  1
  Sc  Sc18  1  0.379779  0.847874  0.392567  1
  Sc  Sc19  1  0.379779  0.392567  0.847874  1
  Sc  Sc20  1  0.847874  0.379779  0.379779  1
  Sc  Sc21  1  0.607433  0.620221  0.620221  1
  Ag  Ag22  1  0.000000  0.500000  0.500000  1
  Ag  Ag23  1  0.500000  0.000000  0.000000  1
  Os  Os24  1  0.500000  0.500000  0.000000  1
  Os  Os25  1  0.000000  0.000000  0.500000  1
  Os  Os26  1  0.500000  0.000000  0.500000  1
  Os  Os27  1  0.000000  0.500000  0.000000  1
  Os  Os28  1  0.500000  0.500000  0.500000  1
  Os  Os29  1  0.000000  0.000000  0.000000  1
