# generated using pymatgen
data_Ta3Mn4NbSi4
_symmetry_space_group_name_H-M   'P 1'
_cell_length_a   3.55032700
_cell_length_b   6.36302741
_cell_length_c   7.47083888
_cell_angle_alpha   90.00838493
_cell_angle_beta   90.00000000
_cell_angle_gamma   90.00000000
_symmetry_Int_Tables_number   1
_chemical_formula_structural   Ta3Mn4NbSi4
_chemical_formula_sum   'Ta3 Mn4 Nb1 Si4'
_cell_volume   168.77243451
_cell_formula_units_Z   1
loop_
 _symmetry_equiv_pos_site_id
 _symmetry_equiv_pos_as_xyz
  1  'x, y, z'
loop_
 _atom_site_type_symbol
 _atom_site_label
 _atom_site_symmetry_multiplicity
 _atom_site_fract_x
 _atom_site_fract_y
 _atom_site_fract_z
 _atom_site_occupancy
  Ta  Ta0  1  0.250000  0.533433  0.328139  1
  Ta  Ta1  1  0.250000  0.033450  0.172832  1
  Ta  Ta2  1  0.750000  0.466664  0.671966  1
  Mn  Mn3  1  0.750000  0.362014  0.062757  1
  Mn  Mn4  1  0.250000  0.636768  0.938145  1
  Mn  Mn5  1  0.750000  0.861716  0.437040  1
  Mn  Mn6  1  0.250000  0.139390  0.561116  1
  Nb  Nb7  1  0.750000  0.966584  0.828049  1
  Si  Si8  1  0.250000  0.766663  0.629773  1
  Si  Si9  1  0.750000  0.234052  0.370150  1
  Si  Si10  1  0.250000  0.265279  0.870096  1
  Si  Si11  1  0.750000  0.733987  0.129936  1
