# generated using pymatgen
data_Er(Zn5Ni)2
_symmetry_space_group_name_H-M   'P 1'
_cell_length_a   6.69764802
_cell_length_b   6.68442633
_cell_length_c   6.68442519
_cell_angle_alpha   98.02215138
_cell_angle_beta   98.11160553
_cell_angle_gamma   135.86027918
_symmetry_Int_Tables_number   1
_chemical_formula_structural   Er(Zn5Ni)2
_chemical_formula_sum   'Er1 Zn10 Ni2'
_cell_volume   193.32808942
_cell_formula_units_Z   1
loop_
 _symmetry_equiv_pos_site_id
 _symmetry_equiv_pos_as_xyz
  1  'x, y, z'
loop_
 _atom_site_type_symbol
 _atom_site_label
 _atom_site_symmetry_multiplicity
 _atom_site_fract_x
 _atom_site_fract_y
 _atom_site_fract_z
 _atom_site_occupancy
  Er  Er0  1  0.000000  0.000000  0.000000  1
  Zn  Zn1  1  0.727954  0.513052  0.214901  1
  Zn  Zn2  1  0.500000  0.500000  0.500000  1
  Zn  Zn3  1  0.500000  0.000000  0.000000  1
  Zn  Zn4  1  0.323088  0.976088  0.347000  1
  Zn  Zn5  1  0.000000  0.654657  0.654657  1
  Zn  Zn6  1  0.000000  0.345343  0.345343  1
  Zn  Zn7  1  0.676912  0.023912  0.653000  1
  Zn  Zn8  1  0.272046  0.486948  0.785099  1
  Zn  Zn9  1  0.500000  0.717575  0.217575  1
  Zn  Zn10  1  0.500000  0.282425  0.782425  1
  Ni  Ni11  1  0.000000  0.500000  0.000000  1
  Ni  Ni12  1  0.000000  0.000000  0.500000  1
