# generated using pymatgen
data_Ni6BP2
_symmetry_space_group_name_H-M   'P 1'
_cell_length_a   5.80582100
_cell_length_b   5.80582257
_cell_length_c   3.15391500
_cell_angle_alpha   90.00000000
_cell_angle_beta   90.00000000
_cell_angle_gamma   119.99999675
_symmetry_Int_Tables_number   1
_chemical_formula_structural   Ni6BP2
_chemical_formula_sum   'Ni6 B1 P2'
_cell_volume   92.06785643
_cell_formula_units_Z   1
loop_
 _symmetry_equiv_pos_site_id
 _symmetry_equiv_pos_as_xyz
  1  'x, y, z'
loop_
 _atom_site_type_symbol
 _atom_site_label
 _atom_site_symmetry_multiplicity
 _atom_site_fract_x
 _atom_site_fract_y
 _atom_site_fract_z
 _atom_site_occupancy
  Ni  Ni0  1  0.750390  0.750390  0.000000  1
  Ni  Ni1  1  0.000000  0.249610  0.000000  1
  Ni  Ni2  1  0.391023  0.391023  0.500000  1
  Ni  Ni3  1  0.000000  0.608977  0.500000  1
  Ni  Ni4  1  0.249610  0.000000  0.000000  1
  Ni  Ni5  1  0.608977  0.000000  0.500000  1
  B  B6  1  0.000000  0.000000  0.500000  1
  P  P7  1  0.333333  0.666667  0.000000  1
  P  P8  1  0.666667  0.333333  0.000000  1
