# generated using pymatgen
data_Hf(ZrI4)3
_symmetry_space_group_name_H-M   'P 1'
_cell_length_a   6.56631604
_cell_length_b   8.10897504
_cell_length_c   14.13129500
_cell_angle_alpha   90.00000000
_cell_angle_beta   90.00000000
_cell_angle_gamma   89.98786660
_symmetry_Int_Tables_number   1
_chemical_formula_structural   Hf(ZrI4)3
_chemical_formula_sum   'Hf1 Zr3 I12'
_cell_volume   752.43622926
_cell_formula_units_Z   1
loop_
 _symmetry_equiv_pos_site_id
 _symmetry_equiv_pos_as_xyz
  1  'x, y, z'
loop_
 _atom_site_type_symbol
 _atom_site_label
 _atom_site_symmetry_multiplicity
 _atom_site_fract_x
 _atom_site_fract_y
 _atom_site_fract_z
 _atom_site_occupancy
  Hf  Hf0  1  0.247974  0.752115  0.500000  1
  Zr  Zr1  1  0.751915  0.752149  0.500000  1
  Zr  Zr2  1  0.251275  0.247887  0.000000  1
  Zr  Zr3  1  0.748777  0.247879  0.000000  1
  I  I4  1  0.003194  0.603353  0.648096  1
  I  I5  1  0.003150  0.049686  0.500000  1
  I  I6  1  0.000020  0.099025  0.851420  1
  I  I7  1  0.000020  0.099025  0.148580  1
  I  I8  1  0.496735  0.900016  0.352453  1
  I  I9  1  0.500029  0.397294  0.148849  1
  I  I10  1  0.496923  0.455856  0.500000  1
  I  I11  1  0.496735  0.900016  0.647547  1
  I  I12  1  0.500029  0.397294  0.851151  1
  I  I13  1  0.500041  0.948763  0.000000  1
  I  I14  1  0.999991  0.546291  0.000000  1
  I  I15  1  0.003194  0.603353  0.351904  1
