# generated using pymatgen
data_Ti3Cr(FeP)4
_symmetry_space_group_name_H-M   'P 1'
_cell_length_a   3.59897700
_cell_length_b   5.94402761
_cell_length_c   6.74471736
_cell_angle_alpha   89.56609867
_cell_angle_beta   90.00000000
_cell_angle_gamma   90.00000000
_symmetry_Int_Tables_number   1
_chemical_formula_structural   Ti3Cr(FeP)4
_chemical_formula_sum   'Ti3 Cr1 Fe4 P4'
_cell_volume   144.28167993
_cell_formula_units_Z   1
loop_
 _symmetry_equiv_pos_site_id
 _symmetry_equiv_pos_as_xyz
  1  'x, y, z'
loop_
 _atom_site_type_symbol
 _atom_site_label
 _atom_site_symmetry_multiplicity
 _atom_site_fract_x
 _atom_site_fract_y
 _atom_site_fract_z
 _atom_site_occupancy
  Ti  Ti0  1  0.250000  0.520163  0.684559  1
  Ti  Ti1  1  0.750000  0.979214  0.176423  1
  Ti  Ti2  1  0.750000  0.476338  0.318564  1
  Cr  Cr3  1  0.250000  0.024199  0.822416  1
  Fe  Fe4  1  0.250000  0.146979  0.441462  1
  Fe  Fe5  1  0.250000  0.648708  0.060226  1
  Fe  Fe6  1  0.750000  0.853392  0.562108  1
  Fe  Fe7  1  0.750000  0.353362  0.936845  1
  P  P8  1  0.250000  0.774124  0.378571  1
  P  P9  1  0.250000  0.272565  0.114698  1
  P  P10  1  0.750000  0.219216  0.627029  1
  P  P11  1  0.750000  0.731743  0.877100  1
