# generated using pymatgen
data_Y2Ho14Cd4PdRu2Pt
_symmetry_space_group_name_H-M   'P 1'
_cell_length_a   9.61356729
_cell_length_b   9.61356859
_cell_length_c   9.65590400
_cell_angle_alpha   59.85421908
_cell_angle_beta   59.85421456
_cell_angle_gamma   59.71013946
_symmetry_Int_Tables_number   1
_chemical_formula_structural   Y2Ho14Cd4PdRu2Pt
_chemical_formula_sum   'Y2 Ho14 Cd4 Pd1 Ru2 Pt1'
_cell_volume   628.24700161
_cell_formula_units_Z   1
loop_
 _symmetry_equiv_pos_site_id
 _symmetry_equiv_pos_as_xyz
  1  'x, y, z'
loop_
 _atom_site_type_symbol
 _atom_site_label
 _atom_site_symmetry_multiplicity
 _atom_site_fract_x
 _atom_site_fract_y
 _atom_site_fract_z
 _atom_site_occupancy
  Y  Y0  1  0.564870  0.564070  0.935530  1
  Y  Y1  1  0.937042  0.937060  0.562949  1
  Ho  Ho2  1  0.350238  0.348434  0.353768  1
  Ho  Ho3  1  0.350238  0.348434  0.947560  1
  Ho  Ho4  1  0.346697  0.954488  0.349408  1
  Ho  Ho5  1  0.953461  0.345825  0.350357  1
  Ho  Ho6  1  0.815498  0.187777  0.189893  1
  Ho  Ho7  1  0.187937  0.816846  0.805586  1
  Ho  Ho8  1  0.187937  0.816846  0.189631  1
  Ho  Ho9  1  0.815498  0.187777  0.806831  1
  Ho  Ho10  1  0.187953  0.187542  0.812252  1
  Ho  Ho11  1  0.807761  0.809840  0.191200  1
  Ho  Ho12  1  0.936786  0.559011  0.567163  1
  Ho  Ho13  1  0.558850  0.937141  0.937480  1
  Ho  Ho14  1  0.558850  0.937141  0.566530  1
  Ho  Ho15  1  0.936786  0.559011  0.937040  1
  Cd  Cd16  1  0.580046  0.579994  0.580990  1
  Cd  Cd17  1  0.580046  0.579994  0.258969  1
  Cd  Cd18  1  0.580623  0.256137  0.581621  1
  Cd  Cd19  1  0.256075  0.580652  0.581637  1
  Pd  Pd20  1  0.144578  0.572786  0.141319  1
  Ru  Ru21  1  0.144599  0.144234  0.138222  1
  Ru  Ru22  1  0.144599  0.144234  0.572945  1
  Pt  Pt23  1  0.573034  0.144728  0.141120  1
