# generated using pymatgen
data_Hf6Al16Co3Pt4
_symmetry_space_group_name_H-M   'P 1'
_cell_length_a   8.64209651
_cell_length_b   8.63622485
_cell_length_c   8.64209693
_cell_angle_alpha   60.10336824
_cell_angle_beta   59.92874526
_cell_angle_gamma   60.10336808
_symmetry_Int_Tables_number   1
_chemical_formula_structural   Hf6Al16Co3Pt4
_chemical_formula_sum   'Hf6 Al16 Co3 Pt4'
_cell_volume   456.55050393
_cell_formula_units_Z   1
loop_
 _symmetry_equiv_pos_site_id
 _symmetry_equiv_pos_as_xyz
  1  'x, y, z'
loop_
 _atom_site_type_symbol
 _atom_site_label
 _atom_site_symmetry_multiplicity
 _atom_site_fract_x
 _atom_site_fract_y
 _atom_site_fract_z
 _atom_site_occupancy
  Hf  Hf0  1  0.685800  0.683405  0.316302  1
  Hf  Hf1  1  0.316314  0.681681  0.316314  1
  Hf  Hf2  1  0.683698  0.316595  0.314200  1
  Hf  Hf3  1  0.314200  0.316595  0.683698  1
  Hf  Hf4  1  0.683686  0.318319  0.683686  1
  Hf  Hf5  1  0.316302  0.683405  0.685800  1
  Al  Al6  1  0.886511  0.872858  0.350775  1
  Al  Al7  1  0.878777  0.351718  0.878777  1
  Al  Al8  1  0.350775  0.872858  0.886511  1
  Al  Al9  1  0.884623  0.881824  0.884623  1
  Al  Al10  1  0.113489  0.127142  0.649225  1
  Al  Al11  1  0.121223  0.648282  0.121223  1
  Al  Al12  1  0.649225  0.127142  0.113489  1
  Al  Al13  1  0.115377  0.118176  0.115377  1
  Al  Al14  1  0.659140  0.658628  0.006565  1
  Al  Al15  1  0.663733  0.008251  0.663733  1
  Al  Al16  1  0.006565  0.658628  0.659140  1
  Al  Al17  1  0.669530  0.655312  0.669530  1
  Al  Al18  1  0.340860  0.341372  0.993435  1
  Al  Al19  1  0.336267  0.991749  0.336267  1
  Al  Al20  1  0.993435  0.341372  0.340860  1
  Al  Al21  1  0.330470  0.344688  0.330470  1
  Co  Co22  1  0.000000  0.000000  0.000000  1
  Co  Co23  1  0.000000  0.500000  0.500000  1
  Co  Co24  1  0.500000  0.500000  0.000000  1
  Pt  Pt25  1  0.000000  0.000000  0.500000  1
  Pt  Pt26  1  0.500000  0.000000  0.500000  1
  Pt  Pt27  1  0.000000  0.500000  0.000000  1
  Pt  Pt28  1  0.500000  0.000000  0.000000  1
