# generated using pymatgen
data_PrHo2Co4P6Rh5
_symmetry_space_group_name_H-M   'P 1'
_cell_length_a   3.79596700
_cell_length_b   10.94920800
_cell_length_c   12.64543500
_cell_angle_alpha   90.00000000
_cell_angle_beta   90.00000000
_cell_angle_gamma   90.00000000
_symmetry_Int_Tables_number   1
_chemical_formula_structural   PrHo2Co4P6Rh5
_chemical_formula_sum   'Pr2 Ho4 Co8 P12 Rh10'
_cell_volume   525.58009356
_cell_formula_units_Z   2
loop_
 _symmetry_equiv_pos_site_id
 _symmetry_equiv_pos_as_xyz
  1  'x, y, z'
loop_
 _atom_site_type_symbol
 _atom_site_label
 _atom_site_symmetry_multiplicity
 _atom_site_fract_x
 _atom_site_fract_y
 _atom_site_fract_z
 _atom_site_occupancy
  Pr  Pr0  1  0.000000  0.500000  0.518161  1
  Pr  Pr1  1  0.500000  0.000000  0.476351  1
  Ho  Ho2  1  0.500000  0.815422  0.196347  1
  Ho  Ho3  1  0.500000  0.184578  0.196347  1
  Ho  Ho4  1  0.000000  0.680196  0.804933  1
  Ho  Ho5  1  0.000000  0.319804  0.804933  1
  Co  Co6  1  0.000000  0.500000  0.992100  1
  Co  Co7  1  0.500000  0.000000  0.010382  1
  Co  Co8  1  0.000000  0.620111  0.281597  1
  Co  Co9  1  0.000000  0.379889  0.281597  1
  Co  Co10  1  0.500000  0.334294  0.997960  1
  Co  Co11  1  0.500000  0.665706  0.997960  1
  Co  Co12  1  0.000000  0.169093  0.006579  1
  Co  Co13  1  0.000000  0.830907  0.006579  1
  P  P14  1  0.500000  0.314911  0.622196  1
  P  P15  1  0.500000  0.685089  0.622196  1
  P  P16  1  0.000000  0.193499  0.370128  1
  P  P17  1  0.000000  0.806501  0.370128  1
  P  P18  1  0.500000  0.500000  0.895526  1
  P  P19  1  0.000000  0.000000  0.104991  1
  P  P20  1  0.500000  0.839494  0.905328  1
  P  P21  1  0.500000  0.160506  0.905328  1
  P  P22  1  0.000000  0.656256  0.103407  1
  P  P23  1  0.000000  0.343744  0.103407  1
  P  P24  1  0.500000  0.500000  0.336867  1
  P  P25  1  0.000000  0.000000  0.658183  1
  Rh  Rh26  1  0.500000  0.297235  0.423648  1
  Rh  Rh27  1  0.500000  0.702765  0.423648  1
  Rh  Rh28  1  0.000000  0.207539  0.571236  1
  Rh  Rh29  1  0.000000  0.792461  0.571236  1
  Rh  Rh30  1  0.500000  0.872651  0.719574  1
  Rh  Rh31  1  0.500000  0.127349  0.719574  1
  Rh  Rh32  1  0.500000  0.500000  0.155852  1
  Rh  Rh33  1  0.000000  0.000000  0.845774  1
  Rh  Rh34  1  0.500000  0.500000  0.712831  1
  Rh  Rh35  1  0.000000  0.000000  0.287111  1
