# generated using pymatgen
data_Dy5Y14ErSn16
_symmetry_space_group_name_H-M   'P 1'
_cell_length_a   8.05833704
_cell_length_b   8.19067602
_cell_length_c   15.49600300
_cell_angle_alpha   89.99769856
_cell_angle_beta   90.00589429
_cell_angle_gamma   89.95979856
_symmetry_Int_Tables_number   1
_chemical_formula_structural   Dy5Y14ErSn16
_chemical_formula_sum   'Dy5 Y14 Er1 Sn16'
_cell_volume   1022.78596108
_cell_formula_units_Z   1
loop_
 _symmetry_equiv_pos_site_id
 _symmetry_equiv_pos_as_xyz
  1  'x, y, z'
loop_
 _atom_site_type_symbol
 _atom_site_label
 _atom_site_symmetry_multiplicity
 _atom_site_fract_x
 _atom_site_fract_y
 _atom_site_fract_z
 _atom_site_occupancy
  Dy  Dy0  1  0.367200  0.837053  0.877633  1
  Dy  Dy1  1  0.867341  0.662585  0.622591  1
  Dy  Dy2  1  0.632985  0.162968  0.377387  1
  Dy  Dy3  1  0.132992  0.337573  0.121957  1
  Dy  Dy4  1  0.632264  0.162518  0.122481  1
  Y  Y5  1  0.132725  0.337241  0.377712  1
  Y  Y6  1  0.367210  0.837218  0.622413  1
  Y  Y7  1  0.867530  0.662592  0.877814  1
  Y  Y8  1  0.520775  0.321092  0.902951  1
  Y  Y9  1  0.020998  0.178682  0.597229  1
  Y  Y10  1  0.479177  0.678668  0.402713  1
  Y  Y11  1  0.978811  0.821460  0.097306  1
  Y  Y12  1  0.479501  0.679022  0.097046  1
  Y  Y13  1  0.979517  0.821055  0.402880  1
  Y  Y14  1  0.520335  0.320961  0.597143  1
  Y  Y15  1  0.020921  0.179164  0.902880  1
  Y  Y16  1  0.698792  0.997138  0.749971  1
  Y  Y17  1  0.801069  0.497187  0.250098  1
  Y  Y18  1  0.301245  0.002993  0.249970  1
  Er  Er19  1  0.198884  0.503144  0.750005  1
  Sn  Sn20  1  0.293467  0.037330  0.041487  1
  Sn  Sn21  1  0.793170  0.462475  0.458500  1
  Sn  Sn22  1  0.706795  0.962503  0.541319  1
  Sn  Sn23  1  0.206958  0.537477  0.958192  1
  Sn  Sn24  1  0.706281  0.963040  0.958761  1
  Sn  Sn25  1  0.206227  0.536874  0.542041  1
  Sn  Sn26  1  0.293963  0.036942  0.458183  1
  Sn  Sn27  1  0.793113  0.461849  0.041676  1
  Sn  Sn28  1  0.564448  0.618295  0.750447  1
  Sn  Sn29  1  0.065204  0.880973  0.750297  1
  Sn  Sn30  1  0.434975  0.381261  0.249604  1
  Sn  Sn31  1  0.934831  0.119113  0.249245  1
  Sn  Sn32  1  0.329870  0.148668  0.750424  1
  Sn  Sn33  1  0.831009  0.352765  0.750000  1
  Sn  Sn34  1  0.669655  0.852653  0.249977  1
  Sn  Sn35  1  0.169761  0.647468  0.249667  1
