# generated using pymatgen
data_Dy5Ge3P9Ir16Rh3
_symmetry_space_group_name_H-M   'P 1'
_cell_length_a   12.85220500
_cell_length_b   12.85220386
_cell_length_c   3.97167400
_cell_angle_alpha   90.00000000
_cell_angle_beta   90.00000000
_cell_angle_gamma   120.00000035
_symmetry_Int_Tables_number   1
_chemical_formula_structural   Dy5Ge3P9Ir16Rh3
_chemical_formula_sum   'Dy5 Ge3 P9 Ir16 Rh3'
_cell_volume   568.14537275
_cell_formula_units_Z   1
loop_
 _symmetry_equiv_pos_site_id
 _symmetry_equiv_pos_as_xyz
  1  'x, y, z'
loop_
 _atom_site_type_symbol
 _atom_site_label
 _atom_site_symmetry_multiplicity
 _atom_site_fract_x
 _atom_site_fract_y
 _atom_site_fract_z
 _atom_site_occupancy
  Dy  Dy0  1  0.333333  0.666667  0.500000  1
  Dy  Dy1  1  0.666667  0.333333  0.500000  1
  Dy  Dy2  1  0.000000  0.817517  0.000000  1
  Dy  Dy3  1  0.182483  0.182483  0.000000  1
  Dy  Dy4  1  0.817517  0.000000  0.000000  1
  Ge  Ge5  1  0.000000  0.639990  0.500000  1
  Ge  Ge6  1  0.360010  0.360010  0.500000  1
  Ge  Ge7  1  0.639990  0.000000  0.500000  1
  P  P8  1  0.516808  0.687446  0.000000  1
  P  P9  1  0.312554  0.829362  0.000000  1
  P  P10  1  0.170638  0.483192  0.000000  1
  P  P11  1  0.483192  0.170638  0.000000  1
  P  P12  1  0.687446  0.516808  0.000000  1
  P  P13  1  0.829362  0.312554  0.000000  1
  P  P14  1  0.000000  0.179699  0.500000  1
  P  P15  1  0.820301  0.820301  0.500000  1
  P  P16  1  0.179699  0.000000  0.500000  1
  Ir  Ir17  1  0.505218  0.864732  0.000000  1
  Ir  Ir18  1  0.135268  0.640487  0.000000  1
  Ir  Ir19  1  0.359513  0.494782  0.000000  1
  Ir  Ir20  1  0.494782  0.359513  0.000000  1
  Ir  Ir21  1  0.864732  0.505218  0.000000  1
  Ir  Ir22  1  0.640487  0.135268  0.000000  1
  Ir  Ir23  1  0.000000  0.281430  0.000000  1
  Ir  Ir24  1  0.718570  0.718570  0.000000  1
  Ir  Ir25  1  0.281430  0.000000  0.000000  1
  Ir  Ir26  1  0.623092  0.797726  0.500000  1
  Ir  Ir27  1  0.202274  0.825365  0.500000  1
  Ir  Ir28  1  0.174635  0.376908  0.500000  1
  Ir  Ir29  1  0.376908  0.174635  0.500000  1
  Ir  Ir30  1  0.797726  0.623092  0.500000  1
  Ir  Ir31  1  0.825365  0.202274  0.500000  1
  Ir  Ir32  1  0.000000  0.000000  0.500000  1
  Rh  Rh33  1  0.000000  0.451445  0.500000  1
  Rh  Rh34  1  0.548555  0.548555  0.500000  1
  Rh  Rh35  1  0.451445  0.000000  0.500000  1
