# generated using pymatgen
data_SmGdSnAu2
_symmetry_space_group_name_H-M   'P 1'
_cell_length_a   19.81316877
_cell_length_b   19.81316877
_cell_length_c   10.43311400
_cell_angle_alpha   90.00000000
_cell_angle_beta   90.00000000
_cell_angle_gamma   78.45573992
_symmetry_Int_Tables_number   1
_chemical_formula_structural   SmGdSnAu2
_chemical_formula_sum   'Sm2 Gd2 Sn2 Au4'
_cell_volume   4012.78736410
_cell_formula_units_Z   2
loop_
 _symmetry_equiv_pos_site_id
 _symmetry_equiv_pos_as_xyz
  1  'x, y, z'
loop_
 _atom_site_type_symbol
 _atom_site_label
 _atom_site_symmetry_multiplicity
 _atom_site_fract_x
 _atom_site_fract_y
 _atom_site_fract_z
 _atom_site_occupancy
  Sm  Sm0  1  0.677319  0.177319  0.500000  1
  Sm  Sm1  1  0.322681  0.822681  0.500000  1
  Gd  Gd2  1  0.177598  0.322402  0.500000  1
  Gd  Gd3  1  0.822402  0.677598  0.500000  1
  Sn  Sn4  1  0.500000  0.500000  0.000000  1
  Sn  Sn5  1  0.000000  0.000000  0.000000  1
  Au  Au6  1  0.128058  0.628058  0.000000  1
  Au  Au7  1  0.871942  0.371942  0.000000  1
  Au  Au8  1  0.631776  0.868224  0.000000  1
  Au  Au9  1  0.368224  0.131776  0.000000  1
