# generated using pymatgen
data_Tb2Lu3GaSn3
_symmetry_space_group_name_H-M   'P 1'
_cell_length_a   7.70608100
_cell_length_b   8.00066500
_cell_length_c   15.14162700
_cell_angle_alpha   90.00000000
_cell_angle_beta   90.00000000
_cell_angle_gamma   90.00000000
_symmetry_Int_Tables_number   1
_chemical_formula_structural   Tb2Lu3GaSn3
_chemical_formula_sum   'Tb8 Lu12 Ga4 Sn12'
_cell_volume   933.53842700
_cell_formula_units_Z   4
loop_
 _symmetry_equiv_pos_site_id
 _symmetry_equiv_pos_as_xyz
  1  'x, y, z'
loop_
 _atom_site_type_symbol
 _atom_site_label
 _atom_site_symmetry_multiplicity
 _atom_site_fract_x
 _atom_site_fract_y
 _atom_site_fract_z
 _atom_site_occupancy
  Tb  Tb0  1  0.511896  0.325197  0.903074  1
  Tb  Tb1  1  0.011896  0.174803  0.596926  1
  Tb  Tb2  1  0.488104  0.674803  0.403074  1
  Tb  Tb3  1  0.988104  0.825197  0.096926  1
  Tb  Tb4  1  0.488104  0.674803  0.096926  1
  Tb  Tb5  1  0.988104  0.825197  0.403074  1
  Tb  Tb6  1  0.511896  0.325197  0.596926  1
  Tb  Tb7  1  0.011896  0.174803  0.903074  1
  Lu  Lu8  1  0.354185  0.827588  0.871365  1
  Lu  Lu9  1  0.854185  0.672412  0.628635  1
  Lu  Lu10  1  0.645815  0.172412  0.371365  1
  Lu  Lu11  1  0.145815  0.327588  0.128635  1
  Lu  Lu12  1  0.645815  0.172412  0.128635  1
  Lu  Lu13  1  0.145815  0.327588  0.371365  1
  Lu  Lu14  1  0.354185  0.827588  0.628635  1
  Lu  Lu15  1  0.854185  0.672412  0.871365  1
  Lu  Lu16  1  0.198603  0.507178  0.750000  1
  Lu  Lu17  1  0.698603  0.992822  0.750000  1
  Lu  Lu18  1  0.801397  0.492822  0.250000  1
  Lu  Lu19  1  0.301397  0.007178  0.250000  1
  Ga  Ga20  1  0.555066  0.620775  0.750000  1
  Ga  Ga21  1  0.055066  0.879225  0.750000  1
  Ga  Ga22  1  0.444934  0.379225  0.250000  1
  Ga  Ga23  1  0.944934  0.120775  0.250000  1
  Sn  Sn24  1  0.311318  0.037612  0.038067  1
  Sn  Sn25  1  0.811318  0.462388  0.461933  1
  Sn  Sn26  1  0.688682  0.962388  0.538067  1
  Sn  Sn27  1  0.188682  0.537612  0.961933  1
  Sn  Sn28  1  0.688682  0.962388  0.961933  1
  Sn  Sn29  1  0.188682  0.537612  0.538067  1
  Sn  Sn30  1  0.311318  0.037612  0.461933  1
  Sn  Sn31  1  0.811318  0.462388  0.038067  1
  Sn  Sn32  1  0.315083  0.140165  0.750000  1
  Sn  Sn33  1  0.815083  0.359835  0.750000  1
  Sn  Sn34  1  0.684917  0.859835  0.250000  1
  Sn  Sn35  1  0.184917  0.640165  0.250000  1
