# generated using pymatgen
data_Dy8InSi4TcB16
_symmetry_space_group_name_H-M   'P 1'
_cell_length_a   7.13011800
_cell_length_b   7.13011800
_cell_length_c   7.73878600
_cell_angle_alpha   90.00000000
_cell_angle_beta   90.00000000
_cell_angle_gamma   90.00000000
_symmetry_Int_Tables_number   1
_chemical_formula_structural   Dy8InSi4TcB16
_chemical_formula_sum   'Dy8 In1 Si4 Tc1 B16'
_cell_volume   393.42891201
_cell_formula_units_Z   1
loop_
 _symmetry_equiv_pos_site_id
 _symmetry_equiv_pos_as_xyz
  1  'x, y, z'
loop_
 _atom_site_type_symbol
 _atom_site_label
 _atom_site_symmetry_multiplicity
 _atom_site_fract_x
 _atom_site_fract_y
 _atom_site_fract_z
 _atom_site_occupancy
  Dy  Dy0  1  0.681428  0.180090  0.234584  1
  Dy  Dy1  1  0.318572  0.819910  0.765416  1
  Dy  Dy2  1  0.318572  0.819910  0.234584  1
  Dy  Dy3  1  0.819910  0.681428  0.234584  1
  Dy  Dy4  1  0.819910  0.681428  0.765416  1
  Dy  Dy5  1  0.681428  0.180090  0.765416  1
  Dy  Dy6  1  0.180090  0.318572  0.765416  1
  Dy  Dy7  1  0.180090  0.318572  0.234584  1
  In  In8  1  0.500000  0.500000  0.500000  1
  Si  Si9  1  0.102459  0.633839  0.500000  1
  Si  Si10  1  0.897541  0.366161  0.500000  1
  Si  Si11  1  0.366161  0.102459  0.500000  1
  Si  Si12  1  0.633839  0.897541  0.500000  1
  Tc  Tc13  1  0.000000  0.000000  0.500000  1
  B  B14  1  0.172184  0.040420  0.000000  1
  B  B15  1  0.827816  0.959580  0.000000  1
  B  B16  1  0.959580  0.172184  0.000000  1
  B  B17  1  0.326570  0.540591  0.000000  1
  B  B18  1  0.040420  0.827816  0.000000  1
  B  B19  1  0.673430  0.459409  0.000000  1
  B  B20  1  0.540591  0.673430  0.000000  1
  B  B21  1  0.459409  0.326570  0.000000  1
  B  B22  1  0.089637  0.590006  0.000000  1
  B  B23  1  0.910363  0.409994  0.000000  1
  B  B24  1  0.409994  0.089637  0.000000  1
  B  B25  1  0.590006  0.910363  0.000000  1
  B  B26  1  0.000000  0.000000  0.171388  1
  B  B27  1  0.000000  0.000000  0.828612  1
  B  B28  1  0.500000  0.500000  0.837414  1
  B  B29  1  0.500000  0.500000  0.162586  1
