# generated using pymatgen
data_Y6Ho7Er3(CdPt)4
_symmetry_space_group_name_H-M   'P 1'
_cell_length_a   9.66814802
_cell_length_b   9.66767164
_cell_length_c   9.66510317
_cell_angle_alpha   60.01204467
_cell_angle_beta   59.99141538
_cell_angle_gamma   59.98079465
_symmetry_Int_Tables_number   1
_chemical_formula_structural   Y6Ho7Er3(CdPt)4
_chemical_formula_sum   'Y6 Ho7 Er3 Cd4 Pt4'
_cell_volume   638.71178286
_cell_formula_units_Z   1
loop_
 _symmetry_equiv_pos_site_id
 _symmetry_equiv_pos_as_xyz
  1  'x, y, z'
loop_
 _atom_site_type_symbol
 _atom_site_label
 _atom_site_symmetry_multiplicity
 _atom_site_fract_x
 _atom_site_fract_y
 _atom_site_fract_z
 _atom_site_occupancy
  Y  Y0  1  0.936231  0.563778  0.563767  1
  Y  Y1  1  0.563767  0.936224  0.936231  1
  Y  Y2  1  0.564244  0.935756  0.564244  1
  Y  Y3  1  0.936715  0.563285  0.936715  1
  Y  Y4  1  0.563791  0.563774  0.936228  1
  Y  Y5  1  0.936228  0.936207  0.563791  1
  Ho  Ho6  1  0.352292  0.351245  0.352495  1
  Ho  Ho7  1  0.353586  0.352309  0.941655  1
  Ho  Ho8  1  0.352495  0.943966  0.352292  1
  Ho  Ho9  1  0.941655  0.352448  0.353586  1
  Ho  Ho10  1  0.811164  0.189360  0.188698  1
  Ho  Ho11  1  0.188698  0.810778  0.811164  1
  Ho  Ho12  1  0.189521  0.810479  0.189521  1
  Er  Er13  1  0.811201  0.188799  0.811201  1
  Er  Er14  1  0.188905  0.189421  0.810990  1
  Er  Er15  1  0.810990  0.810684  0.188905  1
  Cd  Cd16  1  0.581585  0.581884  0.581492  1
  Cd  Cd17  1  0.581506  0.581920  0.254755  1
  Cd  Cd18  1  0.581492  0.255039  0.581585  1
  Cd  Cd19  1  0.254755  0.581818  0.581506  1
  Pt  Pt20  1  0.143344  0.144448  0.142833  1
  Pt  Pt21  1  0.142240  0.143756  0.570761  1
  Pt  Pt22  1  0.142833  0.569374  0.143344  1
  Pt  Pt23  1  0.570761  0.143243  0.142240  1
