# generated using pymatgen
data_InAg10Sn2PbO12
_symmetry_space_group_name_H-M   'P 1'
_cell_length_a   8.76162073
_cell_length_b   8.76162195
_cell_length_c   5.90599401
_cell_angle_alpha   70.32614813
_cell_angle_beta   70.32614751
_cell_angle_gamma   71.10084160
_symmetry_Int_Tables_number   1
_chemical_formula_structural   InAg10Sn2PbO12
_chemical_formula_sum   'In1 Ag10 Sn2 Pb1 O12'
_cell_volume   390.49222133
_cell_formula_units_Z   1
loop_
 _symmetry_equiv_pos_site_id
 _symmetry_equiv_pos_as_xyz
  1  'x, y, z'
loop_
 _atom_site_type_symbol
 _atom_site_label
 _atom_site_symmetry_multiplicity
 _atom_site_fract_x
 _atom_site_fract_y
 _atom_site_fract_z
 _atom_site_occupancy
  In  In0  1  0.421200  0.578800  0.000000  1
  Ag  Ag1  1  0.252192  0.251136  0.001177  1
  Ag  Ag2  1  0.747193  0.749492  0.500665  1
  Ag  Ag3  1  0.250508  0.252807  0.499335  1
  Ag  Ag4  1  0.748864  0.747808  0.998823  1
  Ag  Ag5  1  0.503356  0.002085  0.748619  1
  Ag  Ag6  1  0.997915  0.496644  0.251381  1
  Ag  Ag7  1  0.114058  0.611110  0.638995  1
  Ag  Ag8  1  0.611651  0.115253  0.135443  1
  Ag  Ag9  1  0.388890  0.885942  0.361005  1
  Ag  Ag10  1  0.884747  0.388349  0.864557  1
  Sn  Sn11  1  0.912541  0.087459  0.500000  1
  Sn  Sn12  1  0.582032  0.417968  0.500000  1
  Pb  Pb13  1  0.085336  0.914664  0.000000  1
  O  O14  1  0.653201  0.527895  0.704745  1
  O  O15  1  0.144216  0.042490  0.230590  1
  O  O16  1  0.538780  0.643868  0.225124  1
  O  O17  1  0.027938  0.157376  0.700810  1
  O  O18  1  0.351687  0.841577  0.786908  1
  O  O19  1  0.836184  0.339284  0.296031  1
  O  O20  1  0.356132  0.461220  0.774876  1
  O  O21  1  0.842624  0.972062  0.299190  1
  O  O22  1  0.472105  0.346799  0.295255  1
  O  O23  1  0.957510  0.855784  0.769410  1
  O  O24  1  0.660716  0.163816  0.703969  1
  O  O25  1  0.158423  0.648313  0.213092  1
