# generated using pymatgen
data_Ti8Mn3S16
_symmetry_space_group_name_H-M   'P 1'
_cell_length_a   9.00716170
_cell_length_b   9.00715425
_cell_length_c   5.92912210
_cell_angle_alpha   89.97318548
_cell_angle_beta   89.97317001
_cell_angle_gamma   98.49790399
_symmetry_Int_Tables_number   1
_chemical_formula_structural   Ti8Mn3S16
_chemical_formula_sum   'Ti8 Mn3 S16'
_cell_volume   475.74197732
_cell_formula_units_Z   1
loop_
 _symmetry_equiv_pos_site_id
 _symmetry_equiv_pos_as_xyz
  1  'x, y, z'
loop_
 _atom_site_type_symbol
 _atom_site_label
 _atom_site_symmetry_multiplicity
 _atom_site_fract_x
 _atom_site_fract_y
 _atom_site_fract_z
 _atom_site_occupancy
  Ti  Ti0  1  0.251176  0.251174  0.989845  1
  Ti  Ti1  1  0.372538  0.122214  0.501480  1
  Ti  Ti2  1  0.500000  0.000000  0.000000  1
  Ti  Ti3  1  0.627462  0.877786  0.498520  1
  Ti  Ti4  1  0.748824  0.748826  0.010155  1
  Ti  Ti5  1  0.877785  0.627464  0.498521  1
  Ti  Ti6  1  0.000000  0.500000  0.000000  1
  Ti  Ti7  1  0.122215  0.372536  0.501479  1
  Mn  Mn8  1  0.370901  0.629101  0.500000  1
  Mn  Mn9  1  0.629099  0.370899  0.500000  1
  Mn  Mn10  1  0.000000  0.000000  0.000000  1
  S  S11  1  0.251174  0.001796  0.165172  1
  S  S12  1  0.376219  0.876017  0.669223  1
  S  S13  1  0.500063  0.752260  0.169054  1
  S  S14  1  0.375611  0.375610  0.330967  1
  S  S15  1  0.624389  0.624390  0.669033  1
  S  S16  1  0.499937  0.247740  0.830946  1
  S  S17  1  0.752259  0.500063  0.169054  1
  S  S18  1  0.623781  0.123983  0.330777  1
  S  S19  1  0.876016  0.376219  0.669223  1
  S  S20  1  0.001796  0.251174  0.165171  1
  S  S21  1  0.748826  0.998204  0.834828  1
  S  S22  1  0.876195  0.876196  0.335242  1
  S  S23  1  0.123805  0.123804  0.664758  1
  S  S24  1  0.998204  0.748826  0.834829  1
  S  S25  1  0.123984  0.623781  0.330777  1
  S  S26  1  0.247741  0.499937  0.830946  1
