# generated using pymatgen
data_TbNd4Y5Ir4
_symmetry_space_group_name_H-M   'P 1'
_cell_length_a   6.56860974
_cell_length_b   7.26096975
_cell_length_c   8.79811722
_cell_angle_alpha   97.10864714
_cell_angle_beta   111.91904811
_cell_angle_gamma   89.99999533
_symmetry_Int_Tables_number   1
_chemical_formula_structural   TbNd4Y5Ir4
_chemical_formula_sum   'Tb1 Nd4 Y5 Ir4'
_cell_volume   385.80904270
_cell_formula_units_Z   1
loop_
 _symmetry_equiv_pos_site_id
 _symmetry_equiv_pos_as_xyz
  1  'x, y, z'
loop_
 _atom_site_type_symbol
 _atom_site_label
 _atom_site_symmetry_multiplicity
 _atom_site_fract_x
 _atom_site_fract_y
 _atom_site_fract_z
 _atom_site_occupancy
  Tb  Tb0  1  0.570522  0.250000  0.000000  1
  Nd  Nd1  1  0.976713  0.920373  0.190469  1
  Nd  Nd2  1  0.786244  0.579627  0.809531  1
  Nd  Nd3  1  0.023916  0.079543  0.809541  1
  Nd  Nd4  1  0.214375  0.420457  0.190459  1
  Y  Y5  1  0.644738  0.815569  0.436350  1
  Y  Y6  1  0.208389  0.684431  0.563650  1
  Y  Y7  1  0.354638  0.184690  0.563380  1
  Y  Y8  1  0.791257  0.315310  0.436620  1
  Y  Y9  1  0.429448  0.750000  0.000000  1
  Ir  Ir10  1  0.814801  0.572780  0.225030  1
  Ir  Ir11  1  0.589771  0.927220  0.774970  1
  Ir  Ir12  1  0.184949  0.426426  0.774709  1
  Ir  Ir13  1  0.410240  0.073574  0.225291  1
