# generated using pymatgen
data_YHoPdPtO7
_symmetry_space_group_name_H-M   'P 1'
_cell_length_a   7.25339285
_cell_length_b   7.26071710
_cell_length_c   7.25339228
_cell_angle_alpha   59.96658326
_cell_angle_beta   59.90268008
_cell_angle_gamma   59.96659050
_symmetry_Int_Tables_number   1
_chemical_formula_structural   YHoPdPtO7
_chemical_formula_sum   'Y2 Ho2 Pd2 Pt2 O14'
_cell_volume   269.77844383
_cell_formula_units_Z   2
loop_
 _symmetry_equiv_pos_site_id
 _symmetry_equiv_pos_as_xyz
  1  'x, y, z'
loop_
 _atom_site_type_symbol
 _atom_site_label
 _atom_site_symmetry_multiplicity
 _atom_site_fract_x
 _atom_site_fract_y
 _atom_site_fract_z
 _atom_site_occupancy
  Y  Y0  1  0.625000  0.625000  0.125000  1
  Y  Y1  1  0.125000  0.625000  0.625000  1
  Ho  Ho2  1  0.625000  0.625000  0.625000  1
  Ho  Ho3  1  0.625000  0.125000  0.625000  1
  Pd  Pd4  1  0.125000  0.125000  0.125000  1
  Pd  Pd5  1  0.125000  0.625000  0.125000  1
  Pt  Pt6  1  0.625000  0.125000  0.125000  1
  Pt  Pt7  1  0.125000  0.125000  0.625000  1
  O  O8  1  0.033133  0.464787  0.467151  1
  O  O9  1  0.782849  0.785213  0.216867  1
  O  O10  1  0.782849  0.215070  0.216867  1
  O  O11  1  0.466891  0.033109  0.466891  1
  O  O12  1  0.748650  0.751350  0.748650  1
  O  O13  1  0.033133  0.034930  0.467151  1
  O  O14  1  0.034733  0.465267  0.034733  1
  O  O15  1  0.783109  0.216891  0.783109  1
  O  O16  1  0.215267  0.784733  0.215267  1
  O  O17  1  0.216867  0.215070  0.782849  1
  O  O18  1  0.501350  0.498650  0.501350  1
  O  O19  1  0.467151  0.034930  0.033133  1
  O  O20  1  0.467151  0.464787  0.033133  1
  O  O21  1  0.216867  0.785213  0.782849  1
