# generated using pymatgen
data_TbEr3Al16(SiIr3)2
_symmetry_space_group_name_H-M   'P 1'
_cell_length_a   7.53824917
_cell_length_b   7.53649657
_cell_length_c   9.32943200
_cell_angle_alpha   90.00000000
_cell_angle_beta   90.00000000
_cell_angle_gamma   119.60154201
_symmetry_Int_Tables_number   1
_chemical_formula_structural   TbEr3Al16(SiIr3)2
_chemical_formula_sum   'Tb1 Er3 Al16 Si2 Ir6'
_cell_volume   460.84577649
_cell_formula_units_Z   1
loop_
 _symmetry_equiv_pos_site_id
 _symmetry_equiv_pos_as_xyz
  1  'x, y, z'
loop_
 _atom_site_type_symbol
 _atom_site_label
 _atom_site_symmetry_multiplicity
 _atom_site_fract_x
 _atom_site_fract_y
 _atom_site_fract_z
 _atom_site_occupancy
  Tb  Tb0  1  0.324278  0.005036  0.750000  1
  Er  Er1  1  0.995050  0.676083  0.250000  1
  Er  Er2  1  0.004858  0.323915  0.750000  1
  Er  Er3  1  0.676200  0.995203  0.250000  1
  Al  Al4  1  0.000854  0.336552  0.077109  1
  Al  Al5  1  0.998494  0.662772  0.923599  1
  Al  Al6  1  0.998494  0.662772  0.576401  1
  Al  Al7  1  0.336580  0.000860  0.422244  1
  Al  Al8  1  0.000854  0.336552  0.422891  1
  Al  Al9  1  0.664061  0.999053  0.576467  1
  Al  Al10  1  0.664061  0.999053  0.923533  1
  Al  Al11  1  0.336580  0.000860  0.077756  1
  Al  Al12  1  0.335239  0.335851  0.556891  1
  Al  Al13  1  0.664741  0.664767  0.442154  1
  Al  Al14  1  0.664741  0.664767  0.057846  1
  Al  Al15  1  0.335239  0.335851  0.943109  1
  Al  Al16  1  0.335544  0.549279  0.250000  1
  Al  Al17  1  0.665143  0.451548  0.750000  1
  Al  Al18  1  0.549414  0.335754  0.250000  1
  Al  Al19  1  0.450918  0.664021  0.750000  1
  Si  Si20  1  0.128526  0.128725  0.250000  1
  Si  Si21  1  0.870643  0.871058  0.750000  1
  Ir  Ir22  1  0.672298  0.328195  0.000304  1
  Ir  Ir23  1  0.327949  0.671756  0.000277  1
  Ir  Ir24  1  0.327949  0.671756  0.499723  1
  Ir  Ir25  1  0.672298  0.328195  0.499696  1
  Ir  Ir26  1  0.999498  0.999883  0.000482  1
  Ir  Ir27  1  0.999498  0.999883  0.499518  1
