# generated using pymatgen
data_LuZr3Ge6Ir7
_symmetry_space_group_name_H-M   'P 1'
_cell_length_a   7.16596133
_cell_length_b   7.16596093
_cell_length_c   7.16596055
_cell_angle_alpha   109.50184269
_cell_angle_beta   109.50184376
_cell_angle_gamma   109.50185025
_symmetry_Int_Tables_number   1
_chemical_formula_structural   LuZr3Ge6Ir7
_chemical_formula_sum   'Lu1 Zr3 Ge6 Ir7'
_cell_volume   282.94890106
_cell_formula_units_Z   1
loop_
 _symmetry_equiv_pos_site_id
 _symmetry_equiv_pos_as_xyz
  1  'x, y, z'
loop_
 _atom_site_type_symbol
 _atom_site_label
 _atom_site_symmetry_multiplicity
 _atom_site_fract_x
 _atom_site_fract_y
 _atom_site_fract_z
 _atom_site_occupancy
  Lu  Lu0  1  0.500000  0.500000  0.500000  1
  Zr  Zr1  1  0.000000  0.000000  0.500000  1
  Zr  Zr2  1  0.000000  0.500000  0.000000  1
  Zr  Zr3  1  0.500000  0.000000  0.000000  1
  Ge  Ge4  1  0.999869  0.314665  0.314665  1
  Ge  Ge5  1  0.000131  0.685335  0.685335  1
  Ge  Ge6  1  0.314665  0.999869  0.314665  1
  Ge  Ge7  1  0.685335  0.000131  0.685335  1
  Ge  Ge8  1  0.314665  0.314665  0.999869  1
  Ge  Ge9  1  0.685335  0.685335  0.000131  1
  Ir  Ir10  1  0.500000  0.751721  0.248279  1
  Ir  Ir11  1  0.500000  0.248279  0.751721  1
  Ir  Ir12  1  0.248279  0.500000  0.751721  1
  Ir  Ir13  1  0.751721  0.500000  0.248279  1
  Ir  Ir14  1  0.751721  0.248279  0.500000  1
  Ir  Ir15  1  0.248279  0.751721  0.500000  1
  Ir  Ir16  1  0.000000  0.000000  0.000000  1
