# generated using pymatgen
data_Tb2Y2Ga18Ir5Pd
_symmetry_space_group_name_H-M   'P 1'
_cell_length_a   7.61538865
_cell_length_b   7.61578527
_cell_length_c   9.50907502
_cell_angle_alpha   90.05709710
_cell_angle_beta   90.05315927
_cell_angle_gamma   119.87927927
_symmetry_Int_Tables_number   1
_chemical_formula_structural   Tb2Y2Ga18Ir5Pd
_chemical_formula_sum   'Tb2 Y2 Ga18 Ir5 Pd1'
_cell_volume   478.19153660
_cell_formula_units_Z   1
loop_
 _symmetry_equiv_pos_site_id
 _symmetry_equiv_pos_as_xyz
  1  'x, y, z'
loop_
 _atom_site_type_symbol
 _atom_site_label
 _atom_site_symmetry_multiplicity
 _atom_site_fract_x
 _atom_site_fract_y
 _atom_site_fract_z
 _atom_site_occupancy
  Tb  Tb0  1  0.996839  0.668420  0.250978  1
  Tb  Tb1  1  0.003161  0.331580  0.749022  1
  Y  Y2  1  0.668432  0.996831  0.250977  1
  Y  Y3  1  0.331568  0.003169  0.749023  1
  Ga  Ga4  1  0.127529  0.127499  0.251167  1
  Ga  Ga5  1  0.872471  0.872501  0.748833  1
  Ga  Ga6  1  0.999434  0.336584  0.081866  1
  Ga  Ga7  1  0.000566  0.663416  0.918134  1
  Ga  Ga8  1  0.001157  0.666144  0.579579  1
  Ga  Ga9  1  0.333892  0.998854  0.420441  1
  Ga  Ga10  1  0.998843  0.333856  0.420421  1
  Ga  Ga11  1  0.666108  0.001146  0.579559  1
  Ga  Ga12  1  0.663380  0.000566  0.918137  1
  Ga  Ga13  1  0.336620  0.999434  0.081863  1
  Ga  Ga14  1  0.332350  0.332324  0.563872  1
  Ga  Ga15  1  0.667650  0.667676  0.436128  1
  Ga  Ga16  1  0.664509  0.664524  0.066141  1
  Ga  Ga17  1  0.335491  0.335476  0.933859  1
  Ga  Ga18  1  0.338678  0.546514  0.250280  1
  Ga  Ga19  1  0.661322  0.453486  0.749720  1
  Ga  Ga20  1  0.546526  0.338720  0.250275  1
  Ga  Ga21  1  0.453474  0.661280  0.749725  1
  Ir  Ir22  1  0.671693  0.328340  0.999992  1
  Ir  Ir23  1  0.328307  0.671660  0.000008  1
  Ir  Ir24  1  0.328505  0.671426  0.499998  1
  Ir  Ir25  1  0.671495  0.328574  0.500002  1
  Ir  Ir26  1  0.000000  0.000000  0.500000  1
  Pd  Pd27  1  0.000000  0.000000  0.000000  1
