# generated using pymatgen
data_YbCe3(Si5Os3)2
_symmetry_space_group_name_H-M   'P 1'
_cell_length_a   8.16140568
_cell_length_b   8.17633381
_cell_length_c   5.81940231
_cell_angle_alpha   70.41344830
_cell_angle_beta   70.39238938
_cell_angle_gamma   93.83050029
_symmetry_Int_Tables_number   1
_chemical_formula_structural   YbCe3(Si5Os3)2
_chemical_formula_sum   'Yb1 Ce3 Si10 Os6'
_cell_volume   337.53873215
_cell_formula_units_Z   1
loop_
 _symmetry_equiv_pos_site_id
 _symmetry_equiv_pos_as_xyz
  1  'x, y, z'
loop_
 _atom_site_type_symbol
 _atom_site_label
 _atom_site_symmetry_multiplicity
 _atom_site_fract_x
 _atom_site_fract_y
 _atom_site_fract_z
 _atom_site_occupancy
  Yb  Yb0  1  0.600459  0.868222  0.257957  1
  Ce  Ce1  1  0.867403  0.601429  0.757909  1
  Ce  Ce2  1  0.399629  0.132539  0.742435  1
  Ce  Ce3  1  0.132210  0.398358  0.242159  1
  Si  Si4  1  0.062652  0.262439  0.833768  1
  Si  Si5  1  0.737755  0.935951  0.666502  1
  Si  Si6  1  0.933511  0.740547  0.165447  1
  Si  Si7  1  0.260777  0.061670  0.335617  1
  Si  Si8  1  0.205881  0.791934  0.755050  1
  Si  Si9  1  0.790725  0.203783  0.248124  1
  Si  Si10  1  0.513806  0.488605  0.748950  1
  Si  Si11  1  0.490979  0.516652  0.244962  1
  Si  Si12  1  0.774009  0.223797  0.755233  1
  Si  Si13  1  0.227713  0.772762  0.247115  1
  Os  Os14  1  0.256470  0.544655  0.633555  1
  Os  Os15  1  0.457201  0.743387  0.866493  1
  Os  Os16  1  0.746253  0.454235  0.367498  1
  Os  Os17  1  0.539963  0.255968  0.135460  1
  Os  Os18  1  0.004079  0.998902  0.747496  1
  Os  Os19  1  0.998525  0.004167  0.248269  1
