# generated using pymatgen
data_NdTmPa2(Al3Rh)6
_symmetry_space_group_name_H-M   'P 1'
_cell_length_a   7.61743753
_cell_length_b   7.61961050
_cell_length_c   9.41505700
_cell_angle_alpha   90.00000000
_cell_angle_beta   90.00000000
_cell_angle_gamma   119.57950954
_symmetry_Int_Tables_number   1
_chemical_formula_structural   NdTmPa2(Al3Rh)6
_chemical_formula_sum   'Nd1 Tm1 Pa2 Al18 Rh6'
_cell_volume   475.24753713
_cell_formula_units_Z   1
loop_
 _symmetry_equiv_pos_site_id
 _symmetry_equiv_pos_as_xyz
  1  'x, y, z'
loop_
 _atom_site_type_symbol
 _atom_site_label
 _atom_site_symmetry_multiplicity
 _atom_site_fract_x
 _atom_site_fract_y
 _atom_site_fract_z
 _atom_site_occupancy
  Nd  Nd0  1  0.669749  0.993306  0.250000  1
  Tm  Tm1  1  0.328851  0.006827  0.750000  1
  Pa  Pa2  1  0.998039  0.671374  0.250000  1
  Pa  Pa3  1  0.002044  0.328266  0.750000  1
  Al  Al4  1  0.133009  0.127159  0.250000  1
  Al  Al5  1  0.870701  0.873966  0.750000  1
  Al  Al6  1  0.002582  0.334234  0.075240  1
  Al  Al7  1  0.000537  0.668448  0.921418  1
  Al  Al8  1  0.000537  0.668448  0.578582  1
  Al  Al9  1  0.335956  0.002766  0.428095  1
  Al  Al10  1  0.002582  0.334234  0.424760  1
  Al  Al11  1  0.660793  0.996891  0.578149  1
  Al  Al12  1  0.660793  0.996891  0.921851  1
  Al  Al13  1  0.335956  0.002766  0.071905  1
  Al  Al14  1  0.334518  0.332867  0.554051  1
  Al  Al15  1  0.665657  0.665091  0.450721  1
  Al  Al16  1  0.665657  0.665091  0.049279  1
  Al  Al17  1  0.334518  0.332867  0.945949  1
  Al  Al18  1  0.338456  0.545787  0.250000  1
  Al  Al19  1  0.659192  0.450427  0.750000  1
  Al  Al20  1  0.550439  0.343682  0.250000  1
  Al  Al21  1  0.447707  0.657224  0.750000  1
  Rh  Rh22  1  0.675115  0.329590  0.998434  1
  Rh  Rh23  1  0.324331  0.670370  0.999615  1
  Rh  Rh24  1  0.324331  0.670370  0.500385  1
  Rh  Rh25  1  0.675115  0.329590  0.501566  1
  Rh  Rh26  1  0.001416  0.000733  0.998490  1
  Rh  Rh27  1  0.001416  0.000733  0.501510  1
