# generated using pymatgen
data_YHf7Bi9
_symmetry_space_group_name_H-M   'P 1'
_cell_length_a   10.87648200
_cell_length_b   10.87648200
_cell_length_c   7.66238900
_cell_angle_alpha   90.00000000
_cell_angle_beta   90.00000000
_cell_angle_gamma   90.00000000
_symmetry_Int_Tables_number   1
_chemical_formula_structural   YHf7Bi9
_chemical_formula_sum   'Y2 Hf14 Bi18'
_cell_volume   906.44422652
_cell_formula_units_Z   2
loop_
 _symmetry_equiv_pos_site_id
 _symmetry_equiv_pos_as_xyz
  1  'x, y, z'
loop_
 _atom_site_type_symbol
 _atom_site_label
 _atom_site_symmetry_multiplicity
 _atom_site_fract_x
 _atom_site_fract_y
 _atom_site_fract_z
 _atom_site_occupancy
  Y  Y0  1  0.750000  0.750000  0.925638  1
  Y  Y1  1  0.250000  0.250000  0.074362  1
  Hf  Hf2  1  0.000000  0.500000  0.000000  1
  Hf  Hf3  1  0.500000  0.000000  0.000000  1
  Hf  Hf4  1  0.500000  0.500000  0.000000  1
  Hf  Hf5  1  0.000000  0.000000  0.000000  1
  Hf  Hf6  1  0.895751  0.250000  0.153478  1
  Hf  Hf7  1  0.604249  0.250000  0.153478  1
  Hf  Hf8  1  0.104249  0.750000  0.846524  1
  Hf  Hf9  1  0.395751  0.750000  0.846524  1
  Hf  Hf10  1  0.750000  0.104249  0.846524  1
  Hf  Hf11  1  0.750000  0.395751  0.846524  1
  Hf  Hf12  1  0.250000  0.895751  0.153478  1
  Hf  Hf13  1  0.250000  0.604249  0.153478  1
  Hf  Hf14  1  0.750000  0.750000  0.433176  1
  Hf  Hf15  1  0.250000  0.250000  0.566824  1
  Bi  Bi16  1  0.418320  0.081680  0.354157  1
  Bi  Bi17  1  0.081680  0.418320  0.354157  1
  Bi  Bi18  1  0.581680  0.581680  0.645843  1
  Bi  Bi19  1  0.918320  0.918320  0.645843  1
  Bi  Bi20  1  0.918320  0.581680  0.645843  1
  Bi  Bi21  1  0.581680  0.918320  0.645843  1
  Bi  Bi22  1  0.418320  0.418320  0.354157  1
  Bi  Bi23  1  0.081680  0.081680  0.354157  1
  Bi  Bi24  1  0.250000  0.750000  0.499999  1
  Bi  Bi25  1  0.750000  0.250000  0.499999  1
  Bi  Bi26  1  0.487987  0.250000  0.799648  1
  Bi  Bi27  1  0.012012  0.250000  0.799648  1
  Bi  Bi28  1  0.512012  0.750000  0.200351  1
  Bi  Bi29  1  0.987988  0.750000  0.200351  1
  Bi  Bi30  1  0.750000  0.512012  0.200351  1
  Bi  Bi31  1  0.750000  0.987988  0.200351  1
  Bi  Bi32  1  0.250000  0.487987  0.799648  1
  Bi  Bi33  1  0.250000  0.012012  0.799648  1
