# generated using pymatgen
data_TaP3(Se2F3)2
_symmetry_space_group_name_H-M   'P 1'
_cell_length_a   9.89504200
_cell_length_b   6.55496909
_cell_length_c   10.63513369
_cell_angle_alpha   88.87779741
_cell_angle_beta   90.00000000
_cell_angle_gamma   90.00000000
_symmetry_Int_Tables_number   1
_chemical_formula_structural   TaP3(Se2F3)2
_chemical_formula_sum   'Ta2 P6 Se8 F12'
_cell_volume   689.68048411
_cell_formula_units_Z   2
loop_
 _symmetry_equiv_pos_site_id
 _symmetry_equiv_pos_as_xyz
  1  'x, y, z'
loop_
 _atom_site_type_symbol
 _atom_site_label
 _atom_site_symmetry_multiplicity
 _atom_site_fract_x
 _atom_site_fract_y
 _atom_site_fract_z
 _atom_site_occupancy
  Ta  Ta0  1  0.750000  0.501564  0.830717  1
  Ta  Ta1  1  0.250000  0.498436  0.169283  1
  P  P2  1  0.250000  0.053622  0.532987  1
  P  P3  1  0.137012  0.982390  0.842152  1
  P  P4  1  0.637012  0.017610  0.157848  1
  P  P5  1  0.750000  0.946378  0.467013  1
  P  P6  1  0.862988  0.017610  0.157848  1
  P  P7  1  0.362988  0.982390  0.842152  1
  Se  Se8  1  0.072375  0.128724  0.659928  1
  Se  Se9  1  0.427625  0.128724  0.659928  1
  Se  Se10  1  0.750000  0.319184  0.222709  1
  Se  Se11  1  0.250000  0.680816  0.777291  1
  Se  Se12  1  0.572375  0.871276  0.340072  1
  Se  Se13  1  0.750000  0.290917  0.445309  1
  Se  Se14  1  0.927625  0.871276  0.340072  1
  Se  Se15  1  0.250000  0.709083  0.554691  1
  F  F16  1  0.750000  0.286255  0.706492  1
  F  F17  1  0.614049  0.352244  0.924265  1
  F  F18  1  0.389496  0.362144  0.265231  1
  F  F19  1  0.750000  0.714055  0.952894  1
  F  F20  1  0.110504  0.362144  0.265231  1
  F  F21  1  0.250000  0.285945  0.047106  1
  F  F22  1  0.114049  0.647756  0.075735  1
  F  F23  1  0.610504  0.637856  0.734769  1
  F  F24  1  0.889496  0.637856  0.734769  1
  F  F25  1  0.885951  0.352244  0.924265  1
  F  F26  1  0.385951  0.647756  0.075735  1
  F  F27  1  0.250000  0.713745  0.293508  1
