# generated using pymatgen
data_Nd2MnCo3O10
_symmetry_space_group_name_H-M   'P 1'
_cell_length_a   5.73582400
_cell_length_b   7.52122700
_cell_length_c   8.58989700
_cell_angle_alpha   90.00000000
_cell_angle_beta   90.00000000
_cell_angle_gamma   90.00000000
_symmetry_Int_Tables_number   1
_chemical_formula_structural   Nd2MnCo3O10
_chemical_formula_sum   'Nd4 Mn2 Co6 O20'
_cell_volume   370.57188748
_cell_formula_units_Z   2
loop_
 _symmetry_equiv_pos_site_id
 _symmetry_equiv_pos_as_xyz
  1  'x, y, z'
loop_
 _atom_site_type_symbol
 _atom_site_label
 _atom_site_symmetry_multiplicity
 _atom_site_fract_x
 _atom_site_fract_y
 _atom_site_fract_z
 _atom_site_occupancy
  Nd  Nd0  1  0.000419  0.358437  0.672705  1
  Nd  Nd1  1  0.000419  0.641563  0.327295  1
  Nd  Nd2  1  0.999581  0.858437  0.827295  1
  Nd  Nd3  1  0.999581  0.141563  0.172705  1
  Mn  Mn4  1  0.739714  0.500000  0.000000  1
  Mn  Mn5  1  0.260286  0.000000  0.500000  1
  Co  Co6  1  0.499030  0.089719  0.850063  1
  Co  Co7  1  0.499030  0.910281  0.149937  1
  Co  Co8  1  0.500970  0.589719  0.649937  1
  Co  Co9  1  0.500970  0.410281  0.350063  1
  Co  Co10  1  0.258859  0.500000  0.000000  1
  Co  Co11  1  0.741141  0.000000  0.500000  1
  O  O12  1  0.249551  0.900725  0.291021  1
  O  O13  1  0.249551  0.099275  0.708979  1
  O  O14  1  0.750449  0.400725  0.208979  1
  O  O15  1  0.750449  0.599275  0.791021  1
  O  O16  1  0.749334  0.097192  0.705962  1
  O  O17  1  0.749334  0.902808  0.294038  1
  O  O18  1  0.250666  0.597192  0.794038  1
  O  O19  1  0.250666  0.402808  0.205962  1
  O  O20  1  0.498297  0.345132  0.935118  1
  O  O21  1  0.498297  0.654868  0.064882  1
  O  O22  1  0.501703  0.845132  0.564882  1
  O  O23  1  0.501703  0.154868  0.435118  1
  O  O24  1  0.281301  0.000000  0.000000  1
  O  O25  1  0.718699  0.500000  0.500000  1
  O  O26  1  0.719082  0.000000  0.000000  1
  O  O27  1  0.280918  0.500000  0.500000  1
  O  O28  1  0.998742  0.157136  0.449000  1
  O  O29  1  0.998742  0.842864  0.551000  1
  O  O30  1  0.001258  0.657136  0.051000  1
  O  O31  1  0.001258  0.342864  0.949000  1
