# generated using pymatgen
data_CeNd5MnI10
_symmetry_space_group_name_H-M   'P 1'
_cell_length_a   7.99138412
_cell_length_b   9.63112431
_cell_length_c   10.11561900
_cell_angle_alpha   108.22392727
_cell_angle_beta   97.03787646
_cell_angle_gamma   104.17426152
_symmetry_Int_Tables_number   1
_chemical_formula_structural   CeNd5MnI10
_chemical_formula_sum   'Ce1 Nd5 Mn1 I10'
_cell_volume   700.03588622
_cell_formula_units_Z   1
loop_
 _symmetry_equiv_pos_site_id
 _symmetry_equiv_pos_as_xyz
  1  'x, y, z'
loop_
 _atom_site_type_symbol
 _atom_site_label
 _atom_site_symmetry_multiplicity
 _atom_site_fract_x
 _atom_site_fract_y
 _atom_site_fract_z
 _atom_site_occupancy
  Ce  Ce0  1  0.030818  0.749908  0.425812  1
  Nd  Nd1  1  0.965226  0.268624  0.578951  1
  Nd  Nd2  1  0.879400  0.953914  0.745062  1
  Nd  Nd3  1  0.122962  0.044912  0.255238  1
  Nd  Nd4  1  0.356257  0.129208  0.672479  1
  Nd  Nd5  1  0.644000  0.866259  0.325364  1
  Mn  Mn6  1  0.004336  0.971187  0.491289  1
  I  I7  1  0.453445  0.809444  0.584476  1
  I  I8  1  0.548484  0.191572  0.415979  1
  I  I9  1  0.910038  0.624561  0.674678  1
  I  I10  1  0.084839  0.380121  0.328472  1
  I  I11  1  0.256783  0.091554  0.959836  1
  I  I12  1  0.744121  0.919681  0.044333  1
  I  I13  1  0.342353  0.460659  0.773557  1
  I  I14  1  0.655609  0.536674  0.225109  1
  I  I15  1  0.786963  0.266639  0.847995  1
  I  I16  1  0.214366  0.735084  0.151371  1
