# generated using pymatgen
data_Ho20Pd5PtRh6
_symmetry_space_group_name_H-M   'P 1'
_cell_length_a   11.00222249
_cell_length_b   11.00222235
_cell_length_c   6.33953300
_cell_angle_alpha   90.01701341
_cell_angle_beta   90.01701341
_cell_angle_gamma   90.42582881
_symmetry_Int_Tables_number   1
_chemical_formula_structural   Ho20Pd5PtRh6
_chemical_formula_sum   'Ho20 Pd5 Pt1 Rh6'
_cell_volume   767.37222235
_cell_formula_units_Z   1
loop_
 _symmetry_equiv_pos_site_id
 _symmetry_equiv_pos_as_xyz
  1  'x, y, z'
loop_
 _atom_site_type_symbol
 _atom_site_label
 _atom_site_symmetry_multiplicity
 _atom_site_fract_x
 _atom_site_fract_y
 _atom_site_fract_z
 _atom_site_occupancy
  Ho  Ho0  1  0.293583  0.082935  0.371216  1
  Ho  Ho1  1  0.291270  0.907312  0.879892  1
  Ho  Ho2  1  0.708764  0.089071  0.879106  1
  Ho  Ho3  1  0.705872  0.915349  0.370774  1
  Ho  Ho4  1  0.583748  0.794084  0.869643  1
  Ho  Ho5  1  0.591777  0.204724  0.372354  1
  Ho  Ho6  1  0.407388  0.793612  0.375943  1
  Ho  Ho7  1  0.412600  0.203912  0.870346  1
  Ho  Ho8  1  0.205916  0.416252  0.630357  1
  Ho  Ho9  1  0.206388  0.592612  0.124057  1
  Ho  Ho10  1  0.795276  0.408223  0.127646  1
  Ho  Ho11  1  0.796088  0.587400  0.629654  1
  Ho  Ho12  1  0.917065  0.706417  0.128784  1
  Ho  Ho13  1  0.910929  0.291236  0.620894  1
  Ho  Ho14  1  0.092688  0.708730  0.620108  1
  Ho  Ho15  1  0.084651  0.294128  0.129226  1
  Ho  Ho16  1  0.999543  0.999779  0.499809  1
  Ho  Ho17  1  0.000221  0.000457  0.000191  1
  Ho  Ho18  1  0.498884  0.500218  0.000935  1
  Ho  Ho19  1  0.499782  0.501116  0.499065  1
  Pd  Pd20  1  0.842746  0.843963  0.751030  1
  Pd  Pd21  1  0.156037  0.157254  0.748970  1
  Pd  Pd22  1  0.653407  0.346593  0.750000  1
  Pd  Pd23  1  0.656338  0.656043  0.250376  1
  Pd  Pd24  1  0.343957  0.343662  0.249624  1
  Pt  Pt25  1  0.346653  0.653347  0.750000  1
  Rh  Rh26  1  0.846766  0.153234  0.250000  1
  Rh  Rh27  1  0.152221  0.847779  0.250000  1
  Rh  Rh28  1  0.499962  0.999939  0.121517  1
  Rh  Rh29  1  0.499987  0.000565  0.623422  1
  Rh  Rh30  1  0.999435  0.500013  0.876578  1
  Rh  Rh31  1  0.000061  0.500038  0.378483  1
