# generated using pymatgen
data_La2NdCoI3
_symmetry_space_group_name_H-M   'P 1'
_cell_length_a   4.50891000
_cell_length_b   9.36974127
_cell_length_c   12.13799066
_cell_angle_alpha   86.79171296
_cell_angle_beta   90.00000000
_cell_angle_gamma   90.00000000
_symmetry_Int_Tables_number   1
_chemical_formula_structural   La2NdCoI3
_chemical_formula_sum   'La4 Nd2 Co2 I6'
_cell_volume   511.99385925
_cell_formula_units_Z   2
loop_
 _symmetry_equiv_pos_site_id
 _symmetry_equiv_pos_as_xyz
  1  'x, y, z'
loop_
 _atom_site_type_symbol
 _atom_site_label
 _atom_site_symmetry_multiplicity
 _atom_site_fract_x
 _atom_site_fract_y
 _atom_site_fract_z
 _atom_site_occupancy
  La  La0  1  0.750000  0.115847  0.677181  1
  La  La1  1  0.250000  0.884153  0.322819  1
  La  La2  1  0.750000  0.095637  0.094108  1
  La  La3  1  0.250000  0.904363  0.905892  1
  Nd  Nd4  1  0.250000  0.308332  0.882837  1
  Nd  Nd5  1  0.750000  0.691668  0.117163  1
  Co  Co6  1  0.750000  0.114240  0.872834  1
  Co  Co7  1  0.250000  0.885760  0.127166  1
  I  I8  1  0.750000  0.130803  0.378919  1
  I  I9  1  0.250000  0.869197  0.621081  1
  I  I10  1  0.250000  0.369102  0.621579  1
  I  I11  1  0.750000  0.630898  0.378421  1
  I  I12  1  0.750000  0.605534  0.862998  1
  I  I13  1  0.250000  0.394466  0.137002  1
