# generated using pymatgen
data_Zr16NbFe4Rh3
_symmetry_space_group_name_H-M   'P 1'
_cell_length_a   8.72687883
_cell_length_b   8.74358893
_cell_length_c   8.74359000
_cell_angle_alpha   60.00000351
_cell_angle_beta   59.93664271
_cell_angle_gamma   59.93664762
_symmetry_Int_Tables_number   1
_chemical_formula_structural   Zr16NbFe4Rh3
_chemical_formula_sum   'Zr16 Nb1 Fe4 Rh3'
_cell_volume   471.31029645
_cell_formula_units_Z   1
loop_
 _symmetry_equiv_pos_site_id
 _symmetry_equiv_pos_as_xyz
  1  'x, y, z'
loop_
 _atom_site_type_symbol
 _atom_site_label
 _atom_site_symmetry_multiplicity
 _atom_site_fract_x
 _atom_site_fract_y
 _atom_site_fract_z
 _atom_site_occupancy
  Zr  Zr0  1  0.060472  0.646509  0.646509  1
  Zr  Zr1  1  0.651648  0.047851  0.650250  1
  Zr  Zr2  1  0.651648  0.650250  0.047851  1
  Zr  Zr3  1  0.651648  0.650250  0.650250  1
  Zr  Zr4  1  0.807811  0.803531  0.194329  1
  Zr  Zr5  1  0.198140  0.198494  0.801683  1
  Zr  Zr6  1  0.807811  0.194329  0.803531  1
  Zr  Zr7  1  0.198140  0.801683  0.198494  1
  Zr  Zr8  1  0.198140  0.801683  0.801683  1
  Zr  Zr9  1  0.807811  0.194329  0.194329  1
  Zr  Zr10  1  0.439940  0.437312  0.061374  1
  Zr  Zr11  1  0.060379  0.068172  0.435724  1
  Zr  Zr12  1  0.439940  0.061374  0.437312  1
  Zr  Zr13  1  0.060379  0.435724  0.068172  1
  Zr  Zr14  1  0.060379  0.435724  0.435724  1
  Zr  Zr15  1  0.439940  0.061374  0.061374  1
  Nb  Nb16  1  0.723979  0.425341  0.425341  1
  Fe  Fe17  1  0.417874  0.860708  0.860708  1
  Fe  Fe18  1  0.860598  0.420616  0.859393  1
  Fe  Fe19  1  0.860598  0.859393  0.420616  1
  Fe  Fe20  1  0.860598  0.859393  0.859393  1
  Rh  Rh21  1  0.414043  0.755796  0.415081  1
  Rh  Rh22  1  0.414043  0.415081  0.755796  1
  Rh  Rh23  1  0.414043  0.415081  0.415081  1
