# generated using pymatgen
data_YbHoTa2(B6Ru)2
_symmetry_space_group_name_H-M   'P 1'
_cell_length_a   3.52025600
_cell_length_b   8.84439529
_cell_length_c   11.17584700
_cell_angle_alpha   89.86297294
_cell_angle_beta   90.00000000
_cell_angle_gamma   90.00000000
_symmetry_Int_Tables_number   1
_chemical_formula_structural   YbHoTa2(B6Ru)2
_chemical_formula_sum   'Yb2 Ho2 Ta4 B24 Ru4'
_cell_volume   347.95381117
_cell_formula_units_Z   2
loop_
 _symmetry_equiv_pos_site_id
 _symmetry_equiv_pos_as_xyz
  1  'x, y, z'
loop_
 _atom_site_type_symbol
 _atom_site_label
 _atom_site_symmetry_multiplicity
 _atom_site_fract_x
 _atom_site_fract_y
 _atom_site_fract_z
 _atom_site_occupancy
  Yb  Yb0  1  0.000000  0.323630  0.413780  1
  Yb  Yb1  1  0.000000  0.676370  0.586220  1
  Ho  Ho2  1  0.000000  0.822713  0.086309  1
  Ho  Ho3  1  0.000000  0.177287  0.913691  1
  Ta  Ta4  1  0.000000  0.946394  0.376810  1
  Ta  Ta5  1  0.000000  0.053606  0.623190  1
  Ta  Ta6  1  0.000000  0.447108  0.123879  1
  Ta  Ta7  1  0.000000  0.552892  0.876121  1
  B  B8  1  0.500000  0.555096  0.433979  1
  B  B9  1  0.500000  0.444904  0.566021  1
  B  B10  1  0.500000  0.055176  0.065809  1
  B  B11  1  0.500000  0.944824  0.934191  1
  B  B12  1  0.500000  0.753258  0.419186  1
  B  B13  1  0.500000  0.246742  0.580814  1
  B  B14  1  0.500000  0.254596  0.081632  1
  B  B15  1  0.500000  0.745404  0.918368  1
  B  B16  1  0.500000  0.797770  0.263136  1
  B  B17  1  0.500000  0.202230  0.736864  1
  B  B18  1  0.500000  0.298089  0.237694  1
  B  B19  1  0.500000  0.701911  0.762306  1
  B  B20  1  0.500000  0.629341  0.181262  1
  B  B21  1  0.500000  0.370659  0.818738  1
  B  B22  1  0.500000  0.130379  0.319355  1
  B  B23  1  0.500000  0.869621  0.680645  1
  B  B24  1  0.500000  0.981940  0.214124  1
  B  B25  1  0.500000  0.018060  0.785876  1
  B  B26  1  0.500000  0.481132  0.287444  1
  B  B27  1  0.500000  0.518868  0.712556  1
  B  B28  1  0.500000  0.599517  0.026463  1
  B  B29  1  0.500000  0.400483  0.973537  1
  B  B30  1  0.500000  0.099927  0.473616  1
  B  B31  1  0.500000  0.900073  0.526384  1
  Ru  Ru32  1  0.000000  0.643987  0.317801  1
  Ru  Ru33  1  0.000000  0.356013  0.682199  1
  Ru  Ru34  1  0.000000  0.144137  0.182559  1
  Ru  Ru35  1  0.000000  0.855863  0.817441  1
