# generated using pymatgen
data_Li4Be3P3BrO12
_symmetry_space_group_name_H-M   'P 1'
_cell_length_a   8.17234600
_cell_length_b   8.17234600
_cell_length_c   8.17234600
_cell_angle_alpha   90.00000000
_cell_angle_beta   90.00000000
_cell_angle_gamma   90.00000000
_symmetry_Int_Tables_number   1
_chemical_formula_structural   Li4Be3P3BrO12
_chemical_formula_sum   'Li8 Be6 P6 Br2 O24'
_cell_volume   545.80842667
_cell_formula_units_Z   2
loop_
 _symmetry_equiv_pos_site_id
 _symmetry_equiv_pos_as_xyz
  1  'x, y, z'
loop_
 _atom_site_type_symbol
 _atom_site_label
 _atom_site_symmetry_multiplicity
 _atom_site_fract_x
 _atom_site_fract_y
 _atom_site_fract_z
 _atom_site_occupancy
  Li  Li0  1  0.816440  0.816440  0.183560  1
  Li  Li1  1  0.683560  0.683560  0.683560  1
  Li  Li2  1  0.683560  0.316440  0.316440  1
  Li  Li3  1  0.183560  0.816440  0.816440  1
  Li  Li4  1  0.816440  0.183560  0.816440  1
  Li  Li5  1  0.316440  0.316440  0.683560  1
  Li  Li6  1  0.183560  0.183560  0.183560  1
  Li  Li7  1  0.316440  0.683560  0.316440  1
  Be  Be8  1  0.500000  0.750000  0.000000  1
  Be  Be9  1  0.000000  0.500000  0.250000  1
  Be  Be10  1  0.250000  0.000000  0.500000  1
  Be  Be11  1  0.500000  0.250000  0.000000  1
  Be  Be12  1  0.000000  0.500000  0.750000  1
  Be  Be13  1  0.750000  0.000000  0.500000  1
  P  P14  1  0.500000  0.000000  0.250000  1
  P  P15  1  0.000000  0.250000  0.500000  1
  P  P16  1  0.250000  0.500000  0.000000  1
  P  P17  1  0.000000  0.750000  0.500000  1
  P  P18  1  0.500000  0.000000  0.750000  1
  P  P19  1  0.750000  0.500000  0.000000  1
  Br  Br20  1  0.000000  0.000000  0.000000  1
  Br  Br21  1  0.500000  0.500000  0.500000  1
  O  O22  1  0.079294  0.354792  0.636889  1
  O  O23  1  0.854792  0.420706  0.863111  1
  O  O24  1  0.136889  0.145208  0.420706  1
  O  O25  1  0.579294  0.136889  0.854792  1
  O  O26  1  0.636889  0.920706  0.645208  1
  O  O27  1  0.920706  0.354792  0.363111  1
  O  O28  1  0.863111  0.145208  0.579294  1
  O  O29  1  0.420706  0.136889  0.145208  1
  O  O30  1  0.354792  0.363111  0.920706  1
  O  O31  1  0.354792  0.636889  0.079294  1
  O  O32  1  0.363111  0.920706  0.354792  1
  O  O33  1  0.420706  0.863111  0.854792  1
  O  O34  1  0.145208  0.420706  0.136889  1
  O  O35  1  0.079294  0.645208  0.363111  1
  O  O36  1  0.863111  0.854792  0.420706  1
  O  O37  1  0.645208  0.363111  0.079294  1
  O  O38  1  0.363111  0.079294  0.645208  1
  O  O39  1  0.136889  0.854792  0.579294  1
  O  O40  1  0.579294  0.863111  0.145208  1
  O  O41  1  0.636889  0.079294  0.354792  1
  O  O42  1  0.645208  0.636889  0.920706  1
  O  O43  1  0.920706  0.645208  0.636889  1
  O  O44  1  0.854792  0.579294  0.136889  1
  O  O45  1  0.145208  0.579294  0.863111  1
