# generated using pymatgen
data_Pr3NdMn2(FeO6)2
_symmetry_space_group_name_H-M   'P 1'
_cell_length_a   5.52178507
_cell_length_b   5.79360124
_cell_length_c   7.78921339
_cell_angle_alpha   90.51995297
_cell_angle_beta   90.00203949
_cell_angle_gamma   90.01797793
_symmetry_Int_Tables_number   1
_chemical_formula_structural   Pr3NdMn2(FeO6)2
_chemical_formula_sum   'Pr3 Nd1 Mn2 Fe2 O12'
_cell_volume   249.17461476
_cell_formula_units_Z   1
loop_
 _symmetry_equiv_pos_site_id
 _symmetry_equiv_pos_as_xyz
  1  'x, y, z'
loop_
 _atom_site_type_symbol
 _atom_site_label
 _atom_site_symmetry_multiplicity
 _atom_site_fract_x
 _atom_site_fract_y
 _atom_site_fract_z
 _atom_site_occupancy
  Pr  Pr0  1  0.014001  0.939375  0.748521  1
  Pr  Pr1  1  0.513957  0.561280  0.251463  1
  Pr  Pr2  1  0.485597  0.438614  0.748506  1
  Nd  Nd3  1  0.985574  0.063055  0.251525  1
  Mn  Mn4  1  0.000234  0.499955  0.499687  1
  Mn  Mn5  1  0.499863  0.000128  0.499090  1
  Fe  Fe6  1  0.499978  0.000068  0.000847  1
  Fe  Fe7  1  0.000222  0.500049  0.000579  1
  O  O8  1  0.716397  0.311436  0.452532  1
  O  O9  1  0.215628  0.187742  0.546530  1
  O  O10  1  0.796542  0.797336  0.049256  1
  O  O11  1  0.295850  0.703592  0.952391  1
  O  O12  1  0.284825  0.687398  0.546757  1
  O  O13  1  0.785355  0.813808  0.451373  1
  O  O14  1  0.204832  0.204194  0.952494  1
  O  O15  1  0.705532  0.295102  0.048331  1
  O  O16  1  0.090089  0.473407  0.250648  1
  O  O17  1  0.589669  0.023530  0.749427  1
  O  O18  1  0.406019  0.975643  0.250534  1
  O  O19  1  0.909837  0.524287  0.749507  1
