# generated using pymatgen
data_La6CuSn2AuSe14
_symmetry_space_group_name_H-M   'P 1'
_cell_length_a   10.85854400
_cell_length_b   10.85848832
_cell_length_c   6.34851800
_cell_angle_alpha   89.99915573
_cell_angle_beta   90.00046682
_cell_angle_gamma   119.99898403
_symmetry_Int_Tables_number   1
_chemical_formula_structural   La6CuSn2AuSe14
_chemical_formula_sum   'La6 Cu1 Sn2 Au1 Se14'
_cell_volume   648.25876414
_cell_formula_units_Z   1
loop_
 _symmetry_equiv_pos_site_id
 _symmetry_equiv_pos_as_xyz
  1  'x, y, z'
loop_
 _atom_site_type_symbol
 _atom_site_label
 _atom_site_symmetry_multiplicity
 _atom_site_fract_x
 _atom_site_fract_y
 _atom_site_fract_z
 _atom_site_occupancy
  La  La0  1  0.865824  0.220453  0.464567  1
  La  La1  1  0.779512  0.645359  0.464550  1
  La  La2  1  0.354621  0.134156  0.464543  1
  La  La3  1  0.220951  0.355752  0.964777  1
  La  La4  1  0.134778  0.779045  0.964737  1
  La  La5  1  0.644302  0.865252  0.964740  1
  Cu  Cu6  1  0.000014  0.999995  0.999121  1
  Sn  Sn7  1  0.333338  0.666659  0.384572  1
  Sn  Sn8  1  0.666656  0.333340  0.884396  1
  Au  Au9  1  0.999994  0.999998  0.499667  1
  Se  Se10  1  0.485658  0.572416  0.213891  1
  Se  Se11  1  0.427585  0.913239  0.213890  1
  Se  Se12  1  0.086765  0.514348  0.213910  1
  Se  Se13  1  0.666620  0.333309  0.282038  1
  Se  Se14  1  0.730610  0.896425  0.485492  1
  Se  Se15  1  0.165815  0.269389  0.485498  1
  Se  Se16  1  0.103570  0.834177  0.485493  1
  Se  Se17  1  0.514612  0.427317  0.714869  1
  Se  Se18  1  0.572675  0.087285  0.714871  1
  Se  Se19  1  0.912707  0.485382  0.714876  1
  Se  Se20  1  0.333382  0.666692  0.781926  1
  Se  Se21  1  0.253009  0.097249  0.987257  1
  Se  Se22  1  0.902763  0.155774  0.987260  1
  Se  Se23  1  0.844241  0.746987  0.987260  1
