# generated using pymatgen
data_Tb3MgCd2Si2Au
_symmetry_space_group_name_H-M   'P 1'
_cell_length_a   7.25827828
_cell_length_b   7.25827751
_cell_length_c   4.37274100
_cell_angle_alpha   90.00000000
_cell_angle_beta   90.00000000
_cell_angle_gamma   120.58095741
_symmetry_Int_Tables_number   1
_chemical_formula_structural   Tb3MgCd2Si2Au
_chemical_formula_sum   'Tb3 Mg1 Cd2 Si2 Au1'
_cell_volume   198.32582850
_cell_formula_units_Z   1
loop_
 _symmetry_equiv_pos_site_id
 _symmetry_equiv_pos_as_xyz
  1  'x, y, z'
loop_
 _atom_site_type_symbol
 _atom_site_label
 _atom_site_symmetry_multiplicity
 _atom_site_fract_x
 _atom_site_fract_y
 _atom_site_fract_z
 _atom_site_occupancy
  Tb  Tb0  1  0.581477  0.001568  0.000000  1
  Tb  Tb1  1  0.001568  0.581477  0.000000  1
  Tb  Tb2  1  0.416274  0.416274  0.000000  1
  Mg  Mg3  1  0.759948  0.759948  0.500000  1
  Cd  Cd4  1  0.252059  0.998386  0.500000  1
  Cd  Cd5  1  0.998386  0.252059  0.500000  1
  Si  Si6  1  0.338306  0.666612  0.500000  1
  Si  Si7  1  0.666612  0.338306  0.500000  1
  Au  Au8  1  0.985369  0.985369  0.000000  1
