# generated using pymatgen
data_Tb12Dy4MgHg3Rh4
_symmetry_space_group_name_H-M   'P 1'
_cell_length_a   9.65689737
_cell_length_b   9.66110577
_cell_length_c   9.65225056
_cell_angle_alpha   59.97876597
_cell_angle_beta   59.93697249
_cell_angle_gamma   60.01011409
_symmetry_Int_Tables_number   1
_chemical_formula_structural   Tb12Dy4MgHg3Rh4
_chemical_formula_sum   'Tb12 Dy4 Mg1 Hg3 Rh4'
_cell_volume   636.40592462
_cell_formula_units_Z   1
loop_
 _symmetry_equiv_pos_site_id
 _symmetry_equiv_pos_as_xyz
  1  'x, y, z'
loop_
 _atom_site_type_symbol
 _atom_site_label
 _atom_site_symmetry_multiplicity
 _atom_site_fract_x
 _atom_site_fract_y
 _atom_site_fract_z
 _atom_site_occupancy
  Tb  Tb0  1  0.063714  0.436457  0.436949  1
  Tb  Tb1  1  0.649322  0.046807  0.651455  1
  Tb  Tb2  1  0.814098  0.811017  0.188069  1
  Tb  Tb3  1  0.437581  0.063580  0.062962  1
  Tb  Tb4  1  0.437912  0.436001  0.062572  1
  Tb  Tb5  1  0.190926  0.189362  0.810294  1
  Tb  Tb6  1  0.814303  0.186797  0.187995  1
  Tb  Tb7  1  0.064233  0.436543  0.062479  1
  Tb  Tb8  1  0.437486  0.063180  0.435844  1
  Tb  Tb9  1  0.058673  0.647686  0.646151  1
  Tb  Tb10  1  0.191063  0.809399  0.810035  1
  Tb  Tb11  1  0.647853  0.652037  0.048172  1
  Dy  Dy12  1  0.190664  0.809728  0.190093  1
  Dy  Dy13  1  0.064076  0.062370  0.436922  1
  Dy  Dy14  1  0.813403  0.187810  0.811091  1
  Dy  Dy15  1  0.649297  0.652603  0.651692  1
  Mg  Mg16  1  0.717557  0.427221  0.428253  1
  Hg  Hg17  1  0.418187  0.412830  0.756463  1
  Hg  Hg18  1  0.417996  0.413055  0.413107  1
  Hg  Hg19  1  0.417746  0.756131  0.413224  1
  Rh  Rh20  1  0.858797  0.428027  0.855324  1
  Rh  Rh21  1  0.427086  0.857595  0.857012  1
  Rh  Rh22  1  0.858681  0.856268  0.428286  1
  Rh  Rh23  1  0.859347  0.857498  0.855561  1
