# generated using pymatgen
data_Ca3Pr17(BiPb)8
_symmetry_space_group_name_H-M   'P 1'
_cell_length_a   8.49315200
_cell_length_b   16.25062300
_cell_length_c   8.56842800
_cell_angle_alpha   90.00000000
_cell_angle_beta   89.87259951
_cell_angle_gamma   90.00000000
_symmetry_Int_Tables_number   1
_chemical_formula_structural   Ca3Pr17(BiPb)8
_chemical_formula_sum   'Ca3 Pr17 Bi8 Pb8'
_cell_volume   1182.60303630
_cell_formula_units_Z   1
loop_
 _symmetry_equiv_pos_site_id
 _symmetry_equiv_pos_as_xyz
  1  'x, y, z'
loop_
 _atom_site_type_symbol
 _atom_site_label
 _atom_site_symmetry_multiplicity
 _atom_site_fract_x
 _atom_site_fract_y
 _atom_site_fract_z
 _atom_site_occupancy
  Ca  Ca0  1  0.284886  0.750000  0.999479  1
  Ca  Ca1  1  0.214755  0.250000  0.499081  1
  Ca  Ca2  1  0.714885  0.250000  0.000059  1
  Pr  Pr3  1  0.616174  0.618528  0.160046  1
  Pr  Pr4  1  0.117248  0.880694  0.336645  1
  Pr  Pr5  1  0.385412  0.119361  0.837806  1
  Pr  Pr6  1  0.884088  0.379563  0.661383  1
  Pr  Pr7  1  0.385412  0.380639  0.837806  1
  Pr  Pr8  1  0.884088  0.120437  0.661383  1
  Pr  Pr9  1  0.616174  0.881472  0.160046  1
  Pr  Pr10  1  0.117248  0.619306  0.336645  1
  Pr  Pr11  1  0.455489  0.606375  0.674813  1
  Pr  Pr12  1  0.957976  0.894394  0.825382  1
  Pr  Pr13  1  0.541130  0.104799  0.325155  1
  Pr  Pr14  1  0.042077  0.394005  0.176668  1
  Pr  Pr15  1  0.541130  0.395201  0.325155  1
  Pr  Pr16  1  0.042077  0.105995  0.176668  1
  Pr  Pr17  1  0.455489  0.893625  0.674813  1
  Pr  Pr18  1  0.957976  0.605606  0.825382  1
  Pr  Pr19  1  0.787833  0.750000  0.501942  1
  Bi  Bi20  1  0.727433  0.454030  0.975452  1
  Bi  Bi21  1  0.224286  0.044839  0.525610  1
  Bi  Bi22  1  0.274959  0.955048  0.023987  1
  Bi  Bi23  1  0.772724  0.544833  0.476581  1
  Bi  Bi24  1  0.274959  0.544952  0.023987  1
  Bi  Bi25  1  0.772724  0.955167  0.476581  1
  Bi  Bi26  1  0.727433  0.045970  0.975452  1
  Bi  Bi27  1  0.224286  0.455161  0.525610  1
  Pb  Pb28  1  0.420351  0.750000  0.376436  1
  Pb  Pb29  1  0.918381  0.750000  0.124785  1
  Pb  Pb30  1  0.579046  0.250000  0.622264  1
  Pb  Pb31  1  0.081214  0.250000  0.877924  1
  Pb  Pb32  1  0.653869  0.750000  0.856553  1
  Pb  Pb33  1  0.154929  0.750000  0.643489  1
  Pb  Pb34  1  0.346063  0.250000  0.144005  1
  Pb  Pb35  1  0.845805  0.250000  0.354930  1
