# generated using pymatgen
data_GdPaBr6
_symmetry_space_group_name_H-M   'P 1'
_cell_length_a   7.43744500
_cell_length_b   7.43744488
_cell_length_c   9.28677300
_cell_angle_alpha   90.00000000
_cell_angle_beta   90.00000000
_cell_angle_gamma   149.77781300
_symmetry_Int_Tables_number   1
_chemical_formula_structural   GdPaBr6
_chemical_formula_sum   'Gd1 Pa1 Br6'
_cell_volume   258.57491371
_cell_formula_units_Z   1
loop_
 _symmetry_equiv_pos_site_id
 _symmetry_equiv_pos_as_xyz
  1  'x, y, z'
loop_
 _atom_site_type_symbol
 _atom_site_label
 _atom_site_symmetry_multiplicity
 _atom_site_fract_x
 _atom_site_fract_y
 _atom_site_fract_z
 _atom_site_occupancy
  Gd  Gd0  1  0.740043  0.259957  0.750000  1
  Pa  Pa1  1  0.260445  0.739555  0.250000  1
  Br  Br2  1  0.652630  0.347370  0.430902  1
  Br  Br3  1  0.344185  0.655815  0.566541  1
  Br  Br4  1  0.095077  0.904923  0.750000  1
  Br  Br5  1  0.910805  0.089195  0.250000  1
  Br  Br6  1  0.652630  0.347370  0.069098  1
  Br  Br7  1  0.344185  0.655815  0.933459  1
