# generated using pymatgen
data_Nd2CdIn3Rh2
_symmetry_space_group_name_H-M   'P 1'
_cell_length_a   5.51629222
_cell_length_b   5.51629263
_cell_length_c   8.32759645
_cell_angle_alpha   89.88026335
_cell_angle_beta   90.11973491
_cell_angle_gamma   133.48465135
_symmetry_Int_Tables_number   1
_chemical_formula_structural   Nd2CdIn3Rh2
_chemical_formula_sum   'Nd2 Cd1 In3 Rh2'
_cell_volume   183.85933702
_cell_formula_units_Z   1
loop_
 _symmetry_equiv_pos_site_id
 _symmetry_equiv_pos_as_xyz
  1  'x, y, z'
loop_
 _atom_site_type_symbol
 _atom_site_label
 _atom_site_symmetry_multiplicity
 _atom_site_fract_x
 _atom_site_fract_y
 _atom_site_fract_z
 _atom_site_occupancy
  Nd  Nd0  1  0.566478  0.433522  0.245146  1
  Nd  Nd1  1  0.433403  0.566597  0.751914  1
  Cd  Cd2  1  0.856272  0.143728  0.049662  1
  In  In3  1  0.149192  0.850808  0.952302  1
  In  In4  1  0.146201  0.853799  0.551870  1
  In  In5  1  0.853508  0.146492  0.446773  1
  Rh  Rh6  1  0.278745  0.721255  0.255892  1
  Rh  Rh7  1  0.716201  0.283799  0.746441  1
