# generated using pymatgen
data_CeEu2Mg3Ir2Pt
_symmetry_space_group_name_H-M   'P 1'
_cell_length_a   7.41638499
_cell_length_b   7.58449805
_cell_length_c   4.12595000
_cell_angle_alpha   90.00000000
_cell_angle_beta   90.00000000
_cell_angle_gamma   120.75271571
_symmetry_Int_Tables_number   1
_chemical_formula_structural   CeEu2Mg3Ir2Pt
_chemical_formula_sum   'Ce1 Eu2 Mg3 Ir2 Pt1'
_cell_volume   199.44787477
_cell_formula_units_Z   1
loop_
 _symmetry_equiv_pos_site_id
 _symmetry_equiv_pos_as_xyz
  1  'x, y, z'
loop_
 _atom_site_type_symbol
 _atom_site_label
 _atom_site_symmetry_multiplicity
 _atom_site_fract_x
 _atom_site_fract_y
 _atom_site_fract_z
 _atom_site_occupancy
  Ce  Ce0  1  0.000000  0.422861  0.000000  1
  Eu  Eu1  1  0.580789  0.582852  0.000000  1
  Eu  Eu2  1  0.419211  0.002063  0.000000  1
  Mg  Mg3  1  0.000000  0.761754  0.500000  1
  Mg  Mg4  1  0.244837  0.243409  0.500000  1
  Mg  Mg5  1  0.755163  0.998572  0.500000  1
  Ir  Ir6  1  0.306242  0.644054  0.500000  1
  Ir  Ir7  1  0.693758  0.337812  0.500000  1
  Pt  Pt8  1  0.000000  0.006621  0.000000  1
