# generated using pymatgen
data_Tb6Cr2Fe(Co5P4)3
_symmetry_space_group_name_H-M   'P 1'
_cell_length_a   3.68992600
_cell_length_b   10.54653000
_cell_length_c   12.17115500
_cell_angle_alpha   90.00000000
_cell_angle_beta   90.00000000
_cell_angle_gamma   90.00000000
_symmetry_Int_Tables_number   1
_chemical_formula_structural   Tb6Cr2Fe(Co5P4)3
_chemical_formula_sum   'Tb6 Cr2 Fe1 Co15 P12'
_cell_volume   473.65163656
_cell_formula_units_Z   1
loop_
 _symmetry_equiv_pos_site_id
 _symmetry_equiv_pos_as_xyz
  1  'x, y, z'
loop_
 _atom_site_type_symbol
 _atom_site_label
 _atom_site_symmetry_multiplicity
 _atom_site_fract_x
 _atom_site_fract_y
 _atom_site_fract_z
 _atom_site_occupancy
  Tb  Tb0  1  0.000000  0.500000  0.523454  1
  Tb  Tb1  1  0.500000  0.000000  0.477649  1
  Tb  Tb2  1  0.500000  0.817853  0.204214  1
  Tb  Tb3  1  0.500000  0.182147  0.204214  1
  Tb  Tb4  1  0.000000  0.681228  0.796328  1
  Tb  Tb5  1  0.000000  0.318772  0.796328  1
  Cr  Cr6  1  0.500000  0.500000  0.153724  1
  Cr  Cr7  1  0.000000  0.000000  0.844801  1
  Fe  Fe8  1  0.000000  0.500000  0.988550  1
  Co  Co9  1  0.500000  0.500000  0.701424  1
  Co  Co10  1  0.000000  0.000000  0.298272  1
  Co  Co11  1  0.500000  0.000000  0.012620  1
  Co  Co12  1  0.500000  0.330411  0.993072  1
  Co  Co13  1  0.500000  0.669589  0.993072  1
  Co  Co14  1  0.000000  0.165859  0.006303  1
  Co  Co15  1  0.000000  0.834141  0.006303  1
  Co  Co16  1  0.500000  0.296331  0.430442  1
  Co  Co17  1  0.500000  0.703669  0.430442  1
  Co  Co18  1  0.000000  0.204052  0.569492  1
  Co  Co19  1  0.000000  0.795948  0.569492  1
  Co  Co20  1  0.500000  0.879909  0.708932  1
  Co  Co21  1  0.500000  0.120091  0.708932  1
  Co  Co22  1  0.000000  0.620496  0.290836  1
  Co  Co23  1  0.000000  0.379504  0.290836  1
  P  P24  1  0.500000  0.500000  0.884146  1
  P  P25  1  0.000000  0.000000  0.117707  1
  P  P26  1  0.500000  0.500000  0.344980  1
  P  P27  1  0.000000  0.000000  0.657334  1
  P  P28  1  0.500000  0.310400  0.616281  1
  P  P29  1  0.500000  0.689600  0.616281  1
  P  P30  1  0.000000  0.189127  0.384297  1
  P  P31  1  0.000000  0.810873  0.384297  1
  P  P32  1  0.500000  0.848577  0.891930  1
  P  P33  1  0.500000  0.151423  0.891930  1
  P  P34  1  0.000000  0.652994  0.105541  1
  P  P35  1  0.000000  0.347006  0.105541  1
