# generated using pymatgen
data_K3Rb2(IrN)3
_symmetry_space_group_name_H-M   'P 1'
_cell_length_a   9.36796584
_cell_length_b   9.51877701
_cell_length_c   3.72047700
_cell_angle_alpha   90.00000000
_cell_angle_beta   90.00000000
_cell_angle_gamma   120.53397982
_symmetry_Int_Tables_number   1
_chemical_formula_structural   K3Rb2(IrN)3
_chemical_formula_sum   'K3 Rb2 Ir3 N3'
_cell_volume   285.75487309
_cell_formula_units_Z   1
loop_
 _symmetry_equiv_pos_site_id
 _symmetry_equiv_pos_as_xyz
  1  'x, y, z'
loop_
 _atom_site_type_symbol
 _atom_site_label
 _atom_site_symmetry_multiplicity
 _atom_site_fract_x
 _atom_site_fract_y
 _atom_site_fract_z
 _atom_site_occupancy
  K  K0  1  0.668413  0.334839  0.500000  1
  K  K1  1  0.331587  0.666427  0.500000  1
  K  K2  1  0.000000  0.733581  0.500000  1
  Rb  Rb3  1  0.732533  0.000065  0.500000  1
  Rb  Rb4  1  0.267468  0.267534  0.500000  1
  Ir  Ir5  1  0.363940  0.995089  0.000000  1
  Ir  Ir6  1  0.000000  0.372459  0.000000  1
  Ir  Ir7  1  0.636060  0.631148  0.000000  1
  N  N8  1  0.364418  0.995345  0.500000  1
  N  N9  1  0.000000  0.372587  0.500000  1
  N  N10  1  0.635583  0.630927  0.500000  1
