# generated using pymatgen
data_Mn3RuF12
_symmetry_space_group_name_H-M   'P 1'
_cell_length_a   8.05554969
_cell_length_b   5.52905553
_cell_length_c   5.54151110
_cell_angle_alpha   90.09478618
_cell_angle_beta   89.93833727
_cell_angle_gamma   90.02740912
_symmetry_Int_Tables_number   1
_chemical_formula_structural   Mn3RuF12
_chemical_formula_sum   'Mn3 Ru1 F12'
_cell_volume   246.81607701
_cell_formula_units_Z   1
loop_
 _symmetry_equiv_pos_site_id
 _symmetry_equiv_pos_as_xyz
  1  'x, y, z'
loop_
 _atom_site_type_symbol
 _atom_site_label
 _atom_site_symmetry_multiplicity
 _atom_site_fract_x
 _atom_site_fract_y
 _atom_site_fract_z
 _atom_site_occupancy
  Mn  Mn0  1  0.000000  0.000000  0.000000  1
  Mn  Mn1  1  0.500000  0.000000  0.000000  1
  Mn  Mn2  1  0.500000  0.500000  0.500000  1
  Ru  Ru3  1  0.000000  0.500000  0.500000  1
  F  F4  1  0.261831  0.011187  0.999458  1
  F  F5  1  0.507291  0.296004  0.221889  1
  F  F6  1  0.990214  0.325409  0.194978  1
  F  F7  1  0.009365  0.805771  0.325220  1
  F  F8  1  0.494048  0.778538  0.296275  1
  F  F9  1  0.765445  0.520191  0.506926  1
  F  F10  1  0.234555  0.479809  0.493074  1
  F  F11  1  0.505952  0.221462  0.703725  1
  F  F12  1  0.990635  0.194229  0.674780  1
  F  F13  1  0.009786  0.674591  0.805022  1
  F  F14  1  0.492709  0.703996  0.778111  1
  F  F15  1  0.738169  0.988813  0.000542  1
