# generated using pymatgen
data_Lu2HfB2Ir5
_symmetry_space_group_name_H-M   'P 1'
_cell_length_a   9.62308100
_cell_length_b   9.62308100
_cell_length_c   3.24118000
_cell_angle_alpha   90.00000000
_cell_angle_beta   90.00000000
_cell_angle_gamma   90.00000000
_symmetry_Int_Tables_number   1
_chemical_formula_structural   Lu2HfB2Ir5
_chemical_formula_sum   'Lu4 Hf2 B4 Ir10'
_cell_volume   300.14522125
_cell_formula_units_Z   2
loop_
 _symmetry_equiv_pos_site_id
 _symmetry_equiv_pos_as_xyz
  1  'x, y, z'
loop_
 _atom_site_type_symbol
 _atom_site_label
 _atom_site_symmetry_multiplicity
 _atom_site_fract_x
 _atom_site_fract_y
 _atom_site_fract_z
 _atom_site_occupancy
  Lu  Lu0  1  0.175602  0.675602  0.000000  1
  Lu  Lu1  1  0.324398  0.175602  0.000000  1
  Lu  Lu2  1  0.824398  0.324398  0.000000  1
  Lu  Lu3  1  0.675602  0.824398  0.000000  1
  Hf  Hf4  1  0.500000  0.500000  0.000000  1
  Hf  Hf5  1  0.000000  0.000000  0.000000  1
  B  B6  1  0.380308  0.880308  0.000000  1
  B  B7  1  0.119692  0.380308  0.000000  1
  B  B8  1  0.880308  0.619692  0.000000  1
  B  B9  1  0.619692  0.119692  0.000000  1
  Ir  Ir10  1  0.223577  0.929352  0.500000  1
  Ir  Ir11  1  0.929352  0.776423  0.500000  1
  Ir  Ir12  1  0.429352  0.723577  0.500000  1
  Ir  Ir13  1  0.570648  0.276423  0.500000  1
  Ir  Ir14  1  0.723577  0.570648  0.500000  1
  Ir  Ir15  1  0.276423  0.429352  0.500000  1
  Ir  Ir16  1  0.070648  0.223577  0.500000  1
  Ir  Ir17  1  0.000000  0.500000  0.500000  1
  Ir  Ir18  1  0.500000  0.000000  0.500000  1
  Ir  Ir19  1  0.776423  0.070648  0.500000  1
