# generated using pymatgen
data_TbDy2Er(TiAl3)2
_symmetry_space_group_name_H-M   'P 1'
_cell_length_a   9.52743694
_cell_length_b   9.52743639
_cell_length_c   9.52743788
_cell_angle_alpha   34.78114698
_cell_angle_beta   34.78115141
_cell_angle_gamma   34.78114970
_symmetry_Int_Tables_number   1
_chemical_formula_structural   TbDy2Er(TiAl3)2
_chemical_formula_sum   'Tb1 Dy2 Er1 Ti2 Al6'
_cell_volume   251.17987355
_cell_formula_units_Z   1
loop_
 _symmetry_equiv_pos_site_id
 _symmetry_equiv_pos_as_xyz
  1  'x, y, z'
loop_
 _atom_site_type_symbol
 _atom_site_label
 _atom_site_symmetry_multiplicity
 _atom_site_fract_x
 _atom_site_fract_y
 _atom_site_fract_z
 _atom_site_occupancy
  Tb  Tb0  1  0.813122  0.813122  0.813122  1
  Dy  Dy1  1  0.686618  0.686618  0.686618  1
  Dy  Dy2  1  0.186859  0.186859  0.186859  1
  Er  Er3  1  0.313528  0.313528  0.313528  1
  Ti  Ti4  1  0.499978  0.499978  0.499978  1
  Ti  Ti5  1  0.999955  0.999955  0.999955  1
  Al  Al6  1  0.250031  0.250031  0.749406  1
  Al  Al7  1  0.750002  0.750002  0.250469  1
  Al  Al8  1  0.250031  0.749406  0.250031  1
  Al  Al9  1  0.750002  0.250469  0.750002  1
  Al  Al10  1  0.749406  0.250031  0.250031  1
  Al  Al11  1  0.250469  0.750002  0.750002  1
