# generated using pymatgen
data_LiHo2(P2Rh3)3
_symmetry_space_group_name_H-M   'P 1'
_cell_length_a   3.93588600
_cell_length_b   10.81770300
_cell_length_c   12.57141400
_cell_angle_alpha   90.00000000
_cell_angle_beta   90.00000000
_cell_angle_gamma   90.00000000
_symmetry_Int_Tables_number   1
_chemical_formula_structural   LiHo2(P2Rh3)3
_chemical_formula_sum   'Li2 Ho4 P12 Rh18'
_cell_volume   535.25618380
_cell_formula_units_Z   2
loop_
 _symmetry_equiv_pos_site_id
 _symmetry_equiv_pos_as_xyz
  1  'x, y, z'
loop_
 _atom_site_type_symbol
 _atom_site_label
 _atom_site_symmetry_multiplicity
 _atom_site_fract_x
 _atom_site_fract_y
 _atom_site_fract_z
 _atom_site_occupancy
  Li  Li0  1  0.250000  0.707641  0.991133  1
  Li  Li1  1  0.250000  0.792359  0.491133  1
  Ho  Ho2  1  0.250000  0.579013  0.704498  1
  Ho  Ho3  1  0.250000  0.920987  0.204498  1
  Ho  Ho4  1  0.750000  0.425664  0.300130  1
  Ho  Ho5  1  0.750000  0.074336  0.800130  1
  P  P6  1  0.250000  0.428876  0.116204  1
  P  P7  1  0.250000  0.071124  0.616204  1
  P  P8  1  0.750000  0.573111  0.882052  1
  P  P9  1  0.750000  0.926889  0.382052  1
  P  P10  1  0.250000  0.259284  0.866612  1
  P  P11  1  0.250000  0.240716  0.366612  1
  P  P12  1  0.750000  0.736854  0.139935  1
  P  P13  1  0.750000  0.763146  0.639935  1
  P  P14  1  0.250000  0.604572  0.391544  1
  P  P15  1  0.250000  0.895428  0.891544  1
  P  P16  1  0.750000  0.401120  0.607206  1
  P  P17  1  0.750000  0.098880  0.107206  1
  Rh  Rh18  1  0.750000  0.275122  0.001302  1
  Rh  Rh19  1  0.750000  0.224878  0.501302  1
  Rh  Rh20  1  0.250000  0.410994  0.481571  1
  Rh  Rh21  1  0.250000  0.089006  0.981571  1
  Rh  Rh22  1  0.750000  0.594694  0.522909  1
  Rh  Rh23  1  0.750000  0.905306  0.022909  1
  Rh  Rh24  1  0.250000  0.234480  0.176432  1
  Rh  Rh25  1  0.250000  0.265520  0.676432  1
  Rh  Rh26  1  0.750000  0.772407  0.827121  1
  Rh  Rh27  1  0.750000  0.727593  0.327121  1
  Rh  Rh28  1  0.250000  0.876691  0.700383  1
  Rh  Rh29  1  0.250000  0.623309  0.200383  1
  Rh  Rh30  1  0.750000  0.117327  0.292478  1
  Rh  Rh31  1  0.750000  0.382673  0.792478  1
  Rh  Rh32  1  0.250000  0.458816  0.930950  1
  Rh  Rh33  1  0.250000  0.041184  0.430950  1
  Rh  Rh34  1  0.750000  0.536340  0.067539  1
  Rh  Rh35  1  0.750000  0.963660  0.567539  1
