# generated using pymatgen
data_Li3Tm2Ni9P7
_symmetry_space_group_name_H-M   'P 1'
_cell_length_a   9.13347700
_cell_length_b   9.13347716
_cell_length_c   3.68580100
_cell_angle_alpha   90.00000000
_cell_angle_beta   90.00000000
_cell_angle_gamma   120.00000305
_symmetry_Int_Tables_number   1
_chemical_formula_structural   Li3Tm2Ni9P7
_chemical_formula_sum   'Li3 Tm2 Ni9 P7'
_cell_volume   266.27769464
_cell_formula_units_Z   1
loop_
 _symmetry_equiv_pos_site_id
 _symmetry_equiv_pos_as_xyz
  1  'x, y, z'
loop_
 _atom_site_type_symbol
 _atom_site_label
 _atom_site_symmetry_multiplicity
 _atom_site_fract_x
 _atom_site_fract_y
 _atom_site_fract_z
 _atom_site_occupancy
  Li  Li0  1  0.442935  0.561782  0.500000  1
  Li  Li1  1  0.438218  0.881154  0.500000  1
  Li  Li2  1  0.118846  0.557065  0.500000  1
  Tm  Tm3  1  0.000000  0.000000  0.000000  1
  Tm  Tm4  1  0.666667  0.333333  0.500000  1
  Ni  Ni5  1  0.702811  0.606497  0.000000  1
  Ni  Ni6  1  0.393503  0.096314  0.000000  1
  Ni  Ni7  1  0.903686  0.297189  0.000000  1
  Ni  Ni8  1  0.211527  0.384454  0.000000  1
  Ni  Ni9  1  0.615546  0.827074  0.000000  1
  Ni  Ni10  1  0.172926  0.788473  0.000000  1
  Ni  Ni11  1  0.286097  0.227554  0.500000  1
  Ni  Ni12  1  0.772446  0.058542  0.500000  1
  Ni  Ni13  1  0.941458  0.713903  0.500000  1
  P  P14  1  0.445591  0.365278  0.000000  1
  P  P15  1  0.634722  0.080314  0.000000  1
  P  P16  1  0.919686  0.554409  0.000000  1
  P  P17  1  0.046330  0.257582  0.500000  1
  P  P18  1  0.742418  0.788748  0.500000  1
  P  P19  1  0.211252  0.953670  0.500000  1
  P  P20  1  0.333333  0.666667  0.000000  1
