# generated using pymatgen
data_Hf3Be2GaPd3
_symmetry_space_group_name_H-M   'P 1'
_cell_length_a   6.76212300
_cell_length_b   6.76212212
_cell_length_c   3.54919500
_cell_angle_alpha   90.00000000
_cell_angle_beta   90.00000000
_cell_angle_gamma   120.00000918
_symmetry_Int_Tables_number   1
_chemical_formula_structural   Hf3Be2GaPd3
_chemical_formula_sum   'Hf3 Be2 Ga1 Pd3'
_cell_volume   140.54860145
_cell_formula_units_Z   1
loop_
 _symmetry_equiv_pos_site_id
 _symmetry_equiv_pos_as_xyz
  1  'x, y, z'
loop_
 _atom_site_type_symbol
 _atom_site_label
 _atom_site_symmetry_multiplicity
 _atom_site_fract_x
 _atom_site_fract_y
 _atom_site_fract_z
 _atom_site_occupancy
  Hf  Hf0  1  0.579342  0.979206  0.000000  1
  Hf  Hf1  1  0.020794  0.600136  0.000000  1
  Hf  Hf2  1  0.399864  0.420658  0.000000  1
  Be  Be3  1  0.333333  0.666667  0.500000  1
  Be  Be4  1  0.000000  0.000000  0.000000  1
  Ga  Ga5  1  0.666667  0.333333  0.500000  1
  Pd  Pd6  1  0.238290  0.984571  0.500000  1
  Pd  Pd7  1  0.015429  0.253719  0.500000  1
  Pd  Pd8  1  0.746281  0.761710  0.500000  1
