# generated using pymatgen
data_Nd12TcPd2Ru
_symmetry_space_group_name_H-M   'P 1'
_cell_length_a   6.48105667
_cell_length_b   7.43558212
_cell_length_c   9.93381100
_cell_angle_alpha   90.00000000
_cell_angle_beta   90.00000000
_cell_angle_gamma   90.17804409
_symmetry_Int_Tables_number   1
_chemical_formula_structural   Nd12TcPd2Ru
_chemical_formula_sum   'Nd12 Tc1 Pd2 Ru1'
_cell_volume   478.71230389
_cell_formula_units_Z   1
loop_
 _symmetry_equiv_pos_site_id
 _symmetry_equiv_pos_as_xyz
  1  'x, y, z'
loop_
 _atom_site_type_symbol
 _atom_site_label
 _atom_site_symmetry_multiplicity
 _atom_site_fract_x
 _atom_site_fract_y
 _atom_site_fract_z
 _atom_site_occupancy
  Nd  Nd0  1  0.326905  0.683354  0.061033  1
  Nd  Nd1  1  0.162669  0.171958  0.433977  1
  Nd  Nd2  1  0.661575  0.329360  0.566694  1
  Nd  Nd3  1  0.829750  0.816494  0.939560  1
  Nd  Nd4  1  0.661575  0.329360  0.933306  1
  Nd  Nd5  1  0.829750  0.816494  0.560440  1
  Nd  Nd6  1  0.326905  0.683354  0.438967  1
  Nd  Nd7  1  0.162669  0.171958  0.066023  1
  Nd  Nd8  1  0.868130  0.538060  0.250000  1
  Nd  Nd9  1  0.642841  0.027502  0.250000  1
  Nd  Nd10  1  0.149109  0.472450  0.750000  1
  Nd  Nd11  1  0.370389  0.958131  0.750000  1
  Tc  Tc12  1  0.069460  0.883829  0.250000  1
  Pd  Pd13  1  0.432943  0.386654  0.250000  1
  Pd  Pd14  1  0.936278  0.114738  0.750000  1
  Ru  Ru15  1  0.569051  0.616304  0.750000  1
