# generated using pymatgen
data_Ce4Al2IrOs
_symmetry_space_group_name_H-M   'P 1'
_cell_length_a   7.81201400
_cell_length_b   7.81201436
_cell_length_c   9.80771800
_cell_angle_alpha   90.00000000
_cell_angle_beta   90.00000000
_cell_angle_gamma   119.99999846
_symmetry_Int_Tables_number   1
_chemical_formula_structural   Ce4Al2IrOs
_chemical_formula_sum   'Ce12 Al6 Ir3 Os3'
_cell_volume   518.35185221
_cell_formula_units_Z   3
loop_
 _symmetry_equiv_pos_site_id
 _symmetry_equiv_pos_as_xyz
  1  'x, y, z'
loop_
 _atom_site_type_symbol
 _atom_site_label
 _atom_site_symmetry_multiplicity
 _atom_site_fract_x
 _atom_site_fract_y
 _atom_site_fract_z
 _atom_site_occupancy
  Ce  Ce0  1  0.000000  0.595497  0.503393  1
  Ce  Ce1  1  0.595497  0.000000  0.503393  1
  Ce  Ce2  1  0.404503  0.404503  0.503393  1
  Ce  Ce3  1  0.000000  0.396460  0.008152  1
  Ce  Ce4  1  0.396460  0.000000  0.008152  1
  Ce  Ce5  1  0.603540  0.603540  0.008152  1
  Ce  Ce6  1  0.000000  0.734192  0.172699  1
  Ce  Ce7  1  0.734192  0.000000  0.172699  1
  Ce  Ce8  1  0.265808  0.265808  0.172699  1
  Ce  Ce9  1  0.000000  0.270750  0.667931  1
  Ce  Ce10  1  0.270750  0.000000  0.667931  1
  Ce  Ce11  1  0.729250  0.729250  0.667931  1
  Al  Al12  1  0.666667  0.333333  0.276882  1
  Al  Al13  1  0.333333  0.666667  0.276882  1
  Al  Al14  1  0.333333  0.666667  0.781394  1
  Al  Al15  1  0.666667  0.333333  0.781394  1
  Al  Al16  1  0.000000  0.000000  0.419221  1
  Al  Al17  1  0.000000  0.000000  0.914698  1
  Ir  Ir18  1  0.000000  0.665629  0.837404  1
  Ir  Ir19  1  0.665629  0.000000  0.837404  1
  Ir  Ir20  1  0.334371  0.334371  0.837404  1
  Os  Os21  1  0.000000  0.336499  0.336681  1
  Os  Os22  1  0.336499  0.000000  0.336681  1
  Os  Os23  1  0.663501  0.663501  0.336681  1
