# generated using pymatgen
data_Zr(Tc2P)2
_symmetry_space_group_name_H-M   'P 1'
_cell_length_a   7.32803100
_cell_length_b   7.32803100
_cell_length_c   3.93162500
_cell_angle_alpha   90.00000000
_cell_angle_beta   90.00000000
_cell_angle_gamma   90.00000000
_symmetry_Int_Tables_number   1
_chemical_formula_structural   Zr(Tc2P)2
_chemical_formula_sum   'Zr2 Tc8 P4'
_cell_volume   211.12841323
_cell_formula_units_Z   2
loop_
 _symmetry_equiv_pos_site_id
 _symmetry_equiv_pos_as_xyz
  1  'x, y, z'
loop_
 _atom_site_type_symbol
 _atom_site_label
 _atom_site_symmetry_multiplicity
 _atom_site_fract_x
 _atom_site_fract_y
 _atom_site_fract_z
 _atom_site_occupancy
  Zr  Zr0  1  0.000000  0.000000  0.500000  1
  Zr  Zr1  1  0.500000  0.500000  0.000000  1
  Tc  Tc2  1  0.337882  0.080706  0.000000  1
  Tc  Tc3  1  0.580706  0.162118  0.500000  1
  Tc  Tc4  1  0.419294  0.837882  0.500000  1
  Tc  Tc5  1  0.662118  0.919294  0.000000  1
  Tc  Tc6  1  0.162118  0.580706  0.500000  1
  Tc  Tc7  1  0.837882  0.419294  0.500000  1
  Tc  Tc8  1  0.080706  0.337882  0.000000  1
  Tc  Tc9  1  0.919294  0.662118  0.000000  1
  P  P10  1  0.786305  0.213695  0.000000  1
  P  P11  1  0.713695  0.713695  0.500000  1
  P  P12  1  0.286305  0.286305  0.500000  1
  P  P13  1  0.213695  0.786305  0.000000  1
