# generated using pymatgen
data_Ba6Ho2(WO6)3
_symmetry_space_group_name_H-M   'P 1'
_cell_length_a   5.96027722
_cell_length_b   5.96027637
_cell_length_c   14.89377948
_cell_angle_alpha   89.99999898
_cell_angle_beta   78.45761404
_cell_angle_gamma   120.00001710
_symmetry_Int_Tables_number   1
_chemical_formula_structural   Ba6Ho2(WO6)3
_chemical_formula_sum   'Ba6 Ho2 W3 O18'
_cell_volume   445.81586114
_cell_formula_units_Z   1
loop_
 _symmetry_equiv_pos_site_id
 _symmetry_equiv_pos_as_xyz
  1  'x, y, z'
loop_
 _atom_site_type_symbol
 _atom_site_label
 _atom_site_symmetry_multiplicity
 _atom_site_fract_x
 _atom_site_fract_y
 _atom_site_fract_z
 _atom_site_occupancy
  Ba  Ba0  1  0.272463  0.636231  0.091307  1
  Ba  Ba1  1  0.822629  0.911314  0.266058  1
  Ba  Ba2  1  0.373670  0.186835  0.439495  1
  Ba  Ba3  1  0.626329  0.813164  0.560506  1
  Ba  Ba4  1  0.177371  0.088686  0.733942  1
  Ba  Ba5  1  0.727537  0.363769  0.908693  1
  Ho  Ho6  1  0.550495  0.275247  0.174257  1
  Ho  Ho7  1  0.449505  0.724753  0.825742  1
  W  W8  1  0.000000  0.000000  0.000000  1
  W  W9  1  0.103262  0.551631  0.345107  1
  W  W10  1  0.896738  0.448369  0.654893  1
  O  O11  1  0.259776  0.129887  0.077483  1
  O  O12  1  0.792629  0.129888  0.077483  1
  O  O13  1  0.792630  0.662741  0.077483  1
  O  O14  1  0.317829  0.427377  0.254793  1
  O  O15  1  0.854757  0.427378  0.254793  1
  O  O16  1  0.317827  0.890450  0.254793  1
  O  O17  1  0.901806  0.212849  0.409237  1
  O  O18  1  0.901806  0.688955  0.409237  1
  O  O19  1  0.377913  0.688956  0.409237  1
  O  O20  1  0.098195  0.311043  0.590763  1
  O  O21  1  0.622087  0.311044  0.590763  1
  O  O22  1  0.098195  0.787150  0.590763  1
  O  O23  1  0.682171  0.109550  0.745207  1
  O  O24  1  0.145244  0.572621  0.745207  1
  O  O25  1  0.682172  0.572622  0.745207  1
  O  O26  1  0.207369  0.337258  0.922517  1
  O  O27  1  0.207369  0.870113  0.922517  1
  O  O28  1  0.740224  0.870113  0.922517  1
