# generated using pymatgen
data_Dy3Y7In3Ru
_symmetry_space_group_name_H-M   'P 1'
_cell_length_a   9.75850800
_cell_length_b   9.75850815
_cell_length_c   9.78985700
_cell_angle_alpha   90.00000000
_cell_angle_beta   90.00000000
_cell_angle_gamma   119.99999950
_symmetry_Int_Tables_number   1
_chemical_formula_structural   Dy3Y7In3Ru
_chemical_formula_sum   'Dy6 Y14 In6 Ru2'
_cell_volume   807.37227825
_cell_formula_units_Z   2
loop_
 _symmetry_equiv_pos_site_id
 _symmetry_equiv_pos_as_xyz
  1  'x, y, z'
loop_
 _atom_site_type_symbol
 _atom_site_label
 _atom_site_symmetry_multiplicity
 _atom_site_fract_x
 _atom_site_fract_y
 _atom_site_fract_z
 _atom_site_occupancy
  Dy  Dy0  1  0.210128  0.789872  0.438557  1
  Dy  Dy1  1  0.210128  0.420258  0.438557  1
  Dy  Dy2  1  0.579742  0.789872  0.438557  1
  Dy  Dy3  1  0.789872  0.210128  0.561443  1
  Dy  Dy4  1  0.789872  0.579742  0.561443  1
  Dy  Dy5  1  0.420258  0.210128  0.561443  1
  Y  Y6  1  0.000000  0.000000  0.500000  1
  Y  Y7  1  0.000000  0.000000  0.000000  1
  Y  Y8  1  0.790205  0.209795  0.938865  1
  Y  Y9  1  0.790205  0.580409  0.938865  1
  Y  Y10  1  0.419591  0.209795  0.938865  1
  Y  Y11  1  0.209795  0.790205  0.061135  1
  Y  Y12  1  0.209795  0.419591  0.061135  1
  Y  Y13  1  0.580409  0.790205  0.061135  1
  Y  Y14  1  0.539768  0.460232  0.251232  1
  Y  Y15  1  0.539768  0.079536  0.251232  1
  Y  Y16  1  0.920464  0.460232  0.251232  1
  Y  Y17  1  0.460232  0.539768  0.748768  1
  Y  Y18  1  0.460232  0.920464  0.748768  1
  Y  Y19  1  0.079536  0.539768  0.748768  1
  In  In20  1  0.884403  0.115597  0.249388  1
  In  In21  1  0.884403  0.768806  0.249388  1
  In  In22  1  0.231194  0.115597  0.249388  1
  In  In23  1  0.115597  0.884403  0.750612  1
  In  In24  1  0.115597  0.231194  0.750612  1
  In  In25  1  0.768806  0.884403  0.750612  1
  Ru  Ru26  1  0.333333  0.666667  0.251725  1
  Ru  Ru27  1  0.666667  0.333333  0.748275  1
