# generated using pymatgen
data_NdSmNi12P5
_symmetry_space_group_name_H-M   'P 1'
_cell_length_a   3.67608300
_cell_length_b   10.81555238
_cell_length_c   13.12363617
_cell_angle_alpha   71.55435986
_cell_angle_beta   90.00000000
_cell_angle_gamma   90.00000000
_symmetry_Int_Tables_number   1
_chemical_formula_structural   NdSmNi12P5
_chemical_formula_sum   'Nd2 Sm2 Ni24 P10'
_cell_volume   494.97404771
_cell_formula_units_Z   2
loop_
 _symmetry_equiv_pos_site_id
 _symmetry_equiv_pos_as_xyz
  1  'x, y, z'
loop_
 _atom_site_type_symbol
 _atom_site_label
 _atom_site_symmetry_multiplicity
 _atom_site_fract_x
 _atom_site_fract_y
 _atom_site_fract_z
 _atom_site_occupancy
  Nd  Nd0  1  0.250000  0.245842  0.187301  1
  Nd  Nd1  1  0.750000  0.754158  0.812699  1
  Sm  Sm2  1  0.250000  0.280562  0.682590  1
  Sm  Sm3  1  0.750000  0.719438  0.317410  1
  Ni  Ni4  1  0.250000  0.839093  0.137778  1
  Ni  Ni5  1  0.750000  0.160907  0.862222  1
  Ni  Ni6  1  0.250000  0.287250  0.439030  1
  Ni  Ni7  1  0.750000  0.712750  0.560970  1
  Ni  Ni8  1  0.250000  0.070278  0.015359  1
  Ni  Ni9  1  0.750000  0.929722  0.984641  1
  Ni  Ni10  1  0.250000  0.064697  0.446895  1
  Ni  Ni11  1  0.750000  0.935303  0.553105  1
  Ni  Ni12  1  0.250000  0.597073  0.695510  1
  Ni  Ni13  1  0.750000  0.402927  0.304490  1
  Ni  Ni14  1  0.250000  0.583083  0.007633  1
  Ni  Ni15  1  0.750000  0.416917  0.992367  1
  Ni  Ni16  1  0.250000  0.578744  0.509726  1
  Ni  Ni17  1  0.750000  0.421256  0.490274  1
  Ni  Ni18  1  0.250000  0.298356  0.917849  1
  Ni  Ni19  1  0.750000  0.701644  0.082151  1
  Ni  Ni20  1  0.250000  0.994241  0.659709  1
  Ni  Ni21  1  0.750000  0.005759  0.340291  1
  Ni  Ni22  1  0.250000  0.839120  0.437593  1
  Ni  Ni23  1  0.750000  0.160880  0.562407  1
  Ni  Ni24  1  0.250000  0.990340  0.848823  1
  Ni  Ni25  1  0.750000  0.009660  0.151177  1
  Ni  Ni26  1  0.250000  0.563590  0.203807  1
  Ni  Ni27  1  0.750000  0.436410  0.796193  1
  P  P28  1  0.250000  0.508998  0.870960  1
  P  P29  1  0.750000  0.491002  0.129040  1
  P  P30  1  0.250000  0.799927  0.984090  1
  P  P31  1  0.750000  0.200073  0.015910  1
  P  P32  1  0.250000  0.495499  0.378200  1
  P  P33  1  0.750000  0.504501  0.621800  1
  P  P34  1  0.250000  0.812703  0.610997  1
  P  P35  1  0.750000  0.187297  0.389003  1
  P  P36  1  0.250000  0.947522  0.259802  1
  P  P37  1  0.750000  0.052478  0.740198  1
