# generated using pymatgen
data_Li3La4AlIr3Pt
_symmetry_space_group_name_H-M   'P 1'
_cell_length_a   4.14986000
_cell_length_b   7.20755087
_cell_length_c   8.50942300
_cell_angle_alpha   90.19056362
_cell_angle_beta   90.00000000
_cell_angle_gamma   90.00000000
_symmetry_Int_Tables_number   1
_chemical_formula_structural   Li3La4AlIr3Pt
_chemical_formula_sum   'Li3 La4 Al1 Ir3 Pt1'
_cell_volume   254.51821704
_cell_formula_units_Z   1
loop_
 _symmetry_equiv_pos_site_id
 _symmetry_equiv_pos_as_xyz
  1  'x, y, z'
loop_
 _atom_site_type_symbol
 _atom_site_label
 _atom_site_symmetry_multiplicity
 _atom_site_fract_x
 _atom_site_fract_y
 _atom_site_fract_z
 _atom_site_occupancy
  Li  Li0  1  0.250000  0.124591  0.054465  1
  Li  Li1  1  0.750000  0.371009  0.557433  1
  Li  Li2  1  0.750000  0.866219  0.944105  1
  La  La3  1  0.250000  0.546625  0.816927  1
  La  La4  1  0.250000  0.038075  0.674906  1
  La  La5  1  0.750000  0.967775  0.310997  1
  La  La6  1  0.750000  0.463209  0.188521  1
  Al  Al7  1  0.250000  0.632534  0.444052  1
  Ir  Ir8  1  0.250000  0.743320  0.140830  1
  Ir  Ir9  1  0.250000  0.265995  0.385521  1
  Ir  Ir10  1  0.750000  0.738019  0.603432  1
  Pt  Pt11  1  0.750000  0.242626  0.878810  1
