# generated using pymatgen
data_Sc4In2Hg3Ir
_symmetry_space_group_name_H-M   'P 1'
_cell_length_a   7.86353058
_cell_length_b   7.86353115
_cell_length_c   7.07678700
_cell_angle_alpha   90.00000000
_cell_angle_beta   90.00000000
_cell_angle_gamma   90.98541734
_symmetry_Int_Tables_number   1
_chemical_formula_structural   Sc4In2Hg3Ir
_chemical_formula_sum   'Sc8 In4 Hg6 Ir2'
_cell_volume   437.52923901
_cell_formula_units_Z   2
loop_
 _symmetry_equiv_pos_site_id
 _symmetry_equiv_pos_as_xyz
  1  'x, y, z'
loop_
 _atom_site_type_symbol
 _atom_site_label
 _atom_site_symmetry_multiplicity
 _atom_site_fract_x
 _atom_site_fract_y
 _atom_site_fract_z
 _atom_site_occupancy
  Sc  Sc0  1  0.170860  0.118770  0.000000  1
  Sc  Sc1  1  0.881230  0.829140  0.000000  1
  Sc  Sc2  1  0.649852  0.350148  0.500000  1
  Sc  Sc3  1  0.319208  0.680792  0.500000  1
  Sc  Sc4  1  0.676873  0.323127  0.000000  1
  Sc  Sc5  1  0.295855  0.704145  0.000000  1
  Sc  Sc6  1  0.858890  0.809460  0.500000  1
  Sc  Sc7  1  0.190540  0.141110  0.500000  1
  In  In8  1  0.494193  0.999366  0.252492  1
  In  In9  1  0.494193  0.999366  0.747508  1
  In  In10  1  0.000634  0.505807  0.252492  1
  In  In11  1  0.000634  0.505807  0.747508  1
  Hg  Hg12  1  0.360058  0.374054  0.224182  1
  Hg  Hg13  1  0.625946  0.639942  0.775818  1
  Hg  Hg14  1  0.625946  0.639942  0.224182  1
  Hg  Hg15  1  0.868370  0.131630  0.725311  1
  Hg  Hg16  1  0.868370  0.131630  0.274689  1
  Hg  Hg17  1  0.360058  0.374054  0.775818  1
  Ir  Ir18  1  0.129144  0.870856  0.268761  1
  Ir  Ir19  1  0.129144  0.870856  0.731239  1
