# generated using pymatgen
data_TbYbCd2(Ru2O7)2
_symmetry_space_group_name_H-M   'P 1'
_cell_length_a   7.32988290
_cell_length_b   7.23844362
_cell_length_c   7.23844257
_cell_angle_alpha   59.31974245
_cell_angle_beta   59.48446993
_cell_angle_gamma   59.48445781
_symmetry_Int_Tables_number   1
_chemical_formula_structural   TbYbCd2(Ru2O7)2
_chemical_formula_sum   'Tb1 Yb1 Cd2 Ru4 O14'
_cell_volume   268.03799124
_cell_formula_units_Z   1
loop_
 _symmetry_equiv_pos_site_id
 _symmetry_equiv_pos_as_xyz
  1  'x, y, z'
loop_
 _atom_site_type_symbol
 _atom_site_label
 _atom_site_symmetry_multiplicity
 _atom_site_fract_x
 _atom_site_fract_y
 _atom_site_fract_z
 _atom_site_occupancy
  Tb  Tb0  1  0.625000  0.125000  0.125000  1
  Yb  Yb1  1  0.125000  0.125000  0.125000  1
  Cd  Cd2  1  0.125000  0.625000  0.125000  1
  Cd  Cd3  1  0.125000  0.125000  0.625000  1
  Ru  Ru4  1  0.625000  0.125000  0.625000  1
  Ru  Ru5  1  0.625000  0.625000  0.125000  1
  Ru  Ru6  1  0.125000  0.625000  0.625000  1
  Ru  Ru7  1  0.625000  0.625000  0.625000  1
  O  O8  1  0.694226  0.703539  0.299995  1
  O  O9  1  0.938924  0.560206  0.560206  1
  O  O10  1  0.545084  0.957229  0.957229  1
  O  O11  1  0.942483  0.947322  0.553463  1
  O  O12  1  0.942483  0.553463  0.947322  1
  O  O13  1  0.555774  0.950005  0.546461  1
  O  O14  1  0.307517  0.696537  0.302678  1
  O  O15  1  0.311076  0.689794  0.689794  1
  O  O16  1  0.704916  0.292771  0.292771  1
  O  O17  1  0.694226  0.299995  0.703539  1
  O  O18  1  0.555774  0.546461  0.950005  1
  O  O19  1  0.307517  0.302678  0.696537  1
  O  O20  1  0.247766  0.255665  0.255665  1
  O  O21  1  0.002234  0.994335  0.994335  1
