# generated using pymatgen
data_NdY(OsO3)6
_symmetry_space_group_name_H-M   'P 1'
_cell_length_a   7.44073000
_cell_length_b   5.27532943
_cell_length_c   8.23639620
_cell_angle_alpha   85.47601316
_cell_angle_beta   90.00000000
_cell_angle_gamma   90.00000000
_symmetry_Int_Tables_number   1
_chemical_formula_structural   NdY(OsO3)6
_chemical_formula_sum   'Nd1 Y1 Os6 O18'
_cell_volume   322.29024457
_cell_formula_units_Z   1
loop_
 _symmetry_equiv_pos_site_id
 _symmetry_equiv_pos_as_xyz
  1  'x, y, z'
loop_
 _atom_site_type_symbol
 _atom_site_label
 _atom_site_symmetry_multiplicity
 _atom_site_fract_x
 _atom_site_fract_y
 _atom_site_fract_z
 _atom_site_occupancy
  Nd  Nd0  1  0.250000  0.974366  0.427073  1
  Y  Y1  1  0.750000  0.032462  0.573923  1
  Os  Os2  1  0.497154  0.539145  0.692837  1
  Os  Os3  1  0.993691  0.464605  0.307185  1
  Os  Os4  1  0.500797  0.001738  0.998950  1
  Os  Os5  1  0.999203  0.001738  0.998950  1
  Os  Os6  1  0.002846  0.539145  0.692837  1
  Os  Os7  1  0.506309  0.464605  0.307185  1
  O  O8  1  0.750000  0.416024  0.689378  1
  O  O9  1  0.250000  0.570148  0.315625  1
  O  O10  1  0.750000  0.078692  0.014479  1
  O  O11  1  0.250000  0.919649  0.981800  1
  O  O12  1  0.250000  0.636065  0.674225  1
  O  O13  1  0.750000  0.340266  0.331710  1
  O  O14  1  0.030888  0.263275  0.529019  1
  O  O15  1  0.542913  0.736184  0.473060  1
  O  O16  1  0.564469  0.851681  0.787322  1
  O  O17  1  0.060502  0.155502  0.207259  1
  O  O18  1  0.439498  0.155502  0.207259  1
  O  O19  1  0.935531  0.851681  0.787322  1
  O  O20  1  0.037857  0.312273  0.876889  1
  O  O21  1  0.537126  0.691761  0.123373  1
  O  O22  1  0.962874  0.691761  0.123373  1
  O  O23  1  0.462143  0.312273  0.876889  1
  O  O24  1  0.469112  0.263275  0.529019  1
  O  O25  1  0.957087  0.736184  0.473060  1
