# generated using pymatgen
data_Pu4MgB4Rh9
_symmetry_space_group_name_H-M   'P 1'
_cell_length_a   5.59536600
_cell_length_b   5.59536821
_cell_length_c   21.11217100
_cell_angle_alpha   90.00000000
_cell_angle_beta   90.00000000
_cell_angle_gamma   120.00550888
_symmetry_Int_Tables_number   1
_chemical_formula_structural   Pu4MgB4Rh9
_chemical_formula_sum   'Pu8 Mg2 B8 Rh18'
_cell_volume   572.39599502
_cell_formula_units_Z   2
loop_
 _symmetry_equiv_pos_site_id
 _symmetry_equiv_pos_as_xyz
  1  'x, y, z'
loop_
 _atom_site_type_symbol
 _atom_site_label
 _atom_site_symmetry_multiplicity
 _atom_site_fract_x
 _atom_site_fract_y
 _atom_site_fract_z
 _atom_site_occupancy
  Pu  Pu0  1  0.666554  0.333446  0.535714  1
  Pu  Pu1  1  0.333446  0.666554  0.464286  1
  Pu  Pu2  1  0.333446  0.666554  0.035714  1
  Pu  Pu3  1  0.666554  0.333446  0.964286  1
  Pu  Pu4  1  0.666015  0.333985  0.675154  1
  Pu  Pu5  1  0.333985  0.666015  0.324846  1
  Pu  Pu6  1  0.333985  0.666015  0.175154  1
  Pu  Pu7  1  0.666015  0.333985  0.824846  1
  Mg  Mg8  1  0.000000  0.000000  0.500000  1
  Mg  Mg9  1  0.000000  0.000000  0.000000  1
  B  B10  1  0.000186  0.999814  0.674053  1
  B  B11  1  0.999814  0.000186  0.325947  1
  B  B12  1  0.999814  0.000186  0.174053  1
  B  B13  1  0.000186  0.999814  0.825947  1
  B  B14  1  0.666560  0.333440  0.324702  1
  B  B15  1  0.333440  0.666560  0.675298  1
  B  B16  1  0.333440  0.666560  0.824702  1
  B  B17  1  0.666560  0.333440  0.175298  1
  Rh  Rh18  1  0.167908  0.332868  0.750000  1
  Rh  Rh19  1  0.166949  0.833051  0.750000  1
  Rh  Rh20  1  0.667132  0.832092  0.750000  1
  Rh  Rh21  1  0.832092  0.667132  0.250000  1
  Rh  Rh22  1  0.833051  0.166949  0.250000  1
  Rh  Rh23  1  0.332868  0.167908  0.250000  1
  Rh  Rh24  1  0.167523  0.335835  0.608247  1
  Rh  Rh25  1  0.168057  0.831943  0.608163  1
  Rh  Rh26  1  0.664165  0.832477  0.608247  1
  Rh  Rh27  1  0.832477  0.664165  0.391753  1
  Rh  Rh28  1  0.831943  0.168057  0.391837  1
  Rh  Rh29  1  0.335835  0.167523  0.391753  1
  Rh  Rh30  1  0.832477  0.664165  0.108247  1
  Rh  Rh31  1  0.831943  0.168057  0.108163  1
  Rh  Rh32  1  0.335835  0.167523  0.108247  1
  Rh  Rh33  1  0.167523  0.335835  0.891753  1
  Rh  Rh34  1  0.168057  0.831943  0.891837  1
  Rh  Rh35  1  0.664165  0.832477  0.891753  1
