# generated using pymatgen
data_Ce4ZnCuSiRh10
_symmetry_space_group_name_H-M   'P 1'
_cell_length_a   7.17309113
_cell_length_b   7.24855726
_cell_length_c   7.24855652
_cell_angle_alpha   107.92986063
_cell_angle_beta   110.99532205
_cell_angle_gamma   109.94619783
_symmetry_Int_Tables_number   1
_chemical_formula_structural   Ce4ZnCuSiRh10
_chemical_formula_sum   'Ce4 Zn1 Cu1 Si1 Rh10'
_cell_volume   288.31702027
_cell_formula_units_Z   1
loop_
 _symmetry_equiv_pos_site_id
 _symmetry_equiv_pos_as_xyz
  1  'x, y, z'
loop_
 _atom_site_type_symbol
 _atom_site_label
 _atom_site_symmetry_multiplicity
 _atom_site_fract_x
 _atom_site_fract_y
 _atom_site_fract_z
 _atom_site_occupancy
  Ce  Ce0  1  0.018095  0.014725  0.510977  1
  Ce  Ce1  1  0.018095  0.507118  0.003369  1
  Ce  Ce2  1  0.481478  0.974085  0.978006  1
  Ce  Ce3  1  0.481478  0.503472  0.507394  1
  Zn  Zn4  1  0.749295  0.497570  0.251725  1
  Cu  Cu5  1  0.748388  0.251922  0.496466  1
  Si  Si6  1  0.003112  0.001520  0.001592  1
  Rh  Rh7  1  0.513754  0.256588  0.758499  1
  Rh  Rh8  1  0.239019  0.494256  0.744763  1
  Rh  Rh9  1  0.235651  0.744316  0.491335  1
  Rh  Rh10  1  0.513754  0.755254  0.257165  1
  Rh  Rh11  1  0.737443  0.721991  0.015452  1
  Rh  Rh12  1  0.293694  0.009586  0.284108  1
  Rh  Rh13  1  0.969670  0.263234  0.260425  1
  Rh  Rh14  1  0.294456  0.281990  0.012466  1
  Rh  Rh15  1  0.732945  0.013127  0.719819  1
  Rh  Rh16  1  0.969670  0.709246  0.706437  1
