# generated using pymatgen
data_Ca3Hg5Pd
_symmetry_space_group_name_H-M   'P 1'
_cell_length_a   8.23314900
_cell_length_b   8.23314822
_cell_length_c   3.89183900
_cell_angle_alpha   90.00000000
_cell_angle_beta   90.00000000
_cell_angle_gamma   120.00000714
_symmetry_Int_Tables_number   1
_chemical_formula_structural   Ca3Hg5Pd
_chemical_formula_sum   'Ca3 Hg5 Pd1'
_cell_volume   228.46378919
_cell_formula_units_Z   1
loop_
 _symmetry_equiv_pos_site_id
 _symmetry_equiv_pos_as_xyz
  1  'x, y, z'
loop_
 _atom_site_type_symbol
 _atom_site_label
 _atom_site_symmetry_multiplicity
 _atom_site_fract_x
 _atom_site_fract_y
 _atom_site_fract_z
 _atom_site_occupancy
  Ca  Ca0  1  0.617845  0.025167  0.000000  1
  Ca  Ca1  1  0.974833  0.592678  0.000000  1
  Ca  Ca2  1  0.407322  0.382155  0.000000  1
  Hg  Hg3  1  0.294014  0.009532  0.500000  1
  Hg  Hg4  1  0.990468  0.284482  0.500000  1
  Hg  Hg5  1  0.715518  0.705986  0.500000  1
  Hg  Hg6  1  0.333333  0.666667  0.500000  1
  Hg  Hg7  1  0.000000  0.000000  0.000000  1
  Pd  Pd8  1  0.666667  0.333333  0.500000  1
