# generated using pymatgen
data_CaSc2Pa(ReB6)2
_symmetry_space_group_name_H-M   'P 1'
_cell_length_a   3.61769500
_cell_length_b   9.01923479
_cell_length_c   11.39333843
_cell_angle_alpha   90.09132530
_cell_angle_beta   90.00000000
_cell_angle_gamma   90.00000000
_symmetry_Int_Tables_number   1
_chemical_formula_structural   CaSc2Pa(ReB6)2
_chemical_formula_sum   'Ca2 Sc4 Pa2 Re4 B24'
_cell_volume   371.75095145
_cell_formula_units_Z   2
loop_
 _symmetry_equiv_pos_site_id
 _symmetry_equiv_pos_as_xyz
  1  'x, y, z'
loop_
 _atom_site_type_symbol
 _atom_site_label
 _atom_site_symmetry_multiplicity
 _atom_site_fract_x
 _atom_site_fract_y
 _atom_site_fract_z
 _atom_site_occupancy
  Ca  Ca0  1  0.000000  0.823657  0.084997  1
  Ca  Ca1  1  0.000000  0.176343  0.915003  1
  Sc  Sc2  1  0.000000  0.945715  0.371282  1
  Sc  Sc3  1  0.000000  0.054285  0.628718  1
  Sc  Sc4  1  0.000000  0.442600  0.129399  1
  Sc  Sc5  1  0.000000  0.557400  0.870601  1
  Pa  Pa6  1  0.000000  0.319125  0.413802  1
  Pa  Pa7  1  0.000000  0.680875  0.586198  1
  Re  Re8  1  0.000000  0.637068  0.321788  1
  Re  Re9  1  0.000000  0.362932  0.678212  1
  Re  Re10  1  0.000000  0.145064  0.185660  1
  Re  Re11  1  0.000000  0.854936  0.814340  1
  B  B12  1  0.500000  0.554489  0.432285  1
  B  B13  1  0.500000  0.445511  0.567715  1
  B  B14  1  0.500000  0.054705  0.067580  1
  B  B15  1  0.500000  0.945295  0.932420  1
  B  B16  1  0.500000  0.753727  0.417548  1
  B  B17  1  0.500000  0.246273  0.582452  1
  B  B18  1  0.500000  0.253981  0.081200  1
  B  B19  1  0.500000  0.746019  0.918800  1
  B  B20  1  0.500000  0.794498  0.264865  1
  B  B21  1  0.500000  0.205502  0.735135  1
  B  B22  1  0.500000  0.294753  0.235199  1
  B  B23  1  0.500000  0.705247  0.764801  1
  B  B24  1  0.500000  0.629150  0.182823  1
  B  B25  1  0.500000  0.370850  0.817177  1
  B  B26  1  0.500000  0.130017  0.316795  1
  B  B27  1  0.500000  0.869983  0.683205  1
  B  B28  1  0.500000  0.982476  0.213492  1
  B  B29  1  0.500000  0.017524  0.786508  1
  B  B30  1  0.500000  0.481892  0.286278  1
  B  B31  1  0.500000  0.518108  0.713722  1
  B  B32  1  0.500000  0.593713  0.025644  1
  B  B33  1  0.500000  0.406287  0.974356  1
  B  B34  1  0.500000  0.100078  0.473242  1
  B  B35  1  0.500000  0.899922  0.526758  1
