# generated using pymatgen
data_P2H3F9
_symmetry_space_group_name_H-M   'P 1'
_cell_length_a   4.37875292
_cell_length_b   6.22293364
_cell_length_c   10.13248267
_cell_angle_alpha   93.67436006
_cell_angle_beta   90.88799126
_cell_angle_gamma   111.99678760
_symmetry_Int_Tables_number   1
_chemical_formula_structural   P2H3F9
_chemical_formula_sum   'P2 H3 F9'
_cell_volume   255.23922431
_cell_formula_units_Z   1
loop_
 _symmetry_equiv_pos_site_id
 _symmetry_equiv_pos_as_xyz
  1  'x, y, z'
loop_
 _atom_site_type_symbol
 _atom_site_label
 _atom_site_symmetry_multiplicity
 _atom_site_fract_x
 _atom_site_fract_y
 _atom_site_fract_z
 _atom_site_occupancy
  P  P0  1  0.446136  0.399723  0.700634  1
  P  P1  1  0.430995  0.001514  0.989070  1
  H  H2  1  0.719785  0.769648  0.382621  1
  H  H3  1  0.603031  0.398474  0.314292  1
  H  H4  1  0.680694  0.074236  0.353460  1
  F  F5  1  0.393100  0.574629  0.602564  1
  F  F6  1  0.560584  0.817252  0.047718  1
  F  F7  1  0.771239  0.222963  0.002823  1
  F  F8  1  0.576600  0.548709  0.307040  1
  F  F9  1  0.457199  0.932219  0.835271  1
  F  F10  1  0.803282  0.931859  0.423212  1
  F  F11  1  0.617621  0.277742  0.598070  1
  F  F12  1  0.777623  0.576643  0.775978  1
  F  F13  1  0.590334  0.163237  0.295694  1
