# generated using pymatgen
data_Y2Al9CoPt2
_symmetry_space_group_name_H-M   'P 1'
_cell_length_a   7.53593968
_cell_length_b   7.53594016
_cell_length_c   9.39339100
_cell_angle_alpha   90.00000000
_cell_angle_beta   90.00000000
_cell_angle_gamma   119.39076323
_symmetry_Int_Tables_number   1
_chemical_formula_structural   Y2Al9CoPt2
_chemical_formula_sum   'Y4 Al18 Co2 Pt4'
_cell_volume   464.79500196
_cell_formula_units_Z   2
loop_
 _symmetry_equiv_pos_site_id
 _symmetry_equiv_pos_as_xyz
  1  'x, y, z'
loop_
 _atom_site_type_symbol
 _atom_site_label
 _atom_site_symmetry_multiplicity
 _atom_site_fract_x
 _atom_site_fract_y
 _atom_site_fract_z
 _atom_site_occupancy
  Y  Y0  1  0.993703  0.672793  0.250228  1
  Y  Y1  1  0.006297  0.327207  0.750228  1
  Y  Y2  1  0.672793  0.993703  0.249772  1
  Y  Y3  1  0.327207  0.006297  0.749772  1
  Al  Al4  1  0.136336  0.136336  0.250000  1
  Al  Al5  1  0.863664  0.863664  0.750000  1
  Al  Al6  1  0.340555  0.333377  0.551645  1
  Al  Al7  1  0.659445  0.666623  0.051645  1
  Al  Al8  1  0.333377  0.340555  0.948355  1
  Al  Al9  1  0.666623  0.659445  0.448355  1
  Al  Al10  1  0.340307  0.553467  0.242666  1
  Al  Al11  1  0.659693  0.446533  0.742666  1
  Al  Al12  1  0.553467  0.340307  0.257334  1
  Al  Al13  1  0.446533  0.659693  0.757334  1
  Al  Al14  1  0.007847  0.344366  0.074515  1
  Al  Al15  1  0.992153  0.655634  0.574515  1
  Al  Al16  1  0.344366  0.007847  0.425485  1
  Al  Al17  1  0.655634  0.992153  0.925485  1
  Al  Al18  1  0.011020  0.664634  0.925216  1
  Al  Al19  1  0.988980  0.335366  0.425216  1
  Al  Al20  1  0.664634  0.011020  0.574784  1
  Al  Al21  1  0.335366  0.988980  0.074784  1
  Co  Co22  1  0.329746  0.670254  0.000000  1
  Co  Co23  1  0.670254  0.329746  0.500000  1
  Pt  Pt24  1  0.000220  0.999780  0.000000  1
  Pt  Pt25  1  0.999780  0.000220  0.500000  1
  Pt  Pt26  1  0.671790  0.328210  0.000000  1
  Pt  Pt27  1  0.328210  0.671790  0.500000  1
