# generated using pymatgen
data_Nd4Y2Si3Ge
_symmetry_space_group_name_H-M   'P 1'
_cell_length_a   7.65050256
_cell_length_b   7.65050395
_cell_length_c   4.41051500
_cell_angle_alpha   90.00000000
_cell_angle_beta   90.00000000
_cell_angle_gamma   90.50495074
_symmetry_Int_Tables_number   1
_chemical_formula_structural   Nd4Y2Si3Ge
_chemical_formula_sum   'Nd4 Y2 Si3 Ge1'
_cell_volume   258.13830031
_cell_formula_units_Z   1
loop_
 _symmetry_equiv_pos_site_id
 _symmetry_equiv_pos_as_xyz
  1  'x, y, z'
loop_
 _atom_site_type_symbol
 _atom_site_label
 _atom_site_symmetry_multiplicity
 _atom_site_fract_x
 _atom_site_fract_y
 _atom_site_fract_z
 _atom_site_occupancy
  Nd  Nd0  1  0.678897  0.176492  0.500000  1
  Nd  Nd1  1  0.323508  0.821103  0.500000  1
  Nd  Nd2  1  0.174797  0.325203  0.500000  1
  Nd  Nd3  1  0.823960  0.676040  0.500000  1
  Y  Y4  1  0.500920  0.502526  0.000000  1
  Y  Y5  1  0.997474  0.999080  0.000000  1
  Si  Si6  1  0.113686  0.613155  0.000000  1
  Si  Si7  1  0.886845  0.386314  0.000000  1
  Si  Si8  1  0.616614  0.883386  0.000000  1
  Ge  Ge9  1  0.383300  0.116700  0.000000  1
