# generated using pymatgen
data_La14CoNi3Pd2
_symmetry_space_group_name_H-M   'P 1'
_cell_length_a   10.13942402
_cell_length_b   10.16808728
_cell_length_c   6.51303982
_cell_angle_alpha   89.32729996
_cell_angle_beta   90.35021083
_cell_angle_gamma   120.08513452
_symmetry_Int_Tables_number   1
_chemical_formula_structural   La14CoNi3Pd2
_chemical_formula_sum   'La14 Co1 Ni3 Pd2'
_cell_volume   580.98344706
_cell_formula_units_Z   1
loop_
 _symmetry_equiv_pos_site_id
 _symmetry_equiv_pos_as_xyz
  1  'x, y, z'
loop_
 _atom_site_type_symbol
 _atom_site_label
 _atom_site_symmetry_multiplicity
 _atom_site_fract_x
 _atom_site_fract_y
 _atom_site_fract_z
 _atom_site_occupancy
  La  La0  1  0.459133  0.536846  0.315409  1
  La  La1  1  0.336262  0.664041  0.785898  1
  La  La2  1  0.873527  0.126791  0.496348  1
  La  La3  1  0.746943  0.882804  0.998951  1
  La  La4  1  0.863558  0.747482  0.509516  1
  La  La5  1  0.072401  0.529165  0.305238  1
  La  La6  1  0.140069  0.892369  0.008152  1
  La  La7  1  0.536900  0.078945  0.814304  1
  La  La8  1  0.929893  0.454800  0.809546  1
  La  La9  1  0.660853  0.324732  0.279772  1
  La  La10  1  0.469578  0.924662  0.316863  1
  La  La11  1  0.252863  0.135992  0.494875  1
  La  La12  1  0.527428  0.447217  0.819270  1
  La  La13  1  0.129467  0.249307  0.997476  1
  Co  Co14  1  0.374394  0.188128  0.038550  1
  Ni  Ni15  1  0.189388  0.377500  0.549774  1
  Ni  Ni16  1  0.812773  0.188582  0.050059  1
  Ni  Ni17  1  0.625153  0.810359  0.546776  1
  Pd  Pd18  1  0.184610  0.811916  0.553310  1
  Pd  Pd19  1  0.814810  0.628361  0.051916  1
