# generated using pymatgen
data_Zr10GePb6
_symmetry_space_group_name_H-M   'P 1'
_cell_length_a   5.95672100
_cell_length_b   8.77562661
_cell_length_c   8.77570000
_cell_angle_alpha   119.99968107
_cell_angle_beta   90.00068293
_cell_angle_gamma   89.99848986
_symmetry_Int_Tables_number   1
_chemical_formula_structural   Zr10GePb6
_chemical_formula_sum   'Zr10 Ge1 Pb6'
_cell_volume   397.28227678
_cell_formula_units_Z   1
loop_
 _symmetry_equiv_pos_site_id
 _symmetry_equiv_pos_as_xyz
  1  'x, y, z'
loop_
 _atom_site_type_symbol
 _atom_site_label
 _atom_site_symmetry_multiplicity
 _atom_site_fract_x
 _atom_site_fract_y
 _atom_site_fract_z
 _atom_site_occupancy
  Zr  Zr0  1  0.500006  0.333317  0.666671  1
  Zr  Zr1  1  0.499999  0.666684  0.333331  1
  Zr  Zr2  1  0.000000  0.666678  0.333317  1
  Zr  Zr3  1  0.999995  0.333324  0.666679  1
  Zr  Zr4  1  0.761461  0.252795  0.999972  1
  Zr  Zr5  1  0.761457  0.747164  0.747190  1
  Zr  Zr6  1  0.761465  0.000022  0.252839  1
  Zr  Zr7  1  0.238537  0.747179  0.999979  1
  Zr  Zr8  1  0.238543  0.252810  0.252834  1
  Zr  Zr9  1  0.238534  0.000029  0.747185  1
  Ge  Ge10  1  0.500003  0.000001  0.999999  1
  Pb  Pb11  1  0.746496  0.609635  0.999974  1
  Pb  Pb12  1  0.746497  0.390345  0.390372  1
  Pb  Pb13  1  0.746503  0.000023  0.609647  1
  Pb  Pb14  1  0.253503  0.390337  0.999974  1
  Pb  Pb15  1  0.253502  0.609628  0.609655  1
  Pb  Pb16  1  0.253496  0.000025  0.390381  1
