# generated using pymatgen
data_HoEr7ReOsBr8
_symmetry_space_group_name_H-M   'P 1'
_cell_length_a   8.89341252
_cell_length_b   8.88863947
_cell_length_c   6.54331935
_cell_angle_alpha   89.52452483
_cell_angle_beta   89.47586091
_cell_angle_gamma   89.42390507
_symmetry_Int_Tables_number   1
_chemical_formula_structural   HoEr7ReOsBr8
_chemical_formula_sum   'Ho1 Er7 Re1 Os1 Br8'
_cell_volume   517.18639496
_cell_formula_units_Z   1
loop_
 _symmetry_equiv_pos_site_id
 _symmetry_equiv_pos_as_xyz
  1  'x, y, z'
loop_
 _atom_site_type_symbol
 _atom_site_label
 _atom_site_symmetry_multiplicity
 _atom_site_fract_x
 _atom_site_fract_y
 _atom_site_fract_z
 _atom_site_occupancy
  Ho  Ho0  1  0.249484  0.900951  0.011545  1
  Er  Er1  1  0.751033  0.098992  0.989228  1
  Er  Er2  1  0.098381  0.751781  0.487907  1
  Er  Er3  1  0.900891  0.249174  0.510827  1
  Er  Er4  1  0.752411  0.902817  0.508135  1
  Er  Er5  1  0.247327  0.097432  0.490465  1
  Er  Er6  1  0.097004  0.247764  0.991778  1
  Er  Er7  1  0.902465  0.752421  0.009557  1
  Re  Re8  1  0.994460  0.005514  0.250060  1
  Os  Os9  1  0.005221  0.994555  0.749691  1
  Br  Br10  1  0.421633  0.816186  0.406554  1
  Br  Br11  1  0.578838  0.183610  0.595046  1
  Br  Br12  1  0.183492  0.578129  0.094223  1
  Br  Br13  1  0.816379  0.421194  0.905039  1
  Br  Br14  1  0.417115  0.193155  0.096487  1
  Br  Br15  1  0.583932  0.806910  0.902962  1
  Br  Br16  1  0.807103  0.582843  0.403472  1
  Br  Br17  1  0.192830  0.416569  0.597024  1
