# generated using pymatgen
data_CeThCrN3
_symmetry_space_group_name_H-M   'P 1'
_cell_length_a   3.51377047
_cell_length_b   3.76512524
_cell_length_c   6.88695897
_cell_angle_alpha   105.86381645
_cell_angle_beta   104.77971924
_cell_angle_gamma   89.99998061
_symmetry_Int_Tables_number   1
_chemical_formula_structural   CeThCrN3
_chemical_formula_sum   'Ce1 Th1 Cr1 N3'
_cell_volume   84.50458842
_cell_formula_units_Z   1
loop_
 _symmetry_equiv_pos_site_id
 _symmetry_equiv_pos_as_xyz
  1  'x, y, z'
loop_
 _atom_site_type_symbol
 _atom_site_label
 _atom_site_symmetry_multiplicity
 _atom_site_fract_x
 _atom_site_fract_y
 _atom_site_fract_z
 _atom_site_occupancy
  Ce  Ce0  1  0.645141  0.645141  0.290279  1
  Th  Th1  1  0.352318  0.352318  0.704637  1
  Cr  Cr2  1  0.003168  0.003168  0.006335  1
  N  N3  1  0.000262  0.500263  0.000525  1
  N  N4  1  0.163615  0.163615  0.327231  1
  N  N5  1  0.835498  0.835498  0.670993  1
