# generated using pymatgen
data_Hf18MnBe2Re7
_symmetry_space_group_name_H-M   'P 1'
_cell_length_a   8.48109700
_cell_length_b   8.48102307
_cell_length_c   8.60175400
_cell_angle_alpha   89.99998902
_cell_angle_beta   90.00002674
_cell_angle_gamma   120.00016123
_symmetry_Int_Tables_number   1
_chemical_formula_structural   Hf18MnBe2Re7
_chemical_formula_sum   'Hf18 Mn1 Be2 Re7'
_cell_volume   535.81790177
_cell_formula_units_Z   1
loop_
 _symmetry_equiv_pos_site_id
 _symmetry_equiv_pos_as_xyz
  1  'x, y, z'
loop_
 _atom_site_type_symbol
 _atom_site_label
 _atom_site_symmetry_multiplicity
 _atom_site_fract_x
 _atom_site_fract_y
 _atom_site_fract_z
 _atom_site_occupancy
  Hf  Hf0  1  0.196424  0.803573  0.446684  1
  Hf  Hf1  1  0.196424  0.392851  0.446682  1
  Hf  Hf2  1  0.607146  0.803572  0.446682  1
  Hf  Hf3  1  0.803576  0.196427  0.553316  1
  Hf  Hf4  1  0.803576  0.607149  0.553318  1
  Hf  Hf5  1  0.392854  0.196428  0.553318  1
  Hf  Hf6  1  0.801707  0.198293  0.945618  1
  Hf  Hf7  1  0.801705  0.603410  0.945620  1
  Hf  Hf8  1  0.396587  0.198291  0.945618  1
  Hf  Hf9  1  0.198293  0.801707  0.054382  1
  Hf  Hf10  1  0.198295  0.396590  0.054380  1
  Hf  Hf11  1  0.603413  0.801709  0.054382  1
  Hf  Hf12  1  0.540350  0.459644  0.250769  1
  Hf  Hf13  1  0.540356  0.080712  0.250771  1
  Hf  Hf14  1  0.919291  0.459645  0.250770  1
  Hf  Hf15  1  0.459650  0.540356  0.749231  1
  Hf  Hf16  1  0.459644  0.919288  0.749229  1
  Hf  Hf17  1  0.080709  0.540355  0.749230  1
  Mn  Mn18  1  0.000000  0.000000  0.500000  1
  Be  Be19  1  0.333333  0.666667  0.251941  1
  Be  Be20  1  0.666667  0.333333  0.748059  1
  Re  Re21  1  0.890343  0.109659  0.253379  1
  Re  Re22  1  0.890339  0.780681  0.253380  1
  Re  Re23  1  0.219310  0.109657  0.253370  1
  Re  Re24  1  0.109657  0.890341  0.746621  1
  Re  Re25  1  0.109661  0.219319  0.746620  1
  Re  Re26  1  0.780690  0.890343  0.746630  1
  Re  Re27  1  0.000000  0.000000  0.000000  1
