# generated using pymatgen
data_MgNiBRhO5
_symmetry_space_group_name_H-M   'P 1'
_cell_length_a   3.12928400
_cell_length_b   9.31172700
_cell_length_c   12.28803700
_cell_angle_alpha   90.00000000
_cell_angle_beta   90.00000000
_cell_angle_gamma   90.00000000
_symmetry_Int_Tables_number   1
_chemical_formula_structural   MgNiBRhO5
_chemical_formula_sum   'Mg4 Ni4 B4 Rh4 O20'
_cell_volume   358.06158094
_cell_formula_units_Z   4
loop_
 _symmetry_equiv_pos_site_id
 _symmetry_equiv_pos_as_xyz
  1  'x, y, z'
loop_
 _atom_site_type_symbol
 _atom_site_label
 _atom_site_symmetry_multiplicity
 _atom_site_fract_x
 _atom_site_fract_y
 _atom_site_fract_z
 _atom_site_occupancy
  Mg  Mg0  1  0.500000  0.000000  0.500000  1
  Mg  Mg1  1  0.500000  0.500000  0.000000  1
  Mg  Mg2  1  0.000000  0.000000  0.000000  1
  Mg  Mg3  1  0.000000  0.500000  0.500000  1
  Ni  Ni4  1  0.500000  0.003594  0.218972  1
  Ni  Ni5  1  0.500000  0.996406  0.781028  1
  Ni  Ni6  1  0.500000  0.496406  0.718972  1
  Ni  Ni7  1  0.500000  0.503594  0.281028  1
  B  B8  1  0.000000  0.271256  0.139525  1
  B  B9  1  0.000000  0.728744  0.860475  1
  B  B10  1  0.000000  0.228744  0.639525  1
  B  B11  1  0.000000  0.771256  0.360475  1
  Rh  Rh12  1  0.000000  0.243961  0.386967  1
  Rh  Rh13  1  0.000000  0.756039  0.613033  1
  Rh  Rh14  1  0.000000  0.256039  0.886967  1
  Rh  Rh15  1  0.000000  0.743961  0.113033  1
  O  O16  1  0.000000  0.351937  0.043166  1
  O  O17  1  0.000000  0.648063  0.956834  1
  O  O18  1  0.000000  0.148063  0.543166  1
  O  O19  1  0.000000  0.851937  0.456834  1
  O  O20  1  0.500000  0.107518  0.357635  1
  O  O21  1  0.500000  0.892482  0.642365  1
  O  O22  1  0.500000  0.392482  0.857635  1
  O  O23  1  0.500000  0.607518  0.142365  1
  O  O24  1  0.000000  0.349645  0.236496  1
  O  O25  1  0.000000  0.650355  0.763504  1
  O  O26  1  0.000000  0.150355  0.736496  1
  O  O27  1  0.000000  0.849645  0.263504  1
  O  O28  1  0.500000  0.387021  0.420054  1
  O  O29  1  0.500000  0.612979  0.579946  1
  O  O30  1  0.500000  0.112979  0.920054  1
  O  O31  1  0.500000  0.887021  0.079946  1
  O  O32  1  0.000000  0.123817  0.140251  1
  O  O33  1  0.000000  0.876183  0.859749  1
  O  O34  1  0.000000  0.376183  0.640251  1
  O  O35  1  0.000000  0.623817  0.359749  1
