# generated using pymatgen
data_Li2NbZn2SbO8
_symmetry_space_group_name_H-M   'P 1'
_cell_length_a   6.14639995
_cell_length_b   6.14639995
_cell_length_c   8.56868340
_cell_angle_alpha   90.32174172
_cell_angle_beta   90.32174172
_cell_angle_gamma   89.96225360
_symmetry_Int_Tables_number   1
_chemical_formula_structural   Li2NbZn2SbO8
_chemical_formula_sum   'Li4 Nb2 Zn4 Sb2 O16'
_cell_volume   323.69944146
_cell_formula_units_Z   2
loop_
 _symmetry_equiv_pos_site_id
 _symmetry_equiv_pos_as_xyz
  1  'x, y, z'
loop_
 _atom_site_type_symbol
 _atom_site_label
 _atom_site_symmetry_multiplicity
 _atom_site_fract_x
 _atom_site_fract_y
 _atom_site_fract_z
 _atom_site_occupancy
  Li  Li0  1  0.496071  0.295095  0.009650  1
  Li  Li1  1  0.704906  0.503927  0.240350  1
  Li  Li2  1  0.498414  0.715329  0.488354  1
  Li  Li3  1  0.284672  0.501584  0.761646  1
  Nb  Nb4  1  0.997081  0.707679  0.505136  1
  Nb  Nb5  1  0.292321  0.002919  0.744864  1
  Zn  Zn6  1  0.244412  0.755589  0.125000  1
  Zn  Zn7  1  0.255087  0.235023  0.369892  1
  Zn  Zn8  1  0.760429  0.239572  0.625000  1
  Zn  Zn9  1  0.764978  0.744914  0.880108  1
  Sb  Sb10  1  0.998705  0.270127  0.998376  1
  Sb  Sb11  1  0.729873  0.001295  0.251624  1
  O  O12  1  0.236656  0.482993  0.001178  1
  O  O13  1  0.766243  0.021559  0.014016  1
  O  O14  1  0.978441  0.233757  0.235984  1
  O  O15  1  0.517008  0.763343  0.248823  1
  O  O16  1  0.519936  0.241056  0.247008  1
  O  O17  1  0.976871  0.773929  0.267084  1
  O  O18  1  0.760459  0.980483  0.484829  1
  O  O19  1  0.236081  0.516330  0.489558  1
  O  O20  1  0.760221  0.514758  0.504315  1
  O  O21  1  0.232944  0.985251  0.518337  1
  O  O22  1  0.014749  0.767056  0.731663  1
  O  O23  1  0.485243  0.239778  0.745684  1
  O  O24  1  0.483671  0.763918  0.760443  1
  O  O25  1  0.019517  0.239541  0.765172  1
  O  O26  1  0.226071  0.023129  0.982916  1
  O  O27  1  0.758943  0.480065  0.002992  1
