# generated using pymatgen
data_La3CdHg2PtAu2
_symmetry_space_group_name_H-M   'P 1'
_cell_length_a   8.12499574
_cell_length_b   8.09191647
_cell_length_c   3.98911500
_cell_angle_alpha   90.00000000
_cell_angle_beta   90.00000000
_cell_angle_gamma   119.79524940
_symmetry_Int_Tables_number   1
_chemical_formula_structural   La3CdHg2PtAu2
_chemical_formula_sum   'La3 Cd1 Hg2 Pt1 Au2'
_cell_volume   227.60094796
_cell_formula_units_Z   1
loop_
 _symmetry_equiv_pos_site_id
 _symmetry_equiv_pos_as_xyz
  1  'x, y, z'
loop_
 _atom_site_type_symbol
 _atom_site_label
 _atom_site_symmetry_multiplicity
 _atom_site_fract_x
 _atom_site_fract_y
 _atom_site_fract_z
 _atom_site_occupancy
  La  La0  1  0.418144  0.016393  0.000000  1
  La  La1  1  0.596233  0.583971  0.000000  1
  La  La2  1  0.985345  0.396256  0.000000  1
  Cd  Cd3  1  0.001988  0.741785  0.500000  1
  Hg  Hg4  1  0.735214  0.996456  0.500000  1
  Hg  Hg5  1  0.262228  0.263651  0.500000  1
  Pt  Pt6  1  0.672839  0.340374  0.500000  1
  Au  Au7  1  0.327711  0.667329  0.500000  1
  Au  Au8  1  0.000297  0.993786  0.000000  1
