# generated using pymatgen
data_TaNb5Si6(Ru2W)2
_symmetry_space_group_name_H-M   'P 1'
_cell_length_a   7.53451993
_cell_length_b   7.51900400
_cell_length_c   7.53452098
_cell_angle_alpha   126.82816090
_cell_angle_beta   124.15535718
_cell_angle_gamma   80.79595249
_symmetry_Int_Tables_number   1
_chemical_formula_structural   TaNb5Si6(Ru2W)2
_chemical_formula_sum   'Ta1 Nb5 Si6 Ru4 W2'
_cell_volume   272.50046207
_cell_formula_units_Z   1
loop_
 _symmetry_equiv_pos_site_id
 _symmetry_equiv_pos_as_xyz
  1  'x, y, z'
loop_
 _atom_site_type_symbol
 _atom_site_label
 _atom_site_symmetry_multiplicity
 _atom_site_fract_x
 _atom_site_fract_y
 _atom_site_fract_z
 _atom_site_occupancy
  Ta  Ta0  1  0.557901  0.093296  0.035395  1
  Nb  Nb1  1  0.441970  0.476409  0.534439  1
  Nb  Nb2  1  0.960069  0.490163  0.030095  1
  Nb  Nb3  1  0.039926  0.069661  0.529736  1
  Nb  Nb4  1  0.752219  0.921264  0.669046  1
  Nb  Nb5  1  0.247368  0.916607  0.169238  1
  Si  Si6  1  0.780055  0.554634  0.274580  1
  Si  Si7  1  0.220652  0.494258  0.773607  1
  Si  Si8  1  0.334268  0.817379  0.491609  1
  Si  Si9  1  0.665881  0.157322  0.483530  1
  Si  Si10  1  0.825770  0.817379  0.983109  1
  Si  Si11  1  0.173793  0.157322  0.991443  1
  Ru  Ru12  1  0.162302  0.747401  0.655688  1
  Ru  Ru13  1  0.837930  0.491272  0.582860  1
  Ru  Ru14  1  0.591713  0.747401  0.085099  1
  Ru  Ru15  1  0.408411  0.491272  0.153341  1
  W  W16  1  0.500527  0.249579  0.750333  1
  W  W17  1  0.999246  0.249579  0.249052  1
