# generated using pymatgen
data_Y4Ta2(IrOs)3
_symmetry_space_group_name_H-M   'P 1'
_cell_length_a   5.61908300
_cell_length_b   5.61908358
_cell_length_c   8.36739000
_cell_angle_alpha   90.00000000
_cell_angle_beta   90.00000000
_cell_angle_gamma   120.00000250
_symmetry_Int_Tables_number   1
_chemical_formula_structural   Y4Ta2(IrOs)3
_chemical_formula_sum   'Y4 Ta2 Ir3 Os3'
_cell_volume   228.79765621
_cell_formula_units_Z   1
loop_
 _symmetry_equiv_pos_site_id
 _symmetry_equiv_pos_as_xyz
  1  'x, y, z'
loop_
 _atom_site_type_symbol
 _atom_site_label
 _atom_site_symmetry_multiplicity
 _atom_site_fract_x
 _atom_site_fract_y
 _atom_site_fract_z
 _atom_site_occupancy
  Y  Y0  1  0.333333  0.666667  0.434451  1
  Y  Y1  1  0.666667  0.333333  0.558956  1
  Y  Y2  1  0.666667  0.333333  0.941044  1
  Y  Y3  1  0.333333  0.666667  0.065549  1
  Ta  Ta4  1  0.000000  0.000000  0.504572  1
  Ta  Ta5  1  0.000000  0.000000  0.995428  1
  Ir  Ir6  1  0.829282  0.170718  0.250000  1
  Ir  Ir7  1  0.829282  0.658564  0.250000  1
  Ir  Ir8  1  0.341436  0.170718  0.250000  1
  Os  Os9  1  0.174008  0.825992  0.750000  1
  Os  Os10  1  0.174008  0.348015  0.750000  1
  Os  Os11  1  0.651985  0.825992  0.750000  1
