# generated using pymatgen
data_Ca3Lu2(SiO4)3
_symmetry_space_group_name_H-M   'P 1'
_cell_length_a   10.80496118
_cell_length_b   10.80496113
_cell_length_c   10.80496100
_cell_angle_alpha   109.47122227
_cell_angle_beta   109.47122217
_cell_angle_gamma   109.47121655
_symmetry_Int_Tables_number   1
_chemical_formula_structural   Ca3Lu2(SiO4)3
_chemical_formula_sum   'Ca12 Lu8 Si12 O48'
_cell_volume   971.06373972
_cell_formula_units_Z   4
loop_
 _symmetry_equiv_pos_site_id
 _symmetry_equiv_pos_as_xyz
  1  'x, y, z'
loop_
 _atom_site_type_symbol
 _atom_site_label
 _atom_site_symmetry_multiplicity
 _atom_site_fract_x
 _atom_site_fract_y
 _atom_site_fract_z
 _atom_site_occupancy
  Ca  Ca0  1  0.250000  0.375000  0.125000  1
  Ca  Ca1  1  0.750000  0.125000  0.375000  1
  Ca  Ca2  1  0.375000  0.125000  0.250000  1
  Ca  Ca3  1  0.125000  0.375000  0.750000  1
  Ca  Ca4  1  0.250000  0.875000  0.625000  1
  Ca  Ca5  1  0.125000  0.250000  0.375000  1
  Ca  Ca6  1  0.625000  0.250000  0.875000  1
  Ca  Ca7  1  0.750000  0.625000  0.875000  1
  Ca  Ca8  1  0.875000  0.750000  0.625000  1
  Ca  Ca9  1  0.875000  0.625000  0.250000  1
  Ca  Ca10  1  0.625000  0.875000  0.750000  1
  Ca  Ca11  1  0.375000  0.750000  0.125000  1
  Lu  Lu12  1  0.500000  0.000000  0.000000  1
  Lu  Lu13  1  0.500000  0.500000  0.000000  1
  Lu  Lu14  1  0.000000  0.500000  0.500000  1
  Lu  Lu15  1  0.000000  0.000000  0.500000  1
  Lu  Lu16  1  0.500000  0.500000  0.500000  1
  Lu  Lu17  1  0.000000  0.500000  0.000000  1
  Lu  Lu18  1  0.500000  0.000000  0.500000  1
  Lu  Lu19  1  0.000000  0.000000  0.000000  1
  Si  Si20  1  0.125000  0.750000  0.875000  1
  Si  Si21  1  0.875000  0.250000  0.125000  1
  Si  Si22  1  0.750000  0.375000  0.625000  1
  Si  Si23  1  0.125000  0.875000  0.250000  1
  Si  Si24  1  0.250000  0.125000  0.875000  1
  Si  Si25  1  0.375000  0.625000  0.750000  1
  Si  Si26  1  0.375000  0.250000  0.625000  1
  Si  Si27  1  0.875000  0.125000  0.750000  1
  Si  Si28  1  0.625000  0.375000  0.250000  1
  Si  Si29  1  0.750000  0.875000  0.125000  1
  Si  Si30  1  0.250000  0.625000  0.375000  1
  Si  Si31  1  0.625000  0.750000  0.375000  1
  O  O32  1  0.592712  0.890769  0.379009  1
  O  O33  1  0.379009  0.592712  0.890769  1
  O  O34  1  0.286296  0.298057  0.907288  1
  O  O35  1  0.488239  0.609231  0.201943  1
  O  O36  1  0.298057  0.890769  0.011761  1
  O  O37  1  0.120991  0.011761  0.213704  1
  O  O38  1  0.379009  0.286296  0.488239  1
  O  O39  1  0.890769  0.379009  0.592712  1
  O  O40  1  0.201943  0.213704  0.592712  1
  O  O41  1  0.488239  0.379009  0.286296  1
  O  O42  1  0.890769  0.011761  0.298057  1
  O  O43  1  0.609231  0.907288  0.120991  1
  O  O44  1  0.907288  0.120991  0.609231  1
  O  O45  1  0.286296  0.488239  0.379009  1
  O  O46  1  0.592712  0.201943  0.213704  1
  O  O47  1  0.213704  0.592712  0.201943  1
  O  O48  1  0.011761  0.298057  0.890769  1
  O  O49  1  0.907288  0.286296  0.298057  1
  O  O50  1  0.011761  0.213704  0.120991  1
  O  O51  1  0.798057  0.786296  0.407288  1
  O  O52  1  0.201943  0.488239  0.609231  1
  O  O53  1  0.609231  0.201943  0.488239  1
  O  O54  1  0.213704  0.120991  0.011761  1
  O  O55  1  0.120991  0.609231  0.907288  1
  O  O56  1  0.407288  0.109231  0.620991  1
  O  O57  1  0.620991  0.407288  0.109231  1
  O  O58  1  0.713704  0.701943  0.092712  1
  O  O59  1  0.511761  0.390769  0.798057  1
  O  O60  1  0.701943  0.109231  0.988239  1
  O  O61  1  0.879009  0.988239  0.786296  1
  O  O62  1  0.620991  0.713704  0.511761  1
  O  O63  1  0.109231  0.620991  0.407288  1
  O  O64  1  0.879009  0.390769  0.092712  1
  O  O65  1  0.786296  0.879009  0.988239  1
  O  O66  1  0.390769  0.798057  0.511761  1
  O  O67  1  0.701943  0.092712  0.713704  1
  O  O68  1  0.798057  0.511761  0.390769  1
  O  O69  1  0.988239  0.786296  0.879009  1
  O  O70  1  0.092712  0.713704  0.701943  1
  O  O71  1  0.988239  0.701943  0.109231  1
  O  O72  1  0.786296  0.407288  0.798057  1
  O  O73  1  0.407288  0.798057  0.786296  1
  O  O74  1  0.713704  0.511761  0.620991  1
  O  O75  1  0.092712  0.879009  0.390769  1
  O  O76  1  0.390769  0.092712  0.879009  1
  O  O77  1  0.109231  0.988239  0.701943  1
  O  O78  1  0.511761  0.620991  0.713704  1
  O  O79  1  0.298057  0.907288  0.286296  1
