# generated using pymatgen
data_Dy5Mn2P12Ir10Rh7
_symmetry_space_group_name_H-M   'P 1'
_cell_length_a   12.66410054
_cell_length_b   12.72058102
_cell_length_c   3.94297700
_cell_angle_alpha   90.00000000
_cell_angle_beta   90.00000000
_cell_angle_gamma   119.81962214
_symmetry_Int_Tables_number   1
_chemical_formula_structural   Dy5Mn2P12Ir10Rh7
_chemical_formula_sum   'Dy5 Mn2 P12 Ir10 Rh7'
_cell_volume   551.09019526
_cell_formula_units_Z   1
loop_
 _symmetry_equiv_pos_site_id
 _symmetry_equiv_pos_as_xyz
  1  'x, y, z'
loop_
 _atom_site_type_symbol
 _atom_site_label
 _atom_site_symmetry_multiplicity
 _atom_site_fract_x
 _atom_site_fract_y
 _atom_site_fract_z
 _atom_site_occupancy
  Dy  Dy0  1  0.332143  0.664038  0.500000  1
  Dy  Dy1  1  0.668029  0.336255  0.500000  1
  Dy  Dy2  1  0.999872  0.811551  0.000000  1
  Dy  Dy3  1  0.188448  0.188315  0.000000  1
  Dy  Dy4  1  0.812785  0.999986  0.000000  1
  Mn  Mn5  1  0.999987  0.455965  0.500000  1
  Mn  Mn6  1  0.543075  0.543867  0.500000  1
  P  P7  1  0.999913  0.634183  0.500000  1
  P  P8  1  0.365997  0.366163  0.500000  1
  P  P9  1  0.639822  0.999755  0.500000  1
  P  P10  1  0.516321  0.683871  0.000000  1
  P  P11  1  0.312022  0.827630  0.000000  1
  P  P12  1  0.166329  0.481435  0.000000  1
  P  P13  1  0.483901  0.172258  0.000000  1
  P  P14  1  0.684760  0.518870  0.000000  1
  P  P15  1  0.831849  0.316116  0.000000  1
  P  P16  1  0.999449  0.177890  0.500000  1
  P  P17  1  0.821368  0.821773  0.500000  1
  P  P18  1  0.180412  0.999413  0.500000  1
  Ir  Ir19  1  0.129347  0.640010  0.000000  1
  Ir  Ir20  1  0.357779  0.490592  0.000000  1
  Ir  Ir21  1  0.489453  0.360005  0.000000  1
  Ir  Ir22  1  0.866706  0.509115  0.000000  1
  Ir  Ir23  1  0.641832  0.134219  0.000000  1
  Ir  Ir24  1  0.998592  0.282331  0.000000  1
  Ir  Ir25  1  0.716223  0.717549  0.000000  1
  Ir  Ir26  1  0.285540  0.000068  0.000000  1
  Ir  Ir27  1  0.818442  0.195818  0.500000  1
  Ir  Ir28  1  0.001627  0.000153  0.500000  1
  Rh  Rh29  1  0.507659  0.865925  0.000000  1
  Rh  Rh30  1  0.459600  0.001374  0.500000  1
  Rh  Rh31  1  0.622954  0.803995  0.500000  1
  Rh  Rh32  1  0.197619  0.820417  0.500000  1
  Rh  Rh33  1  0.178202  0.373723  0.500000  1
  Rh  Rh34  1  0.377168  0.179014  0.500000  1
  Rh  Rh35  1  0.804773  0.626358  0.500000  1
