# generated using pymatgen
data_ErNb5(B2Ru5)2
_symmetry_space_group_name_H-M   'P 1'
_cell_length_a   9.51667576
_cell_length_b   9.51667576
_cell_length_c   3.05927000
_cell_angle_alpha   90.00000000
_cell_angle_beta   90.00000000
_cell_angle_gamma   90.30067948
_symmetry_Int_Tables_number   1
_chemical_formula_structural   ErNb5(B2Ru5)2
_chemical_formula_sum   'Er1 Nb5 B4 Ru10'
_cell_volume   277.06545046
_cell_formula_units_Z   1
loop_
 _symmetry_equiv_pos_site_id
 _symmetry_equiv_pos_as_xyz
  1  'x, y, z'
loop_
 _atom_site_type_symbol
 _atom_site_label
 _atom_site_symmetry_multiplicity
 _atom_site_fract_x
 _atom_site_fract_y
 _atom_site_fract_z
 _atom_site_occupancy
  Er  Er0  1  0.824538  0.675462  0.000000  1
  Nb  Nb1  1  0.178009  0.321991  0.000000  1
  Nb  Nb2  1  0.324571  0.823017  0.000000  1
  Nb  Nb3  1  0.676983  0.175429  0.000000  1
  Nb  Nb4  1  0.500551  0.500544  0.000000  1
  Nb  Nb5  1  0.999456  0.999449  0.000000  1
  B  B6  1  0.619690  0.880310  0.000000  1
  B  B7  1  0.377830  0.122170  0.000000  1
  B  B8  1  0.122208  0.620715  0.000000  1
  B  B9  1  0.879285  0.377792  0.000000  1
  Ru  Ru10  1  0.559828  0.723906  0.500000  1
  Ru  Ru11  1  0.427059  0.282539  0.500000  1
  Ru  Ru12  1  0.081071  0.782953  0.500000  1
  Ru  Ru13  1  0.930365  0.216891  0.500000  1
  Ru  Ru14  1  0.283109  0.569635  0.500000  1
  Ru  Ru15  1  0.717047  0.418929  0.500000  1
  Ru  Ru16  1  0.217461  0.072941  0.500000  1
  Ru  Ru17  1  0.776094  0.940172  0.500000  1
  Ru  Ru18  1  0.496803  0.003197  0.500000  1
  Ru  Ru19  1  0.008043  0.491957  0.500000  1
