# generated using pymatgen
data_La2Pr2In16Pt5Au3
_symmetry_space_group_name_H-M   'P 1'
_cell_length_a   4.67650500
_cell_length_b   7.34744333
_cell_length_c   18.85419401
_cell_angle_alpha   90.14265812
_cell_angle_beta   90.00000000
_cell_angle_gamma   90.00000000
_symmetry_Int_Tables_number   1
_chemical_formula_structural   La2Pr2In16Pt5Au3
_chemical_formula_sum   'La2 Pr2 In16 Pt5 Au3'
_cell_volume   647.83479999
_cell_formula_units_Z   1
loop_
 _symmetry_equiv_pos_site_id
 _symmetry_equiv_pos_as_xyz
  1  'x, y, z'
loop_
 _atom_site_type_symbol
 _atom_site_label
 _atom_site_symmetry_multiplicity
 _atom_site_fract_x
 _atom_site_fract_y
 _atom_site_fract_z
 _atom_site_occupancy
  La  La0  1  0.250000  0.476664  0.858802  1
  La  La1  1  0.250000  0.023949  0.358466  1
  Pr  Pr2  1  0.750000  0.972997  0.641016  1
  Pr  Pr3  1  0.750000  0.525243  0.142529  1
  In  In4  1  0.250000  0.235869  0.191191  1
  In  In5  1  0.250000  0.507112  0.426943  1
  In  In6  1  0.250000  0.992870  0.929974  1
  In  In7  1  0.250000  0.826373  0.185669  1
  In  In8  1  0.250000  0.678530  0.684174  1
  In  In9  1  0.250000  0.257596  0.690437  1
  In  In10  1  0.250000  0.144596  0.535432  1
  In  In11  1  0.750000  0.987244  0.073184  1
  In  In12  1  0.750000  0.167359  0.814839  1
  In  In13  1  0.250000  0.356579  0.036857  1
  In  In14  1  0.750000  0.845529  0.465022  1
  In  In15  1  0.750000  0.655890  0.967668  1
  In  In16  1  0.750000  0.766397  0.810524  1
  In  In17  1  0.750000  0.516075  0.568409  1
  In  In18  1  0.750000  0.329730  0.310960  1
  In  In19  1  0.750000  0.736107  0.307303  1
  Pt  Pt20  1  0.250000  0.963573  0.783259  1
  Pt  Pt21  1  0.750000  0.035274  0.217807  1
  Pt  Pt22  1  0.250000  0.536487  0.281344  1
  Pt  Pt23  1  0.250000  0.751755  0.539231  1
  Pt  Pt24  1  0.250000  0.747495  0.040938  1
  Au  Au25  1  0.750000  0.248810  0.458610  1
  Au  Au26  1  0.750000  0.250518  0.961555  1
  Au  Au27  1  0.750000  0.463377  0.717864  1
