# generated using pymatgen
data_Dy2Ta2Ni10P7
_symmetry_space_group_name_H-M   'P 1'
_cell_length_a   9.24230000
_cell_length_b   9.18956949
_cell_length_c   3.69086900
_cell_angle_alpha   90.00000000
_cell_angle_beta   90.00000000
_cell_angle_gamma   120.32128825
_symmetry_Int_Tables_number   1
_chemical_formula_structural   Dy2Ta2Ni10P7
_chemical_formula_sum   'Dy2 Ta2 Ni10 P7'
_cell_volume   270.59472888
_cell_formula_units_Z   1
loop_
 _symmetry_equiv_pos_site_id
 _symmetry_equiv_pos_as_xyz
  1  'x, y, z'
loop_
 _atom_site_type_symbol
 _atom_site_label
 _atom_site_symmetry_multiplicity
 _atom_site_fract_x
 _atom_site_fract_y
 _atom_site_fract_z
 _atom_site_occupancy
  Dy  Dy0  1  0.994120  0.001104  0.000000  1
  Dy  Dy1  1  0.336633  0.669157  0.500000  1
  Ta  Ta2  1  0.886461  0.451137  0.500000  1
  Ta  Ta3  1  0.547890  0.432825  0.500000  1
  Ni  Ni4  1  0.296149  0.393787  0.000000  1
  Ni  Ni5  1  0.102575  0.706847  0.000000  1
  Ni  Ni6  1  0.381984  0.170969  0.000000  1
  Ni  Ni7  1  0.797108  0.620993  0.000000  1
  Ni  Ni8  1  0.821192  0.206471  0.000000  1
  Ni  Ni9  1  0.233354  0.948593  0.500000  1
  Ni  Ni10  1  0.050362  0.276923  0.500000  1
  Ni  Ni11  1  0.720914  0.776062  0.500000  1
  Ni  Ni12  1  0.566677  0.108036  0.500000  1
  Ni  Ni13  1  0.600645  0.899726  0.000000  1
  P  P14  1  0.661756  0.324301  0.000000  1
  P  P15  1  0.083542  0.446675  0.000000  1
  P  P16  1  0.252593  0.212205  0.500000  1
  P  P17  1  0.777682  0.044979  0.500000  1
  P  P18  1  0.959798  0.748047  0.500000  1
  P  P19  1  0.556601  0.636515  0.000000  1
  P  P20  1  0.371963  0.924651  0.000000  1
