# generated using pymatgen
data_NaY6BeBr12
_symmetry_space_group_name_H-M   'P 1'
_cell_length_a   9.16059581
_cell_length_b   9.16127421
_cell_length_c   9.16060913
_cell_angle_alpha   106.63101703
_cell_angle_beta   106.62336076
_cell_angle_gamma   106.63793274
_symmetry_Int_Tables_number   1
_chemical_formula_structural   NaY6BeBr12
_chemical_formula_sum   'Na1 Y6 Be1 Br12'
_cell_volume   646.59044305
_cell_formula_units_Z   1
loop_
 _symmetry_equiv_pos_site_id
 _symmetry_equiv_pos_as_xyz
  1  'x, y, z'
loop_
 _atom_site_type_symbol
 _atom_site_label
 _atom_site_symmetry_multiplicity
 _atom_site_fract_x
 _atom_site_fract_y
 _atom_site_fract_z
 _atom_site_occupancy
  Na  Na0  1  0.500000  0.500000  0.500000  1
  Y  Y1  1  0.107198  0.316243  0.028201  1
  Y  Y2  1  0.316209  0.028170  0.107245  1
  Y  Y3  1  0.028222  0.107238  0.316233  1
  Y  Y4  1  0.971779  0.892762  0.683768  1
  Y  Y5  1  0.683791  0.971831  0.892755  1
  Y  Y6  1  0.892802  0.683757  0.971799  1
  Be  Be7  1  0.000000  0.000000  0.000000  1
  Br  Br8  1  0.221045  0.681151  0.074733  1
  Br  Br9  1  0.449047  0.367557  0.144770  1
  Br  Br10  1  0.681159  0.074728  0.221042  1
  Br  Br11  1  0.925269  0.778972  0.318847  1
  Br  Br12  1  0.144777  0.449052  0.367569  1
  Br  Br13  1  0.367562  0.144792  0.449058  1
  Br  Br14  1  0.632438  0.855208  0.550943  1
  Br  Br15  1  0.855224  0.550948  0.632431  1
  Br  Br16  1  0.074732  0.221028  0.681154  1
  Br  Br17  1  0.318842  0.925273  0.778958  1
  Br  Br18  1  0.550953  0.632443  0.855231  1
  Br  Br19  1  0.778955  0.318849  0.925267  1
