# generated using pymatgen
data_La9LuGa6
_symmetry_space_group_name_H-M   'P 1'
_cell_length_a   7.91815100
_cell_length_b   7.91815100
_cell_length_c   14.95508600
_cell_angle_alpha   90.00000000
_cell_angle_beta   90.00000000
_cell_angle_gamma   90.00000000
_symmetry_Int_Tables_number   1
_chemical_formula_structural   La9LuGa6
_chemical_formula_sum   'La18 Lu2 Ga12'
_cell_volume   937.64075065
_cell_formula_units_Z   2
loop_
 _symmetry_equiv_pos_site_id
 _symmetry_equiv_pos_as_xyz
  1  'x, y, z'
loop_
 _atom_site_type_symbol
 _atom_site_label
 _atom_site_symmetry_multiplicity
 _atom_site_fract_x
 _atom_site_fract_y
 _atom_site_fract_z
 _atom_site_occupancy
  La  La0  1  0.337298  0.311545  0.103723  1
  La  La1  1  0.837298  0.811545  0.896277  1
  La  La2  1  0.839963  0.182222  0.396062  1
  La  La3  1  0.162702  0.188455  0.896277  1
  La  La4  1  0.662702  0.688455  0.103723  1
  La  La5  1  0.000000  0.500000  0.707284  1
  La  La6  1  0.817778  0.839963  0.603938  1
  La  La7  1  0.317778  0.339963  0.396062  1
  La  La8  1  0.188455  0.837298  0.103723  1
  La  La9  1  0.182222  0.160037  0.603938  1
  La  La10  1  0.811545  0.162702  0.103723  1
  La  La11  1  0.339963  0.682222  0.603938  1
  La  La12  1  0.500000  0.000000  0.292716  1
  La  La13  1  0.688455  0.337298  0.896277  1
  La  La14  1  0.660037  0.317778  0.603938  1
  La  La15  1  0.311545  0.662702  0.896277  1
  La  La16  1  0.160037  0.817778  0.396062  1
  La  La17  1  0.682222  0.660037  0.396062  1
  Lu  Lu18  1  0.500000  0.000000  0.773307  1
  Lu  Lu19  1  0.000000  0.500000  0.226693  1
  Ga  Ga20  1  0.624885  0.384185  0.247818  1
  Ga  Ga21  1  0.875115  0.115815  0.752182  1
  Ga  Ga22  1  0.500000  0.000000  0.499706  1
  Ga  Ga23  1  0.884185  0.875115  0.247818  1
  Ga  Ga24  1  0.000000  0.500000  0.019924  1
  Ga  Ga25  1  0.124885  0.884185  0.752182  1
  Ga  Ga26  1  0.384185  0.375115  0.752182  1
  Ga  Ga27  1  0.115815  0.124885  0.247818  1
  Ga  Ga28  1  0.375115  0.615815  0.247818  1
  Ga  Ga29  1  0.615815  0.624885  0.752182  1
  Ga  Ga30  1  0.500000  0.000000  0.980076  1
  Ga  Ga31  1  0.000000  0.500000  0.500294  1
