# generated using pymatgen
data_Mn2PtCl12
_symmetry_space_group_name_H-M   'P 1'
_cell_length_a   8.68074533
_cell_length_b   8.68074497
_cell_length_c   6.50967113
_cell_angle_alpha   72.14481068
_cell_angle_beta   72.14481255
_cell_angle_gamma   80.52103669
_symmetry_Int_Tables_number   1
_chemical_formula_structural   Mn2PtCl12
_chemical_formula_sum   'Mn2 Pt1 Cl12'
_cell_volume   443.06813053
_cell_formula_units_Z   1
loop_
 _symmetry_equiv_pos_site_id
 _symmetry_equiv_pos_as_xyz
  1  'x, y, z'
loop_
 _atom_site_type_symbol
 _atom_site_label
 _atom_site_symmetry_multiplicity
 _atom_site_fract_x
 _atom_site_fract_y
 _atom_site_fract_z
 _atom_site_occupancy
  Mn  Mn0  1  0.264140  0.264140  0.741375  1
  Mn  Mn1  1  0.735860  0.735860  0.258625  1
  Pt  Pt2  1  0.000000  0.000000  0.000000  1
  Cl  Cl3  1  0.977180  0.256020  0.746674  1
  Cl  Cl4  1  0.256020  0.977180  0.746674  1
  Cl  Cl5  1  0.022820  0.743980  0.253326  1
  Cl  Cl6  1  0.743980  0.022820  0.253326  1
  Cl  Cl7  1  0.215976  0.502758  0.789706  1
  Cl  Cl8  1  0.502758  0.215976  0.789706  1
  Cl  Cl9  1  0.784024  0.497242  0.210294  1
  Cl  Cl10  1  0.497242  0.784024  0.210294  1
  Cl  Cl11  1  0.136498  0.136498  0.144323  1
  Cl  Cl12  1  0.863502  0.863502  0.855677  1
  Cl  Cl13  1  0.660896  0.660896  0.619512  1
  Cl  Cl14  1  0.339104  0.339104  0.380488  1
