# generated using pymatgen
data_Li4YbPr3(Si2Pb)2
_symmetry_space_group_name_H-M   'P 1'
_cell_length_a   9.90908333
_cell_length_b   9.90908486
_cell_length_c   6.98295300
_cell_angle_alpha   90.00000000
_cell_angle_beta   90.00000000
_cell_angle_gamma   153.54819547
_symmetry_Int_Tables_number   1
_chemical_formula_structural   Li4YbPr3(Si2Pb)2
_chemical_formula_sum   'Li4 Yb1 Pr3 Si4 Pb2'
_cell_volume   305.42184943
_cell_formula_units_Z   1
loop_
 _symmetry_equiv_pos_site_id
 _symmetry_equiv_pos_as_xyz
  1  'x, y, z'
loop_
 _atom_site_type_symbol
 _atom_site_label
 _atom_site_symmetry_multiplicity
 _atom_site_fract_x
 _atom_site_fract_y
 _atom_site_fract_z
 _atom_site_occupancy
  Li  Li0  1  0.818359  0.181641  0.556685  1
  Li  Li1  1  0.181495  0.818505  0.448122  1
  Li  Li2  1  0.181495  0.818505  0.051878  1
  Li  Li3  1  0.818359  0.181641  0.943315  1
  Yb  Yb4  1  0.650836  0.349164  0.750000  1
  Pr  Pr5  1  0.548336  0.451664  0.250000  1
  Pr  Pr6  1  0.453263  0.546737  0.750000  1
  Pr  Pr7  1  0.349720  0.650280  0.250000  1
  Si  Si8  1  0.943899  0.056101  0.076721  1
  Si  Si9  1  0.054951  0.945049  0.923102  1
  Si  Si10  1  0.054951  0.945049  0.576898  1
  Si  Si11  1  0.943899  0.056101  0.423279  1
  Pb  Pb12  1  0.720475  0.279525  0.250000  1
  Pb  Pb13  1  0.279961  0.720039  0.750000  1
