# generated using pymatgen
data_DyTm3(Pa2Ga5)4
_symmetry_space_group_name_H-M   'P 1'
_cell_length_a   6.06027532
_cell_length_b   9.49103800
_cell_length_c   11.64325062
_cell_angle_alpha   90.00000000
_cell_angle_beta   89.96261414
_cell_angle_gamma   90.00000000
_symmetry_Int_Tables_number   1
_chemical_formula_structural   DyTm3(Pa2Ga5)4
_chemical_formula_sum   'Dy1 Tm3 Pa8 Ga20'
_cell_volume   669.69987886
_cell_formula_units_Z   1
loop_
 _symmetry_equiv_pos_site_id
 _symmetry_equiv_pos_as_xyz
  1  'x, y, z'
loop_
 _atom_site_type_symbol
 _atom_site_label
 _atom_site_symmetry_multiplicity
 _atom_site_fract_x
 _atom_site_fract_y
 _atom_site_fract_z
 _atom_site_occupancy
  Dy  Dy0  1  0.857983  0.750000  0.071865  1
  Tm  Tm1  1  0.642627  0.750000  0.571999  1
  Tm  Tm2  1  0.142595  0.250000  0.927847  1
  Tm  Tm3  1  0.357449  0.250000  0.427946  1
  Pa  Pa4  1  0.880716  0.502576  0.352487  1
  Pa  Pa5  1  0.619200  0.997543  0.852108  1
  Pa  Pa6  1  0.119272  0.002686  0.647596  1
  Pa  Pa7  1  0.380592  0.497208  0.147701  1
  Pa  Pa8  1  0.119272  0.497314  0.647596  1
  Pa  Pa9  1  0.380592  0.002792  0.147701  1
  Pa  Pa10  1  0.880716  0.997424  0.352487  1
  Pa  Pa11  1  0.619200  0.502457  0.852108  1
  Ga  Ga12  1  0.872176  0.052704  0.090754  1
  Ga  Ga13  1  0.627782  0.448490  0.590495  1
  Ga  Ga14  1  0.128103  0.551293  0.909111  1
  Ga  Ga15  1  0.372227  0.948510  0.409512  1
  Ga  Ga16  1  0.128103  0.948707  0.909111  1
  Ga  Ga17  1  0.372227  0.551490  0.409512  1
  Ga  Ga18  1  0.872176  0.447296  0.090754  1
  Ga  Ga19  1  0.627782  0.051510  0.590495  1
  Ga  Ga20  1  0.155106  0.750000  0.264194  1
  Ga  Ga21  1  0.345746  0.750000  0.763298  1
  Ga  Ga22  1  0.845675  0.250000  0.736542  1
  Ga  Ga23  1  0.654408  0.250000  0.236648  1
  Ga  Ga24  1  0.390396  0.750000  0.993610  1
  Ga  Ga25  1  0.108222  0.750000  0.493899  1
  Ga  Ga26  1  0.607991  0.250000  0.006057  1
  Ga  Ga27  1  0.891707  0.250000  0.506129  1
  Ga  Ga28  1  0.596029  0.750000  0.292223  1
  Ga  Ga29  1  0.903836  0.750000  0.791214  1
  Ga  Ga30  1  0.403878  0.250000  0.708407  1
  Ga  Ga31  1  0.096216  0.250000  0.208596  1
