# generated using pymatgen
data_CeNdCo2(P2Rh)2
_symmetry_space_group_name_H-M   'P 1'
_cell_length_a   4.05027500
_cell_length_b   4.05027500
_cell_length_c   9.37344400
_cell_angle_alpha   90.00000000
_cell_angle_beta   90.00000000
_cell_angle_gamma   90.00000000
_symmetry_Int_Tables_number   1
_chemical_formula_structural   CeNdCo2(P2Rh)2
_chemical_formula_sum   'Ce1 Nd1 Co2 P4 Rh2'
_cell_volume   153.76879527
_cell_formula_units_Z   1
loop_
 _symmetry_equiv_pos_site_id
 _symmetry_equiv_pos_as_xyz
  1  'x, y, z'
loop_
 _atom_site_type_symbol
 _atom_site_label
 _atom_site_symmetry_multiplicity
 _atom_site_fract_x
 _atom_site_fract_y
 _atom_site_fract_z
 _atom_site_occupancy
  Ce  Ce0  1  0.000000  0.500000  0.264239  1
  Nd  Nd1  1  0.500000  0.000000  0.737717  1
  Co  Co2  1  0.000000  0.500000  0.604212  1
  Co  Co3  1  0.500000  0.000000  0.390326  1
  P  P4  1  0.000000  0.000000  0.498808  1
  P  P5  1  0.500000  0.500000  0.498808  1
  P  P6  1  0.000000  0.500000  0.848685  1
  P  P7  1  0.500000  0.000000  0.149457  1
  Rh  Rh8  1  0.000000  0.000000  0.003874  1
  Rh  Rh9  1  0.500000  0.500000  0.003874  1
