# generated using pymatgen
data_Ho4InPd5Pt6
_symmetry_space_group_name_H-M   'P 1'
_cell_length_a   4.20153100
_cell_length_b   5.83231949
_cell_length_c   11.65224665
_cell_angle_alpha   87.22551267
_cell_angle_beta   90.00000000
_cell_angle_gamma   90.00000000
_symmetry_Int_Tables_number   1
_chemical_formula_structural   Ho4InPd5Pt6
_chemical_formula_sum   'Ho4 In1 Pd5 Pt6'
_cell_volume   285.19976586
_cell_formula_units_Z   1
loop_
 _symmetry_equiv_pos_site_id
 _symmetry_equiv_pos_as_xyz
  1  'x, y, z'
loop_
 _atom_site_type_symbol
 _atom_site_label
 _atom_site_symmetry_multiplicity
 _atom_site_fract_x
 _atom_site_fract_y
 _atom_site_fract_z
 _atom_site_occupancy
  Ho  Ho0  1  0.500000  0.753259  0.375885  1
  Ho  Ho1  1  0.500000  0.717702  0.860619  1
  Ho  Ho2  1  0.500000  0.282029  0.139934  1
  Ho  Ho3  1  0.500000  0.246962  0.624300  1
  In  In4  1  0.000000  0.000303  0.999789  1
  Pd  Pd5  1  0.000000  0.500739  0.499928  1
  Pd  Pd6  1  0.500000  0.251521  0.377791  1
  Pd  Pd7  1  0.500000  0.228108  0.881922  1
  Pd  Pd8  1  0.500000  0.771718  0.117927  1
  Pd  Pd9  1  0.000000  0.999489  0.499933  1
  Pt  Pt10  1  0.000000  0.010595  0.250298  1
  Pt  Pt11  1  0.000000  0.988997  0.749616  1
  Pt  Pt12  1  0.000000  0.499808  0.000124  1
  Pt  Pt13  1  0.000000  0.515047  0.250655  1
  Pt  Pt14  1  0.000000  0.485228  0.749435  1
  Pt  Pt15  1  0.500000  0.748494  0.621843  1
