# generated using pymatgen
data_Ti2Fe3ReB3
_symmetry_space_group_name_H-M   'P 1'
_cell_length_a   5.86012277
_cell_length_b   6.01681081
_cell_length_c   3.03351800
_cell_angle_alpha   90.00000000
_cell_angle_beta   90.00000000
_cell_angle_gamma   120.88851568
_symmetry_Int_Tables_number   1
_chemical_formula_structural   Ti2Fe3ReB3
_chemical_formula_sum   'Ti2 Fe3 Re1 B3'
_cell_volume   91.78926103
_cell_formula_units_Z   1
loop_
 _symmetry_equiv_pos_site_id
 _symmetry_equiv_pos_as_xyz
  1  'x, y, z'
loop_
 _atom_site_type_symbol
 _atom_site_label
 _atom_site_symmetry_multiplicity
 _atom_site_fract_x
 _atom_site_fract_y
 _atom_site_fract_z
 _atom_site_occupancy
  Ti  Ti0  1  0.405644  0.412544  0.500000  1
  Ti  Ti1  1  0.594356  0.006900  0.500000  1
  Fe  Fe2  1  0.749579  0.754131  0.000000  1
  Fe  Fe3  1  0.250421  0.004551  0.000000  1
  Fe  Fe4  1  0.000000  0.239631  0.000000  1
  Re  Re5  1  0.000000  0.585336  0.500000  1
  B  B6  1  0.674473  0.342649  0.000000  1
  B  B7  1  0.325527  0.668177  0.000000  1
  B  B8  1  0.000000  0.986079  0.500000  1
