# generated using pymatgen
data_Lu4TlCo
_symmetry_space_group_name_H-M   'P 1'
_cell_length_a   9.36927816
_cell_length_b   9.36446448
_cell_length_c   9.36446300
_cell_angle_alpha   60.00000168
_cell_angle_beta   60.01699569
_cell_angle_gamma   60.01699623
_symmetry_Int_Tables_number   1
_chemical_formula_structural   Lu4TlCo
_chemical_formula_sum   'Lu16 Tl4 Co4'
_cell_volume   581.12356210
_cell_formula_units_Z   4
loop_
 _symmetry_equiv_pos_site_id
 _symmetry_equiv_pos_as_xyz
  1  'x, y, z'
loop_
 _atom_site_type_symbol
 _atom_site_label
 _atom_site_symmetry_multiplicity
 _atom_site_fract_x
 _atom_site_fract_y
 _atom_site_fract_z
 _atom_site_occupancy
  Lu  Lu0  1  0.596200  0.596129  0.596129  1
  Lu  Lu1  1  0.596200  0.596129  0.211542  1
  Lu  Lu2  1  0.596200  0.211542  0.596129  1
  Lu  Lu3  1  0.209742  0.596753  0.596753  1
  Lu  Lu4  1  0.062724  0.436976  0.436976  1
  Lu  Lu5  1  0.436522  0.063321  0.063321  1
  Lu  Lu6  1  0.436522  0.063321  0.436834  1
  Lu  Lu7  1  0.062724  0.436976  0.063324  1
  Lu  Lu8  1  0.436522  0.436834  0.063321  1
  Lu  Lu9  1  0.062724  0.063324  0.436976  1
  Lu  Lu10  1  0.191720  0.809098  0.809098  1
  Lu  Lu11  1  0.809145  0.190697  0.190697  1
  Lu  Lu12  1  0.809145  0.190697  0.809461  1
  Lu  Lu13  1  0.191720  0.809098  0.190086  1
  Lu  Lu14  1  0.809145  0.809461  0.190697  1
  Lu  Lu15  1  0.191720  0.190086  0.809098  1
  Tl  Tl16  1  0.495110  0.834963  0.834963  1
  Tl  Tl17  1  0.836722  0.835698  0.835698  1
  Tl  Tl18  1  0.836722  0.835698  0.491881  1
  Tl  Tl19  1  0.836722  0.491881  0.835698  1
  Co  Co20  1  0.390031  0.391825  0.391825  1
  Co  Co21  1  0.390031  0.391825  0.826319  1
  Co  Co22  1  0.390031  0.826319  0.391825  1
  Co  Co23  1  0.825954  0.391349  0.391349  1
