# generated using pymatgen
data_Ti6Si6Os5Ru7
_symmetry_space_group_name_H-M   'P 1'
_cell_length_a   4.26610900
_cell_length_b   6.02676715
_cell_length_c   12.75079932
_cell_angle_alpha   89.97442576
_cell_angle_beta   90.00013907
_cell_angle_gamma   90.00018910
_symmetry_Int_Tables_number   1
_chemical_formula_structural   Ti6Si6Os5Ru7
_chemical_formula_sum   'Ti6 Si6 Os5 Ru7'
_cell_volume   327.83379961
_cell_formula_units_Z   1
loop_
 _symmetry_equiv_pos_site_id
 _symmetry_equiv_pos_as_xyz
  1  'x, y, z'
loop_
 _atom_site_type_symbol
 _atom_site_label
 _atom_site_symmetry_multiplicity
 _atom_site_fract_x
 _atom_site_fract_y
 _atom_site_fract_z
 _atom_site_occupancy
  Ti  Ti0  1  0.000003  0.499952  0.998093  1
  Ti  Ti1  1  0.499796  0.998897  0.167561  1
  Ti  Ti2  1  0.999796  0.502004  0.335235  1
  Ti  Ti3  1  0.500002  0.999016  0.501094  1
  Ti  Ti4  1  0.000207  0.500010  0.666533  1
  Ti  Ti5  1  0.500212  0.999995  0.831487  1
  Si  Si6  1  0.000001  0.000098  0.000033  1
  Si  Si7  1  0.499763  0.499979  0.166646  1
  Si  Si8  1  0.999767  0.000205  0.333254  1
  Si  Si9  1  0.499999  0.499665  0.499952  1
  Si  Si10  1  0.000234  0.000019  0.666605  1
  Si  Si11  1  0.500234  0.500087  0.833505  1
  Os  Os12  1  0.499997  0.249656  0.999653  1
  Os  Os13  1  0.500002  0.750346  0.999317  1
  Os  Os14  1  0.999802  0.250615  0.166816  1
  Os  Os15  1  0.999798  0.749401  0.166787  1
  Os  Os16  1  0.499802  0.250746  0.334070  1
  Ru  Ru17  1  0.499804  0.749719  0.334087  1
  Ru  Ru18  1  0.999999  0.248989  0.500697  1
  Ru  Ru19  1  0.999998  0.751010  0.500498  1
  Ru  Ru20  1  0.500197  0.251193  0.666251  1
  Ru  Ru21  1  0.500200  0.748625  0.666692  1
  Ru  Ru22  1  0.000195  0.248838  0.832610  1
  Ru  Ru23  1  0.000191  0.750937  0.832526  1
