# generated using pymatgen
data_Rb3PrSi2O7
_symmetry_space_group_name_H-M   'P 1'
_cell_length_a   10.16324200
_cell_length_b   10.16324221
_cell_length_c   14.73957700
_cell_angle_alpha   90.00000000
_cell_angle_beta   90.00000000
_cell_angle_gamma   119.99999931
_symmetry_Int_Tables_number   1
_chemical_formula_structural   Rb3PrSi2O7
_chemical_formula_sum   'Rb18 Pr6 Si12 O42'
_cell_volume   1318.50019252
_cell_formula_units_Z   6
loop_
 _symmetry_equiv_pos_site_id
 _symmetry_equiv_pos_as_xyz
  1  'x, y, z'
loop_
 _atom_site_type_symbol
 _atom_site_label
 _atom_site_symmetry_multiplicity
 _atom_site_fract_x
 _atom_site_fract_y
 _atom_site_fract_z
 _atom_site_occupancy
  Rb  Rb0  1  0.330576  0.000000  0.406030  1
  Rb  Rb1  1  0.000000  0.330576  0.406030  1
  Rb  Rb2  1  0.669424  0.669424  0.406030  1
  Rb  Rb3  1  0.330576  0.330576  0.906030  1
  Rb  Rb4  1  0.669424  0.669424  0.093970  1
  Rb  Rb5  1  0.669424  0.000000  0.906030  1
  Rb  Rb6  1  0.000000  0.669424  0.906030  1
  Rb  Rb7  1  0.000000  0.669424  0.593970  1
  Rb  Rb8  1  0.669424  0.000000  0.593970  1
  Rb  Rb9  1  0.330576  0.000000  0.093970  1
  Rb  Rb10  1  0.000000  0.330576  0.093970  1
  Rb  Rb11  1  0.330576  0.330576  0.593970  1
  Rb  Rb12  1  0.000000  0.000000  0.500000  1
  Rb  Rb13  1  0.000000  0.000000  0.000000  1
  Rb  Rb14  1  0.666667  0.333333  0.750000  1
  Rb  Rb15  1  0.333333  0.666667  0.250000  1
  Rb  Rb16  1  0.333333  0.666667  0.750000  1
  Rb  Rb17  1  0.666667  0.333333  0.250000  1
  Pr  Pr18  1  0.666667  0.333333  0.500000  1
  Pr  Pr19  1  0.333333  0.666667  0.000000  1
  Pr  Pr20  1  0.333333  0.666667  0.500000  1
  Pr  Pr21  1  0.666667  0.333333  0.000000  1
  Pr  Pr22  1  0.000000  0.000000  0.750000  1
  Pr  Pr23  1  0.000000  0.000000  0.250000  1
  Si  Si24  1  0.657546  0.000000  0.355660  1
  Si  Si25  1  0.000000  0.657546  0.355660  1
  Si  Si26  1  0.342454  0.342454  0.355660  1
  Si  Si27  1  0.657546  0.657546  0.855660  1
  Si  Si28  1  0.342454  0.342454  0.144340  1
  Si  Si29  1  0.342454  0.000000  0.855660  1
  Si  Si30  1  0.000000  0.342454  0.855660  1
  Si  Si31  1  0.000000  0.342454  0.644340  1
  Si  Si32  1  0.342454  0.000000  0.644340  1
  Si  Si33  1  0.657546  0.000000  0.144340  1
  Si  Si34  1  0.000000  0.657546  0.144340  1
  Si  Si35  1  0.657546  0.657546  0.644340  1
  O  O36  1  0.323780  0.475466  0.094488  1
  O  O37  1  0.524534  0.848315  0.094488  1
  O  O38  1  0.151685  0.676220  0.094488  1
  O  O39  1  0.848315  0.323780  0.594488  1
  O  O40  1  0.676220  0.151685  0.405512  1
  O  O41  1  0.676220  0.524534  0.594488  1
  O  O42  1  0.475466  0.151685  0.594488  1
  O  O43  1  0.524534  0.676220  0.905512  1
  O  O44  1  0.151685  0.475466  0.905512  1
  O  O45  1  0.848315  0.524534  0.405512  1
  O  O46  1  0.475466  0.323780  0.405512  1
  O  O47  1  0.323780  0.848315  0.905512  1
  O  O48  1  0.676220  0.524534  0.905512  1
  O  O49  1  0.475466  0.151685  0.905512  1
  O  O50  1  0.848315  0.323780  0.905512  1
  O  O51  1  0.151685  0.676220  0.405512  1
  O  O52  1  0.323780  0.848315  0.594488  1
  O  O53  1  0.323780  0.475466  0.405512  1
  O  O54  1  0.524534  0.848315  0.405512  1
  O  O55  1  0.475466  0.323780  0.094488  1
  O  O56  1  0.848315  0.524534  0.094488  1
  O  O57  1  0.151685  0.475466  0.594488  1
  O  O58  1  0.524534  0.676220  0.594488  1
  O  O59  1  0.676220  0.151685  0.094488  1
  O  O60  1  0.405480  0.405480  0.250000  1
  O  O61  1  0.000000  0.405480  0.750000  1
  O  O62  1  0.405480  0.000000  0.750000  1
  O  O63  1  0.594520  0.000000  0.250000  1
  O  O64  1  0.000000  0.594520  0.250000  1
  O  O65  1  0.594520  0.594520  0.750000  1
  O  O66  1  0.181751  0.000000  0.852960  1
  O  O67  1  0.000000  0.181751  0.852960  1
  O  O68  1  0.818249  0.818249  0.852960  1
  O  O69  1  0.181751  0.181751  0.352960  1
  O  O70  1  0.818249  0.818249  0.647040  1
  O  O71  1  0.818249  0.000000  0.352960  1
  O  O72  1  0.181751  0.181751  0.147040  1
  O  O73  1  0.000000  0.181751  0.647040  1
  O  O74  1  0.181751  0.000000  0.647040  1
  O  O75  1  0.818249  0.000000  0.147040  1
  O  O76  1  0.000000  0.818249  0.147040  1
  O  O77  1  0.000000  0.818249  0.352960  1
