# generated using pymatgen
data_La2Pr2Tc3PtF28
_symmetry_space_group_name_H-M   'P 1'
_cell_length_a   5.76864470
_cell_length_b   9.28432801
_cell_length_c   12.45965012
_cell_angle_alpha   62.04391446
_cell_angle_beta   89.97459767
_cell_angle_gamma   89.95556881
_symmetry_Int_Tables_number   1
_chemical_formula_structural   La2Pr2Tc3PtF28
_chemical_formula_sum   'La2 Pr2 Tc3 Pt1 F28'
_cell_volume   589.44288849
_cell_formula_units_Z   1
loop_
 _symmetry_equiv_pos_site_id
 _symmetry_equiv_pos_as_xyz
  1  'x, y, z'
loop_
 _atom_site_type_symbol
 _atom_site_label
 _atom_site_symmetry_multiplicity
 _atom_site_fract_x
 _atom_site_fract_y
 _atom_site_fract_z
 _atom_site_occupancy
  La  La0  1  0.759187  0.810658  0.764420  1
  La  La1  1  0.258723  0.189640  0.734486  1
  Pr  Pr2  1  0.239832  0.188293  0.237195  1
  Pr  Pr3  1  0.740826  0.810848  0.264970  1
  Tc  Tc4  1  0.755577  0.272505  0.959581  1
  Tc  Tc5  1  0.255876  0.726859  0.541140  1
  Tc  Tc6  1  0.243948  0.724831  0.044462  1
  Pt  Pt7  1  0.742671  0.274691  0.455458  1
  F  F8  1  0.439478  0.708477  0.921832  1
  F  F9  1  0.927867  0.293891  0.580943  1
  F  F10  1  0.555846  0.289327  0.080870  1
  F  F11  1  0.059073  0.710626  0.418911  1
  F  F12  1  0.453855  0.283150  0.537135  1
  F  F13  1  0.961379  0.716282  0.958682  1
  F  F14  1  0.539982  0.717904  0.456279  1
  F  F15  1  0.038065  0.281380  0.045658  1
  F  F16  1  0.766043  0.511525  0.863525  1
  F  F17  1  0.265714  0.488002  0.636465  1
  F  F18  1  0.234407  0.485560  0.139510  1
  F  F19  1  0.734713  0.514409  0.360548  1
  F  F20  1  0.758958  0.033465  0.052804  1
  F  F21  1  0.259356  0.965541  0.448474  1
  F  F22  1  0.241177  0.963127  0.949962  1
  F  F23  1  0.741809  0.035055  0.546759  1
  F  F24  1  0.979498  0.729828  0.632095  1
  F  F25  1  0.481096  0.269203  0.867625  1
  F  F26  1  0.027971  0.271778  0.369318  1
  F  F27  1  0.520349  0.730785  0.134669  1
  F  F28  1  0.050474  0.742969  0.168130  1
  F  F29  1  0.559585  0.258942  0.327485  1
  F  F30  1  0.949895  0.256990  0.835025  1
  F  F31  1  0.447461  0.741821  0.666478  1
  F  F32  1  0.410159  0.968799  0.231062  1
  F  F33  1  0.910009  0.031574  0.269896  1
  F  F34  1  0.594297  0.034522  0.768689  1
  F  F35  1  0.094842  0.966742  0.729457  1
