# generated using pymatgen
data_Na6GeSb3Pt4
_symmetry_space_group_name_H-M   'P 1'
_cell_length_a   6.12486500
_cell_length_b   7.98190858
_cell_length_c   13.62739435
_cell_angle_alpha   89.67229388
_cell_angle_beta   90.00000000
_cell_angle_gamma   90.00000000
_symmetry_Int_Tables_number   1
_chemical_formula_structural   Na6GeSb3Pt4
_chemical_formula_sum   'Na12 Ge2 Sb6 Pt8'
_cell_volume   666.20669118
_cell_formula_units_Z   2
loop_
 _symmetry_equiv_pos_site_id
 _symmetry_equiv_pos_as_xyz
  1  'x, y, z'
loop_
 _atom_site_type_symbol
 _atom_site_label
 _atom_site_symmetry_multiplicity
 _atom_site_fract_x
 _atom_site_fract_y
 _atom_site_fract_z
 _atom_site_occupancy
  Na  Na0  1  0.633193  0.222956  0.256337  1
  Na  Na1  1  0.366807  0.777044  0.743663  1
  Na  Na2  1  0.366807  0.722956  0.256337  1
  Na  Na3  1  0.633193  0.277044  0.743663  1
  Na  Na4  1  0.140520  0.384361  0.097209  1
  Na  Na5  1  0.859480  0.615639  0.902791  1
  Na  Na6  1  0.871253  0.614652  0.594847  1
  Na  Na7  1  0.871253  0.885348  0.405153  1
  Na  Na8  1  0.128747  0.385348  0.405153  1
  Na  Na9  1  0.128747  0.114652  0.594847  1
  Na  Na10  1  0.140520  0.115639  0.902791  1
  Na  Na11  1  0.859480  0.884361  0.097209  1
  Ge  Ge12  1  0.424939  0.750000  0.500000  1
  Ge  Ge13  1  0.575061  0.250000  0.500000  1
  Sb  Sb14  1  0.146470  0.075284  0.252160  1
  Sb  Sb15  1  0.853530  0.924716  0.747840  1
  Sb  Sb16  1  0.853530  0.575284  0.252160  1
  Sb  Sb17  1  0.146470  0.424716  0.747840  1
  Sb  Sb18  1  0.640952  0.250000  0.000000  1
  Sb  Sb19  1  0.359048  0.750000  0.000000  1
  Pt  Pt20  1  0.382950  0.038975  0.094437  1
  Pt  Pt21  1  0.617050  0.961025  0.905563  1
  Pt  Pt22  1  0.627318  0.978009  0.587800  1
  Pt  Pt23  1  0.627318  0.521991  0.412200  1
  Pt  Pt24  1  0.372682  0.021991  0.412200  1
  Pt  Pt25  1  0.372682  0.478009  0.587800  1
  Pt  Pt26  1  0.382950  0.461025  0.905563  1
  Pt  Pt27  1  0.617050  0.538975  0.094437  1
