# generated using pymatgen
data_Li4Ho3ZrPt4
_symmetry_space_group_name_H-M   'P 1'
_cell_length_a   3.90026300
_cell_length_b   6.97367038
_cell_length_c   8.45552799
_cell_angle_alpha   90.62033798
_cell_angle_beta   90.00000000
_cell_angle_gamma   90.00000000
_symmetry_Int_Tables_number   1
_chemical_formula_structural   Li4Ho3ZrPt4
_chemical_formula_sum   'Li4 Ho3 Zr1 Pt4'
_cell_volume   229.96968249
_cell_formula_units_Z   1
loop_
 _symmetry_equiv_pos_site_id
 _symmetry_equiv_pos_as_xyz
  1  'x, y, z'
loop_
 _atom_site_type_symbol
 _atom_site_label
 _atom_site_symmetry_multiplicity
 _atom_site_fract_x
 _atom_site_fract_y
 _atom_site_fract_z
 _atom_site_occupancy
  Li  Li0  1  0.250000  0.883225  0.946303  1
  Li  Li1  1  0.250000  0.372743  0.554717  1
  Li  Li2  1  0.750000  0.124357  0.057904  1
  Li  Li3  1  0.750000  0.623172  0.441072  1
  Ho  Ho4  1  0.250000  0.452164  0.184829  1
  Ho  Ho5  1  0.750000  0.050464  0.676284  1
  Ho  Ho6  1  0.750000  0.555858  0.821997  1
  Zr  Zr7  1  0.250000  0.940437  0.321548  1
  Pt  Pt8  1  0.250000  0.263275  0.874654  1
  Pt  Pt9  1  0.250000  0.760259  0.616352  1
  Pt  Pt10  1  0.750000  0.754466  0.135180  1
  Pt  Pt11  1  0.750000  0.219581  0.369158  1
