# generated using pymatgen
data_TiMn(NbSe2)8
_symmetry_space_group_name_H-M   'P 1'
_cell_length_a   6.98774200
_cell_length_b   6.98774329
_cell_length_c   12.92298700
_cell_angle_alpha   90.00000000
_cell_angle_beta   90.00000000
_cell_angle_gamma   120.00000336
_symmetry_Int_Tables_number   1
_chemical_formula_structural   TiMn(NbSe2)8
_chemical_formula_sum   'Ti1 Mn1 Nb8 Se16'
_cell_volume   546.47126191
_cell_formula_units_Z   1
loop_
 _symmetry_equiv_pos_site_id
 _symmetry_equiv_pos_as_xyz
  1  'x, y, z'
loop_
 _atom_site_type_symbol
 _atom_site_label
 _atom_site_symmetry_multiplicity
 _atom_site_fract_x
 _atom_site_fract_y
 _atom_site_fract_z
 _atom_site_occupancy
  Ti  Ti0  1  0.000000  0.000000  0.000000  1
  Mn  Mn1  1  0.000000  0.000000  0.500000  1
  Nb  Nb2  1  0.000000  0.000000  0.249964  1
  Nb  Nb3  1  0.000000  0.000000  0.750036  1
  Nb  Nb4  1  0.507573  0.015145  0.249862  1
  Nb  Nb5  1  0.492427  0.984855  0.750138  1
  Nb  Nb6  1  0.984855  0.492427  0.249862  1
  Nb  Nb7  1  0.015145  0.507573  0.750138  1
  Nb  Nb8  1  0.507573  0.492427  0.249862  1
  Nb  Nb9  1  0.492427  0.507573  0.750138  1
  Se  Se10  1  0.333333  0.666667  0.616499  1
  Se  Se11  1  0.666667  0.333333  0.383501  1
  Se  Se12  1  0.666667  0.333333  0.115873  1
  Se  Se13  1  0.333333  0.666667  0.884127  1
  Se  Se14  1  0.168108  0.336215  0.120517  1
  Se  Se15  1  0.831892  0.663785  0.879483  1
  Se  Se16  1  0.663785  0.831892  0.120517  1
  Se  Se17  1  0.830260  0.660520  0.621629  1
  Se  Se18  1  0.336215  0.168108  0.879483  1
  Se  Se19  1  0.169740  0.339480  0.378371  1
  Se  Se20  1  0.168108  0.831892  0.120517  1
  Se  Se21  1  0.339480  0.169740  0.621629  1
  Se  Se22  1  0.831892  0.168108  0.879483  1
  Se  Se23  1  0.660520  0.830260  0.378371  1
  Se  Se24  1  0.830260  0.169740  0.621629  1
  Se  Se25  1  0.169740  0.830260  0.378371  1
