# generated using pymatgen
data_La3TiFeC6
_symmetry_space_group_name_H-M   'P 1'
_cell_length_a   8.45052500
_cell_length_b   8.45052483
_cell_length_c   5.31709100
_cell_angle_alpha   90.00000000
_cell_angle_beta   90.00000000
_cell_angle_gamma   119.99998891
_symmetry_Int_Tables_number   1
_chemical_formula_structural   La3TiFeC6
_chemical_formula_sum   'La6 Ti2 Fe2 C12'
_cell_volume   328.83054079
_cell_formula_units_Z   2
loop_
 _symmetry_equiv_pos_site_id
 _symmetry_equiv_pos_as_xyz
  1  'x, y, z'
loop_
 _atom_site_type_symbol
 _atom_site_label
 _atom_site_symmetry_multiplicity
 _atom_site_fract_x
 _atom_site_fract_y
 _atom_site_fract_z
 _atom_site_occupancy
  La  La0  1  0.612110  0.679922  0.750000  1
  La  La1  1  0.932189  0.612110  0.250000  1
  La  La2  1  0.679922  0.067811  0.250000  1
  La  La3  1  0.320078  0.932189  0.750000  1
  La  La4  1  0.067811  0.387890  0.750000  1
  La  La5  1  0.387890  0.320078  0.250000  1
  Ti  Ti6  1  0.000000  0.000000  0.500000  1
  Ti  Ti7  1  0.000000  0.000000  0.000000  1
  Fe  Fe8  1  0.666667  0.333333  0.750000  1
  Fe  Fe9  1  0.333333  0.666667  0.250000  1
  C  C10  1  0.949567  0.757039  0.750000  1
  C  C11  1  0.192528  0.949567  0.250000  1
  C  C12  1  0.757039  0.807472  0.250000  1
  C  C13  1  0.242961  0.192528  0.750000  1
  C  C14  1  0.807472  0.050433  0.750000  1
  C  C15  1  0.050433  0.242961  0.250000  1
  C  C16  1  0.854111  0.570025  0.750000  1
  C  C17  1  0.284086  0.854111  0.250000  1
  C  C18  1  0.570025  0.715914  0.250000  1
  C  C19  1  0.429975  0.284086  0.750000  1
  C  C20  1  0.145889  0.429975  0.250000  1
  C  C21  1  0.715914  0.145889  0.750000  1
