# generated using pymatgen
data_Ho4Er3Tm3Ru4
_symmetry_space_group_name_H-M   'P 1'
_cell_length_a   6.27360402
_cell_length_b   7.24896229
_cell_length_c   8.39024003
_cell_angle_alpha   96.83259743
_cell_angle_beta   111.99871336
_cell_angle_gamma   89.95056340
_symmetry_Int_Tables_number   1
_chemical_formula_structural   Ho4Er3Tm3Ru4
_chemical_formula_sum   'Ho4 Er3 Tm3 Ru4'
_cell_volume   350.87456451
_cell_formula_units_Z   1
loop_
 _symmetry_equiv_pos_site_id
 _symmetry_equiv_pos_as_xyz
  1  'x, y, z'
loop_
 _atom_site_type_symbol
 _atom_site_label
 _atom_site_symmetry_multiplicity
 _atom_site_fract_x
 _atom_site_fract_y
 _atom_site_fract_z
 _atom_site_occupancy
  Ho  Ho0  1  0.790436  0.083866  0.813010  1
  Ho  Ho1  1  0.977563  0.416085  0.186832  1
  Ho  Ho2  1  0.209410  0.916006  0.187040  1
  Ho  Ho3  1  0.022707  0.584063  0.813182  1
  Er  Er4  1  0.205844  0.184524  0.565655  1
  Er  Er5  1  0.640092  0.315456  0.434569  1
  Er  Er6  1  0.794272  0.815439  0.434411  1
  Tm  Tm7  1  0.360007  0.684412  0.565602  1
  Tm  Tm8  1  0.419578  0.249735  0.999879  1
  Tm  Tm9  1  0.580274  0.750235  0.999922  1
  Ru  Ru10  1  0.601551  0.424452  0.779574  1
  Ru  Ru11  1  0.821975  0.076358  0.220076  1
  Ru  Ru12  1  0.398105  0.575940  0.220531  1
  Ru  Ru13  1  0.178184  0.923429  0.779716  1
