# generated using pymatgen
data_Tm4Lu2Al17Si7Os8
_symmetry_space_group_name_H-M   'P 1'
_cell_length_a   8.67532100
_cell_length_b   8.66432978
_cell_length_c   9.43176900
_cell_angle_alpha   90.00000000
_cell_angle_beta   90.00000000
_cell_angle_gamma   120.09631063
_symmetry_Int_Tables_number   1
_chemical_formula_structural   Tm4Lu2Al17Si7Os8
_chemical_formula_sum   'Tm4 Lu2 Al17 Si7 Os8'
_cell_volume   613.36927512
_cell_formula_units_Z   1
loop_
 _symmetry_equiv_pos_site_id
 _symmetry_equiv_pos_as_xyz
  1  'x, y, z'
loop_
 _atom_site_type_symbol
 _atom_site_label
 _atom_site_symmetry_multiplicity
 _atom_site_fract_x
 _atom_site_fract_y
 _atom_site_fract_z
 _atom_site_occupancy
  Tm  Tm0  1  0.608993  0.806321  0.250000  1
  Tm  Tm1  1  0.389960  0.192146  0.750000  1
  Tm  Tm2  1  0.196644  0.804253  0.250000  1
  Tm  Tm3  1  0.801627  0.192559  0.750000  1
  Lu  Lu4  1  0.194203  0.391244  0.250000  1
  Lu  Lu5  1  0.805414  0.611220  0.750000  1
  Al  Al6  1  0.164223  0.329356  0.578760  1
  Al  Al7  1  0.834187  0.671237  0.420693  1
  Al  Al8  1  0.671614  0.835007  0.578562  1
  Al  Al9  1  0.834187  0.671237  0.079307  1
  Al  Al10  1  0.329582  0.166082  0.421658  1
  Al  Al11  1  0.164223  0.329356  0.921240  1
  Al  Al12  1  0.163417  0.834260  0.577561  1
  Al  Al13  1  0.329582  0.166082  0.078342  1
  Al  Al14  1  0.835720  0.164216  0.420757  1
  Al  Al15  1  0.671614  0.835007  0.921438  1
  Al  Al16  1  0.835720  0.164216  0.079243  1
  Al  Al17  1  0.163417  0.834260  0.922439  1
  Al  Al18  1  0.124864  0.565132  0.750000  1
  Al  Al19  1  0.564002  0.435313  0.250000  1
  Al  Al20  1  0.439155  0.565991  0.750000  1
  Al  Al21  1  0.999698  0.999697  0.250000  1
  Al  Al22  1  0.999837  0.000614  0.750000  1
  Si  Si23  1  0.333147  0.664262  0.040324  1
  Si  Si24  1  0.666699  0.336025  0.958711  1
  Si  Si25  1  0.666699  0.336025  0.541289  1
  Si  Si26  1  0.333147  0.664262  0.459676  1
  Si  Si27  1  0.564362  0.124124  0.250000  1
  Si  Si28  1  0.436648  0.873476  0.750000  1
  Si  Si29  1  0.875402  0.435154  0.250000  1
  Os  Os30  1  0.500923  0.000938  0.001039  1
  Os  Os31  1  0.998757  0.499503  0.006650  1
  Os  Os32  1  0.500923  0.000938  0.498961  1
  Os  Os33  1  0.500673  0.500209  0.000357  1
  Os  Os34  1  0.998757  0.499503  0.493350  1
  Os  Os35  1  0.500673  0.500209  0.499643  1
  Os  Os36  1  0.000654  0.000284  0.000212  1
  Os  Os37  1  0.000654  0.000284  0.499788  1
