# generated using pymatgen
data_La3NdErIn3Br
_symmetry_space_group_name_H-M   'P 1'
_cell_length_a   9.66212100
_cell_length_b   9.66212104
_cell_length_c   6.84850700
_cell_angle_alpha   90.00000000
_cell_angle_beta   90.00000000
_cell_angle_gamma   120.00000328
_symmetry_Int_Tables_number   1
_chemical_formula_structural   La3NdErIn3Br
_chemical_formula_sum   'La6 Nd2 Er2 In6 Br2'
_cell_volume   553.69610319
_cell_formula_units_Z   2
loop_
 _symmetry_equiv_pos_site_id
 _symmetry_equiv_pos_as_xyz
  1  'x, y, z'
loop_
 _atom_site_type_symbol
 _atom_site_label
 _atom_site_symmetry_multiplicity
 _atom_site_fract_x
 _atom_site_fract_y
 _atom_site_fract_z
 _atom_site_occupancy
  La  La0  1  0.732343  0.732343  0.251658  1
  La  La1  1  0.000000  0.732343  0.748342  1
  La  La2  1  0.732343  0.000000  0.748342  1
  La  La3  1  0.267657  0.267657  0.748342  1
  La  La4  1  0.000000  0.267657  0.251658  1
  La  La5  1  0.267657  0.000000  0.251658  1
  Nd  Nd6  1  0.333333  0.666667  0.000000  1
  Nd  Nd7  1  0.666667  0.333333  0.000000  1
  Er  Er8  1  0.333333  0.666667  0.500000  1
  Er  Er9  1  0.666667  0.333333  0.500000  1
  In  In10  1  0.393298  0.000000  0.747950  1
  In  In11  1  0.000000  0.606702  0.252050  1
  In  In12  1  0.606702  0.000000  0.252050  1
  In  In13  1  0.000000  0.393298  0.747950  1
  In  In14  1  0.393298  0.393298  0.252050  1
  In  In15  1  0.606702  0.606702  0.747950  1
  Br  Br16  1  0.000000  0.000000  0.500000  1
  Br  Br17  1  0.000000  0.000000  0.000000  1
