# generated using pymatgen
data_CeMgReH6
_symmetry_space_group_name_H-M   'P 1'
_cell_length_a   5.03972802
_cell_length_b   5.05220241
_cell_length_c   5.05398533
_cell_angle_alpha   120.15825694
_cell_angle_beta   119.94326396
_cell_angle_gamma   90.00052979
_symmetry_Int_Tables_number   1
_chemical_formula_structural   CeMgReH6
_chemical_formula_sum   'Ce1 Mg1 Re1 H6'
_cell_volume   90.85220779
_cell_formula_units_Z   1
loop_
 _symmetry_equiv_pos_site_id
 _symmetry_equiv_pos_as_xyz
  1  'x, y, z'
loop_
 _atom_site_type_symbol
 _atom_site_label
 _atom_site_symmetry_multiplicity
 _atom_site_fract_x
 _atom_site_fract_y
 _atom_site_fract_z
 _atom_site_occupancy
  Ce  Ce0  1  0.750554  0.250437  0.500655  1
  Mg  Mg1  1  0.250503  0.750376  0.500769  1
  Re  Re2  1  0.999889  0.999959  0.999836  1
  H  H3  1  0.248317  0.248201  0.999810  1
  H  H4  1  0.751376  0.248288  0.999813  1
  H  H5  1  0.248359  0.751576  0.999843  1
  H  H6  1  0.751329  0.751460  0.999834  1
  H  H7  1  0.751460  0.751484  0.502961  1
  H  H8  1  0.248208  0.248214  0.496475  1
