# generated using pymatgen
data_Dy4HfMo3O14
_symmetry_space_group_name_H-M   'P 1'
_cell_length_a   7.42760780
_cell_length_b   7.33006862
_cell_length_c   7.33006900
_cell_angle_alpha   60.00000282
_cell_angle_beta   60.43346258
_cell_angle_gamma   60.43345625
_symmetry_Int_Tables_number   1
_chemical_formula_structural   Dy4HfMo3O14
_chemical_formula_sum   'Dy4 Hf1 Mo3 O14'
_cell_volume   284.03025650
_cell_formula_units_Z   1
loop_
 _symmetry_equiv_pos_site_id
 _symmetry_equiv_pos_as_xyz
  1  'x, y, z'
loop_
 _atom_site_type_symbol
 _atom_site_label
 _atom_site_symmetry_multiplicity
 _atom_site_fract_x
 _atom_site_fract_y
 _atom_site_fract_z
 _atom_site_occupancy
  Dy  Dy0  1  0.625000  0.125000  0.125000  1
  Dy  Dy1  1  0.125000  0.625000  0.125000  1
  Dy  Dy2  1  0.125000  0.125000  0.625000  1
  Dy  Dy3  1  0.125000  0.125000  0.125000  1
  Hf  Hf4  1  0.125000  0.625000  0.625000  1
  Mo  Mo5  1  0.625000  0.125000  0.625000  1
  Mo  Mo6  1  0.625000  0.625000  0.125000  1
  Mo  Mo7  1  0.625000  0.625000  0.625000  1
  O  O8  1  0.716341  0.711514  0.286072  1
  O  O9  1  0.287247  0.282781  0.714986  1
  O  O10  1  0.716341  0.286072  0.711514  1
  O  O11  1  0.287247  0.714986  0.282781  1
  O  O12  1  0.287247  0.714986  0.714986  1
  O  O13  1  0.716341  0.286072  0.286072  1
  O  O14  1  0.533659  0.538486  0.963928  1
  O  O15  1  0.962753  0.967219  0.535014  1
  O  O16  1  0.533659  0.963928  0.538486  1
  O  O17  1  0.962753  0.535014  0.967219  1
  O  O18  1  0.962753  0.535014  0.535014  1
  O  O19  1  0.533659  0.963928  0.963928  1
  O  O20  1  0.253728  0.248757  0.248757  1
  O  O21  1  0.996272  0.001243  0.001243  1
