# generated using pymatgen
data_RbLiCeS3
_symmetry_space_group_name_H-M   'P 1'
_cell_length_a   7.52517350
_cell_length_b   7.52517381
_cell_length_c   10.60578700
_cell_angle_alpha   90.00000000
_cell_angle_beta   90.00000000
_cell_angle_gamma   147.80526367
_symmetry_Int_Tables_number   1
_chemical_formula_structural   RbLiCeS3
_chemical_formula_sum   'Rb2 Li2 Ce2 S6'
_cell_volume   319.99189298
_cell_formula_units_Z   2
loop_
 _symmetry_equiv_pos_site_id
 _symmetry_equiv_pos_as_xyz
  1  'x, y, z'
loop_
 _atom_site_type_symbol
 _atom_site_label
 _atom_site_symmetry_multiplicity
 _atom_site_fract_x
 _atom_site_fract_y
 _atom_site_fract_z
 _atom_site_occupancy
  Rb  Rb0  1  0.761287  0.238716  0.250000  1
  Rb  Rb1  1  0.238716  0.761287  0.750000  1
  Li  Li2  1  0.036196  0.963806  0.250000  1
  Li  Li3  1  0.963806  0.036196  0.750000  1
  Ce  Ce4  1  0.500001  0.500001  0.000000  1
  Ce  Ce5  1  0.500001  0.500001  0.500000  1
  S  S6  1  0.116656  0.883346  0.052927  1
  S  S7  1  0.450298  0.549704  0.250000  1
  S  S8  1  0.116656  0.883346  0.447073  1
  S  S9  1  0.883346  0.116656  0.552927  1
  S  S10  1  0.549704  0.450298  0.750000  1
  S  S11  1  0.883346  0.116656  0.947073  1
