# generated using pymatgen
data_AlCu15Si3Ni
_symmetry_space_group_name_H-M   'P 1'
_cell_length_a   6.22715104
_cell_length_b   6.22715106
_cell_length_c   6.22715100
_cell_angle_alpha   89.91355648
_cell_angle_beta   89.91354773
_cell_angle_gamma   89.91353791
_symmetry_Int_Tables_number   1
_chemical_formula_structural   AlCu15Si3Ni
_chemical_formula_sum   'Al1 Cu15 Si3 Ni1'
_cell_volume   241.47196479
_cell_formula_units_Z   1
loop_
 _symmetry_equiv_pos_site_id
 _symmetry_equiv_pos_as_xyz
  1  'x, y, z'
loop_
 _atom_site_type_symbol
 _atom_site_label
 _atom_site_symmetry_multiplicity
 _atom_site_fract_x
 _atom_site_fract_y
 _atom_site_fract_z
 _atom_site_occupancy
  Al  Al0  1  0.060591  0.060591  0.060591  1
  Cu  Cu1  1  0.807735  0.318212  0.190187  1
  Cu  Cu2  1  0.318212  0.190187  0.807735  1
  Cu  Cu3  1  0.190187  0.807735  0.318212  1
  Cu  Cu4  1  0.046406  0.876765  0.703264  1
  Cu  Cu5  1  0.293580  0.548322  0.620953  1
  Cu  Cu6  1  0.378404  0.796437  0.951396  1
  Cu  Cu7  1  0.548322  0.620953  0.293580  1
  Cu  Cu8  1  0.796437  0.951396  0.378404  1
  Cu  Cu9  1  0.876765  0.703264  0.046406  1
  Cu  Cu10  1  0.951396  0.378404  0.796437  1
  Cu  Cu11  1  0.703264  0.046406  0.876765  1
  Cu  Cu12  1  0.620953  0.293580  0.548322  1
  Cu  Cu13  1  0.452668  0.119430  0.207561  1
  Cu  Cu14  1  0.207561  0.452668  0.119430  1
  Cu  Cu15  1  0.119430  0.207561  0.452668  1
  Si  Si16  1  0.447263  0.934386  0.563222  1
  Si  Si17  1  0.934386  0.563222  0.447263  1
  Si  Si18  1  0.563222  0.447263  0.934386  1
  Ni  Ni19  1  0.683213  0.683213  0.683213  1
