# generated using pymatgen
data_YbCe3(SnRu)4
_symmetry_space_group_name_H-M   'P 1'
_cell_length_a   6.32886309
_cell_length_b   6.32886329
_cell_length_c   10.05735091
_cell_angle_alpha   77.05004032
_cell_angle_beta   77.05003894
_cell_angle_gamma   44.74248349
_symmetry_Int_Tables_number   1
_chemical_formula_structural   YbCe3(SnRu)4
_chemical_formula_sum   'Yb1 Ce3 Sn4 Ru4'
_cell_volume   275.11659802
_cell_formula_units_Z   1
loop_
 _symmetry_equiv_pos_site_id
 _symmetry_equiv_pos_as_xyz
  1  'x, y, z'
loop_
 _atom_site_type_symbol
 _atom_site_label
 _atom_site_symmetry_multiplicity
 _atom_site_fract_x
 _atom_site_fract_y
 _atom_site_fract_z
 _atom_site_occupancy
  Yb  Yb0  1  0.116355  0.116355  0.594761  1
  Ce  Ce1  1  0.860147  0.860147  0.421191  1
  Ce  Ce2  1  0.866918  0.866918  0.915769  1
  Ce  Ce3  1  0.142166  0.142166  0.086114  1
  Sn  Sn4  1  0.427602  0.427602  0.157617  1
  Sn  Sn5  1  0.407439  0.407439  0.659591  1
  Sn  Sn6  1  0.582477  0.582477  0.840258  1
  Sn  Sn7  1  0.588203  0.588203  0.357764  1
  Ru  Ru8  1  0.819551  0.819551  0.156523  1
  Ru  Ru9  1  0.194442  0.194442  0.299754  1
  Ru  Ru10  1  0.187384  0.187384  0.845144  1
  Ru  Ru11  1  0.807316  0.807316  0.665513  1
