# generated using pymatgen
data_CsDyBi2S5
_symmetry_space_group_name_H-M   'P 1'
_cell_length_a   4.04345300
_cell_length_b   11.99943700
_cell_length_c   22.32955600
_cell_angle_alpha   90.00000000
_cell_angle_beta   90.00000000
_cell_angle_gamma   90.00000000
_symmetry_Int_Tables_number   1
_chemical_formula_structural   CsDyBi2S5
_chemical_formula_sum   'Cs4 Dy4 Bi8 S20'
_cell_volume   1083.41128993
_cell_formula_units_Z   4
loop_
 _symmetry_equiv_pos_site_id
 _symmetry_equiv_pos_as_xyz
  1  'x, y, z'
loop_
 _atom_site_type_symbol
 _atom_site_label
 _atom_site_symmetry_multiplicity
 _atom_site_fract_x
 _atom_site_fract_y
 _atom_site_fract_z
 _atom_site_occupancy
  Cs  Cs0  1  0.250000  0.488032  0.211413  1
  Cs  Cs1  1  0.750000  0.511968  0.788587  1
  Cs  Cs2  1  0.750000  0.988032  0.288587  1
  Cs  Cs3  1  0.250000  0.011968  0.711413  1
  Dy  Dy4  1  0.250000  0.364154  0.023471  1
  Dy  Dy5  1  0.750000  0.635846  0.976529  1
  Dy  Dy6  1  0.750000  0.864154  0.476529  1
  Dy  Dy7  1  0.250000  0.135846  0.523471  1
  Bi  Bi8  1  0.250000  0.800862  0.120232  1
  Bi  Bi9  1  0.750000  0.199138  0.879768  1
  Bi  Bi10  1  0.750000  0.300862  0.379768  1
  Bi  Bi11  1  0.250000  0.699138  0.620232  1
  Bi  Bi12  1  0.250000  0.593929  0.426620  1
  Bi  Bi13  1  0.750000  0.406071  0.573380  1
  Bi  Bi14  1  0.750000  0.093929  0.073380  1
  Bi  Bi15  1  0.250000  0.906071  0.926620  1
  S  S16  1  0.250000  0.808165  0.396787  1
  S  S17  1  0.750000  0.191835  0.603213  1
  S  S18  1  0.750000  0.308165  0.103213  1
  S  S19  1  0.250000  0.691835  0.896787  1
  S  S20  1  0.250000  0.248865  0.306148  1
  S  S21  1  0.750000  0.751135  0.693852  1
  S  S22  1  0.750000  0.748865  0.193852  1
  S  S23  1  0.250000  0.251135  0.806148  1
  S  S24  1  0.250000  0.353402  0.482558  1
  S  S25  1  0.750000  0.646598  0.517442  1
  S  S26  1  0.750000  0.853402  0.017442  1
  S  S27  1  0.250000  0.146598  0.982558  1
  S  S28  1  0.250000  0.024272  0.150877  1
  S  S29  1  0.750000  0.975728  0.849123  1
  S  S30  1  0.750000  0.524272  0.349123  1
  S  S31  1  0.250000  0.475728  0.650877  1
  S  S32  1  0.250000  0.582882  0.055277  1
  S  S33  1  0.750000  0.417118  0.944723  1
  S  S34  1  0.750000  0.082882  0.444723  1
  S  S35  1  0.250000  0.917118  0.555277  1
