# generated using pymatgen
data_Ho(Cu2P)2
_symmetry_space_group_name_H-M   'P 1'
_cell_length_a   7.25552800
_cell_length_b   7.25552800
_cell_length_c   3.76759100
_cell_angle_alpha   90.00000000
_cell_angle_beta   90.00000000
_cell_angle_gamma   90.00000000
_symmetry_Int_Tables_number   1
_chemical_formula_structural   Ho(Cu2P)2
_chemical_formula_sum   'Ho2 Cu8 P4'
_cell_volume   198.33611209
_cell_formula_units_Z   2
loop_
 _symmetry_equiv_pos_site_id
 _symmetry_equiv_pos_as_xyz
  1  'x, y, z'
loop_
 _atom_site_type_symbol
 _atom_site_label
 _atom_site_symmetry_multiplicity
 _atom_site_fract_x
 _atom_site_fract_y
 _atom_site_fract_z
 _atom_site_occupancy
  Ho  Ho0  1  0.500000  0.500000  0.000000  1
  Ho  Ho1  1  0.000000  0.000000  0.500000  1
  Cu  Cu2  1  0.584212  0.165299  0.500000  1
  Cu  Cu3  1  0.415788  0.834701  0.500000  1
  Cu  Cu4  1  0.084212  0.334701  0.000000  1
  Cu  Cu5  1  0.915788  0.665299  0.000000  1
  Cu  Cu6  1  0.165299  0.584212  0.500000  1
  Cu  Cu7  1  0.834701  0.415788  0.500000  1
  Cu  Cu8  1  0.334701  0.084212  0.000000  1
  Cu  Cu9  1  0.665299  0.915788  0.000000  1
  P  P10  1  0.713120  0.713120  0.500000  1
  P  P11  1  0.286880  0.286880  0.500000  1
  P  P12  1  0.213120  0.786880  0.000000  1
  P  P13  1  0.786880  0.213120  0.000000  1
