# generated using pymatgen
data_Dy2Al7Ni2Au
_symmetry_space_group_name_H-M   'P 1'
_cell_length_a   7.99454295
_cell_length_b   7.99454334
_cell_length_c   6.53744050
_cell_angle_alpha   88.53203178
_cell_angle_beta   91.46797030
_cell_angle_gamma   150.46486766
_symmetry_Int_Tables_number   1
_chemical_formula_structural   Dy2Al7Ni2Au
_chemical_formula_sum   'Dy2 Al7 Ni2 Au1'
_cell_volume   205.89782138
_cell_formula_units_Z   1
loop_
 _symmetry_equiv_pos_site_id
 _symmetry_equiv_pos_as_xyz
  1  'x, y, z'
loop_
 _atom_site_type_symbol
 _atom_site_label
 _atom_site_symmetry_multiplicity
 _atom_site_fract_x
 _atom_site_fract_y
 _atom_site_fract_z
 _atom_site_occupancy
  Dy  Dy0  1  0.122549  0.877451  0.734275  1
  Dy  Dy1  1  0.877451  0.122549  0.265725  1
  Al  Al2  1  0.500000  0.500000  0.500000  1
  Al  Al3  1  0.927513  0.072487  0.774227  1
  Al  Al4  1  0.072487  0.927513  0.225773  1
  Al  Al5  1  0.312999  0.687001  0.954189  1
  Al  Al6  1  0.687001  0.312999  0.045811  1
  Al  Al7  1  0.688091  0.311909  0.444537  1
  Al  Al8  1  0.311909  0.688091  0.555463  1
  Ni  Ni9  1  0.777470  0.222530  0.751323  1
  Ni  Ni10  1  0.222530  0.777470  0.248677  1
  Au  Au11  1  0.500000  0.500000  0.000000  1
