# generated using pymatgen
data_TbDy(Co3Si2)2
_symmetry_space_group_name_H-M   'P 1'
_cell_length_a   6.25613131
_cell_length_b   6.25613122
_cell_length_c   6.25613153
_cell_angle_alpha   130.55673361
_cell_angle_beta   113.19300728
_cell_angle_gamma   87.47643067
_symmetry_Int_Tables_number   1
_chemical_formula_structural   TbDy(Co3Si2)2
_chemical_formula_sum   'Tb1 Dy1 Co6 Si4'
_cell_volume   162.92807874
_cell_formula_units_Z   1
loop_
 _symmetry_equiv_pos_site_id
 _symmetry_equiv_pos_as_xyz
  1  'x, y, z'
loop_
 _atom_site_type_symbol
 _atom_site_label
 _atom_site_symmetry_multiplicity
 _atom_site_fract_x
 _atom_site_fract_y
 _atom_site_fract_z
 _atom_site_occupancy
  Tb  Tb0  1  0.750000  0.469104  0.719104  1
  Dy  Dy1  1  0.250000  0.530402  0.280402  1
  Co  Co2  1  0.000620  0.000009  0.500628  1
  Co  Co3  1  0.499380  0.000009  0.999389  1
  Co  Co4  1  0.724076  0.000149  0.724091  1
  Co  Co5  1  0.223943  0.500015  0.724091  1
  Co  Co6  1  0.276057  0.000149  0.276073  1
  Co  Co7  1  0.775924  0.500015  0.276073  1
  Si  Si8  1  0.080796  0.873977  0.793181  1
  Si  Si9  1  0.918842  0.125736  0.206894  1
  Si  Si10  1  0.581158  0.788053  0.206894  1
  Si  Si11  1  0.419204  0.212384  0.793181  1
