# generated using pymatgen
data_Nd2Sm6Cu3Si12Pd
_symmetry_space_group_name_H-M   'P 1'
_cell_length_a   8.12021200
_cell_length_b   8.12021297
_cell_length_c   8.42401600
_cell_angle_alpha   90.00000000
_cell_angle_beta   90.00000000
_cell_angle_gamma   119.99999603
_symmetry_Int_Tables_number   1
_chemical_formula_structural   Nd2Sm6Cu3Si12Pd
_chemical_formula_sum   'Nd2 Sm6 Cu3 Si12 Pd1'
_cell_volume   481.04379804
_cell_formula_units_Z   1
loop_
 _symmetry_equiv_pos_site_id
 _symmetry_equiv_pos_as_xyz
  1  'x, y, z'
loop_
 _atom_site_type_symbol
 _atom_site_label
 _atom_site_symmetry_multiplicity
 _atom_site_fract_x
 _atom_site_fract_y
 _atom_site_fract_z
 _atom_site_occupancy
  Nd  Nd0  1  0.000000  0.000000  0.750749  1
  Nd  Nd1  1  0.000000  0.000000  0.249241  1
  Sm  Sm2  1  0.498960  0.501040  0.750746  1
  Sm  Sm3  1  0.499012  0.500988  0.249247  1
  Sm  Sm4  1  0.002081  0.501040  0.750746  1
  Sm  Sm5  1  0.001976  0.500988  0.249247  1
  Sm  Sm6  1  0.498960  0.997919  0.750746  1
  Sm  Sm7  1  0.499012  0.998024  0.249247  1
  Cu  Cu8  1  0.666667  0.333333  0.999889  1
  Cu  Cu9  1  0.333333  0.666667  0.000330  1
  Cu  Cu10  1  0.333333  0.666667  0.499829  1
  Si  Si11  1  0.830122  0.169878  0.000026  1
  Si  Si12  1  0.169513  0.830487  0.999956  1
  Si  Si13  1  0.339756  0.169878  0.000026  1
  Si  Si14  1  0.169188  0.830812  0.499911  1
  Si  Si15  1  0.660974  0.830487  0.999956  1
  Si  Si16  1  0.833381  0.166619  0.500093  1
  Si  Si17  1  0.830122  0.660244  0.000026  1
  Si  Si18  1  0.661624  0.830812  0.499911  1
  Si  Si19  1  0.169513  0.339026  0.999956  1
  Si  Si20  1  0.333239  0.166619  0.500093  1
  Si  Si21  1  0.169188  0.338376  0.499911  1
  Si  Si22  1  0.833381  0.666761  0.500093  1
  Pd  Pd23  1  0.666667  0.333333  0.500023  1
