# generated using pymatgen
data_EuCu3(SnO3)4
_symmetry_space_group_name_H-M   'P 1'
_cell_length_a   6.74178263
_cell_length_b   6.74186237
_cell_length_c   6.74216605
_cell_angle_alpha   109.49316754
_cell_angle_beta   109.51444829
_cell_angle_gamma   109.40494116
_symmetry_Int_Tables_number   1
_chemical_formula_structural   EuCu3(SnO3)4
_chemical_formula_sum   'Eu1 Cu3 Sn4 O12'
_cell_volume   235.90533879
_cell_formula_units_Z   1
loop_
 _symmetry_equiv_pos_site_id
 _symmetry_equiv_pos_as_xyz
  1  'x, y, z'
loop_
 _atom_site_type_symbol
 _atom_site_label
 _atom_site_symmetry_multiplicity
 _atom_site_fract_x
 _atom_site_fract_y
 _atom_site_fract_z
 _atom_site_occupancy
  Eu  Eu0  1  0.000000  0.000000  0.000000  1
  Cu  Cu1  1  0.500000  0.000000  0.500000  1
  Cu  Cu2  1  0.500000  0.500000  0.000000  1
  Cu  Cu3  1  0.000000  0.500000  0.500000  1
  Sn  Sn4  1  0.000000  0.500000  0.000000  1
  Sn  Sn5  1  0.500000  0.000000  0.000000  1
  Sn  Sn6  1  0.500000  0.500000  0.500000  1
  Sn  Sn7  1  0.000000  0.000000  0.500000  1
  O  O8  1  0.304506  0.135127  0.830587  1
  O  O9  1  0.695494  0.864873  0.169413  1
  O  O10  1  0.695540  0.526225  0.830652  1
  O  O11  1  0.474579  0.169503  0.305054  1
  O  O12  1  0.169794  0.305008  0.474810  1
  O  O13  1  0.830089  0.305166  0.135264  1
  O  O14  1  0.864446  0.169546  0.694940  1
  O  O15  1  0.830206  0.694992  0.525190  1
  O  O16  1  0.304460  0.473775  0.169348  1
  O  O17  1  0.525421  0.830497  0.694946  1
  O  O18  1  0.169911  0.694834  0.864736  1
  O  O19  1  0.135554  0.830454  0.305060  1
