# generated using pymatgen
data_Zr10GaCu(Bi2Pb)2
_symmetry_space_group_name_H-M   'P 1'
_cell_length_a   8.84765920
_cell_length_b   8.84765986
_cell_length_c   5.93974941
_cell_angle_alpha   89.97867868
_cell_angle_beta   89.97868937
_cell_angle_gamma   119.98790652
_symmetry_Int_Tables_number   1
_chemical_formula_structural   Zr10GaCu(Bi2Pb)2
_chemical_formula_sum   'Zr10 Ga1 Cu1 Bi4 Pb2'
_cell_volume   402.72477693
_cell_formula_units_Z   1
loop_
 _symmetry_equiv_pos_site_id
 _symmetry_equiv_pos_as_xyz
  1  'x, y, z'
loop_
 _atom_site_type_symbol
 _atom_site_label
 _atom_site_symmetry_multiplicity
 _atom_site_fract_x
 _atom_site_fract_y
 _atom_site_fract_z
 _atom_site_occupancy
  Zr  Zr0  1  0.737075  0.000774  0.248293  1
  Zr  Zr1  1  0.000774  0.737075  0.248293  1
  Zr  Zr2  1  0.262863  0.262863  0.247936  1
  Zr  Zr3  1  0.262505  0.000036  0.751895  1
  Zr  Zr4  1  0.000036  0.262505  0.751895  1
  Zr  Zr5  1  0.736802  0.736802  0.751784  1
  Zr  Zr6  1  0.333239  0.666764  0.498987  1
  Zr  Zr7  1  0.666764  0.333239  0.498987  1
  Zr  Zr8  1  0.666794  0.333364  0.000897  1
  Zr  Zr9  1  0.333364  0.666794  0.000897  1
  Ga  Ga10  1  0.000194  0.000194  0.499553  1
  Cu  Cu11  1  0.000439  0.000439  0.000457  1
  Bi  Bi12  1  0.612980  0.612980  0.249339  1
  Bi  Bi13  1  0.612906  0.000459  0.750861  1
  Bi  Bi14  1  0.000459  0.612906  0.750861  1
  Bi  Bi15  1  0.386630  0.386630  0.750511  1
  Pb  Pb16  1  0.386161  0.000015  0.249276  1
  Pb  Pb17  1  0.000015  0.386161  0.249276  1
