# generated using pymatgen
data_La12Ru3RhBr12
_symmetry_space_group_name_H-M   'P 1'
_cell_length_a   10.60762917
_cell_length_b   10.60762907
_cell_length_c   10.60253500
_cell_angle_alpha   109.46149100
_cell_angle_beta   109.46149081
_cell_angle_gamma   109.48094619
_symmetry_Int_Tables_number   1
_chemical_formula_structural   La12Ru3RhBr12
_chemical_formula_sum   'La12 Ru3 Rh1 Br12'
_cell_volume   918.49463909
_cell_formula_units_Z   1
loop_
 _symmetry_equiv_pos_site_id
 _symmetry_equiv_pos_as_xyz
  1  'x, y, z'
loop_
 _atom_site_type_symbol
 _atom_site_label
 _atom_site_symmetry_multiplicity
 _atom_site_fract_x
 _atom_site_fract_y
 _atom_site_fract_z
 _atom_site_occupancy
  La  La0  1  0.263673  0.745568  0.231929  1
  La  La1  1  0.481895  0.745568  0.013639  1
  La  La2  1  0.233698  0.467396  0.483698  1
  La  La3  1  0.016106  0.032213  0.266106  1
  La  La4  1  0.233698  0.266302  0.750000  1
  La  La5  1  0.016106  0.483894  0.750000  1
  La  La6  1  0.481895  0.236327  0.468255  1
  La  La7  1  0.263673  0.018105  0.031745  1
  La  La8  1  0.754432  0.236327  0.268071  1
  La  La9  1  0.754432  0.018105  0.486361  1
  La  La10  1  0.467787  0.483894  0.233894  1
  La  La11  1  0.032604  0.266302  0.016302  1
  Ru  Ru12  1  0.251370  0.502740  0.001370  1
  Ru  Ru13  1  0.997260  0.248630  0.498630  1
  Ru  Ru14  1  0.251370  0.248630  0.250000  1
  Rh  Rh15  1  0.500000  0.000000  0.250000  1
  Br  Br16  1  0.250069  0.994290  0.505848  1
  Br  Br17  1  0.512148  0.506073  0.756073  1
  Br  Br18  1  0.250069  0.755778  0.744220  1
  Br  Br19  1  0.988362  0.744182  0.994182  1
  Br  Br20  1  0.993927  0.506073  0.250000  1
  Br  Br21  1  0.744222  0.994290  0.988441  1
  Br  Br22  1  0.755818  0.744182  0.250000  1
  Br  Br23  1  0.505710  0.755778  0.511559  1
  Br  Br24  1  0.505710  0.249931  0.994152  1
  Br  Br25  1  0.755818  0.511638  0.505818  1
  Br  Br26  1  0.744222  0.249931  0.755780  1
  Br  Br27  1  0.993927  0.987852  0.743927  1
