# generated using pymatgen
data_Yb3Dy(Si4Tc3)2
_symmetry_space_group_name_H-M   'P 1'
_cell_length_a   6.79146939
_cell_length_b   6.69288447
_cell_length_c   6.77040635
_cell_angle_alpha   70.46130596
_cell_angle_beta   90.05243133
_cell_angle_gamma   89.89090049
_symmetry_Int_Tables_number   1
_chemical_formula_structural   Yb3Dy(Si4Tc3)2
_chemical_formula_sum   'Yb3 Dy1 Si8 Tc6'
_cell_volume   290.02338271
_cell_formula_units_Z   1
loop_
 _symmetry_equiv_pos_site_id
 _symmetry_equiv_pos_as_xyz
  1  'x, y, z'
loop_
 _atom_site_type_symbol
 _atom_site_label
 _atom_site_symmetry_multiplicity
 _atom_site_fract_x
 _atom_site_fract_y
 _atom_site_fract_z
 _atom_site_occupancy
  Yb  Yb0  1  0.663225  0.445610  0.183135  1
  Yb  Yb1  1  0.165782  0.055690  0.813360  1
  Yb  Yb2  1  0.335940  0.554135  0.816420  1
  Dy  Dy3  1  0.833617  0.942336  0.191436  1
  Si  Si4  1  0.450412  0.120309  0.101254  1
  Si  Si5  1  0.953546  0.380587  0.895910  1
  Si  Si6  1  0.546795  0.880248  0.896482  1
  Si  Si7  1  0.047501  0.620383  0.100793  1
  Si  Si8  1  0.861479  0.135983  0.507790  1
  Si  Si9  1  0.361045  0.367659  0.492930  1
  Si  Si10  1  0.142062  0.866145  0.495457  1
  Si  Si11  1  0.636811  0.629722  0.509784  1
  Tc  Tc12  1  0.501878  0.000459  0.497445  1
  Tc  Tc13  1  0.999959  0.501048  0.498914  1
  Tc  Tc14  1  0.156670  0.243736  0.243203  1
  Tc  Tc15  1  0.659030  0.254194  0.757995  1
  Tc  Tc16  1  0.842557  0.757621  0.755432  1
  Tc  Tc17  1  0.341691  0.744136  0.242261  1
