# generated using pymatgen
data_Rb4BaPaO6
_symmetry_space_group_name_H-M   'P 1'
_cell_length_a   6.74812206
_cell_length_b   6.74909265
_cell_length_c   6.89311368
_cell_angle_alpha   99.53663825
_cell_angle_beta   99.55270521
_cell_angle_gamma   119.73444658
_symmetry_Int_Tables_number   1
_chemical_formula_structural   Rb4BaPaO6
_chemical_formula_sum   'Rb4 Ba1 Pa1 O6'
_cell_volume   257.30245903
_cell_formula_units_Z   1
loop_
 _symmetry_equiv_pos_site_id
 _symmetry_equiv_pos_as_xyz
  1  'x, y, z'
loop_
 _atom_site_type_symbol
 _atom_site_label
 _atom_site_symmetry_multiplicity
 _atom_site_fract_x
 _atom_site_fract_y
 _atom_site_fract_z
 _atom_site_occupancy
  Rb  Rb0  1  0.499522  0.500486  0.999998  1
  Rb  Rb1  1  0.005157  0.994834  0.499996  1
  Rb  Rb2  1  0.658766  0.341242  0.500009  1
  Rb  Rb3  1  0.338548  0.661476  0.500000  1
  Ba  Ba4  1  0.832623  0.167354  0.000000  1
  Pa  Pa5  1  0.166922  0.833115  0.000000  1
  O  O6  1  0.977472  0.623414  0.192749  1
  O  O7  1  0.506350  0.918770  0.195663  1
  O  O8  1  0.211508  0.154714  0.192347  1
  O  O9  1  0.845344  0.788498  0.807678  1
  O  O10  1  0.081206  0.493567  0.804293  1
  O  O11  1  0.376585  0.022532  0.807271  1
