# generated using pymatgen
data_Mn2SiIr5
_symmetry_space_group_name_H-M   'P 1'
_cell_length_a   5.35677836
_cell_length_b   5.35677892
_cell_length_c   3.90127100
_cell_angle_alpha   90.00000000
_cell_angle_beta   90.00000000
_cell_angle_gamma   97.78336095
_symmetry_Int_Tables_number   1
_chemical_formula_structural   Mn2SiIr5
_chemical_formula_sum   'Mn2 Si1 Ir5'
_cell_volume   110.91592675
_cell_formula_units_Z   1
loop_
 _symmetry_equiv_pos_site_id
 _symmetry_equiv_pos_as_xyz
  1  'x, y, z'
loop_
 _atom_site_type_symbol
 _atom_site_label
 _atom_site_symmetry_multiplicity
 _atom_site_fract_x
 _atom_site_fract_y
 _atom_site_fract_z
 _atom_site_occupancy
  Mn  Mn0  1  0.279184  0.720816  0.500000  1
  Mn  Mn1  1  0.720816  0.279184  0.500000  1
  Si  Si2  1  0.000000  0.000000  0.000000  1
  Ir  Ir3  1  0.500000  0.500000  0.000000  1
  Ir  Ir4  1  0.500000  0.000000  0.000000  1
  Ir  Ir5  1  0.000000  0.500000  0.000000  1
  Ir  Ir6  1  0.211916  0.211916  0.500000  1
  Ir  Ir7  1  0.788084  0.788084  0.500000  1
