# generated using pymatgen
data_Tb4Y4Ti3Si16Tc9
_symmetry_space_group_name_H-M   'P 1'
_cell_length_a   6.79608122
_cell_length_b   6.79580684
_cell_length_c   12.97986177
_cell_angle_alpha   89.92152364
_cell_angle_beta   90.06759890
_cell_angle_gamma   89.40286899
_symmetry_Int_Tables_number   1
_chemical_formula_structural   Tb4Y4Ti3Si16Tc9
_chemical_formula_sum   'Tb4 Y4 Ti3 Si16 Tc9'
_cell_volume   599.43949098
_cell_formula_units_Z   1
loop_
 _symmetry_equiv_pos_site_id
 _symmetry_equiv_pos_as_xyz
  1  'x, y, z'
loop_
 _atom_site_type_symbol
 _atom_site_label
 _atom_site_symmetry_multiplicity
 _atom_site_fract_x
 _atom_site_fract_y
 _atom_site_fract_z
 _atom_site_occupancy
  Tb  Tb0  1  0.179408  0.488080  0.783346  1
  Tb  Tb1  1  0.662460  0.997991  0.971923  1
  Tb  Tb2  1  0.002603  0.336895  0.528715  1
  Tb  Tb3  1  0.997941  0.662479  0.028135  1
  Y  Y4  1  0.337225  0.002228  0.471143  1
  Y  Y5  1  0.509851  0.823748  0.716718  1
  Y  Y6  1  0.487657  0.178845  0.216557  1
  Y  Y7  1  0.823832  0.509916  0.283344  1
  Ti  Ti8  1  0.155750  0.844736  0.249103  1
  Ti  Ti9  1  0.844829  0.155875  0.751012  1
  Ti  Ti10  1  0.666302  0.665808  0.500015  1
  Si  Si11  1  0.211098  0.117073  0.681262  1
  Si  Si12  1  0.398138  0.680750  0.940934  1
  Si  Si13  1  0.610549  0.309103  0.438451  1
  Si  Si14  1  0.680656  0.397966  0.059195  1
  Si  Si15  1  0.309123  0.611008  0.561420  1
  Si  Si16  1  0.787236  0.884303  0.183010  1
  Si  Si17  1  0.117535  0.211056  0.318633  1
  Si  Si18  1  0.884145  0.787347  0.817008  1
  Si  Si19  1  0.262433  0.985950  0.055229  1
  Si  Si20  1  0.525326  0.803201  0.314063  1
  Si  Si21  1  0.472122  0.198081  0.815144  1
  Si  Si22  1  0.802841  0.525356  0.685875  1
  Si  Si23  1  0.198355  0.471938  0.184857  1
  Si  Si24  1  0.730825  0.022250  0.557414  1
  Si  Si25  1  0.985977  0.262367  0.944782  1
  Si  Si26  1  0.022304  0.731280  0.442553  1
  Tc  Tc27  1  0.334285  0.334191  0.000258  1
  Tc  Tc28  1  0.182310  0.982393  0.864732  1
  Tc  Tc29  1  0.473526  0.693376  0.132334  1
  Tc  Tc30  1  0.523812  0.314604  0.632578  1
  Tc  Tc31  1  0.693109  0.473457  0.867768  1
  Tc  Tc32  1  0.314909  0.524406  0.367316  1
  Tc  Tc33  1  0.817947  0.011377  0.364338  1
  Tc  Tc34  1  0.982240  0.182295  0.135295  1
  Tc  Tc35  1  0.011342  0.818269  0.635541  1
