# generated using pymatgen
data_Ho4Tm(GeB4)2
_symmetry_space_group_name_H-M   'P 1'
_cell_length_a   7.22117600
_cell_length_b   7.22117600
_cell_length_c   8.06704600
_cell_angle_alpha   90.00000000
_cell_angle_beta   90.00000000
_cell_angle_gamma   90.00000000
_symmetry_Int_Tables_number   1
_chemical_formula_structural   Ho4Tm(GeB4)2
_chemical_formula_sum   'Ho8 Tm2 Ge4 B16'
_cell_volume   420.65920192
_cell_formula_units_Z   2
loop_
 _symmetry_equiv_pos_site_id
 _symmetry_equiv_pos_as_xyz
  1  'x, y, z'
loop_
 _atom_site_type_symbol
 _atom_site_label
 _atom_site_symmetry_multiplicity
 _atom_site_fract_x
 _atom_site_fract_y
 _atom_site_fract_z
 _atom_site_occupancy
  Ho  Ho0  1  0.680272  0.180272  0.221796  1
  Ho  Ho1  1  0.319728  0.819728  0.778204  1
  Ho  Ho2  1  0.319728  0.819728  0.221796  1
  Ho  Ho3  1  0.819728  0.680272  0.221796  1
  Ho  Ho4  1  0.819728  0.680272  0.778204  1
  Ho  Ho5  1  0.680272  0.180272  0.778204  1
  Ho  Ho6  1  0.180272  0.319728  0.778204  1
  Ho  Ho7  1  0.180272  0.319728  0.221796  1
  Tm  Tm8  1  0.000000  0.000000  0.500000  1
  Tm  Tm9  1  0.500000  0.500000  0.500000  1
  Ge  Ge10  1  0.120913  0.620913  0.500000  1
  Ge  Ge11  1  0.879087  0.379087  0.500000  1
  Ge  Ge12  1  0.379087  0.120913  0.500000  1
  Ge  Ge13  1  0.620913  0.879087  0.500000  1
  B  B14  1  0.172532  0.039266  0.000000  1
  B  B15  1  0.827468  0.960734  0.000000  1
  B  B16  1  0.960734  0.172532  0.000000  1
  B  B17  1  0.327468  0.539266  0.000000  1
  B  B18  1  0.039266  0.827468  0.000000  1
  B  B19  1  0.672532  0.460734  0.000000  1
  B  B20  1  0.539266  0.672532  0.000000  1
  B  B21  1  0.460734  0.327468  0.000000  1
  B  B22  1  0.089924  0.589924  0.000000  1
  B  B23  1  0.910076  0.410076  0.000000  1
  B  B24  1  0.410076  0.089924  0.000000  1
  B  B25  1  0.589924  0.910076  0.000000  1
  B  B26  1  0.000000  0.000000  0.164045  1
  B  B27  1  0.000000  0.000000  0.835955  1
  B  B28  1  0.500000  0.500000  0.835955  1
  B  B29  1  0.500000  0.500000  0.164045  1
