# generated using pymatgen
data_Ce3Pr(B4W)4
_symmetry_space_group_name_H-M   'P 1'
_cell_length_a   6.09219454
_cell_length_b   11.78632529
_cell_length_c   3.70292400
_cell_angle_alpha   90.00000000
_cell_angle_beta   90.00000000
_cell_angle_gamma   90.04918402
_symmetry_Int_Tables_number   1
_chemical_formula_structural   Ce3Pr(B4W)4
_chemical_formula_sum   'Ce3 Pr1 B16 W4'
_cell_volume   265.88682905
_cell_formula_units_Z   1
loop_
 _symmetry_equiv_pos_site_id
 _symmetry_equiv_pos_as_xyz
  1  'x, y, z'
loop_
 _atom_site_type_symbol
 _atom_site_label
 _atom_site_symmetry_multiplicity
 _atom_site_fract_x
 _atom_site_fract_y
 _atom_site_fract_z
 _atom_site_occupancy
  Ce  Ce0  1  0.624472  0.349178  0.000000  1
  Ce  Ce1  1  0.374994  0.650586  0.000000  1
  Ce  Ce2  1  0.124739  0.150833  0.000000  1
  Pr  Pr3  1  0.875341  0.849098  0.000000  1
  B  B4  1  0.786587  0.185661  0.500000  1
  B  B5  1  0.218625  0.814161  0.500000  1
  B  B6  1  0.285273  0.314574  0.500000  1
  B  B7  1  0.713404  0.683429  0.500000  1
  B  B8  1  0.863716  0.034384  0.500000  1
  B  B9  1  0.137933  0.969187  0.500000  1
  B  B10  1  0.363816  0.467634  0.500000  1
  B  B11  1  0.635714  0.531510  0.500000  1
  B  B12  1  0.886053  0.453055  0.500000  1
  B  B13  1  0.113975  0.546153  0.500000  1
  B  B14  1  0.385814  0.047404  0.500000  1
  B  B15  1  0.611909  0.954829  0.500000  1
  B  B16  1  0.974237  0.308208  0.500000  1
  B  B17  1  0.027749  0.689627  0.500000  1
  B  B18  1  0.474259  0.192060  0.500000  1
  B  B19  1  0.521637  0.808390  0.500000  1
  W  W20  1  0.629369  0.086588  0.000000  1
  W  W21  1  0.370730  0.915808  0.000000  1
  W  W22  1  0.130610  0.413901  0.000000  1
  W  W23  1  0.869042  0.583743  0.000000  1
