# generated using pymatgen
data_La2DyCu2Ni11B2
_symmetry_space_group_name_H-M   'P 1'
_cell_length_a   5.03600616
_cell_length_b   5.04966187
_cell_length_c   10.99137479
_cell_angle_alpha   90.07285843
_cell_angle_beta   89.85388786
_cell_angle_gamma   119.91057021
_symmetry_Int_Tables_number   1
_chemical_formula_structural   La2DyCu2Ni11B2
_chemical_formula_sum   'La2 Dy1 Cu2 Ni11 B2'
_cell_volume   242.28160880
_cell_formula_units_Z   1
loop_
 _symmetry_equiv_pos_site_id
 _symmetry_equiv_pos_as_xyz
  1  'x, y, z'
loop_
 _atom_site_type_symbol
 _atom_site_label
 _atom_site_symmetry_multiplicity
 _atom_site_fract_x
 _atom_site_fract_y
 _atom_site_fract_z
 _atom_site_occupancy
  La  La0  1  0.999989  0.000000  0.333954  1
  La  La1  1  0.000005  0.000000  0.674384  1
  Dy  Dy2  1  0.999979  0.000000  0.999331  1
  Cu  Cu3  1  0.333159  0.666348  0.315585  1
  Cu  Cu4  1  0.666811  0.333652  0.315585  1
  Ni  Ni5  1  0.500093  0.000000  0.500953  1
  Ni  Ni6  1  0.499893  0.499899  0.500942  1
  Ni  Ni7  1  0.999995  0.500101  0.500942  1
  Ni  Ni8  1  0.666908  0.333784  0.683184  1
  Ni  Ni9  1  0.333124  0.666216  0.683184  1
  Ni  Ni10  1  0.500070  0.000000  0.127385  1
  Ni  Ni11  1  0.500072  0.500015  0.127244  1
  Ni  Ni12  1  0.000056  0.499985  0.127244  1
  Ni  Ni13  1  0.499890  0.000000  0.870613  1
  Ni  Ni14  1  0.499926  0.499956  0.870746  1
  Ni  Ni15  1  0.999969  0.500044  0.870746  1
  B  B16  1  0.333433  0.666906  0.998985  1
  B  B17  1  0.666527  0.333094  0.998985  1
