# generated using pymatgen
data_Na2Dy2Si10NiPt5
_symmetry_space_group_name_H-M   'P 1'
_cell_length_a   8.21107576
_cell_length_b   8.16081211
_cell_length_c   8.16081184
_cell_angle_alpha   138.26235008
_cell_angle_beta   103.87777356
_cell_angle_gamma   90.71015093
_symmetry_Int_Tables_number   1
_chemical_formula_structural   Na2Dy2Si10NiPt5
_chemical_formula_sum   'Na2 Dy2 Si10 Ni1 Pt5'
_cell_volume   337.57209058
_cell_formula_units_Z   1
loop_
 _symmetry_equiv_pos_site_id
 _symmetry_equiv_pos_as_xyz
  1  'x, y, z'
loop_
 _atom_site_type_symbol
 _atom_site_label
 _atom_site_symmetry_multiplicity
 _atom_site_fract_x
 _atom_site_fract_y
 _atom_site_fract_z
 _atom_site_occupancy
  Na  Na0  1  0.102242  0.873426  0.240349  1
  Na  Na1  1  0.897758  0.138108  0.771185  1
  Dy  Dy2  1  0.360841  0.622909  0.727924  1
  Dy  Dy3  1  0.639159  0.367084  0.262068  1
  Si  Si4  1  0.000000  0.756588  0.756588  1
  Si  Si5  1  0.000000  0.242305  0.242305  1
  Si  Si6  1  0.273002  0.025053  0.745798  1
  Si  Si7  1  0.726998  0.472795  0.752051  1
  Si  Si8  1  0.726075  0.975558  0.252719  1
  Si  Si9  1  0.273925  0.526644  0.249484  1
  Si  Si10  1  0.759321  0.624440  0.168663  1
  Si  Si11  1  0.455841  0.088726  0.336959  1
  Si  Si12  1  0.544159  0.881117  0.632885  1
  Si  Si13  1  0.240679  0.409342  0.865118  1
  Ni  Ni14  1  0.500000  0.743757  0.243757  1
  Pt  Pt15  1  0.258752  0.136688  0.114978  1
  Pt  Pt16  1  0.500000  0.255709  0.755709  1
  Pt  Pt17  1  0.022410  0.637260  0.388676  1
  Pt  Pt18  1  0.977590  0.366266  0.614850  1
  Pt  Pt19  1  0.741248  0.856225  0.877936  1
