# generated using pymatgen
data_ZrSc3Mn5Tc3
_symmetry_space_group_name_H-M   'P 1'
_cell_length_a   5.02492891
_cell_length_b   5.15168246
_cell_length_c   8.35834940
_cell_angle_alpha   90.00000388
_cell_angle_beta   89.94286031
_cell_angle_gamma   120.83799609
_symmetry_Int_Tables_number   1
_chemical_formula_structural   ZrSc3Mn5Tc3
_chemical_formula_sum   'Zr1 Sc3 Mn5 Tc3'
_cell_volume   185.78057819
_cell_formula_units_Z   1
loop_
 _symmetry_equiv_pos_site_id
 _symmetry_equiv_pos_as_xyz
  1  'x, y, z'
loop_
 _atom_site_type_symbol
 _atom_site_label
 _atom_site_symmetry_multiplicity
 _atom_site_fract_x
 _atom_site_fract_y
 _atom_site_fract_z
 _atom_site_occupancy
  Zr  Zr0  1  0.333328  0.666664  0.434983  1
  Sc  Sc1  1  0.664821  0.332410  0.564878  1
  Sc  Sc2  1  0.665509  0.332755  0.937412  1
  Sc  Sc3  1  0.333676  0.666838  0.063038  1
  Mn  Mn4  1  0.827037  0.171041  0.249299  1
  Mn  Mn5  1  0.827037  0.655996  0.249299  1
  Mn  Mn6  1  0.362786  0.181394  0.249545  1
  Mn  Mn7  1  0.165889  0.830434  0.749693  1
  Mn  Mn8  1  0.165889  0.335454  0.749693  1
  Tc  Tc9  1  0.005406  0.002704  0.493540  1
  Tc  Tc10  1  0.004994  0.002498  0.008225  1
  Tc  Tc11  1  0.643627  0.821813  0.750396  1
