# generated using pymatgen
data_Li2(CaC2)3
_symmetry_space_group_name_H-M   'P 1'
_cell_length_a   3.84344641
_cell_length_b   6.00235010
_cell_length_c   8.31761023
_cell_angle_alpha   54.95954588
_cell_angle_beta   97.88675516
_cell_angle_gamma   79.32124340
_symmetry_Int_Tables_number   1
_chemical_formula_structural   Li2(CaC2)3
_chemical_formula_sum   'Li2 Ca3 C6'
_cell_volume   147.13754042
_cell_formula_units_Z   1
loop_
 _symmetry_equiv_pos_site_id
 _symmetry_equiv_pos_as_xyz
  1  'x, y, z'
loop_
 _atom_site_type_symbol
 _atom_site_label
 _atom_site_symmetry_multiplicity
 _atom_site_fract_x
 _atom_site_fract_y
 _atom_site_fract_z
 _atom_site_occupancy
  Li  Li0  1  0.743208  0.231766  0.026919  1
  Li  Li1  1  0.125928  0.396884  0.834959  1
  Ca  Ca2  1  0.747569  0.060276  0.492715  1
  Ca  Ca3  1  0.059123  0.619553  0.390462  1
  Ca  Ca4  1  0.393221  0.809086  0.951969  1
  C  C5  1  0.589561  0.471896  0.690372  1
  C  C6  1  0.223675  0.223024  0.181431  1
  C  C7  1  0.416540  0.676638  0.700339  1
  C  C8  1  0.383525  0.018595  0.167063  1
  C  C9  1  0.064290  0.418101  0.203257  1
  C  C10  1  0.761881  0.262249  0.684451  1
