# generated using pymatgen
data_La4ZnSi3
_symmetry_space_group_name_H-M   'P 1'
_cell_length_a   7.12618437
_cell_length_b   7.12618417
_cell_length_c   6.80755747
_cell_angle_alpha   89.24412136
_cell_angle_beta   90.75587978
_cell_angle_gamma   142.69657161
_symmetry_Int_Tables_number   1
_chemical_formula_structural   La4ZnSi3
_chemical_formula_sum   'La4 Zn1 Si3'
_cell_volume   209.48924605
_cell_formula_units_Z   1
loop_
 _symmetry_equiv_pos_site_id
 _symmetry_equiv_pos_as_xyz
  1  'x, y, z'
loop_
 _atom_site_type_symbol
 _atom_site_label
 _atom_site_symmetry_multiplicity
 _atom_site_fract_x
 _atom_site_fract_y
 _atom_site_fract_z
 _atom_site_occupancy
  La  La0  1  0.277341  0.722659  0.256822  1
  La  La1  1  0.727329  0.272671  0.741883  1
  La  La2  1  0.552010  0.447990  0.254032  1
  La  La3  1  0.445398  0.554602  0.749152  1
  Zn  Zn4  1  0.092120  0.907880  0.934386  1
  Si  Si5  1  0.906237  0.093763  0.069882  1
  Si  Si6  1  0.910640  0.089360  0.434801  1
  Si  Si7  1  0.088925  0.911075  0.559042  1
