# generated using pymatgen
data_Pr2Al2Ga7Ir3
_symmetry_space_group_name_H-M   'P 1'
_cell_length_a   7.66013152
_cell_length_b   7.66013074
_cell_length_c   9.64050400
_cell_angle_alpha   90.00000000
_cell_angle_beta   90.00000000
_cell_angle_gamma   119.55983199
_symmetry_Int_Tables_number   1
_chemical_formula_structural   Pr2Al2Ga7Ir3
_chemical_formula_sum   'Pr4 Al4 Ga14 Ir6'
_cell_volume   492.05315658
_cell_formula_units_Z   2
loop_
 _symmetry_equiv_pos_site_id
 _symmetry_equiv_pos_as_xyz
  1  'x, y, z'
loop_
 _atom_site_type_symbol
 _atom_site_label
 _atom_site_symmetry_multiplicity
 _atom_site_fract_x
 _atom_site_fract_y
 _atom_site_fract_z
 _atom_site_occupancy
  Pr  Pr0  1  0.000516  0.669428  0.250000  1
  Pr  Pr1  1  0.999484  0.330572  0.750000  1
  Pr  Pr2  1  0.669428  0.000516  0.250000  1
  Pr  Pr3  1  0.330572  0.999484  0.750000  1
  Al  Al4  1  0.332658  0.332658  0.547383  1
  Al  Al5  1  0.667342  0.667342  0.452617  1
  Al  Al6  1  0.667342  0.667342  0.047383  1
  Al  Al7  1  0.332658  0.332658  0.952617  1
  Ga  Ga8  1  0.126774  0.126774  0.250000  1
  Ga  Ga9  1  0.873226  0.873226  0.750000  1
  Ga  Ga10  1  0.003012  0.335401  0.077756  1
  Ga  Ga11  1  0.996988  0.664599  0.922244  1
  Ga  Ga12  1  0.996988  0.664599  0.577756  1
  Ga  Ga13  1  0.335401  0.003012  0.422244  1
  Ga  Ga14  1  0.003012  0.335401  0.422244  1
  Ga  Ga15  1  0.664599  0.996988  0.577756  1
  Ga  Ga16  1  0.664599  0.996988  0.922244  1
  Ga  Ga17  1  0.335401  0.003012  0.077756  1
  Ga  Ga18  1  0.348206  0.548790  0.250000  1
  Ga  Ga19  1  0.651794  0.451210  0.750000  1
  Ga  Ga20  1  0.548790  0.348206  0.250000  1
  Ga  Ga21  1  0.451210  0.651794  0.750000  1
  Ir  Ir22  1  0.668198  0.331802  0.000000  1
  Ir  Ir23  1  0.331802  0.668198  0.000000  1
  Ir  Ir24  1  0.331802  0.668198  0.500000  1
  Ir  Ir25  1  0.668198  0.331802  0.500000  1
  Ir  Ir26  1  0.000000  0.000000  0.000000  1
  Ir  Ir27  1  0.000000  0.000000  0.500000  1
