# generated using pymatgen
data_Hf3Sc2(Re7Tc)3
_symmetry_space_group_name_H-M   'P 1'
_cell_length_a   8.46851182
_cell_length_b   8.45980222
_cell_length_c   8.45979208
_cell_angle_alpha   109.45127097
_cell_angle_beta   109.49218134
_cell_angle_gamma   109.49145253
_symmetry_Int_Tables_number   1
_chemical_formula_structural   Hf3Sc2(Re7Tc)3
_chemical_formula_sum   'Hf3 Sc2 Re21 Tc3'
_cell_volume   466.43501173
_cell_formula_units_Z   1
loop_
 _symmetry_equiv_pos_site_id
 _symmetry_equiv_pos_as_xyz
  1  'x, y, z'
loop_
 _atom_site_type_symbol
 _atom_site_label
 _atom_site_symmetry_multiplicity
 _atom_site_fract_x
 _atom_site_fract_y
 _atom_site_fract_z
 _atom_site_occupancy
  Hf  Hf0  1  0.999913  0.630108  0.000004  1
  Hf  Hf1  1  0.999864  0.999996  0.630090  1
  Hf  Hf2  1  0.369791  0.369911  0.369904  1
  Sc  Sc3  1  0.997338  0.000004  0.000005  1
  Sc  Sc4  1  0.628061  0.999992  0.000002  1
  Re  Re5  1  0.675980  0.395840  0.999995  1
  Re  Re6  1  0.999975  0.396669  0.676159  1
  Re  Re7  1  0.323827  0.720520  0.323854  1
  Re  Re8  1  0.323832  0.323854  0.720504  1
  Re  Re9  1  0.999984  0.676165  0.396664  1
  Re  Re10  1  0.675960  0.000007  0.395835  1
  Re  Re11  1  0.603326  0.603357  0.279509  1
  Re  Re12  1  0.280132  0.604172  0.604159  1
  Re  Re13  1  0.603331  0.279500  0.603335  1
  Re  Re14  1  0.375551  0.193645  0.999999  1
  Re  Re15  1  0.181882  0.806333  0.806344  1
  Re  Re16  1  0.375540  0.999984  0.193660  1
  Re  Re17  1  0.194732  0.377882  0.000001  1
  Re  Re18  1  0.000260  0.375914  0.192177  1
  Re  Re19  1  0.808057  0.183729  0.807809  1
  Re  Re20  1  0.808070  0.807815  0.183717  1
  Re  Re21  1  0.000243  0.192174  0.375901  1
  Re  Re22  1  0.194746  0.999983  0.377874  1
  Re  Re23  1  0.624347  0.624094  0.816275  1
  Re  Re24  1  0.816859  0.622114  0.622128  1
  Re  Re25  1  0.624332  0.816263  0.624082  1
  Tc  Tc26  1  0.397181  0.677479  0.000000  1
  Tc  Tc27  1  0.719690  0.322499  0.322508  1
  Tc  Tc28  1  0.397195  0.999996  0.677505  1
