# generated using pymatgen
data_Dy6Ta(Ga3Co8)2
_symmetry_space_group_name_H-M   'P 1'
_cell_length_a   8.46787666
_cell_length_b   8.46175987
_cell_length_c   8.46265700
_cell_angle_alpha   120.00351116
_cell_angle_beta   90.00000000
_cell_angle_gamma   119.96880266
_symmetry_Int_Tables_number   1
_chemical_formula_structural   Dy6Ta(Ga3Co8)2
_chemical_formula_sum   'Dy6 Ta1 Ga6 Co16'
_cell_volume   428.95186656
_cell_formula_units_Z   1
loop_
 _symmetry_equiv_pos_site_id
 _symmetry_equiv_pos_as_xyz
  1  'x, y, z'
loop_
 _atom_site_type_symbol
 _atom_site_label
 _atom_site_symmetry_multiplicity
 _atom_site_fract_x
 _atom_site_fract_y
 _atom_site_fract_z
 _atom_site_occupancy
  Dy  Dy0  1  0.283294  0.999793  0.283434  1
  Dy  Dy1  1  0.283258  0.566931  0.283465  1
  Dy  Dy2  1  0.716707  0.000207  0.283641  1
  Dy  Dy3  1  0.716706  0.000207  0.716566  1
  Dy  Dy4  1  0.283294  0.999793  0.716360  1
  Dy  Dy5  1  0.716743  0.433070  0.716536  1
  Ta  Ta6  1  0.000000  0.000000  0.000000  1
  Ga  Ga7  1  0.500000  0.000000  0.000000  1
  Ga  Ga8  1  0.000000  0.500000  0.000000  1
  Ga  Ga9  1  0.500000  0.500000  0.000000  1
  Ga  Ga10  1  0.000000  0.000000  0.500000  1
  Ga  Ga11  1  0.000000  0.500000  0.500000  1
  Ga  Ga12  1  0.500000  0.500000  0.500000  1
  Co  Co13  1  0.678666  0.357121  0.035624  1
  Co  Co14  1  0.373893  0.249241  0.124621  1
  Co  Co15  1  0.875388  0.249310  0.124655  1
  Co  Co16  1  0.875408  0.750732  0.124643  1
  Co  Co17  1  0.678666  0.357121  0.321498  1
  Co  Co18  1  0.678719  0.642893  0.321447  1
  Co  Co19  1  0.964518  0.642972  0.321487  1
  Co  Co20  1  0.124592  0.249267  0.373911  1
  Co  Co21  1  0.875408  0.750732  0.626088  1
  Co  Co22  1  0.035483  0.357027  0.678513  1
  Co  Co23  1  0.321281  0.357106  0.678553  1
  Co  Co24  1  0.321334  0.642878  0.678502  1
  Co  Co25  1  0.124592  0.249267  0.875357  1
  Co  Co26  1  0.124612  0.750689  0.875345  1
  Co  Co27  1  0.626106  0.750758  0.875379  1
  Co  Co28  1  0.321334  0.642878  0.964377  1
