# generated using pymatgen
data_Zr4NbB4SbRu10
_symmetry_space_group_name_H-M   'P 1'
_cell_length_a   9.51806800
_cell_length_b   9.51806800
_cell_length_c   3.12437500
_cell_angle_alpha   90.00000000
_cell_angle_beta   90.00000000
_cell_angle_gamma   90.00000000
_symmetry_Int_Tables_number   1
_chemical_formula_structural   Zr4NbB4SbRu10
_chemical_formula_sum   'Zr4 Nb1 B4 Sb1 Ru10'
_cell_volume   283.04843665
_cell_formula_units_Z   1
loop_
 _symmetry_equiv_pos_site_id
 _symmetry_equiv_pos_as_xyz
  1  'x, y, z'
loop_
 _atom_site_type_symbol
 _atom_site_label
 _atom_site_symmetry_multiplicity
 _atom_site_fract_x
 _atom_site_fract_y
 _atom_site_fract_z
 _atom_site_occupancy
  Zr  Zr0  1  0.824429  0.676375  0.000000  1
  Zr  Zr1  1  0.175571  0.323625  0.000000  1
  Zr  Zr2  1  0.323625  0.824429  0.000000  1
  Zr  Zr3  1  0.676375  0.175571  0.000000  1
  Nb  Nb4  1  0.000000  0.000000  0.000000  1
  B  B5  1  0.620924  0.879136  0.000000  1
  B  B6  1  0.379076  0.120864  0.000000  1
  B  B7  1  0.120864  0.620924  0.000000  1
  B  B8  1  0.879136  0.379076  0.000000  1
  Sb  Sb9  1  0.500000  0.500000  0.000000  1
  Ru  Ru10  1  0.571659  0.720271  0.500000  1
  Ru  Ru11  1  0.428341  0.279729  0.500000  1
  Ru  Ru12  1  0.069856  0.781387  0.500000  1
  Ru  Ru13  1  0.930144  0.218613  0.500000  1
  Ru  Ru14  1  0.279729  0.571659  0.500000  1
  Ru  Ru15  1  0.720271  0.428341  0.500000  1
  Ru  Ru16  1  0.218613  0.069856  0.500000  1
  Ru  Ru17  1  0.781387  0.930144  0.500000  1
  Ru  Ru18  1  0.500000  0.000000  0.500000  1
  Ru  Ru19  1  0.000000  0.500000  0.500000  1
