# generated using pymatgen
data_YbDy3(MgPt)4
_symmetry_space_group_name_H-M   'P 1'
_cell_length_a   4.19730300
_cell_length_b   7.12752547
_cell_length_c   8.63480938
_cell_angle_alpha   89.76039950
_cell_angle_beta   90.00000000
_cell_angle_gamma   90.00000000
_symmetry_Int_Tables_number   1
_chemical_formula_structural   YbDy3(MgPt)4
_chemical_formula_sum   'Yb1 Dy3 Mg4 Pt4'
_cell_volume   258.32001492
_cell_formula_units_Z   1
loop_
 _symmetry_equiv_pos_site_id
 _symmetry_equiv_pos_as_xyz
  1  'x, y, z'
loop_
 _atom_site_type_symbol
 _atom_site_label
 _atom_site_symmetry_multiplicity
 _atom_site_fract_x
 _atom_site_fract_y
 _atom_site_fract_z
 _atom_site_occupancy
  Yb  Yb0  1  0.750000  0.461752  0.823565  1
  Dy  Dy1  1  0.250000  0.039609  0.325493  1
  Dy  Dy2  1  0.250000  0.538394  0.174204  1
  Dy  Dy3  1  0.750000  0.958869  0.675671  1
  Mg  Mg4  1  0.250000  0.634105  0.562397  1
  Mg  Mg5  1  0.250000  0.138772  0.938379  1
  Mg  Mg6  1  0.750000  0.364649  0.439156  1
  Mg  Mg7  1  0.750000  0.864967  0.060770  1
  Pt  Pt8  1  0.250000  0.242433  0.620126  1
  Pt  Pt9  1  0.250000  0.757982  0.874246  1
  Pt  Pt10  1  0.750000  0.750639  0.374861  1
  Pt  Pt11  1  0.750000  0.247828  0.131131  1
