# generated using pymatgen
data_ZrSc3(Fe3Si)2
_symmetry_space_group_name_H-M   'P 1'
_cell_length_a   4.98914700
_cell_length_b   4.98914758
_cell_length_c   7.92031900
_cell_angle_alpha   90.00000000
_cell_angle_beta   90.00000000
_cell_angle_gamma   119.99998954
_symmetry_Int_Tables_number   1
_chemical_formula_structural   ZrSc3(Fe3Si)2
_chemical_formula_sum   'Zr1 Sc3 Fe6 Si2'
_cell_volume   170.73635346
_cell_formula_units_Z   1
loop_
 _symmetry_equiv_pos_site_id
 _symmetry_equiv_pos_as_xyz
  1  'x, y, z'
loop_
 _atom_site_type_symbol
 _atom_site_label
 _atom_site_symmetry_multiplicity
 _atom_site_fract_x
 _atom_site_fract_y
 _atom_site_fract_z
 _atom_site_occupancy
  Zr  Zr0  1  0.333333  0.666667  0.064454  1
  Sc  Sc1  1  0.666667  0.333333  0.934462  1
  Sc  Sc2  1  0.333333  0.666667  0.440151  1
  Sc  Sc3  1  0.666667  0.333333  0.562155  1
  Fe  Fe4  1  0.171131  0.828869  0.750321  1
  Fe  Fe5  1  0.657739  0.828869  0.750321  1
  Fe  Fe6  1  0.828311  0.171689  0.249461  1
  Fe  Fe7  1  0.171131  0.342261  0.750321  1
  Fe  Fe8  1  0.828311  0.656622  0.249461  1
  Fe  Fe9  1  0.343378  0.171689  0.249461  1
  Si  Si10  1  0.000000  0.000000  0.499681  1
  Si  Si11  1  0.000000  0.000000  0.999748  1
