# generated using pymatgen
data_MnCr2(BiO4)2
_symmetry_space_group_name_H-M   'P 1'
_cell_length_a   6.49587205
_cell_length_b   6.49587319
_cell_length_c   5.22235173
_cell_angle_alpha   71.86110169
_cell_angle_beta   71.86110330
_cell_angle_gamma   55.58598786
_symmetry_Int_Tables_number   1
_chemical_formula_structural   MnCr2(BiO4)2
_chemical_formula_sum   'Mn1 Cr2 Bi2 O8'
_cell_volume   170.16565262
_cell_formula_units_Z   1
loop_
 _symmetry_equiv_pos_site_id
 _symmetry_equiv_pos_as_xyz
  1  'x, y, z'
loop_
 _atom_site_type_symbol
 _atom_site_label
 _atom_site_symmetry_multiplicity
 _atom_site_fract_x
 _atom_site_fract_y
 _atom_site_fract_z
 _atom_site_occupancy
  Mn  Mn0  1  0.748591  0.251409  0.000000  1
  Cr  Cr1  1  0.998982  0.001018  0.500000  1
  Cr  Cr2  1  0.253412  0.746588  0.000000  1
  Bi  Bi3  1  0.710324  0.708902  0.336090  1
  Bi  Bi4  1  0.291098  0.289676  0.663910  1
  O  O5  1  0.409547  0.389868  0.945232  1
  O  O6  1  0.610132  0.590453  0.054768  1
  O  O7  1  0.899394  0.915069  0.907004  1
  O  O8  1  0.084931  0.100606  0.092996  1
  O  O9  1  0.332179  0.882791  0.598364  1
  O  O10  1  0.875634  0.331432  0.612497  1
  O  O11  1  0.117209  0.667821  0.401636  1
  O  O12  1  0.668568  0.124366  0.387503  1
