# generated using pymatgen
data_Mn24ZnMo4
_symmetry_space_group_name_H-M   'P 1'
_cell_length_a   7.59505861
_cell_length_b   7.59505777
_cell_length_c   7.59505800
_cell_angle_alpha   109.47122124
_cell_angle_beta   109.47121901
_cell_angle_gamma   109.47121695
_symmetry_Int_Tables_number   1
_chemical_formula_structural   Mn24ZnMo4
_chemical_formula_sum   'Mn24 Zn1 Mo4'
_cell_volume   337.26512906
_cell_formula_units_Z   1
loop_
 _symmetry_equiv_pos_site_id
 _symmetry_equiv_pos_as_xyz
  1  'x, y, z'
loop_
 _atom_site_type_symbol
 _atom_site_label
 _atom_site_symmetry_multiplicity
 _atom_site_fract_x
 _atom_site_fract_y
 _atom_site_fract_z
 _atom_site_occupancy
  Mn  Mn0  1  0.326137  0.326137  0.716368  1
  Mn  Mn1  1  0.390231  0.673863  0.000000  1
  Mn  Mn2  1  0.673863  0.390231  0.000000  1
  Mn  Mn3  1  0.609769  0.283632  0.609769  1
  Mn  Mn4  1  0.390231  0.000000  0.673863  1
  Mn  Mn5  1  0.000000  0.390231  0.673863  1
  Mn  Mn6  1  0.283632  0.609769  0.609769  1
  Mn  Mn7  1  0.716368  0.326137  0.326137  1
  Mn  Mn8  1  0.326137  0.716368  0.326137  1
  Mn  Mn9  1  0.673863  0.000000  0.390231  1
  Mn  Mn10  1  0.000000  0.673863  0.390231  1
  Mn  Mn11  1  0.609769  0.609769  0.283632  1
  Mn  Mn12  1  0.804806  0.804806  0.178781  1
  Mn  Mn13  1  0.373975  0.195194  0.000000  1
  Mn  Mn14  1  0.195194  0.373975  0.000000  1
  Mn  Mn15  1  0.626025  0.821219  0.626025  1
  Mn  Mn16  1  0.373975  0.000000  0.195194  1
  Mn  Mn17  1  0.000000  0.373975  0.195194  1
  Mn  Mn18  1  0.821219  0.626025  0.626025  1
  Mn  Mn19  1  0.178781  0.804806  0.804806  1
  Mn  Mn20  1  0.804806  0.178781  0.804806  1
  Mn  Mn21  1  0.195194  0.000000  0.373975  1
  Mn  Mn22  1  0.000000  0.195194  0.373975  1
  Mn  Mn23  1  0.626025  0.626025  0.821219  1
  Zn  Zn24  1  0.000000  0.000000  0.000000  1
  Mo  Mo25  1  0.000000  0.000000  0.631619  1
  Mo  Mo26  1  0.631619  0.000000  0.000000  1
  Mo  Mo27  1  0.000000  0.631619  0.000000  1
  Mo  Mo28  1  0.368381  0.368381  0.368381  1
