# generated using pymatgen
data_Tm2Si4Tc7W
_symmetry_space_group_name_H-M   'P 1'
_cell_length_a   7.02457305
_cell_length_b   7.65249040
_cell_length_c   4.18282500
_cell_angle_alpha   90.00000000
_cell_angle_beta   90.00000000
_cell_angle_gamma   89.85720454
_symmetry_Int_Tables_number   1
_chemical_formula_structural   Tm2Si4Tc7W
_chemical_formula_sum   'Tm2 Si4 Tc7 W1'
_cell_volume   224.84905820
_cell_formula_units_Z   1
loop_
 _symmetry_equiv_pos_site_id
 _symmetry_equiv_pos_as_xyz
  1  'x, y, z'
loop_
 _atom_site_type_symbol
 _atom_site_label
 _atom_site_symmetry_multiplicity
 _atom_site_fract_x
 _atom_site_fract_y
 _atom_site_fract_z
 _atom_site_occupancy
  Tm  Tm0  1  0.500450  0.497559  0.500000  1
  Tm  Tm1  1  0.999246  0.999212  0.000000  1
  Si  Si2  1  0.778817  0.196160  0.500000  1
  Si  Si3  1  0.224228  0.806070  0.500000  1
  Si  Si4  1  0.276027  0.306281  0.000000  1
  Si  Si5  1  0.725379  0.689423  0.000000  1
  Tc  Tc6  1  0.341613  0.108732  0.500000  1
  Tc  Tc7  1  0.154189  0.607268  0.000000  1
  Tc  Tc8  1  0.849140  0.391345  0.000000  1
  Tc  Tc9  1  0.914830  0.658046  0.500000  1
  Tc  Tc10  1  0.085024  0.343799  0.500000  1
  Tc  Tc11  1  0.585065  0.162621  0.000000  1
  Tc  Tc12  1  0.417810  0.840970  0.000000  1
  W  W13  1  0.648182  0.892515  0.500000  1
