# generated using pymatgen
data_YHo2Cd3Sn2Au
_symmetry_space_group_name_H-M   'P 1'
_cell_length_a   7.48436800
_cell_length_b   7.48728895
_cell_length_c   4.53637500
_cell_angle_alpha   90.00000000
_cell_angle_beta   90.00000000
_cell_angle_gamma   119.98708690
_symmetry_Int_Tables_number   1
_chemical_formula_structural   YHo2Cd3Sn2Au
_chemical_formula_sum   'Y1 Ho2 Cd3 Sn2 Au1'
_cell_volume   220.17895351
_cell_formula_units_Z   1
loop_
 _symmetry_equiv_pos_site_id
 _symmetry_equiv_pos_as_xyz
  1  'x, y, z'
loop_
 _atom_site_type_symbol
 _atom_site_label
 _atom_site_symmetry_multiplicity
 _atom_site_fract_x
 _atom_site_fract_y
 _atom_site_fract_z
 _atom_site_occupancy
  Y  Y0  1  0.592808  0.000000  0.000000  1
  Ho  Ho1  1  0.999940  0.593626  0.000000  1
  Ho  Ho2  1  0.406315  0.406374  0.000000  1
  Cd  Cd3  1  0.240271  0.000000  0.500000  1
  Cd  Cd4  1  0.000110  0.240299  0.500000  1
  Cd  Cd5  1  0.759811  0.759701  0.500000  1
  Sn  Sn6  1  0.332694  0.665842  0.500000  1
  Sn  Sn7  1  0.666853  0.334158  0.500000  1
  Au  Au8  1  0.001197  0.000000  0.000000  1
