# generated using pymatgen
data_SmCd3(Os2O7)2
_symmetry_space_group_name_H-M   'P 1'
_cell_length_a   7.27267226
_cell_length_b   7.34215206
_cell_length_c   7.27267200
_cell_angle_alpha   60.31254866
_cell_angle_beta   60.00000116
_cell_angle_gamma   60.31255346
_symmetry_Int_Tables_number   1
_chemical_formula_structural   SmCd3(Os2O7)2
_chemical_formula_sum   'Sm1 Cd3 Os4 O14'
_cell_volume   275.88749906
_cell_formula_units_Z   1
loop_
 _symmetry_equiv_pos_site_id
 _symmetry_equiv_pos_as_xyz
  1  'x, y, z'
loop_
 _atom_site_type_symbol
 _atom_site_label
 _atom_site_symmetry_multiplicity
 _atom_site_fract_x
 _atom_site_fract_y
 _atom_site_fract_z
 _atom_site_occupancy
  Sm  Sm0  1  0.125000  0.625000  0.125000  1
  Cd  Cd1  1  0.125000  0.125000  0.125000  1
  Cd  Cd2  1  0.625000  0.125000  0.125000  1
  Cd  Cd3  1  0.125000  0.125000  0.625000  1
  Os  Os4  1  0.625000  0.625000  0.625000  1
  Os  Os5  1  0.125000  0.625000  0.625000  1
  Os  Os6  1  0.625000  0.125000  0.625000  1
  Os  Os7  1  0.625000  0.625000  0.125000  1
  O  O8  1  0.253399  0.239802  0.253399  1
  O  O9  1  0.996601  0.010198  0.996601  1
  O  O10  1  0.560517  0.937900  0.560517  1
  O  O11  1  0.301016  0.695845  0.301016  1
  O  O12  1  0.547877  0.554155  0.948984  1
  O  O13  1  0.948984  0.554155  0.547877  1
  O  O14  1  0.560517  0.937900  0.941066  1
  O  O15  1  0.941066  0.937900  0.560517  1
  O  O16  1  0.948984  0.554155  0.948984  1
  O  O17  1  0.689483  0.312100  0.308934  1
  O  O18  1  0.301016  0.695845  0.702123  1
  O  O19  1  0.689483  0.312100  0.689483  1
  O  O20  1  0.308934  0.312100  0.689483  1
  O  O21  1  0.702123  0.695845  0.301016  1
