# generated using pymatgen
data_Yb10Cd2Cu3Rh
_symmetry_space_group_name_H-M   'P 1'
_cell_length_a   9.06693115
_cell_length_b   9.06693133
_cell_length_c   9.02558438
_cell_angle_alpha   129.28790183
_cell_angle_beta   129.28790892
_cell_angle_gamma   74.89077885
_symmetry_Int_Tables_number   1
_chemical_formula_structural   Yb10Cd2Cu3Rh
_chemical_formula_sum   'Yb10 Cd2 Cu3 Rh1'
_cell_volume   432.11285313
_cell_formula_units_Z   1
loop_
 _symmetry_equiv_pos_site_id
 _symmetry_equiv_pos_as_xyz
  1  'x, y, z'
loop_
 _atom_site_type_symbol
 _atom_site_label
 _atom_site_symmetry_multiplicity
 _atom_site_fract_x
 _atom_site_fract_y
 _atom_site_fract_z
 _atom_site_occupancy
  Yb  Yb0  1  0.494797  0.501423  0.996220  1
  Yb  Yb1  1  0.001423  0.994797  0.996220  1
  Yb  Yb2  1  0.532125  0.032125  0.833748  1
  Yb  Yb3  1  0.192194  0.692194  0.149584  1
  Yb  Yb4  1  0.033497  0.207313  0.507242  1
  Yb  Yb5  1  0.707313  0.533497  0.507242  1
  Yb  Yb6  1  0.457391  0.957391  0.149584  1
  Yb  Yb7  1  0.801622  0.301622  0.833748  1
  Yb  Yb8  1  0.973745  0.799929  0.507242  1
  Yb  Yb9  1  0.299929  0.473745  0.507242  1
  Cd  Cd10  1  0.251328  0.251328  0.002656  1
  Cd  Cd11  1  0.751328  0.751328  0.002656  1
  Cu  Cu12  1  0.879353  0.379353  0.258705  1
  Cu  Cu13  1  0.616170  0.882408  0.498577  1
  Cu  Cu14  1  0.382408  0.116170  0.498577  1
  Rh  Rh15  1  0.125379  0.625379  0.750759  1
