# generated using pymatgen
data_Ho4PdPt2Pb2Au
_symmetry_space_group_name_H-M   'P 1'
_cell_length_a   8.06078164
_cell_length_b   8.06078165
_cell_length_c   3.55348000
_cell_angle_alpha   90.00000000
_cell_angle_beta   90.00000000
_cell_angle_gamma   90.77682950
_symmetry_Int_Tables_number   1
_chemical_formula_structural   Ho4PdPt2Pb2Au
_chemical_formula_sum   'Ho4 Pd1 Pt2 Pb2 Au1'
_cell_volume   230.87040822
_cell_formula_units_Z   1
loop_
 _symmetry_equiv_pos_site_id
 _symmetry_equiv_pos_as_xyz
  1  'x, y, z'
loop_
 _atom_site_type_symbol
 _atom_site_label
 _atom_site_symmetry_multiplicity
 _atom_site_fract_x
 _atom_site_fract_y
 _atom_site_fract_z
 _atom_site_occupancy
  Ho  Ho0  1  0.680070  0.170985  0.500000  1
  Ho  Ho1  1  0.158318  0.341682  0.500000  1
  Ho  Ho2  1  0.835302  0.664698  0.500000  1
  Ho  Ho3  1  0.329015  0.819930  0.500000  1
  Pd  Pd4  1  0.626895  0.873105  0.000000  1
  Pt  Pt5  1  0.125867  0.628389  0.000000  1
  Pt  Pt6  1  0.871611  0.374133  0.000000  1
  Pb  Pb7  1  0.994742  0.998300  0.000000  1
  Pb  Pb8  1  0.501700  0.505258  0.000000  1
  Au  Au9  1  0.376480  0.123520  0.000000  1
