# generated using pymatgen
data_Na6Hf2ThCl18
_symmetry_space_group_name_H-M   'P 1'
_cell_length_a   11.90825200
_cell_length_b   11.90825259
_cell_length_c   6.21717400
_cell_angle_alpha   90.00000000
_cell_angle_beta   90.00000000
_cell_angle_gamma   119.99999282
_symmetry_Int_Tables_number   1
_chemical_formula_structural   Na6Hf2ThCl18
_chemical_formula_sum   'Na6 Hf2 Th1 Cl18'
_cell_volume   763.51880803
_cell_formula_units_Z   1
loop_
 _symmetry_equiv_pos_site_id
 _symmetry_equiv_pos_as_xyz
  1  'x, y, z'
loop_
 _atom_site_type_symbol
 _atom_site_label
 _atom_site_symmetry_multiplicity
 _atom_site_fract_x
 _atom_site_fract_y
 _atom_site_fract_z
 _atom_site_occupancy
  Na  Na0  1  0.664729  0.004021  0.998820  1
  Na  Na1  1  0.339293  0.004021  0.998820  1
  Na  Na2  1  0.995979  0.660707  0.998820  1
  Na  Na3  1  0.664729  0.660707  0.998820  1
  Na  Na4  1  0.339293  0.335271  0.998820  1
  Na  Na5  1  0.995979  0.335271  0.998820  1
  Hf  Hf6  1  0.666667  0.333333  0.503541  1
  Hf  Hf7  1  0.000000  0.000000  0.000816  1
  Th  Th8  1  0.333333  0.666667  0.497103  1
  Cl  Cl9  1  0.568340  0.136683  0.734939  1
  Cl  Cl10  1  0.765413  0.234587  0.280549  1
  Cl  Cl11  1  0.802571  0.901285  0.225111  1
  Cl  Cl12  1  0.440485  0.559515  0.246026  1
  Cl  Cl13  1  0.765413  0.530827  0.280549  1
  Cl  Cl14  1  0.098715  0.197429  0.225111  1
  Cl  Cl15  1  0.225277  0.774723  0.739779  1
  Cl  Cl16  1  0.568340  0.431660  0.734939  1
  Cl  Cl17  1  0.225277  0.450552  0.739779  1
  Cl  Cl18  1  0.119031  0.559515  0.246026  1
  Cl  Cl19  1  0.197556  0.098778  0.775466  1
  Cl  Cl20  1  0.098715  0.901285  0.225111  1
  Cl  Cl21  1  0.549448  0.774723  0.739779  1
  Cl  Cl22  1  0.440485  0.880969  0.246026  1
  Cl  Cl23  1  0.901222  0.098778  0.775466  1
  Cl  Cl24  1  0.863317  0.431660  0.734939  1
  Cl  Cl25  1  0.469173  0.234587  0.280549  1
  Cl  Cl26  1  0.901222  0.802444  0.775466  1
