# generated using pymatgen
data_Sm2Ni(PN2)7
_symmetry_space_group_name_H-M   'P 1'
_cell_length_a   7.84589849
_cell_length_b   7.50068139
_cell_length_c   5.22323700
_cell_angle_alpha   79.80967224
_cell_angle_beta   80.27531058
_cell_angle_gamma   69.71176593
_symmetry_Int_Tables_number   1
_chemical_formula_structural   Sm2Ni(PN2)7
_chemical_formula_sum   'Sm2 Ni1 P7 N14'
_cell_volume   281.83417472
_cell_formula_units_Z   1
loop_
 _symmetry_equiv_pos_site_id
 _symmetry_equiv_pos_as_xyz
  1  'x, y, z'
loop_
 _atom_site_type_symbol
 _atom_site_label
 _atom_site_symmetry_multiplicity
 _atom_site_fract_x
 _atom_site_fract_y
 _atom_site_fract_z
 _atom_site_occupancy
  Sm  Sm0  1  0.810708  0.212159  0.263015  1
  Sm  Sm1  1  0.206042  0.743251  0.750072  1
  Ni  Ni2  1  0.297229  0.485150  0.246907  1
  P  P3  1  0.556754  0.682983  0.214234  1
  P  P4  1  0.106580  0.256059  0.709676  1
  P  P5  1  0.731861  0.924395  0.798280  1
  P  P6  1  0.888694  0.766772  0.293694  1
  P  P7  1  0.270749  0.083291  0.200283  1
  P  P8  1  0.443154  0.299505  0.800830  1
  P  P9  1  0.699438  0.541737  0.717894  1
  N  N10  1  0.247929  0.383576  0.665196  1
  N  N11  1  0.643251  0.737760  0.891154  1
  N  N12  1  0.731292  0.649883  0.402992  1
  N  N13  1  0.397356  0.221739  0.109436  1
  N  N14  1  0.885375  0.375087  0.797487  1
  N  N15  1  0.605177  0.125224  0.659219  1
  N  N16  1  0.072126  0.645436  0.153186  1
  N  N17  1  0.383542  0.860887  0.309937  1
  N  N18  1  0.902732  0.852710  0.562615  1
  N  N19  1  0.158618  0.078780  0.956153  1
  N  N20  1  0.548951  0.476858  0.235525  1
  N  N21  1  0.517410  0.485222  0.742331  1
  N  N22  1  0.786445  0.949005  0.075375  1
  N  N23  1  0.108587  0.162531  0.444506  1
