# generated using pymatgen
data_Pr5Dy3(Si3Ir)4
_symmetry_space_group_name_H-M   'P 1'
_cell_length_a   8.25210500
_cell_length_b   8.25210426
_cell_length_c   8.28126700
_cell_angle_alpha   90.00000000
_cell_angle_beta   90.00000000
_cell_angle_gamma   119.99999895
_symmetry_Int_Tables_number   1
_chemical_formula_structural   Pr5Dy3(Si3Ir)4
_chemical_formula_sum   'Pr5 Dy3 Si12 Ir4'
_cell_volume   488.37888066
_cell_formula_units_Z   1
loop_
 _symmetry_equiv_pos_site_id
 _symmetry_equiv_pos_as_xyz
  1  'x, y, z'
loop_
 _atom_site_type_symbol
 _atom_site_label
 _atom_site_symmetry_multiplicity
 _atom_site_fract_x
 _atom_site_fract_y
 _atom_site_fract_z
 _atom_site_occupancy
  Pr  Pr0  1  0.000000  0.000000  0.250000  1
  Pr  Pr1  1  0.000000  0.000000  0.750000  1
  Pr  Pr2  1  0.505416  0.494584  0.250000  1
  Pr  Pr3  1  0.505416  0.010834  0.250000  1
  Pr  Pr4  1  0.989166  0.494584  0.250000  1
  Dy  Dy5  1  0.491579  0.508421  0.750000  1
  Dy  Dy6  1  0.491579  0.983155  0.750000  1
  Dy  Dy7  1  0.016845  0.508421  0.750000  1
  Si  Si8  1  0.167011  0.832989  0.507755  1
  Si  Si9  1  0.167011  0.334023  0.507755  1
  Si  Si10  1  0.665977  0.832989  0.507755  1
  Si  Si11  1  0.831357  0.168643  0.506039  1
  Si  Si12  1  0.831357  0.662714  0.506039  1
  Si  Si13  1  0.337286  0.168643  0.506039  1
  Si  Si14  1  0.831357  0.168643  0.993961  1
  Si  Si15  1  0.831357  0.662714  0.993961  1
  Si  Si16  1  0.337286  0.168643  0.993961  1
  Si  Si17  1  0.167011  0.832989  0.992245  1
  Si  Si18  1  0.167011  0.334023  0.992245  1
  Si  Si19  1  0.665977  0.832989  0.992245  1
  Ir  Ir20  1  0.333333  0.666667  0.491574  1
  Ir  Ir21  1  0.666667  0.333333  0.546735  1
  Ir  Ir22  1  0.666667  0.333333  0.953265  1
  Ir  Ir23  1  0.333333  0.666667  0.008426  1
