# generated using pymatgen
data_In11Hg(IrRu)2
_symmetry_space_group_name_H-M   'P 1'
_cell_length_a   7.13061097
_cell_length_b   7.13490139
_cell_length_c   7.29979000
_cell_angle_alpha   90.00000000
_cell_angle_beta   90.00000000
_cell_angle_gamma   90.46030577
_symmetry_Int_Tables_number   1
_chemical_formula_structural   In11Hg(IrRu)2
_chemical_formula_sum   'In11 Hg1 Ir2 Ru2'
_cell_volume   371.37363560
_cell_formula_units_Z   1
loop_
 _symmetry_equiv_pos_site_id
 _symmetry_equiv_pos_as_xyz
  1  'x, y, z'
loop_
 _atom_site_type_symbol
 _atom_site_label
 _atom_site_symmetry_multiplicity
 _atom_site_fract_x
 _atom_site_fract_y
 _atom_site_fract_z
 _atom_site_occupancy
  In  In0  1  0.344229  0.343048  0.258675  1
  In  In1  1  0.152710  0.841077  0.765118  1
  In  In2  1  0.152710  0.841077  0.234882  1
  In  In3  1  0.848559  0.163564  0.237063  1
  In  In4  1  0.848559  0.163564  0.762937  1
  In  In5  1  0.497695  0.001121  0.000000  1
  In  In6  1  0.657369  0.651390  0.259964  1
  In  In7  1  0.657369  0.651390  0.740036  1
  In  In8  1  0.998381  0.499340  0.500000  1
  In  In9  1  0.344229  0.343048  0.741325  1
  In  In10  1  0.503122  0.001741  0.500000  1
  Hg  Hg11  1  0.004627  0.499069  0.000000  1
  Ir  Ir12  1  0.341808  0.656641  0.500000  1
  Ir  Ir13  1  0.838012  0.852216  0.000000  1
  Ru  Ru14  1  0.156586  0.144696  0.000000  1
  Ru  Ru15  1  0.654037  0.347017  0.500000  1
