# generated using pymatgen
data_Tb2YbPt2
_symmetry_space_group_name_H-M   'P 1'
_cell_length_a   7.49524770
_cell_length_b   7.49524795
_cell_length_c   7.49524884
_cell_angle_alpha   71.17564511
_cell_angle_beta   71.17565057
_cell_angle_gamma   71.17564713
_symmetry_Int_Tables_number   1
_chemical_formula_structural   Tb2YbPt2
_chemical_formula_sum   'Tb6 Yb3 Pt6'
_cell_volume   365.83641873
_cell_formula_units_Z   3
loop_
 _symmetry_equiv_pos_site_id
 _symmetry_equiv_pos_as_xyz
  1  'x, y, z'
loop_
 _atom_site_type_symbol
 _atom_site_label
 _atom_site_symmetry_multiplicity
 _atom_site_fract_x
 _atom_site_fract_y
 _atom_site_fract_z
 _atom_site_occupancy
  Tb  Tb0  1  0.333358  0.601609  0.843209  1
  Tb  Tb1  1  0.843209  0.333358  0.601609  1
  Tb  Tb2  1  0.601609  0.843209  0.333358  1
  Tb  Tb3  1  0.666642  0.398391  0.156791  1
  Tb  Tb4  1  0.156791  0.666642  0.398391  1
  Tb  Tb5  1  0.398391  0.156791  0.666642  1
  Yb  Yb6  1  0.000000  0.000000  0.000000  1
  Yb  Yb7  1  0.802911  0.802911  0.802911  1
  Yb  Yb8  1  0.197089  0.197089  0.197089  1
  Pt  Pt9  1  0.175819  0.951798  0.583665  1
  Pt  Pt10  1  0.583665  0.175819  0.951798  1
  Pt  Pt11  1  0.951798  0.583665  0.175819  1
  Pt  Pt12  1  0.824181  0.048202  0.416335  1
  Pt  Pt13  1  0.416335  0.824181  0.048202  1
  Pt  Pt14  1  0.048202  0.416335  0.824181  1
