# generated using pymatgen
data_HoCu2Ni2Ag
_symmetry_space_group_name_H-M   'P 1'
_cell_length_a   4.99066123
_cell_length_b   4.99066091
_cell_length_c   5.04068100
_cell_angle_alpha   59.66789956
_cell_angle_beta   59.66790173
_cell_angle_gamma   59.66000886
_symmetry_Int_Tables_number   1
_chemical_formula_structural   HoCu2Ni2Ag
_chemical_formula_sum   'Ho1 Cu2 Ni2 Ag1'
_cell_volume   88.09980362
_cell_formula_units_Z   1
loop_
 _symmetry_equiv_pos_site_id
 _symmetry_equiv_pos_as_xyz
  1  'x, y, z'
loop_
 _atom_site_type_symbol
 _atom_site_label
 _atom_site_symmetry_multiplicity
 _atom_site_fract_x
 _atom_site_fract_y
 _atom_site_fract_z
 _atom_site_occupancy
  Ho  Ho0  1  0.253389  0.253389  0.246611  1
  Cu  Cu1  1  0.624977  0.121793  0.626616  1
  Cu  Cu2  1  0.121793  0.624977  0.626616  1
  Ni  Ni3  1  0.624570  0.624570  0.626408  1
  Ni  Ni4  1  0.624570  0.624570  0.124452  1
  Ag  Ag5  1  0.000702  0.000702  0.999298  1
