# generated using pymatgen
data_Cs6Cu(SiO4)2
_symmetry_space_group_name_H-M   'P 1'
_cell_length_a   7.01099898
_cell_length_b   7.19850925
_cell_length_c   8.15168351
_cell_angle_alpha   86.90780101
_cell_angle_beta   88.81305814
_cell_angle_gamma   69.37551369
_symmetry_Int_Tables_number   1
_chemical_formula_structural   Cs6Cu(SiO4)2
_chemical_formula_sum   'Cs6 Cu1 Si2 O8'
_cell_volume   384.47661574
_cell_formula_units_Z   1
loop_
 _symmetry_equiv_pos_site_id
 _symmetry_equiv_pos_as_xyz
  1  'x, y, z'
loop_
 _atom_site_type_symbol
 _atom_site_label
 _atom_site_symmetry_multiplicity
 _atom_site_fract_x
 _atom_site_fract_y
 _atom_site_fract_z
 _atom_site_occupancy
  Cs  Cs0  1  0.201245  0.701602  0.010576  1
  Cs  Cs1  1  0.717727  0.205095  0.476682  1
  Cs  Cs2  1  0.798755  0.298398  0.989424  1
  Cs  Cs3  1  0.659537  0.830483  0.166678  1
  Cs  Cs4  1  0.340463  0.169517  0.833322  1
  Cs  Cs5  1  0.282273  0.794905  0.523318  1
  Cu  Cu6  1  0.000000  0.500000  0.500000  1
  Si  Si7  1  0.776758  0.739276  0.724048  1
  Si  Si8  1  0.223242  0.260724  0.275952  1
  O  O9  1  0.011033  0.466529  0.258007  1
  O  O10  1  0.758751  0.751983  0.516726  1
  O  O11  1  0.988967  0.533471  0.741993  1
  O  O12  1  0.422527  0.295155  0.187702  1
  O  O13  1  0.814643  0.934488  0.792692  1
  O  O14  1  0.241249  0.248017  0.483274  1
  O  O15  1  0.577473  0.704845  0.812298  1
  O  O16  1  0.185357  0.065512  0.207308  1
