# generated using pymatgen
data_Ca2CrTcC3
_symmetry_space_group_name_H-M   'P 1'
_cell_length_a   5.61051161
_cell_length_b   5.61051144
_cell_length_c   5.68054821
_cell_angle_alpha   74.69144997
_cell_angle_beta   74.69145035
_cell_angle_gamma   37.29226450
_symmetry_Int_Tables_number   1
_chemical_formula_structural   Ca2CrTcC3
_chemical_formula_sum   'Ca2 Cr1 Tc1 C3'
_cell_volume   104.04766391
_cell_formula_units_Z   1
loop_
 _symmetry_equiv_pos_site_id
 _symmetry_equiv_pos_as_xyz
  1  'x, y, z'
loop_
 _atom_site_type_symbol
 _atom_site_label
 _atom_site_symmetry_multiplicity
 _atom_site_fract_x
 _atom_site_fract_y
 _atom_site_fract_z
 _atom_site_occupancy
  Ca  Ca0  1  0.607919  0.607919  0.178938  1
  Ca  Ca1  1  0.408993  0.408993  0.820303  1
  Cr  Cr2  1  0.156725  0.156725  0.595774  1
  Tc  Tc3  1  0.843009  0.843009  0.406495  1
  C  C4  1  0.003295  0.003295  0.502571  1
  C  C5  1  0.299806  0.299806  0.287208  1
  C  C6  1  0.680255  0.680255  0.708712  1
