# generated using pymatgen
data_Pr2Sc2IrPt
_symmetry_space_group_name_H-M   'P 1'
_cell_length_a   4.56857500
_cell_length_b   7.20229500
_cell_length_c   8.71027500
_cell_angle_alpha   90.00000000
_cell_angle_beta   90.00000000
_cell_angle_gamma   90.00000000
_symmetry_Int_Tables_number   1
_chemical_formula_structural   Pr2Sc2IrPt
_chemical_formula_sum   'Pr4 Sc4 Ir2 Pt2'
_cell_volume   286.60484736
_cell_formula_units_Z   2
loop_
 _symmetry_equiv_pos_site_id
 _symmetry_equiv_pos_as_xyz
  1  'x, y, z'
loop_
 _atom_site_type_symbol
 _atom_site_label
 _atom_site_symmetry_multiplicity
 _atom_site_fract_x
 _atom_site_fract_y
 _atom_site_fract_z
 _atom_site_occupancy
  Pr  Pr0  1  0.250000  0.019129  0.679097  1
  Pr  Pr1  1  0.250000  0.519129  0.820903  1
  Pr  Pr2  1  0.750000  0.985309  0.321241  1
  Pr  Pr3  1  0.750000  0.485309  0.178759  1
  Sc  Sc4  1  0.250000  0.133282  0.072822  1
  Sc  Sc5  1  0.250000  0.633282  0.427178  1
  Sc  Sc6  1  0.750000  0.861995  0.933462  1
  Sc  Sc7  1  0.750000  0.361995  0.566538  1
  Ir  Ir8  1  0.250000  0.264457  0.409843  1
  Ir  Ir9  1  0.250000  0.764457  0.090157  1
  Pt  Pt10  1  0.750000  0.735828  0.595294  1
  Pt  Pt11  1  0.750000  0.235828  0.904706  1
