# generated using pymatgen
data_Zr10BeTl4GaPb2
_symmetry_space_group_name_H-M   'P 1'
_cell_length_a   8.81034899
_cell_length_b   8.81034993
_cell_length_c   5.88602364
_cell_angle_alpha   89.97345623
_cell_angle_beta   89.97342348
_cell_angle_gamma   120.04741633
_symmetry_Int_Tables_number   1
_chemical_formula_structural   Zr10BeTl4GaPb2
_chemical_formula_sum   'Zr10 Be1 Tl4 Ga1 Pb2'
_cell_volume   395.48590784
_cell_formula_units_Z   1
loop_
 _symmetry_equiv_pos_site_id
 _symmetry_equiv_pos_as_xyz
  1  'x, y, z'
loop_
 _atom_site_type_symbol
 _atom_site_label
 _atom_site_symmetry_multiplicity
 _atom_site_fract_x
 _atom_site_fract_y
 _atom_site_fract_z
 _atom_site_occupancy
  Zr  Zr0  1  0.666783  0.334036  0.998262  1
  Zr  Zr1  1  0.334034  0.666784  0.998263  1
  Zr  Zr2  1  0.333926  0.666568  0.501921  1
  Zr  Zr3  1  0.666569  0.333928  0.501927  1
  Zr  Zr4  1  0.746611  0.746610  0.763727  1
  Zr  Zr5  1  0.252282  0.999972  0.761391  1
  Zr  Zr6  1  0.999980  0.252284  0.761393  1
  Zr  Zr7  1  0.251669  0.251679  0.236735  1
  Zr  Zr8  1  0.748234  0.999860  0.237305  1
  Zr  Zr9  1  0.999876  0.748243  0.237307  1
  Be  Be10  1  0.999676  0.999676  0.998307  1
  Tl  Tl11  1  0.387914  0.387918  0.745380  1
  Tl  Tl12  1  0.613229  0.999899  0.745845  1
  Tl  Tl13  1  0.999914  0.613236  0.745845  1
  Tl  Tl14  1  0.612040  0.612044  0.254969  1
  Ga  Ga15  1  0.999007  0.999007  0.501351  1
  Pb  Pb16  1  0.387885  0.000380  0.255038  1
  Pb  Pb17  1  0.000371  0.387876  0.255034  1
