# generated using pymatgen
data_Rb2CaFe3F12
_symmetry_space_group_name_H-M   'P 1'
_cell_length_a   7.46417148
_cell_length_b   7.63187014
_cell_length_c   10.40274800
_cell_angle_alpha   90.41928656
_cell_angle_beta   87.67293948
_cell_angle_gamma   88.81767895
_symmetry_Int_Tables_number   1
_chemical_formula_structural   Rb2CaFe3F12
_chemical_formula_sum   'Rb4 Ca2 Fe6 F24'
_cell_volume   591.96416139
_cell_formula_units_Z   2
loop_
 _symmetry_equiv_pos_site_id
 _symmetry_equiv_pos_as_xyz
  1  'x, y, z'
loop_
 _atom_site_type_symbol
 _atom_site_label
 _atom_site_symmetry_multiplicity
 _atom_site_fract_x
 _atom_site_fract_y
 _atom_site_fract_z
 _atom_site_occupancy
  Rb  Rb0  1  0.519082  0.752223  0.606113  1
  Rb  Rb1  1  0.480918  0.247777  0.393887  1
  Rb  Rb2  1  0.020399  0.270034  0.131678  1
  Rb  Rb3  1  0.979601  0.729966  0.868322  1
  Ca  Ca4  1  0.711342  0.242207  0.745816  1
  Ca  Ca5  1  0.288658  0.757793  0.254184  1
  Fe  Fe6  1  0.802037  0.746725  0.220372  1
  Fe  Fe7  1  0.197963  0.253275  0.779628  1
  Fe  Fe8  1  0.000000  0.500000  0.500000  1
  Fe  Fe9  1  0.000000  0.000000  0.500000  1
  Fe  Fe10  1  0.500000  0.000000  0.000000  1
  Fe  Fe11  1  0.500000  0.500000  0.000000  1
  F  F12  1  0.046862  0.726307  0.133042  1
  F  F13  1  0.953138  0.273693  0.866958  1
  F  F14  1  0.571477  0.760990  0.321903  1
  F  F15  1  0.428523  0.239010  0.678097  1
  F  F16  1  0.770404  0.437590  0.579832  1
  F  F17  1  0.229596  0.562410  0.420168  1
  F  F18  1  0.755288  0.064532  0.557971  1
  F  F19  1  0.244712  0.935468  0.442029  1
  F  F20  1  0.635472  0.965694  0.835806  1
  F  F21  1  0.364528  0.034306  0.164194  1
  F  F22  1  0.624442  0.525661  0.833855  1
  F  F23  1  0.375558  0.474339  0.166145  1
  F  F24  1  0.574503  0.247919  0.982873  1
  F  F25  1  0.425497  0.752081  0.017127  1
  F  F26  1  0.278746  0.452114  0.914969  1
  F  F27  1  0.721254  0.547886  0.085031  1
  F  F28  1  0.281472  0.050732  0.910415  1
  F  F29  1  0.718528  0.949268  0.089585  1
  F  F30  1  0.070574  0.046021  0.673961  1
  F  F31  1  0.929426  0.953979  0.326039  1
  F  F32  1  0.945508  0.751501  0.550435  1
  F  F33  1  0.054492  0.248499  0.449565  1
  F  F34  1  0.112755  0.470995  0.663112  1
  F  F35  1  0.887245  0.529005  0.336888  1
