# generated using pymatgen
data_Co2Ni(PO4)2
_symmetry_space_group_name_H-M   'P 1'
_cell_length_a   5.08713486
_cell_length_b   7.69459178
_cell_length_c   8.38422129
_cell_angle_alpha   89.99625109
_cell_angle_beta   89.99818796
_cell_angle_gamma   94.51794998
_symmetry_Int_Tables_number   1
_chemical_formula_structural   Co2Ni(PO4)2
_chemical_formula_sum   'Co4 Ni2 P4 O16'
_cell_volume   327.16737135
_cell_formula_units_Z   2
loop_
 _symmetry_equiv_pos_site_id
 _symmetry_equiv_pos_as_xyz
  1  'x, y, z'
loop_
 _atom_site_type_symbol
 _atom_site_label
 _atom_site_symmetry_multiplicity
 _atom_site_fract_x
 _atom_site_fract_y
 _atom_site_fract_z
 _atom_site_occupancy
  Co  Co0  1  0.908463  0.385270  0.858350  1
  Co  Co1  1  0.091534  0.614730  0.141661  1
  Co  Co2  1  0.408678  0.885239  0.641643  1
  Co  Co3  1  0.591315  0.114777  0.358348  1
  Ni  Ni4  1  0.000001  0.500017  0.499966  1
  Ni  Ni5  1  0.500055  0.999962  0.999993  1
  P  P6  1  0.463928  0.299912  0.692900  1
  P  P7  1  0.964129  0.799958  0.807077  1
  P  P8  1  0.536072  0.700095  0.307097  1
  P  P9  1  0.035865  0.200037  0.192932  1
  O  O10  1  0.450121  0.140644  0.578040  1
  O  O11  1  0.950470  0.640666  0.921975  1
  O  O12  1  0.549857  0.859370  0.421945  1
  O  O13  1  0.049505  0.359336  0.078045  1
  O  O14  1  0.553338  0.241316  0.862279  1
  O  O15  1  0.053513  0.741345  0.637712  1
  O  O16  1  0.446680  0.758670  0.137704  1
  O  O17  1  0.946522  0.258642  0.362313  1
  O  O18  1  0.190595  0.375470  0.693530  1
  O  O19  1  0.690748  0.875439  0.806456  1
  O  O20  1  0.809412  0.624535  0.306484  1
  O  O21  1  0.309237  0.124554  0.193532  1
  O  O22  1  0.679492  0.441136  0.640769  1
  O  O23  1  0.179628  0.941186  0.859184  1
  O  O24  1  0.320503  0.558876  0.359229  1
  O  O25  1  0.820341  0.058817  0.140837  1
