# generated using pymatgen
data_Tm14Lu2MgCo4Ag3
_symmetry_space_group_name_H-M   'P 1'
_cell_length_a   9.30329323
_cell_length_b   9.31336472
_cell_length_c   9.31278200
_cell_angle_alpha   60.00208200
_cell_angle_beta   59.96639383
_cell_angle_gamma   59.96836038
_symmetry_Int_Tables_number   1
_chemical_formula_structural   Tm14Lu2MgCo4Ag3
_chemical_formula_sum   'Tm14 Lu2 Mg1 Co4 Ag3'
_cell_volume   570.29591462
_cell_formula_units_Z   1
loop_
 _symmetry_equiv_pos_site_id
 _symmetry_equiv_pos_as_xyz
  1  'x, y, z'
loop_
 _atom_site_type_symbol
 _atom_site_label
 _atom_site_symmetry_multiplicity
 _atom_site_fract_x
 _atom_site_fract_y
 _atom_site_fract_z
 _atom_site_occupancy
  Tm  Tm0  1  0.346448  0.962791  0.345393  1
  Tm  Tm1  1  0.952808  0.349087  0.349066  1
  Tm  Tm2  1  0.809692  0.189112  0.189160  1
  Tm  Tm3  1  0.185754  0.813713  0.813774  1
  Tm  Tm4  1  0.185757  0.813695  0.186762  1
  Tm  Tm5  1  0.809711  0.189109  0.812023  1
  Tm  Tm6  1  0.185809  0.186767  0.813695  1
  Tm  Tm7  1  0.809766  0.812023  0.189105  1
  Tm  Tm8  1  0.935070  0.562717  0.562720  1
  Tm  Tm9  1  0.561839  0.937261  0.937210  1
  Tm  Tm10  1  0.561834  0.937262  0.563692  1
  Tm  Tm11  1  0.935069  0.562721  0.939489  1
  Tm  Tm12  1  0.561791  0.563651  0.937279  1
  Tm  Tm13  1  0.935003  0.939475  0.562762  1
  Lu  Lu14  1  0.346445  0.345334  0.345326  1
  Lu  Lu15  1  0.346453  0.345346  0.962887  1
  Mg  Mg16  1  0.287533  0.570775  0.570845  1
  Co  Co17  1  0.138875  0.142582  0.142377  1
  Co  Co18  1  0.138873  0.142584  0.576167  1
  Co  Co19  1  0.138969  0.576076  0.142478  1
  Co  Co20  1  0.575889  0.141490  0.141311  1
  Ag  Ag21  1  0.583546  0.582876  0.582927  1
  Ag  Ag22  1  0.583545  0.582876  0.250651  1
  Ag  Ag23  1  0.583523  0.250677  0.582900  1
