# generated using pymatgen
data_La14Ni5Ir
_symmetry_space_group_name_H-M   'P 1'
_cell_length_a   10.13607181
_cell_length_b   10.10573455
_cell_length_c   6.50864728
_cell_angle_alpha   89.99999851
_cell_angle_beta   90.30822453
_cell_angle_gamma   119.90104164
_symmetry_Int_Tables_number   1
_chemical_formula_structural   La14Ni5Ir
_chemical_formula_sum   'La14 Ni5 Ir1'
_cell_volume   577.94002614
_cell_formula_units_Z   1
loop_
 _symmetry_equiv_pos_site_id
 _symmetry_equiv_pos_as_xyz
  1  'x, y, z'
loop_
 _atom_site_type_symbol
 _atom_site_label
 _atom_site_symmetry_multiplicity
 _atom_site_fract_x
 _atom_site_fract_y
 _atom_site_fract_z
 _atom_site_occupancy
  La  La0  1  0.460543  0.538672  0.313886  1
  La  La1  1  0.331764  0.665882  0.778274  1
  La  La2  1  0.873335  0.126337  0.497903  1
  La  La3  1  0.745469  0.872735  0.999174  1
  La  La4  1  0.873335  0.746998  0.497903  1
  La  La5  1  0.076363  0.538182  0.316593  1
  La  La6  1  0.126107  0.873992  0.000495  1
  La  La7  1  0.542028  0.078631  0.811902  1
  La  La8  1  0.922130  0.461065  0.812733  1
  La  La9  1  0.667647  0.333823  0.278057  1
  La  La10  1  0.460543  0.921872  0.313886  1
  La  La11  1  0.253235  0.126618  0.500918  1
  La  La12  1  0.542028  0.463396  0.811902  1
  La  La13  1  0.126107  0.252116  0.000495  1
  Ni  Ni14  1  0.185255  0.811273  0.549260  1
  Ni  Ni15  1  0.814086  0.626301  0.051764  1
  Ni  Ni16  1  0.185255  0.373982  0.549260  1
  Ni  Ni17  1  0.814086  0.187785  0.051764  1
  Ni  Ni18  1  0.626733  0.813366  0.553160  1
  Ir  Ir19  1  0.373950  0.186975  0.052674  1
