# generated using pymatgen
data_Sr(Cd2Ag)4
_symmetry_space_group_name_H-M   'P 1'
_cell_length_a   7.61892970
_cell_length_b   7.61892940
_cell_length_c   7.61893036
_cell_angle_alpha   98.58259957
_cell_angle_beta   98.58259730
_cell_angle_gamma   134.54987689
_symmetry_Int_Tables_number   1
_chemical_formula_structural   Sr(Cd2Ag)4
_chemical_formula_sum   'Sr1 Cd8 Ag4'
_cell_volume   290.70796634
_cell_formula_units_Z   1
loop_
 _symmetry_equiv_pos_site_id
 _symmetry_equiv_pos_as_xyz
  1  'x, y, z'
loop_
 _atom_site_type_symbol
 _atom_site_label
 _atom_site_symmetry_multiplicity
 _atom_site_fract_x
 _atom_site_fract_y
 _atom_site_fract_z
 _atom_site_occupancy
  Sr  Sr0  1  0.000000  0.000000  0.000000  1
  Cd  Cd1  1  0.000000  0.345850  0.345850  1
  Cd  Cd2  1  0.000000  0.654150  0.654150  1
  Cd  Cd3  1  0.654150  0.000000  0.654150  1
  Cd  Cd4  1  0.345850  0.000000  0.345850  1
  Cd  Cd5  1  0.500000  0.282528  0.782528  1
  Cd  Cd6  1  0.500000  0.717472  0.217472  1
  Cd  Cd7  1  0.717472  0.500000  0.217472  1
  Cd  Cd8  1  0.282528  0.500000  0.782528  1
  Ag  Ag9  1  0.000000  0.000000  0.500000  1
  Ag  Ag10  1  0.500000  0.500000  0.500000  1
  Ag  Ag11  1  0.500000  0.000000  0.000000  1
  Ag  Ag12  1  0.000000  0.500000  0.000000  1
