# generated using pymatgen
data_Tb4TmCo2
_symmetry_space_group_name_H-M   'P 1'
_cell_length_a   6.29099415
_cell_length_b   6.86963378
_cell_length_c   8.55337778
_cell_angle_alpha   96.09644441
_cell_angle_beta   111.57687561
_cell_angle_gamma   89.99999021
_symmetry_Int_Tables_number   1
_chemical_formula_structural   Tb4TmCo2
_chemical_formula_sum   'Tb8 Tm2 Co4'
_cell_volume   341.49754684
_cell_formula_units_Z   2
loop_
 _symmetry_equiv_pos_site_id
 _symmetry_equiv_pos_as_xyz
  1  'x, y, z'
loop_
 _atom_site_type_symbol
 _atom_site_label
 _atom_site_symmetry_multiplicity
 _atom_site_fract_x
 _atom_site_fract_y
 _atom_site_fract_z
 _atom_site_occupancy
  Tb  Tb0  1  0.981001  0.913495  0.186399  1
  Tb  Tb1  1  0.794601  0.586505  0.813601  1
  Tb  Tb2  1  0.018999  0.086505  0.813601  1
  Tb  Tb3  1  0.205399  0.413495  0.186399  1
  Tb  Tb4  1  0.648057  0.815770  0.430164  1
  Tb  Tb5  1  0.217895  0.684230  0.569836  1
  Tb  Tb6  1  0.351943  0.184230  0.569836  1
  Tb  Tb7  1  0.782105  0.315770  0.430164  1
  Tm  Tm8  1  0.431583  0.750000  0.000000  1
  Tm  Tm9  1  0.568417  0.250000  0.000000  1
  Co  Co10  1  0.820117  0.569629  0.218146  1
  Co  Co11  1  0.601971  0.930371  0.781854  1
  Co  Co12  1  0.179884  0.430371  0.781854  1
  Co  Co13  1  0.398029  0.069629  0.218146  1
