# generated using pymatgen
data_Pr17Dy3(Ga5Pb)2
_symmetry_space_group_name_H-M   'P 1'
_cell_length_a   7.97992200
_cell_length_b   7.97992200
_cell_length_c   14.67129600
_cell_angle_alpha   90.00000000
_cell_angle_beta   90.00000000
_cell_angle_gamma   90.00000000
_symmetry_Int_Tables_number   1
_chemical_formula_structural   Pr17Dy3(Ga5Pb)2
_chemical_formula_sum   'Pr17 Dy3 Ga10 Pb2'
_cell_volume   934.25573388
_cell_formula_units_Z   1
loop_
 _symmetry_equiv_pos_site_id
 _symmetry_equiv_pos_as_xyz
  1  'x, y, z'
loop_
 _atom_site_type_symbol
 _atom_site_label
 _atom_site_symmetry_multiplicity
 _atom_site_fract_x
 _atom_site_fract_y
 _atom_site_fract_z
 _atom_site_occupancy
  Pr  Pr0  1  0.819035  0.839828  0.610817  1
  Pr  Pr1  1  0.177229  0.836859  0.100206  1
  Pr  Pr2  1  0.161767  0.823182  0.388302  1
  Pr  Pr3  1  0.838233  0.176818  0.388302  1
  Pr  Pr4  1  0.676818  0.661767  0.388302  1
  Pr  Pr5  1  0.660172  0.319035  0.610817  1
  Pr  Pr6  1  0.339828  0.680965  0.610817  1
  Pr  Pr7  1  0.663141  0.677229  0.100206  1
  Pr  Pr8  1  0.683452  0.341518  0.899780  1
  Pr  Pr9  1  0.841518  0.816548  0.899780  1
  Pr  Pr10  1  0.323182  0.338233  0.388302  1
  Pr  Pr11  1  0.180965  0.160172  0.610817  1
  Pr  Pr12  1  0.822771  0.163141  0.100206  1
  Pr  Pr13  1  0.316548  0.658482  0.899780  1
  Pr  Pr14  1  0.336859  0.322771  0.100206  1
  Pr  Pr15  1  0.158482  0.183452  0.899780  1
  Pr  Pr16  1  0.500000  0.000000  0.795901  1
  Dy  Dy17  1  0.000000  0.500000  0.740468  1
  Dy  Dy18  1  0.000000  0.500000  0.218170  1
  Dy  Dy19  1  0.500000  0.000000  0.248736  1
  Ga  Ga20  1  0.623099  0.375203  0.245963  1
  Ga  Ga21  1  0.119146  0.874215  0.752541  1
  Ga  Ga22  1  0.374215  0.380854  0.752541  1
  Ga  Ga23  1  0.376901  0.624797  0.245963  1
  Ga  Ga24  1  0.875203  0.876901  0.245963  1
  Ga  Ga25  1  0.625785  0.619146  0.752541  1
  Ga  Ga26  1  0.880854  0.125785  0.752541  1
  Ga  Ga27  1  0.500000  0.000000  0.006424  1
  Ga  Ga28  1  0.124797  0.123099  0.245963  1
  Ga  Ga29  1  0.000000  0.500000  0.006266  1
  Pb  Pb30  1  0.000000  0.500000  0.509761  1
  Pb  Pb31  1  0.500000  0.000000  0.483837  1
