# generated using pymatgen
data_Dy3Y5(Si3Ir)4
_symmetry_space_group_name_H-M   'P 1'
_cell_length_a   8.18142900
_cell_length_b   8.18143018
_cell_length_c   7.95711300
_cell_angle_alpha   90.00000000
_cell_angle_beta   90.00000000
_cell_angle_gamma   119.99999120
_symmetry_Int_Tables_number   1
_chemical_formula_structural   Dy3Y5(Si3Ir)4
_chemical_formula_sum   'Dy3 Y5 Si12 Ir4'
_cell_volume   461.25872044
_cell_formula_units_Z   1
loop_
 _symmetry_equiv_pos_site_id
 _symmetry_equiv_pos_as_xyz
  1  'x, y, z'
loop_
 _atom_site_type_symbol
 _atom_site_label
 _atom_site_symmetry_multiplicity
 _atom_site_fract_x
 _atom_site_fract_y
 _atom_site_fract_z
 _atom_site_occupancy
  Dy  Dy0  1  0.490914  0.509086  0.750000  1
  Dy  Dy1  1  0.490914  0.981827  0.750000  1
  Dy  Dy2  1  0.018173  0.509086  0.750000  1
  Y  Y3  1  0.000000  0.000000  0.250000  1
  Y  Y4  1  0.000000  0.000000  0.750000  1
  Y  Y5  1  0.509155  0.490845  0.250000  1
  Y  Y6  1  0.509155  0.018313  0.250000  1
  Y  Y7  1  0.981687  0.490845  0.250000  1
  Si  Si8  1  0.166883  0.833117  0.499996  1
  Si  Si9  1  0.166883  0.333766  0.499996  1
  Si  Si10  1  0.666234  0.833117  0.499996  1
  Si  Si11  1  0.833066  0.166934  0.500726  1
  Si  Si12  1  0.833066  0.666129  0.500726  1
  Si  Si13  1  0.333871  0.166934  0.500726  1
  Si  Si14  1  0.833066  0.166934  0.999274  1
  Si  Si15  1  0.833066  0.666129  0.999274  1
  Si  Si16  1  0.333871  0.166934  0.999274  1
  Si  Si17  1  0.166883  0.833117  0.000004  1
  Si  Si18  1  0.166883  0.333766  0.000004  1
  Si  Si19  1  0.666234  0.833117  0.000004  1
  Ir  Ir20  1  0.333333  0.666667  0.468043  1
  Ir  Ir21  1  0.666667  0.333333  0.534303  1
  Ir  Ir22  1  0.666667  0.333333  0.965697  1
  Ir  Ir23  1  0.333333  0.666667  0.031957  1
