# generated using pymatgen
data_Tb11Pr5Cd4RuPt3
_symmetry_space_group_name_H-M   'P 1'
_cell_length_a   9.82155897
_cell_length_b   9.83488258
_cell_length_c   9.83762995
_cell_angle_alpha   59.99533047
_cell_angle_beta   59.70558585
_cell_angle_gamma   59.63366166
_symmetry_Int_Tables_number   1
_chemical_formula_structural   Tb11Pr5Cd4RuPt3
_chemical_formula_sum   'Tb11 Pr5 Cd4 Ru1 Pt3'
_cell_volume   668.53280324
_cell_formula_units_Z   1
loop_
 _symmetry_equiv_pos_site_id
 _symmetry_equiv_pos_as_xyz
  1  'x, y, z'
loop_
 _atom_site_type_symbol
 _atom_site_label
 _atom_site_symmetry_multiplicity
 _atom_site_fract_x
 _atom_site_fract_y
 _atom_site_fract_z
 _atom_site_occupancy
  Tb  Tb0  1  0.353026  0.350677  0.350316  1
  Tb  Tb1  1  0.347720  0.350788  0.950962  1
  Tb  Tb2  1  0.347317  0.951436  0.350607  1
  Tb  Tb3  1  0.951331  0.348422  0.348538  1
  Tb  Tb4  1  0.818521  0.186255  0.186533  1
  Tb  Tb5  1  0.184948  0.811938  0.812141  1
  Tb  Tb6  1  0.185002  0.816855  0.189315  1
  Tb  Tb7  1  0.811181  0.186496  0.811408  1
  Tb  Tb8  1  0.185159  0.189219  0.816826  1
  Tb  Tb9  1  0.811286  0.811264  0.186834  1
  Tb  Tb10  1  0.941473  0.558508  0.558343  1
  Pr  Pr11  1  0.555743  0.940245  0.940633  1
  Pr  Pr12  1  0.564578  0.937953  0.562146  1
  Pr  Pr13  1  0.939452  0.556197  0.937651  1
  Pr  Pr14  1  0.564695  0.562416  0.937905  1
  Pr  Pr15  1  0.939826  0.937481  0.556020  1
  Cd  Cd16  1  0.582871  0.578696  0.578740  1
  Cd  Cd17  1  0.578589  0.580104  0.260171  1
  Cd  Cd18  1  0.578608  0.260089  0.580210  1
  Cd  Cd19  1  0.257780  0.578864  0.578946  1
  Ru  Ru20  1  0.142506  0.143283  0.143077  1
  Pt  Pt21  1  0.143221  0.146599  0.572409  1
  Pt  Pt22  1  0.143236  0.572275  0.146407  1
  Pt  Pt23  1  0.571929  0.143940  0.143860  1
