# generated using pymatgen
data_HoEr3Cr4F28
_symmetry_space_group_name_H-M   'P 1'
_cell_length_a   5.47071765
_cell_length_b   8.69639497
_cell_length_c   11.62384300
_cell_angle_alpha   63.22335337
_cell_angle_beta   90.02797385
_cell_angle_gamma   89.99709998
_symmetry_Int_Tables_number   1
_chemical_formula_structural   HoEr3Cr4F28
_chemical_formula_sum   'Ho1 Er3 Cr4 F28'
_cell_volume   493.71074049
_cell_formula_units_Z   1
loop_
 _symmetry_equiv_pos_site_id
 _symmetry_equiv_pos_as_xyz
  1  'x, y, z'
loop_
 _atom_site_type_symbol
 _atom_site_label
 _atom_site_symmetry_multiplicity
 _atom_site_fract_x
 _atom_site_fract_y
 _atom_site_fract_z
 _atom_site_occupancy
  Ho  Ho0  1  0.733161  0.809972  0.265953  1
  Er  Er1  1  0.767156  0.809917  0.765814  1
  Er  Er2  1  0.267171  0.190412  0.734097  1
  Er  Er3  1  0.232524  0.191189  0.233898  1
  Cr  Cr4  1  0.758166  0.274329  0.955589  1
  Cr  Cr5  1  0.258153  0.726083  0.544650  1
  Cr  Cr6  1  0.242492  0.726239  0.043298  1
  Cr  Cr7  1  0.741836  0.273121  0.456391  1
  F  F8  1  0.433678  0.705385  0.921624  1
  F  F9  1  0.934233  0.293911  0.577774  1
  F  F10  1  0.566051  0.294697  0.077235  1
  F  F11  1  0.066400  0.705493  0.422842  1
  F  F12  1  0.451856  0.279345  0.544917  1
  F  F13  1  0.951614  0.720176  0.955098  1
  F  F14  1  0.548383  0.719744  0.456381  1
  F  F15  1  0.048463  0.280192  0.044370  1
  F  F16  1  0.770081  0.510688  0.861673  1
  F  F17  1  0.269397  0.489395  0.638634  1
  F  F18  1  0.229977  0.489504  0.137398  1
  F  F19  1  0.729342  0.509581  0.362252  1
  F  F20  1  0.755401  0.039254  0.045717  1
  F  F21  1  0.255138  0.960858  0.454507  1
  F  F22  1  0.244938  0.961082  0.953607  1
  F  F23  1  0.744739  0.038232  0.546166  1
  F  F24  1  0.975871  0.728043  0.638691  1
  F  F25  1  0.476340  0.272044  0.861415  1
  F  F26  1  0.024179  0.271863  0.362009  1
  F  F27  1  0.525118  0.727746  0.137232  1
  F  F28  1  0.052130  0.745161  0.169367  1
  F  F29  1  0.550174  0.253825  0.330628  1
  F  F30  1  0.949795  0.254612  0.830178  1
  F  F31  1  0.449072  0.745404  0.670422  1
  F  F32  1  0.412488  0.975356  0.227836  1
  F  F33  1  0.913605  0.026916  0.272292  1
  F  F34  1  0.585416  0.025109  0.772063  1
  F  F35  1  0.085461  0.975123  0.727981  1
