# generated using pymatgen
data_NdNp(SbSe)2
_symmetry_space_group_name_H-M   'P 1'
_cell_length_a   4.20980700
_cell_length_b   4.21270900
_cell_length_c   18.04123000
_cell_angle_alpha   90.00000000
_cell_angle_beta   90.00000000
_cell_angle_gamma   90.00000000
_symmetry_Int_Tables_number   1
_chemical_formula_structural   NdNp(SbSe)2
_chemical_formula_sum   'Nd2 Np2 Sb4 Se4'
_cell_volume   319.95565441
_cell_formula_units_Z   2
loop_
 _symmetry_equiv_pos_site_id
 _symmetry_equiv_pos_as_xyz
  1  'x, y, z'
loop_
 _atom_site_type_symbol
 _atom_site_label
 _atom_site_symmetry_multiplicity
 _atom_site_fract_x
 _atom_site_fract_y
 _atom_site_fract_z
 _atom_site_occupancy
  Nd  Nd0  1  0.250000  0.763069  0.146762  1
  Nd  Nd1  1  0.250000  0.736931  0.646762  1
  Np  Np2  1  0.750000  0.236502  0.852283  1
  Np  Np3  1  0.750000  0.263498  0.352283  1
  Sb  Sb4  1  0.250000  0.247660  0.498635  1
  Sb  Sb5  1  0.250000  0.252340  0.998635  1
  Sb  Sb6  1  0.750000  0.751936  0.497755  1
  Sb  Sb7  1  0.750000  0.748064  0.997755  1
  Se  Se8  1  0.750000  0.235797  0.687152  1
  Se  Se9  1  0.750000  0.264203  0.187152  1
  Se  Se10  1  0.250000  0.764539  0.317413  1
  Se  Se11  1  0.250000  0.735461  0.817413  1
