# generated using pymatgen
data_Eu3Al9CuPd5
_symmetry_space_group_name_H-M   'P 1'
_cell_length_a   4.23808600
_cell_length_b   9.46440950
_cell_length_c   9.57168280
_cell_angle_alpha   119.62718612
_cell_angle_beta   90.00000000
_cell_angle_gamma   90.00000000
_symmetry_Int_Tables_number   1
_chemical_formula_structural   Eu3Al9CuPd5
_chemical_formula_sum   'Eu3 Al9 Cu1 Pd5'
_cell_volume   333.73481362
_cell_formula_units_Z   1
loop_
 _symmetry_equiv_pos_site_id
 _symmetry_equiv_pos_as_xyz
  1  'x, y, z'
loop_
 _atom_site_type_symbol
 _atom_site_label
 _atom_site_symmetry_multiplicity
 _atom_site_fract_x
 _atom_site_fract_y
 _atom_site_fract_z
 _atom_site_occupancy
  Eu  Eu0  1  0.500000  0.332296  0.664578  1
  Eu  Eu1  1  0.500000  0.666032  0.332090  1
  Eu  Eu2  1  0.000000  0.000154  0.000326  1
  Al  Al3  1  0.500000  0.302792  0.000005  1
  Al  Al4  1  0.500000  0.698419  0.698343  1
  Al  Al5  1  0.500000  0.004170  0.303367  1
  Al  Al6  1  0.500000  0.697170  0.999949  1
  Al  Al7  1  0.500000  0.299196  0.303354  1
  Al  Al8  1  0.500000  0.999874  0.698320  1
  Al  Al9  1  0.000000  0.499813  0.999623  1
  Al  Al10  1  0.000000  0.496807  0.498686  1
  Al  Al11  1  0.000000  0.001869  0.498671  1
  Cu  Cu12  1  0.000000  0.185435  0.370911  1
  Pd  Pd13  1  0.000000  0.183810  0.814324  1
  Pd  Pd14  1  0.000000  0.630523  0.814335  1
  Pd  Pd15  1  0.000000  0.815827  0.631653  1
  Pd  Pd16  1  0.000000  0.367967  0.185735  1
  Pd  Pd17  1  0.000000  0.817748  0.185732  1
