# generated using pymatgen
data_Hf2Sc2Al7Tc
_symmetry_space_group_name_H-M   'P 1'
_cell_length_a   5.32183500
_cell_length_b   5.32183572
_cell_length_c   8.63334300
_cell_angle_alpha   90.00000000
_cell_angle_beta   90.00000000
_cell_angle_gamma   119.99997689
_symmetry_Int_Tables_number   1
_chemical_formula_structural   Hf2Sc2Al7Tc
_chemical_formula_sum   'Hf2 Sc2 Al7 Tc1'
_cell_volume   211.75447542
_cell_formula_units_Z   1
loop_
 _symmetry_equiv_pos_site_id
 _symmetry_equiv_pos_as_xyz
  1  'x, y, z'
loop_
 _atom_site_type_symbol
 _atom_site_label
 _atom_site_symmetry_multiplicity
 _atom_site_fract_x
 _atom_site_fract_y
 _atom_site_fract_z
 _atom_site_occupancy
  Hf  Hf0  1  0.666667  0.333333  0.938033  1
  Hf  Hf1  1  0.333333  0.666667  0.061967  1
  Sc  Sc2  1  0.333333  0.666667  0.444642  1
  Sc  Sc3  1  0.666667  0.333333  0.555358  1
  Al  Al4  1  0.000000  0.000000  0.500000  1
  Al  Al5  1  0.830257  0.169743  0.240641  1
  Al  Al6  1  0.830257  0.660515  0.240641  1
  Al  Al7  1  0.339485  0.169743  0.240641  1
  Al  Al8  1  0.169743  0.830257  0.759359  1
  Al  Al9  1  0.169743  0.339485  0.759359  1
  Al  Al10  1  0.660515  0.830257  0.759359  1
  Tc  Tc11  1  0.000000  0.000000  0.000000  1
