# generated using pymatgen
data_Lu16In6IrPd
_symmetry_space_group_name_H-M   'P 1'
_cell_length_a   10.24944900
_cell_length_b   10.24944857
_cell_length_c   6.87956600
_cell_angle_alpha   90.00000000
_cell_angle_beta   90.00000000
_cell_angle_gamma   119.99999816
_symmetry_Int_Tables_number   1
_chemical_formula_structural   Lu16In6IrPd
_chemical_formula_sum   'Lu16 In6 Ir1 Pd1'
_cell_volume   625.88234421
_cell_formula_units_Z   1
loop_
 _symmetry_equiv_pos_site_id
 _symmetry_equiv_pos_as_xyz
  1  'x, y, z'
loop_
 _atom_site_type_symbol
 _atom_site_label
 _atom_site_symmetry_multiplicity
 _atom_site_fract_x
 _atom_site_fract_y
 _atom_site_fract_z
 _atom_site_occupancy
  Lu  Lu0  1  0.529888  0.059775  0.526650  1
  Lu  Lu1  1  0.940225  0.470112  0.526650  1
  Lu  Lu2  1  0.529888  0.470112  0.526650  1
  Lu  Lu3  1  0.467173  0.934348  0.024107  1
  Lu  Lu4  1  0.065652  0.532827  0.024107  1
  Lu  Lu5  1  0.467173  0.532827  0.024107  1
  Lu  Lu6  1  0.177000  0.353999  0.730434  1
  Lu  Lu7  1  0.646001  0.823000  0.730434  1
  Lu  Lu8  1  0.177000  0.823000  0.730434  1
  Lu  Lu9  1  0.824701  0.649403  0.229739  1
  Lu  Lu10  1  0.350597  0.175299  0.229739  1
  Lu  Lu11  1  0.824701  0.175299  0.229739  1
  Lu  Lu12  1  0.666667  0.333333  0.899545  1
  Lu  Lu13  1  0.333333  0.666667  0.403165  1
  Lu  Lu14  1  0.000000  0.000000  0.505683  1
  Lu  Lu15  1  0.000000  0.000000  0.007385  1
  In  In16  1  0.837131  0.674260  0.768338  1
  In  In17  1  0.325740  0.162869  0.768338  1
  In  In18  1  0.837131  0.162869  0.768338  1
  In  In19  1  0.162714  0.325426  0.269707  1
  In  In20  1  0.674574  0.837286  0.269707  1
  In  In21  1  0.162714  0.837286  0.269707  1
  Ir  Ir22  1  0.333333  0.666667  0.798887  1
  Pd  Pd23  1  0.666667  0.333333  0.294090  1
