# generated using pymatgen
data_DyHo5(Er2Sn3)2
_symmetry_space_group_name_H-M   'P 1'
_cell_length_a   8.91949002
_cell_length_b   8.91842285
_cell_length_c   6.49683300
_cell_angle_alpha   90.00000000
_cell_angle_beta   90.00000000
_cell_angle_gamma   119.99603986
_symmetry_Int_Tables_number   1
_chemical_formula_structural   DyHo5(Er2Sn3)2
_chemical_formula_sum   'Dy1 Ho5 Er4 Sn6'
_cell_volume   447.58729278
_cell_formula_units_Z   1
loop_
 _symmetry_equiv_pos_site_id
 _symmetry_equiv_pos_as_xyz
  1  'x, y, z'
loop_
 _atom_site_type_symbol
 _atom_site_label
 _atom_site_symmetry_multiplicity
 _atom_site_fract_x
 _atom_site_fract_y
 _atom_site_fract_z
 _atom_site_occupancy
  Dy  Dy0  1  0.000000  0.761660  0.750000  1
  Ho  Ho1  1  0.000000  0.238329  0.250000  1
  Ho  Ho2  1  0.761635  0.761649  0.250000  1
  Ho  Ho3  1  0.761642  0.000018  0.750000  1
  Ho  Ho4  1  0.238358  0.238376  0.750000  1
  Ho  Ho5  1  0.238365  0.000014  0.250000  1
  Er  Er6  1  0.333341  0.666664  0.499994  1
  Er  Er7  1  0.666659  0.333322  0.000006  1
  Er  Er8  1  0.666659  0.333322  0.499994  1
  Er  Er9  1  0.333341  0.666664  0.000006  1
  Sn  Sn10  1  0.395356  0.000043  0.750000  1
  Sn  Sn11  1  0.395286  0.395285  0.250000  1
  Sn  Sn12  1  0.000000  0.604721  0.250000  1
  Sn  Sn13  1  0.000000  0.395248  0.750000  1
  Sn  Sn14  1  0.604644  0.604687  0.750000  1
  Sn  Sn15  1  0.604714  0.999998  0.250000  1
