# generated using pymatgen
data_DyTm(LuSb5)2
_symmetry_space_group_name_H-M   'P 1'
_cell_length_a   4.20541600
_cell_length_b   13.13908741
_cell_length_c   14.49144081
_cell_angle_alpha   78.57528611
_cell_angle_beta   90.00000000
_cell_angle_gamma   90.00000000
_symmetry_Int_Tables_number   1
_chemical_formula_structural   DyTm(LuSb5)2
_chemical_formula_sum   'Dy2 Tm2 Lu4 Sb20'
_cell_volume   784.86353123
_cell_formula_units_Z   2
loop_
 _symmetry_equiv_pos_site_id
 _symmetry_equiv_pos_as_xyz
  1  'x, y, z'
loop_
 _atom_site_type_symbol
 _atom_site_label
 _atom_site_symmetry_multiplicity
 _atom_site_fract_x
 _atom_site_fract_y
 _atom_site_fract_z
 _atom_site_occupancy
  Dy  Dy0  1  0.250000  0.953855  0.358625  1
  Dy  Dy1  1  0.750000  0.046145  0.641375  1
  Tm  Tm2  1  0.250000  0.668249  0.576172  1
  Tm  Tm3  1  0.750000  0.331751  0.423828  1
  Lu  Lu4  1  0.250000  0.395859  0.770750  1
  Lu  Lu5  1  0.750000  0.604141  0.229250  1
  Lu  Lu6  1  0.250000  0.661174  0.856176  1
  Lu  Lu7  1  0.750000  0.338826  0.143824  1
  Sb  Sb8  1  0.250000  0.145165  0.778656  1
  Sb  Sb9  1  0.750000  0.854835  0.221344  1
  Sb  Sb10  1  0.250000  0.145433  0.482578  1
  Sb  Sb11  1  0.750000  0.854567  0.517422  1
  Sb  Sb12  1  0.250000  0.154805  0.169719  1
  Sb  Sb13  1  0.750000  0.845195  0.830281  1
  Sb  Sb14  1  0.250000  0.420956  0.975284  1
  Sb  Sb15  1  0.750000  0.579044  0.024716  1
  Sb  Sb16  1  0.750000  0.028953  0.910852  1
  Sb  Sb17  1  0.250000  0.971047  0.089148  1
  Sb  Sb18  1  0.750000  0.141164  0.321753  1
  Sb  Sb19  1  0.250000  0.858836  0.678247  1
  Sb  Sb20  1  0.750000  0.279235  0.936549  1
  Sb  Sb21  1  0.250000  0.720765  0.063451  1
  Sb  Sb22  1  0.750000  0.285981  0.653520  1
  Sb  Sb23  1  0.250000  0.714019  0.346480  1
  Sb  Sb24  1  0.750000  0.576215  0.735245  1
  Sb  Sb25  1  0.250000  0.423785  0.264755  1
  Sb  Sb26  1  0.750000  0.571453  0.446669  1
  Sb  Sb27  1  0.250000  0.428547  0.553331  1
