# generated using pymatgen
data_Pr2Er3(TlPb)2
_symmetry_space_group_name_H-M   'P 1'
_cell_length_a   8.15347700
_cell_length_b   8.33837100
_cell_length_c   15.70048500
_cell_angle_alpha   90.00000000
_cell_angle_beta   90.00000000
_cell_angle_gamma   90.00000000
_symmetry_Int_Tables_number   1
_chemical_formula_structural   Pr2Er3(TlPb)2
_chemical_formula_sum   'Pr8 Er12 Tl8 Pb8'
_cell_volume   1067.42441736
_cell_formula_units_Z   4
loop_
 _symmetry_equiv_pos_site_id
 _symmetry_equiv_pos_as_xyz
  1  'x, y, z'
loop_
 _atom_site_type_symbol
 _atom_site_label
 _atom_site_symmetry_multiplicity
 _atom_site_fract_x
 _atom_site_fract_y
 _atom_site_fract_z
 _atom_site_occupancy
  Pr  Pr0  1  0.512735  0.318970  0.904543  1
  Pr  Pr1  1  0.012735  0.181030  0.595457  1
  Pr  Pr2  1  0.487265  0.681030  0.404543  1
  Pr  Pr3  1  0.987265  0.818970  0.095457  1
  Pr  Pr4  1  0.487265  0.681030  0.095457  1
  Pr  Pr5  1  0.987265  0.818970  0.404543  1
  Pr  Pr6  1  0.512735  0.318970  0.595457  1
  Pr  Pr7  1  0.012735  0.181030  0.904543  1
  Er  Er8  1  0.354745  0.839157  0.875116  1
  Er  Er9  1  0.854745  0.660843  0.624884  1
  Er  Er10  1  0.645255  0.160843  0.375116  1
  Er  Er11  1  0.145255  0.339157  0.124884  1
  Er  Er12  1  0.645255  0.160843  0.124884  1
  Er  Er13  1  0.145255  0.339157  0.375116  1
  Er  Er14  1  0.354745  0.839157  0.624884  1
  Er  Er15  1  0.854745  0.660843  0.875116  1
  Er  Er16  1  0.191872  0.502024  0.750000  1
  Er  Er17  1  0.691872  0.997976  0.750000  1
  Er  Er18  1  0.808128  0.497976  0.250000  1
  Er  Er19  1  0.308128  0.002024  0.250000  1
  Tl  Tl20  1  0.551684  0.621734  0.750000  1
  Tl  Tl21  1  0.051684  0.878266  0.750000  1
  Tl  Tl22  1  0.448316  0.378266  0.250000  1
  Tl  Tl23  1  0.948316  0.121734  0.250000  1
  Tl  Tl24  1  0.317370  0.140895  0.750000  1
  Tl  Tl25  1  0.817370  0.359105  0.750000  1
  Tl  Tl26  1  0.682630  0.859105  0.250000  1
  Tl  Tl27  1  0.182630  0.640895  0.250000  1
  Pb  Pb28  1  0.305463  0.042805  0.041463  1
  Pb  Pb29  1  0.805463  0.457195  0.458537  1
  Pb  Pb30  1  0.694537  0.957195  0.541463  1
  Pb  Pb31  1  0.194537  0.542805  0.958537  1
  Pb  Pb32  1  0.694537  0.957195  0.958537  1
  Pb  Pb33  1  0.194537  0.542805  0.541463  1
  Pb  Pb34  1  0.305463  0.042805  0.458537  1
  Pb  Pb35  1  0.805463  0.457195  0.041463  1
