# generated using pymatgen
data_La5Nd3(CdOs)2
_symmetry_space_group_name_H-M   'P 1'
_cell_length_a   10.05436618
_cell_length_b   10.05436681
_cell_length_c   10.05436600
_cell_angle_alpha   59.99999607
_cell_angle_beta   59.99999400
_cell_angle_gamma   59.99999997
_symmetry_Int_Tables_number   1
_chemical_formula_structural   La5Nd3(CdOs)2
_chemical_formula_sum   'La10 Nd6 Cd4 Os4'
_cell_volume   718.70238017
_cell_formula_units_Z   2
loop_
 _symmetry_equiv_pos_site_id
 _symmetry_equiv_pos_as_xyz
  1  'x, y, z'
loop_
 _atom_site_type_symbol
 _atom_site_label
 _atom_site_symmetry_multiplicity
 _atom_site_fract_x
 _atom_site_fract_y
 _atom_site_fract_z
 _atom_site_occupancy
  La  La0  1  0.345664  0.345664  0.345664  1
  La  La1  1  0.345664  0.345664  0.963008  1
  La  La2  1  0.345664  0.963008  0.345664  1
  La  La3  1  0.963008  0.345664  0.345664  1
  La  La4  1  0.810123  0.189877  0.189877  1
  La  La5  1  0.189877  0.810123  0.810123  1
  La  La6  1  0.189877  0.810123  0.189877  1
  La  La7  1  0.810123  0.189877  0.810123  1
  La  La8  1  0.189877  0.189877  0.810123  1
  La  La9  1  0.810123  0.810123  0.189877  1
  Nd  Nd10  1  0.938404  0.561596  0.561596  1
  Nd  Nd11  1  0.561596  0.938404  0.938404  1
  Nd  Nd12  1  0.561596  0.938404  0.561596  1
  Nd  Nd13  1  0.938404  0.561596  0.938404  1
  Nd  Nd14  1  0.561596  0.561596  0.938404  1
  Nd  Nd15  1  0.938404  0.938404  0.561596  1
  Cd  Cd16  1  0.579954  0.579954  0.579954  1
  Cd  Cd17  1  0.579954  0.579954  0.260137  1
  Cd  Cd18  1  0.579954  0.260137  0.579954  1
  Cd  Cd19  1  0.260137  0.579954  0.579954  1
  Os  Os20  1  0.137375  0.137375  0.137375  1
  Os  Os21  1  0.137375  0.137375  0.587873  1
  Os  Os22  1  0.137375  0.587873  0.137375  1
  Os  Os23  1  0.587873  0.137375  0.137375  1
