# generated using pymatgen
data_Dy12ZnNi4Hg
_symmetry_space_group_name_H-M   'P 1'
_cell_length_a   8.31608587
_cell_length_b   8.31451659
_cell_length_c   8.31608500
_cell_angle_alpha   112.48363820
_cell_angle_beta   109.42847175
_cell_angle_gamma   106.56341223
_symmetry_Int_Tables_number   1
_chemical_formula_structural   Dy12ZnNi4Hg
_chemical_formula_sum   'Dy12 Zn1 Ni4 Hg1'
_cell_volume   441.41783364
_cell_formula_units_Z   1
loop_
 _symmetry_equiv_pos_site_id
 _symmetry_equiv_pos_as_xyz
  1  'x, y, z'
loop_
 _atom_site_type_symbol
 _atom_site_label
 _atom_site_symmetry_multiplicity
 _atom_site_fract_x
 _atom_site_fract_y
 _atom_site_fract_z
 _atom_site_occupancy
  Dy  Dy0  1  0.428984  0.234278  0.194719  1
  Dy  Dy1  1  0.571016  0.765722  0.805281  1
  Dy  Dy2  1  0.039560  0.234278  0.805294  1
  Dy  Dy3  1  0.960440  0.765722  0.194706  1
  Dy  Dy4  1  0.178967  0.285166  0.464154  1
  Dy  Dy5  1  0.821033  0.714834  0.535846  1
  Dy  Dy6  1  0.178990  0.714834  0.893801  1
  Dy  Dy7  1  0.821010  0.285166  0.106199  1
  Dy  Dy8  1  0.324484  0.631840  0.307357  1
  Dy  Dy9  1  0.675516  0.368160  0.692643  1
  Dy  Dy10  1  0.324428  0.017050  0.692622  1
  Dy  Dy11  1  0.675572  0.982950  0.307378  1
  Zn  Zn12  1  0.000000  0.000000  0.000000  1
  Ni  Ni13  1  0.350589  0.000000  0.350589  1
  Ni  Ni14  1  0.649411  0.000000  0.649411  1
  Ni  Ni15  1  0.122372  0.622169  0.499797  1
  Ni  Ni16  1  0.877628  0.377831  0.500203  1
  Hg  Hg17  1  0.500000  0.500000  0.000000  1
