# generated using pymatgen
data_Tb5Dy3Er8(In3Co)2
_symmetry_space_group_name_H-M   'P 1'
_cell_length_a   10.32533726
_cell_length_b   10.32526269
_cell_length_c   7.04386608
_cell_angle_alpha   89.99564491
_cell_angle_beta   90.00415764
_cell_angle_gamma   120.00039207
_symmetry_Int_Tables_number   1
_chemical_formula_structural   Tb5Dy3Er8(In3Co)2
_chemical_formula_sum   'Tb5 Dy3 Er8 In6 Co2'
_cell_volume   650.34732788
_cell_formula_units_Z   1
loop_
 _symmetry_equiv_pos_site_id
 _symmetry_equiv_pos_as_xyz
  1  'x, y, z'
loop_
 _atom_site_type_symbol
 _atom_site_label
 _atom_site_symmetry_multiplicity
 _atom_site_fract_x
 _atom_site_fract_y
 _atom_site_fract_z
 _atom_site_occupancy
  Tb  Tb0  1  0.534994  0.070298  0.511859  1
  Tb  Tb1  1  0.929699  0.465006  0.511864  1
  Tb  Tb2  1  0.534891  0.465109  0.512350  1
  Tb  Tb3  1  0.465215  0.930115  0.011486  1
  Tb  Tb4  1  0.069887  0.534789  0.011482  1
  Dy  Dy5  1  0.333694  0.666307  0.403611  1
  Dy  Dy6  1  0.000087  0.999914  0.500669  1
  Dy  Dy7  1  0.999871  0.000133  0.001512  1
  Er  Er8  1  0.464854  0.535138  0.012471  1
  Er  Er9  1  0.178535  0.356238  0.720109  1
  Er  Er10  1  0.643764  0.821467  0.720122  1
  Er  Er11  1  0.177893  0.822124  0.719617  1
  Er  Er12  1  0.821005  0.643118  0.217894  1
  Er  Er13  1  0.356881  0.178997  0.217904  1
  Er  Er14  1  0.821731  0.178261  0.218527  1
  Er  Er15  1  0.666309  0.333684  0.905635  1
  In  In16  1  0.836886  0.673854  0.762759  1
  In  In17  1  0.326156  0.163118  0.762776  1
  In  In18  1  0.836927  0.163073  0.762424  1
  In  In19  1  0.163170  0.325477  0.261643  1
  In  In20  1  0.674518  0.836824  0.261645  1
  In  In21  1  0.162335  0.837654  0.262184  1
  Co  Co22  1  0.666626  0.333371  0.286555  1
  Co  Co23  1  0.334073  0.665929  0.787103  1
