# generated using pymatgen
data_DyLuMn12P7
_symmetry_space_group_name_H-M   'P 1'
_cell_length_a   9.27295800
_cell_length_b   9.27295833
_cell_length_c   3.58874700
_cell_angle_alpha   90.00000000
_cell_angle_beta   90.00000000
_cell_angle_gamma   120.00000596
_symmetry_Int_Tables_number   1
_chemical_formula_structural   DyLuMn12P7
_chemical_formula_sum   'Dy1 Lu1 Mn12 P7'
_cell_volume   267.24528335
_cell_formula_units_Z   1
loop_
 _symmetry_equiv_pos_site_id
 _symmetry_equiv_pos_as_xyz
  1  'x, y, z'
loop_
 _atom_site_type_symbol
 _atom_site_label
 _atom_site_symmetry_multiplicity
 _atom_site_fract_x
 _atom_site_fract_y
 _atom_site_fract_z
 _atom_site_occupancy
  Dy  Dy0  1  0.000000  0.000000  0.500000  1
  Lu  Lu1  1  0.666667  0.333333  0.000000  1
  Mn  Mn2  1  0.758399  0.714061  0.000000  1
  Mn  Mn3  1  0.285939  0.044339  0.000000  1
  Mn  Mn4  1  0.955661  0.241601  0.000000  1
  Mn  Mn5  1  0.490319  0.943860  0.000000  1
  Mn  Mn6  1  0.056140  0.546458  0.000000  1
  Mn  Mn7  1  0.453542  0.509681  0.000000  1
  Mn  Mn8  1  0.725417  0.104297  0.500000  1
  Mn  Mn9  1  0.895703  0.621121  0.500000  1
  Mn  Mn10  1  0.378879  0.274583  0.500000  1
  Mn  Mn11  1  0.558881  0.768012  0.500000  1
  Mn  Mn12  1  0.231988  0.790869  0.500000  1
  Mn  Mn13  1  0.209131  0.441119  0.500000  1
  P  P14  1  0.463007  0.077604  0.500000  1
  P  P15  1  0.922396  0.385403  0.500000  1
  P  P16  1  0.614597  0.536993  0.500000  1
  P  P17  1  0.743208  0.956223  0.000000  1
  P  P18  1  0.043777  0.786984  0.000000  1
  P  P19  1  0.213016  0.256792  0.000000  1
  P  P20  1  0.333333  0.666667  0.000000  1
