# generated using pymatgen
data_KRb3Al2S2(O4F3)2
_symmetry_space_group_name_H-M   'P 1'
_cell_length_a   6.96194000
_cell_length_b   8.47483800
_cell_length_c   11.12115000
_cell_angle_alpha   90.00000000
_cell_angle_beta   90.00000000
_cell_angle_gamma   90.00000000
_symmetry_Int_Tables_number   1
_chemical_formula_structural   KRb3Al2S2(O4F3)2
_chemical_formula_sum   'K2 Rb6 Al4 S4 O16 F12'
_cell_volume   656.16245947
_cell_formula_units_Z   2
loop_
 _symmetry_equiv_pos_site_id
 _symmetry_equiv_pos_as_xyz
  1  'x, y, z'
loop_
 _atom_site_type_symbol
 _atom_site_label
 _atom_site_symmetry_multiplicity
 _atom_site_fract_x
 _atom_site_fract_y
 _atom_site_fract_z
 _atom_site_occupancy
  K  K0  1  0.697909  0.676814  0.300594  1
  K  K1  1  0.197909  0.823186  0.199406  1
  Rb  Rb2  1  0.702819  0.179347  0.192490  1
  Rb  Rb3  1  0.202819  0.320653  0.307510  1
  Rb  Rb4  1  0.294516  0.316475  0.695021  1
  Rb  Rb5  1  0.794516  0.183525  0.804979  1
  Rb  Rb6  1  0.294490  0.818036  0.806396  1
  Rb  Rb7  1  0.794490  0.681964  0.693604  1
  Al  Al8  1  0.500639  0.500286  0.003297  1
  Al  Al9  1  0.000639  0.999714  0.496703  1
  Al  Al10  1  0.501146  0.998135  0.497409  1
  Al  Al11  1  0.001146  0.501865  0.002591  1
  S  S12  1  0.747875  0.307929  0.497838  1
  S  S13  1  0.247875  0.192071  0.002162  1
  S  S14  1  0.252204  0.692961  0.496879  1
  S  S15  1  0.752204  0.807039  0.003121  1
  O  O16  1  0.819499  0.406517  0.399485  1
  O  O17  1  0.319499  0.093483  0.100515  1
  O  O18  1  0.171168  0.102082  0.900694  1
  O  O19  1  0.671168  0.397918  0.599306  1
  O  O20  1  0.173645  0.596026  0.593952  1
  O  O21  1  0.673645  0.903974  0.906048  1
  O  O22  1  0.833603  0.897128  0.103160  1
  O  O23  1  0.333603  0.602872  0.396840  1
  O  O24  1  0.592359  0.201185  0.447080  1
  O  O25  1  0.092359  0.298815  0.052920  1
  O  O26  1  0.408527  0.296151  0.954654  1
  O  O27  1  0.908527  0.203849  0.545346  1
  O  O28  1  0.406653  0.797920  0.550772  1
  O  O29  1  0.906653  0.702080  0.949228  1
  O  O30  1  0.594714  0.702299  0.053812  1
  O  O31  1  0.094714  0.797701  0.446188  1
  F  F32  1  0.979270  0.047630  0.342094  1
  F  F33  1  0.479270  0.452370  0.157906  1
  F  F34  1  0.025971  0.452668  0.847761  1
  F  F35  1  0.525971  0.047332  0.652239  1
  F  F36  1  0.022548  0.952563  0.651713  1
  F  F37  1  0.522548  0.547437  0.848287  1
  F  F38  1  0.977800  0.554336  0.156815  1
  F  F39  1  0.477800  0.945664  0.343185  1
  F  F40  1  0.751401  0.417223  0.002446  1
  F  F41  1  0.251401  0.082777  0.497554  1
  F  F42  1  0.251244  0.585434  0.004052  1
  F  F43  1  0.751244  0.914566  0.495948  1
