# generated using pymatgen
data_Dy4Ho2Mn3(Co5P4)3
_symmetry_space_group_name_H-M   'P 1'
_cell_length_a   3.69710400
_cell_length_b   10.54748600
_cell_length_c   12.14850400
_cell_angle_alpha   90.00000000
_cell_angle_beta   90.00000000
_cell_angle_gamma   90.00000000
_symmetry_Int_Tables_number   1
_chemical_formula_structural   Dy4Ho2Mn3(Co5P4)3
_chemical_formula_sum   'Dy4 Ho2 Mn3 Co15 P12'
_cell_volume   473.73276832
_cell_formula_units_Z   1
loop_
 _symmetry_equiv_pos_site_id
 _symmetry_equiv_pos_as_xyz
  1  'x, y, z'
loop_
 _atom_site_type_symbol
 _atom_site_label
 _atom_site_symmetry_multiplicity
 _atom_site_fract_x
 _atom_site_fract_y
 _atom_site_fract_z
 _atom_site_occupancy
  Dy  Dy0  1  0.000000  0.500000  0.523717  1
  Dy  Dy1  1  0.500000  0.000000  0.476941  1
  Dy  Dy2  1  0.000000  0.680562  0.795793  1
  Dy  Dy3  1  0.000000  0.319438  0.795793  1
  Ho  Ho4  1  0.500000  0.818727  0.204840  1
  Ho  Ho5  1  0.500000  0.181273  0.204840  1
  Mn  Mn6  1  0.500000  0.500000  0.154870  1
  Mn  Mn7  1  0.000000  0.000000  0.841180  1
  Mn  Mn8  1  0.000000  0.500000  0.989084  1
  Co  Co9  1  0.500000  0.500000  0.699774  1
  Co  Co10  1  0.000000  0.000000  0.297531  1
  Co  Co11  1  0.500000  0.000000  0.013566  1
  Co  Co12  1  0.500000  0.330141  0.994666  1
  Co  Co13  1  0.500000  0.669859  0.994666  1
  Co  Co14  1  0.000000  0.164817  0.005272  1
  Co  Co15  1  0.000000  0.835183  0.005272  1
  Co  Co16  1  0.500000  0.295826  0.430304  1
  Co  Co17  1  0.500000  0.704174  0.430304  1
  Co  Co18  1  0.000000  0.203338  0.569691  1
  Co  Co19  1  0.000000  0.796662  0.569691  1
  Co  Co20  1  0.500000  0.879833  0.709335  1
  Co  Co21  1  0.500000  0.120167  0.709335  1
  Co  Co22  1  0.000000  0.621489  0.291530  1
  Co  Co23  1  0.000000  0.378511  0.291530  1
  P  P24  1  0.500000  0.500000  0.883002  1
  P  P25  1  0.000000  0.000000  0.117697  1
  P  P26  1  0.500000  0.500000  0.346482  1
  P  P27  1  0.000000  0.000000  0.654893  1
  P  P28  1  0.500000  0.310244  0.616298  1
  P  P29  1  0.500000  0.689756  0.616298  1
  P  P30  1  0.000000  0.188682  0.383744  1
  P  P31  1  0.000000  0.811318  0.383744  1
  P  P32  1  0.500000  0.847421  0.892738  1
  P  P33  1  0.500000  0.152579  0.892738  1
  P  P34  1  0.000000  0.655527  0.106422  1
  P  P35  1  0.000000  0.344473  0.106422  1
