# generated using pymatgen
data_HoTmHf3Si4
_symmetry_space_group_name_H-M   'P 1'
_cell_length_a   7.25074400
_cell_length_b   7.25074400
_cell_length_c   13.31392500
_cell_angle_alpha   90.00000000
_cell_angle_beta   90.00000000
_cell_angle_gamma   90.00000000
_symmetry_Int_Tables_number   1
_chemical_formula_structural   HoTmHf3Si4
_chemical_formula_sum   'Ho4 Tm4 Hf12 Si16'
_cell_volume   699.95682081
_cell_formula_units_Z   4
loop_
 _symmetry_equiv_pos_site_id
 _symmetry_equiv_pos_as_xyz
  1  'x, y, z'
loop_
 _atom_site_type_symbol
 _atom_site_label
 _atom_site_symmetry_multiplicity
 _atom_site_fract_x
 _atom_site_fract_y
 _atom_site_fract_z
 _atom_site_occupancy
  Ho  Ho0  1  0.846158  0.504649  0.965060  1
  Ho  Ho1  1  0.153842  0.495351  0.465060  1
  Ho  Ho2  1  0.004649  0.653842  0.715060  1
  Ho  Ho3  1  0.995351  0.346158  0.215060  1
  Tm  Tm4  1  0.495747  0.153382  0.535018  1
  Tm  Tm5  1  0.504253  0.846618  0.035018  1
  Tm  Tm6  1  0.653382  0.004253  0.285018  1
  Tm  Tm7  1  0.346618  0.995747  0.785018  1
  Hf  Hf8  1  0.675623  0.323752  0.749948  1
  Hf  Hf9  1  0.324377  0.676248  0.249948  1
  Hf  Hf10  1  0.823752  0.824377  0.499948  1
  Hf  Hf11  1  0.176248  0.175623  0.999948  1
  Hf  Hf12  1  0.496643  0.352751  0.125022  1
  Hf  Hf13  1  0.503357  0.647249  0.625022  1
  Hf  Hf14  1  0.852751  0.003357  0.875022  1
  Hf  Hf15  1  0.147249  0.996643  0.375022  1
  Hf  Hf16  1  0.647066  0.503435  0.375014  1
  Hf  Hf17  1  0.352934  0.496565  0.875014  1
  Hf  Hf18  1  0.003435  0.852934  0.125014  1
  Hf  Hf19  1  0.996565  0.147066  0.625014  1
  Si  Si20  1  0.795184  0.140114  0.067825  1
  Si  Si21  1  0.204816  0.859886  0.567825  1
  Si  Si22  1  0.640114  0.704816  0.817825  1
  Si  Si23  1  0.359886  0.295184  0.317825  1
  Si  Si24  1  0.858829  0.204092  0.432120  1
  Si  Si25  1  0.141171  0.795908  0.932120  1
  Si  Si26  1  0.704092  0.641171  0.182120  1
  Si  Si27  1  0.295908  0.358829  0.682120  1
  Si  Si28  1  0.550107  0.204364  0.935907  1
  Si  Si29  1  0.449893  0.795636  0.435907  1
  Si  Si30  1  0.704364  0.949893  0.685907  1
  Si  Si31  1  0.295636  0.050107  0.185907  1
  Si  Si32  1  0.794650  0.449240  0.564087  1
  Si  Si33  1  0.205350  0.550760  0.064087  1
  Si  Si34  1  0.949240  0.705350  0.314087  1
  Si  Si35  1  0.050760  0.294650  0.814087  1
