# generated using pymatgen
data_Sr2AlVO5
_symmetry_space_group_name_H-M   'P 1'
_cell_length_a   5.56986965
_cell_length_b   5.82939606
_cell_length_c   8.53105638
_cell_angle_alpha   109.97618971
_cell_angle_beta   109.05323359
_cell_angle_gamma   90.00000432
_symmetry_Int_Tables_number   1
_chemical_formula_structural   Sr2AlVO5
_chemical_formula_sum   'Sr4 Al2 V2 O10'
_cell_volume   244.12045817
_cell_formula_units_Z   2
loop_
 _symmetry_equiv_pos_site_id
 _symmetry_equiv_pos_as_xyz
  1  'x, y, z'
loop_
 _atom_site_type_symbol
 _atom_site_label
 _atom_site_symmetry_multiplicity
 _atom_site_fract_x
 _atom_site_fract_y
 _atom_site_fract_z
 _atom_site_occupancy
  Sr  Sr0  1  0.117699  0.636070  0.225917  1
  Sr  Sr1  1  0.391767  0.910155  0.774077  1
  Sr  Sr2  1  0.891782  0.363930  0.774083  1
  Sr  Sr3  1  0.617690  0.089845  0.225923  1
  Al  Al4  1  0.281966  0.327071  0.499963  1
  Al  Al5  1  0.782003  0.672929  0.500037  1
  V  V6  1  0.499486  0.500000  0.000000  1
  V  V7  1  0.999491  0.000000  0.000000  1
  O  O8  1  0.589333  0.424682  0.499998  1
  O  O9  1  0.089336  0.575318  0.500002  1
  O  O10  1  0.634250  0.706435  0.292745  1
  O  O11  1  0.341506  0.293565  0.707256  1
  O  O12  1  0.134276  0.086350  0.292767  1
  O  O13  1  0.841508  0.913650  0.707233  1
  O  O14  1  0.240954  0.741004  0.977857  1
  O  O15  1  0.263098  0.258996  0.022143  1
  O  O16  1  0.763094  0.263145  0.022135  1
  O  O17  1  0.740960  0.736855  0.977865  1
