# generated using pymatgen
data_Nd5Si9As3Ir19
_symmetry_space_group_name_H-M   'P 1'
_cell_length_a   13.03350500
_cell_length_b   13.03350574
_cell_length_c   4.01301200
_cell_angle_alpha   90.00000000
_cell_angle_beta   90.00000000
_cell_angle_gamma   120.00000065
_symmetry_Int_Tables_number   1
_chemical_formula_structural   Nd5Si9As3Ir19
_chemical_formula_sum   'Nd5 Si9 As3 Ir19'
_cell_volume   590.36901763
_cell_formula_units_Z   1
loop_
 _symmetry_equiv_pos_site_id
 _symmetry_equiv_pos_as_xyz
  1  'x, y, z'
loop_
 _atom_site_type_symbol
 _atom_site_label
 _atom_site_symmetry_multiplicity
 _atom_site_fract_x
 _atom_site_fract_y
 _atom_site_fract_z
 _atom_site_occupancy
  Nd  Nd0  1  0.000000  0.809135  0.500000  1
  Nd  Nd1  1  0.190865  0.190865  0.500000  1
  Nd  Nd2  1  0.809135  0.000000  0.500000  1
  Nd  Nd3  1  0.333333  0.666667  0.000000  1
  Nd  Nd4  1  0.666667  0.333333  0.000000  1
  Si  Si5  1  0.517661  0.687706  0.500000  1
  Si  Si6  1  0.312294  0.829955  0.500000  1
  Si  Si7  1  0.170045  0.482339  0.500000  1
  Si  Si8  1  0.482339  0.170045  0.500000  1
  Si  Si9  1  0.687706  0.517661  0.500000  1
  Si  Si10  1  0.829955  0.312294  0.500000  1
  Si  Si11  1  0.000000  0.629005  0.000000  1
  Si  Si12  1  0.370995  0.370995  0.000000  1
  Si  Si13  1  0.629005  0.000000  0.000000  1
  As  As14  1  0.000000  0.181564  0.000000  1
  As  As15  1  0.818436  0.818436  0.000000  1
  As  As16  1  0.181564  0.000000  0.000000  1
  Ir  Ir17  1  0.000000  0.289615  0.500000  1
  Ir  Ir18  1  0.710385  0.710385  0.500000  1
  Ir  Ir19  1  0.289615  0.000000  0.500000  1
  Ir  Ir20  1  0.619317  0.802962  0.000000  1
  Ir  Ir21  1  0.197038  0.816355  0.000000  1
  Ir  Ir22  1  0.183645  0.380683  0.000000  1
  Ir  Ir23  1  0.380683  0.183645  0.000000  1
  Ir  Ir24  1  0.802962  0.619317  0.000000  1
  Ir  Ir25  1  0.816355  0.197038  0.000000  1
  Ir  Ir26  1  0.512406  0.874806  0.500000  1
  Ir  Ir27  1  0.125194  0.637601  0.500000  1
  Ir  Ir28  1  0.362399  0.487594  0.500000  1
  Ir  Ir29  1  0.487594  0.362399  0.500000  1
  Ir  Ir30  1  0.874806  0.512406  0.500000  1
  Ir  Ir31  1  0.637601  0.125194  0.500000  1
  Ir  Ir32  1  0.000000  0.000000  0.000000  1
  Ir  Ir33  1  0.000000  0.447257  0.000000  1
  Ir  Ir34  1  0.552743  0.552743  0.000000  1
  Ir  Ir35  1  0.447257  0.000000  0.000000  1
