# generated using pymatgen
data_K20Hf4(As3P)3
_symmetry_space_group_name_H-M   'P 1'
_cell_length_a   8.43104983
_cell_length_b   9.12535140
_cell_length_c   17.72967482
_cell_angle_alpha   59.94658052
_cell_angle_beta   90.11187211
_cell_angle_gamma   90.10021052
_symmetry_Int_Tables_number   1
_chemical_formula_structural   K20Hf4(As3P)3
_chemical_formula_sum   'K20 Hf4 As9 P3'
_cell_volume   1180.66754993
_cell_formula_units_Z   1
loop_
 _symmetry_equiv_pos_site_id
 _symmetry_equiv_pos_as_xyz
  1  'x, y, z'
loop_
 _atom_site_type_symbol
 _atom_site_label
 _atom_site_symmetry_multiplicity
 _atom_site_fract_x
 _atom_site_fract_y
 _atom_site_fract_z
 _atom_site_occupancy
  K  K0  1  0.166421  0.845661  0.739526  1
  K  K1  1  0.671358  0.164310  0.754619  1
  K  K2  1  0.830012  0.161145  0.256220  1
  K  K3  1  0.329847  0.840609  0.244446  1
  K  K4  1  0.169340  0.167463  0.421400  1
  K  K5  1  0.671543  0.829759  0.081250  1
  K  K6  1  0.828214  0.829452  0.580245  1
  K  K7  1  0.337331  0.158302  0.920427  1
  K  K8  1  0.010049  0.079926  0.091719  1
  K  K9  1  0.509606  0.921272  0.407677  1
  K  K10  1  0.990607  0.919043  0.907633  1
  K  K11  1  0.491640  0.079295  0.592311  1
  K  K12  1  0.519469  0.263364  0.078648  1
  K  K13  1  0.021064  0.737768  0.420877  1
  K  K14  1  0.482516  0.741840  0.920566  1
  K  K15  1  0.978264  0.266780  0.578040  1
  K  K16  1  0.978317  0.542360  0.258571  1
  K  K17  1  0.475981  0.456463  0.244706  1
  K  K18  1  0.026246  0.456042  0.745195  1
  K  K19  1  0.514369  0.542934  0.759665  1
  Hf  Hf20  1  0.371995  0.495456  0.578123  1
  Hf  Hf21  1  0.867899  0.504424  0.920723  1
  Hf  Hf22  1  0.627499  0.505257  0.421222  1
  Hf  Hf23  1  0.127905  0.494570  0.080223  1
  As  As24  1  0.183251  0.485791  0.934516  1
  As  As25  1  0.214225  0.214272  0.219489  1
  As  As26  1  0.714882  0.786058  0.281510  1
  As  As27  1  0.783090  0.785444  0.781134  1
  As  As28  1  0.285100  0.214442  0.717775  1
  As  As29  1  0.249161  0.760811  0.078793  1
  As  As30  1  0.749698  0.237765  0.423182  1
  As  As31  1  0.748202  0.236466  0.922808  1
  As  As32  1  0.249523  0.762126  0.576465  1
  P  P33  1  0.325137  0.487904  0.437496  1
  P  P34  1  0.826338  0.512087  0.061385  1
  P  P35  1  0.673902  0.513336  0.561414  1
