# generated using pymatgen
data_Cs4AlGa3(SiSe4)4
_symmetry_space_group_name_H-M   'P 1'
_cell_length_a   17.15634315
_cell_length_b   7.29248223
_cell_length_c   8.22142190
_cell_angle_alpha   70.41751536
_cell_angle_beta   89.95453696
_cell_angle_gamma   89.92308980
_symmetry_Int_Tables_number   1
_chemical_formula_structural   Cs4AlGa3(SiSe4)4
_chemical_formula_sum   'Cs4 Al1 Ga3 Si4 Se16'
_cell_volume   969.10595262
_cell_formula_units_Z   1
loop_
 _symmetry_equiv_pos_site_id
 _symmetry_equiv_pos_as_xyz
  1  'x, y, z'
loop_
 _atom_site_type_symbol
 _atom_site_label
 _atom_site_symmetry_multiplicity
 _atom_site_fract_x
 _atom_site_fract_y
 _atom_site_fract_z
 _atom_site_occupancy
  Cs  Cs0  1  0.396548  0.955526  0.181594  1
  Cs  Cs1  1  0.896360  0.044514  0.818231  1
  Cs  Cs2  1  0.602916  0.527309  0.830575  1
  Cs  Cs3  1  0.102648  0.472687  0.169307  1
  Al  Al4  1  0.582989  0.167534  0.477809  1
  Ga  Ga5  1  0.084145  0.833465  0.522771  1
  Ga  Ga6  1  0.271915  0.589735  0.699361  1
  Ga  Ga7  1  0.771695  0.409731  0.301015  1
  Si  Si8  1  0.420902  0.316576  0.541055  1
  Si  Si9  1  0.920433  0.683089  0.458612  1
  Si  Si10  1  0.726501  0.913615  0.279451  1
  Si  Si11  1  0.226701  0.086732  0.720736  1
  Se  Se12  1  0.600163  0.892876  0.377752  1
  Se  Se13  1  0.100331  0.110614  0.623757  1
  Se  Se14  1  0.410157  0.585729  0.625000  1
  Se  Se15  1  0.909988  0.413791  0.374841  1
  Se  Se16  1  0.801317  0.789170  0.529497  1
  Se  Se17  1  0.301633  0.210937  0.470637  1
  Se  Se18  1  0.200887  0.715334  0.435013  1
  Se  Se19  1  0.699348  0.282775  0.563780  1
  Se  Se20  1  0.764503  0.217944  0.105425  1
  Se  Se21  1  0.264472  0.781938  0.894367  1
  Se  Se22  1  0.235567  0.266711  0.900977  1
  Se  Se23  1  0.735634  0.733369  0.099251  1
  Se  Se24  1  0.996113  0.918741  0.268154  1
  Se  Se25  1  0.497153  0.081032  0.730533  1
  Se  Se26  1  0.989009  0.604318  0.713806  1
  Se  Se27  1  0.489965  0.394208  0.286694  1
