# generated using pymatgen
data_ZrMnPtCl12
_symmetry_space_group_name_H-M   'P 1'
_cell_length_a   8.80695180
_cell_length_b   8.80695107
_cell_length_c   6.62246400
_cell_angle_alpha   71.84351821
_cell_angle_beta   71.84351978
_cell_angle_gamma   80.61949154
_symmetry_Int_Tables_number   1
_chemical_formula_structural   ZrMnPtCl12
_chemical_formula_sum   'Zr1 Mn1 Pt1 Cl12'
_cell_volume   462.54040192
_cell_formula_units_Z   1
loop_
 _symmetry_equiv_pos_site_id
 _symmetry_equiv_pos_as_xyz
  1  'x, y, z'
loop_
 _atom_site_type_symbol
 _atom_site_label
 _atom_site_symmetry_multiplicity
 _atom_site_fract_x
 _atom_site_fract_y
 _atom_site_fract_z
 _atom_site_occupancy
  Zr  Zr0  1  0.277354  0.277354  0.728235  1
  Mn  Mn1  1  0.735947  0.735947  0.258812  1
  Pt  Pt2  1  0.996258  0.996258  0.005207  1
  Cl  Cl3  1  0.966911  0.248199  0.755675  1
  Cl  Cl4  1  0.248199  0.966911  0.755675  1
  Cl  Cl5  1  0.017242  0.743840  0.256058  1
  Cl  Cl6  1  0.743840  0.017242  0.256058  1
  Cl  Cl7  1  0.206703  0.528866  0.795262  1
  Cl  Cl8  1  0.528866  0.206703  0.795262  1
  Cl  Cl9  1  0.783440  0.501321  0.209317  1
  Cl  Cl10  1  0.501321  0.783440  0.209317  1
  Cl  Cl11  1  0.126849  0.126849  0.156982  1
  Cl  Cl12  1  0.862527  0.862527  0.863150  1
  Cl  Cl13  1  0.660209  0.660209  0.614811  1
  Cl  Cl14  1  0.344336  0.344336  0.340179  1
