# generated using pymatgen
data_Tm9LuInSn5
_symmetry_space_group_name_H-M   'P 1'
_cell_length_a   6.47001700
_cell_length_b   8.83797838
_cell_length_c   8.83657910
_cell_angle_alpha   120.00203634
_cell_angle_beta   90.00308817
_cell_angle_gamma   89.99865565
_symmetry_Int_Tables_number   1
_chemical_formula_structural   Tm9LuInSn5
_chemical_formula_sum   'Tm9 Lu1 In1 Sn5'
_cell_volume   437.58683275
_cell_formula_units_Z   1
loop_
 _symmetry_equiv_pos_site_id
 _symmetry_equiv_pos_as_xyz
  1  'x, y, z'
loop_
 _atom_site_type_symbol
 _atom_site_label
 _atom_site_symmetry_multiplicity
 _atom_site_fract_x
 _atom_site_fract_y
 _atom_site_fract_z
 _atom_site_occupancy
  Tm  Tm0  1  0.500930  0.666686  0.332726  1
  Tm  Tm1  1  0.999058  0.666694  0.332660  1
  Tm  Tm2  1  0.999063  0.333986  0.667314  1
  Tm  Tm3  1  0.749890  0.238708  0.999899  1
  Tm  Tm4  1  0.749917  0.760957  0.762873  1
  Tm  Tm5  1  0.749914  0.998325  0.237232  1
  Tm  Tm6  1  0.250096  0.761961  0.999932  1
  Tm  Tm7  1  0.250094  0.238477  0.238263  1
  Tm  Tm8  1  0.250075  0.000403  0.761836  1
  Lu  Lu9  1  0.500963  0.333985  0.667330  1
  In  In10  1  0.749762  0.603715  0.999749  1
  Sn  Sn11  1  0.749707  0.394515  0.394837  1
  Sn  Sn12  1  0.749720  0.000168  0.605378  1
  Sn  Sn13  1  0.250256  0.395299  0.999733  1
  Sn  Sn14  1  0.250283  0.604998  0.604410  1
  Sn  Sn15  1  0.250271  0.001121  0.395828  1
