# generated using pymatgen
data_LaSc(CuSn)2
_symmetry_space_group_name_H-M   'P 1'
_cell_length_a   4.49968300
_cell_length_b   4.49968293
_cell_length_c   7.49688800
_cell_angle_alpha   90.00000000
_cell_angle_beta   90.00000000
_cell_angle_gamma   119.99999313
_symmetry_Int_Tables_number   1
_chemical_formula_structural   LaSc(CuSn)2
_chemical_formula_sum   'La1 Sc1 Cu2 Sn2'
_cell_volume   131.45451776
_cell_formula_units_Z   1
loop_
 _symmetry_equiv_pos_site_id
 _symmetry_equiv_pos_as_xyz
  1  'x, y, z'
loop_
 _atom_site_type_symbol
 _atom_site_label
 _atom_site_symmetry_multiplicity
 _atom_site_fract_x
 _atom_site_fract_y
 _atom_site_fract_z
 _atom_site_occupancy
  La  La0  1  0.000000  0.000000  0.011844  1
  Sc  Sc1  1  0.000000  0.000000  0.509419  1
  Cu  Cu2  1  0.333333  0.666667  0.749033  1
  Cu  Cu3  1  0.666667  0.333333  0.350144  1
  Sn  Sn4  1  0.333333  0.666667  0.271359  1
  Sn  Sn5  1  0.666667  0.333333  0.719421  1
