# generated using pymatgen
data_Ho8Si4TcB16W
_symmetry_space_group_name_H-M   'P 1'
_cell_length_a   7.09298100
_cell_length_b   7.09298100
_cell_length_c   7.56580500
_cell_angle_alpha   90.00000000
_cell_angle_beta   90.00000000
_cell_angle_gamma   90.00000000
_symmetry_Int_Tables_number   1
_chemical_formula_structural   Ho8Si4TcB16W
_chemical_formula_sum   'Ho8 Si4 Tc1 B16 W1'
_cell_volume   380.63852052
_cell_formula_units_Z   1
loop_
 _symmetry_equiv_pos_site_id
 _symmetry_equiv_pos_as_xyz
  1  'x, y, z'
loop_
 _atom_site_type_symbol
 _atom_site_label
 _atom_site_symmetry_multiplicity
 _atom_site_fract_x
 _atom_site_fract_y
 _atom_site_fract_z
 _atom_site_occupancy
  Ho  Ho0  1  0.679549  0.179150  0.237597  1
  Ho  Ho1  1  0.320451  0.820850  0.762403  1
  Ho  Ho2  1  0.320451  0.820850  0.237597  1
  Ho  Ho3  1  0.820850  0.679549  0.237597  1
  Ho  Ho4  1  0.820850  0.679549  0.762403  1
  Ho  Ho5  1  0.679549  0.179150  0.762403  1
  Ho  Ho6  1  0.179150  0.320451  0.762403  1
  Ho  Ho7  1  0.179150  0.320451  0.237597  1
  Si  Si8  1  0.125777  0.623077  0.500000  1
  Si  Si9  1  0.874223  0.376923  0.500000  1
  Si  Si10  1  0.376923  0.125777  0.500000  1
  Si  Si11  1  0.623077  0.874223  0.500000  1
  Tc  Tc12  1  0.000000  0.000000  0.500000  1
  B  B13  1  0.172081  0.039062  0.000000  1
  B  B14  1  0.827919  0.960938  0.000000  1
  B  B15  1  0.960938  0.172081  0.000000  1
  B  B16  1  0.328058  0.540182  0.000000  1
  B  B17  1  0.039062  0.827919  0.000000  1
  B  B18  1  0.671942  0.459818  0.000000  1
  B  B19  1  0.540182  0.671942  0.000000  1
  B  B20  1  0.459818  0.328058  0.000000  1
  B  B21  1  0.090448  0.590713  0.000000  1
  B  B22  1  0.909552  0.409287  0.000000  1
  B  B23  1  0.409287  0.090448  0.000000  1
  B  B24  1  0.590713  0.909552  0.000000  1
  B  B25  1  0.000000  0.000000  0.176503  1
  B  B26  1  0.000000  0.000000  0.823497  1
  B  B27  1  0.500000  0.500000  0.821773  1
  B  B28  1  0.500000  0.500000  0.178227  1
  W  W29  1  0.500000  0.500000  0.500000  1
