# generated using pymatgen
data_PrMn4MoP3
_symmetry_space_group_name_H-M   'P 1'
_cell_length_a   3.73677300
_cell_length_b   10.89999400
_cell_length_c   12.40386800
_cell_angle_alpha   90.00000000
_cell_angle_beta   90.00000000
_cell_angle_gamma   90.00000000
_symmetry_Int_Tables_number   1
_chemical_formula_structural   PrMn4MoP3
_chemical_formula_sum   'Pr4 Mn16 Mo4 P12'
_cell_volume   505.21950741
_cell_formula_units_Z   4
loop_
 _symmetry_equiv_pos_site_id
 _symmetry_equiv_pos_as_xyz
  1  'x, y, z'
loop_
 _atom_site_type_symbol
 _atom_site_label
 _atom_site_symmetry_multiplicity
 _atom_site_fract_x
 _atom_site_fract_y
 _atom_site_fract_z
 _atom_site_occupancy
  Pr  Pr0  1  0.250000  0.588476  0.706707  1
  Pr  Pr1  1  0.250000  0.911524  0.206707  1
  Pr  Pr2  1  0.750000  0.411524  0.293293  1
  Pr  Pr3  1  0.750000  0.088476  0.793293  1
  Mn  Mn4  1  0.250000  0.409729  0.495046  1
  Mn  Mn5  1  0.250000  0.090271  0.995046  1
  Mn  Mn6  1  0.750000  0.590271  0.504954  1
  Mn  Mn7  1  0.750000  0.909729  0.004954  1
  Mn  Mn8  1  0.250000  0.210408  0.179955  1
  Mn  Mn9  1  0.250000  0.289592  0.679955  1
  Mn  Mn10  1  0.750000  0.789592  0.820045  1
  Mn  Mn11  1  0.750000  0.710408  0.320045  1
  Mn  Mn12  1  0.250000  0.884304  0.692260  1
  Mn  Mn13  1  0.250000  0.615696  0.192260  1
  Mn  Mn14  1  0.750000  0.115696  0.307740  1
  Mn  Mn15  1  0.750000  0.384304  0.807740  1
  Mn  Mn16  1  0.250000  0.467059  0.935641  1
  Mn  Mn17  1  0.250000  0.032941  0.435641  1
  Mn  Mn18  1  0.750000  0.532941  0.064359  1
  Mn  Mn19  1  0.750000  0.967059  0.564359  1
  Mo  Mo20  1  0.250000  0.709315  0.982898  1
  Mo  Mo21  1  0.250000  0.790685  0.482898  1
  Mo  Mo22  1  0.750000  0.290685  0.017102  1
  Mo  Mo23  1  0.750000  0.209315  0.517102  1
  P  P24  1  0.250000  0.414235  0.113362  1
  P  P25  1  0.250000  0.085765  0.613362  1
  P  P26  1  0.750000  0.585765  0.886638  1
  P  P27  1  0.750000  0.914235  0.386638  1
  P  P28  1  0.250000  0.271085  0.872896  1
  P  P29  1  0.250000  0.228915  0.372896  1
  P  P30  1  0.750000  0.728915  0.127104  1
  P  P31  1  0.750000  0.771085  0.627104  1
  P  P32  1  0.250000  0.593627  0.385560  1
  P  P33  1  0.250000  0.906373  0.885560  1
  P  P34  1  0.750000  0.406373  0.614440  1
  P  P35  1  0.750000  0.093627  0.114440  1
