# generated using pymatgen
data_Co2H13
_symmetry_space_group_name_H-M   'P 1'
_cell_length_a   2.61247168
_cell_length_b   4.29630293
_cell_length_c   16.39716452
_cell_angle_alpha   98.55143962
_cell_angle_beta   80.69113321
_cell_angle_gamma   89.33997964
_symmetry_Int_Tables_number   1
_chemical_formula_structural   Co2H13
_chemical_formula_sum   'Co2 H13'
_cell_volume   179.47913666
_cell_formula_units_Z   1
loop_
 _symmetry_equiv_pos_site_id
 _symmetry_equiv_pos_as_xyz
  1  'x, y, z'
loop_
 _atom_site_type_symbol
 _atom_site_label
 _atom_site_symmetry_multiplicity
 _atom_site_fract_x
 _atom_site_fract_y
 _atom_site_fract_z
 _atom_site_occupancy
  Co  Co0  1  0.208605  0.324340  0.634832  1
  Co  Co1  1  0.700133  0.830729  0.650922  1
  H  H2  1  0.635986  0.827060  0.749316  1
  H  H3  1  0.952806  0.446411  0.393488  1
  H  H4  1  0.350119  0.065312  0.012156  1
  H  H5  1  0.924923  0.703145  0.726878  1
  H  H6  1  0.029252  0.383733  0.872111  1
  H  H7  1  0.752270  0.479180  0.585578  1
  H  H8  1  0.875416  0.691438  0.138150  1
  H  H9  1  0.638299  0.206855  0.693365  1
  H  H10  1  0.753351  0.442269  0.876864  1
  H  H11  1  0.819669  0.325478  0.367285  1
  H  H12  1  0.259756  0.942516  0.592987  1
  H  H13  1  0.668176  0.599377  0.159924  1
  H  H14  1  0.196758  0.924412  0.000246  1
