# generated using pymatgen
data_Ba2LuAg5S6
_symmetry_space_group_name_H-M   'P 1'
_cell_length_a   4.20151600
_cell_length_b   7.32675917
_cell_length_c   11.26319099
_cell_angle_alpha   95.13395836
_cell_angle_beta   90.00000000
_cell_angle_gamma   106.66193043
_symmetry_Int_Tables_number   1
_chemical_formula_structural   Ba2LuAg5S6
_chemical_formula_sum   'Ba2 Lu1 Ag5 S6'
_cell_volume   330.71052395
_cell_formula_units_Z   1
loop_
 _symmetry_equiv_pos_site_id
 _symmetry_equiv_pos_as_xyz
  1  'x, y, z'
loop_
 _atom_site_type_symbol
 _atom_site_label
 _atom_site_symmetry_multiplicity
 _atom_site_fract_x
 _atom_site_fract_y
 _atom_site_fract_z
 _atom_site_occupancy
  Ba  Ba0  1  0.252593  0.505186  0.702161  1
  Ba  Ba1  1  0.747407  0.494814  0.297839  1
  Lu  Lu2  1  0.500000  0.000000  0.500000  1
  Ag  Ag3  1  0.018639  0.037278  0.255711  1
  Ag  Ag4  1  0.981361  0.962722  0.744289  1
  Ag  Ag5  1  0.352337  0.704676  0.039853  1
  Ag  Ag6  1  0.647663  0.295324  0.960147  1
  Ag  Ag7  1  0.000000  0.000000  0.000000  1
  S  S8  1  0.122054  0.244108  0.456340  1
  S  S9  1  0.877946  0.755892  0.543660  1
  S  S10  1  0.158334  0.316668  0.102253  1
  S  S11  1  0.841666  0.683332  0.897747  1
  S  S12  1  0.413768  0.827535  0.270004  1
  S  S13  1  0.586232  0.172465  0.729996  1
