# generated using pymatgen
data_CeHf3CN3
_symmetry_space_group_name_H-M   'P 1'
_cell_length_a   11.20425709
_cell_length_b   11.20425725
_cell_length_c   11.20425732
_cell_angle_alpha   16.83542311
_cell_angle_beta   16.83542272
_cell_angle_gamma   16.83541348
_symmetry_Int_Tables_number   1
_chemical_formula_structural   CeHf3CN3
_chemical_formula_sum   'Ce1 Hf3 C1 N3'
_cell_volume   102.91072794
_cell_formula_units_Z   1
loop_
 _symmetry_equiv_pos_site_id
 _symmetry_equiv_pos_as_xyz
  1  'x, y, z'
loop_
 _atom_site_type_symbol
 _atom_site_label
 _atom_site_symmetry_multiplicity
 _atom_site_fract_x
 _atom_site_fract_y
 _atom_site_fract_z
 _atom_site_occupancy
  Ce  Ce0  1  0.874897  0.874897  0.874897  1
  Hf  Hf1  1  0.122924  0.122924  0.122924  1
  Hf  Hf2  1  0.374282  0.374282  0.374282  1
  Hf  Hf3  1  0.628327  0.628327  0.628327  1
  C  C4  1  0.002815  0.002815  0.002815  1
  N  N5  1  0.257686  0.257686  0.257686  1
  N  N6  1  0.490250  0.490250  0.490250  1
  N  N7  1  0.748817  0.748817  0.748817  1
