# generated using pymatgen
data_Nd5(Sn5Ir2)2
_symmetry_space_group_name_H-M   'P 1'
_cell_length_a   14.16116100
_cell_length_b   14.16116100
_cell_length_c   4.68435500
_cell_angle_alpha   90.00000000
_cell_angle_beta   90.00000000
_cell_angle_gamma   90.00000000
_symmetry_Int_Tables_number   1
_chemical_formula_structural   Nd5(Sn5Ir2)2
_chemical_formula_sum   'Nd10 Sn20 Ir8'
_cell_volume   939.39343555
_cell_formula_units_Z   2
loop_
 _symmetry_equiv_pos_site_id
 _symmetry_equiv_pos_as_xyz
  1  'x, y, z'
loop_
 _atom_site_type_symbol
 _atom_site_label
 _atom_site_symmetry_multiplicity
 _atom_site_fract_x
 _atom_site_fract_y
 _atom_site_fract_z
 _atom_site_occupancy
  Nd  Nd0  1  0.500000  0.500000  0.000000  1
  Nd  Nd1  1  0.000000  0.000000  0.000000  1
  Nd  Nd2  1  0.676889  0.176889  0.500000  1
  Nd  Nd3  1  0.323111  0.823111  0.500000  1
  Nd  Nd4  1  0.176889  0.323111  0.500000  1
  Nd  Nd5  1  0.823111  0.676889  0.500000  1
  Nd  Nd6  1  0.887327  0.387327  0.500000  1
  Nd  Nd7  1  0.112673  0.612673  0.500000  1
  Nd  Nd8  1  0.387327  0.112673  0.500000  1
  Nd  Nd9  1  0.612673  0.887327  0.500000  1
  Sn  Sn10  1  0.569581  0.069581  0.000000  1
  Sn  Sn11  1  0.430419  0.930419  0.000000  1
  Sn  Sn12  1  0.069581  0.430419  0.000000  1
  Sn  Sn13  1  0.930419  0.569581  0.000000  1
  Sn  Sn14  1  0.655163  0.698422  0.000000  1
  Sn  Sn15  1  0.344837  0.301578  0.000000  1
  Sn  Sn16  1  0.155163  0.801578  0.000000  1
  Sn  Sn17  1  0.844837  0.198422  0.000000  1
  Sn  Sn18  1  0.301578  0.655163  0.000000  1
  Sn  Sn19  1  0.698422  0.344837  0.000000  1
  Sn  Sn20  1  0.198422  0.155163  0.000000  1
  Sn  Sn21  1  0.801578  0.844837  0.000000  1
  Sn  Sn22  1  0.663064  0.505305  0.500000  1
  Sn  Sn23  1  0.336936  0.494695  0.500000  1
  Sn  Sn24  1  0.163064  0.994695  0.500000  1
  Sn  Sn25  1  0.836936  0.005305  0.500000  1
  Sn  Sn26  1  0.494695  0.663064  0.500000  1
  Sn  Sn27  1  0.505305  0.336936  0.500000  1
  Sn  Sn28  1  0.005305  0.163064  0.500000  1
  Sn  Sn29  1  0.994695  0.836936  0.500000  1
  Ir  Ir30  1  0.746334  0.527829  0.000000  1
  Ir  Ir31  1  0.253666  0.472171  0.000000  1
  Ir  Ir32  1  0.246334  0.972171  0.000000  1
  Ir  Ir33  1  0.753666  0.027829  0.000000  1
  Ir  Ir34  1  0.472171  0.746334  0.000000  1
  Ir  Ir35  1  0.527829  0.253666  0.000000  1
  Ir  Ir36  1  0.027829  0.246334  0.000000  1
  Ir  Ir37  1  0.972171  0.753666  0.000000  1
