# generated using pymatgen
data_La2Er4TcSb2
_symmetry_space_group_name_H-M   'P 1'
_cell_length_a   8.24366956
_cell_length_b   8.24366845
_cell_length_c   4.33767200
_cell_angle_alpha   90.00000000
_cell_angle_beta   90.00000000
_cell_angle_gamma   118.97068900
_symmetry_Int_Tables_number   1
_chemical_formula_structural   La2Er4TcSb2
_chemical_formula_sum   'La2 Er4 Tc1 Sb2'
_cell_volume   257.89334697
_cell_formula_units_Z   1
loop_
 _symmetry_equiv_pos_site_id
 _symmetry_equiv_pos_as_xyz
  1  'x, y, z'
loop_
 _atom_site_type_symbol
 _atom_site_label
 _atom_site_symmetry_multiplicity
 _atom_site_fract_x
 _atom_site_fract_y
 _atom_site_fract_z
 _atom_site_occupancy
  La  La0  1  0.597663  0.996147  0.000000  1
  La  La1  1  0.996147  0.597663  0.000000  1
  Er  Er2  1  0.234915  0.000077  0.500000  1
  Er  Er3  1  0.000077  0.234915  0.500000  1
  Er  Er4  1  0.773447  0.773447  0.500000  1
  Er  Er5  1  0.392504  0.392504  0.000000  1
  Tc  Tc6  1  0.015111  0.015111  0.000000  1
  Sb  Sb7  1  0.335091  0.655045  0.500000  1
  Sb  Sb8  1  0.655045  0.335091  0.500000  1
