# generated using pymatgen
data_Zr6Al16Cu2Tc4Rh
_symmetry_space_group_name_H-M   'P 1'
_cell_length_a   8.70890136
_cell_length_b   8.88340319
_cell_length_c   8.70890276
_cell_angle_alpha   59.33493681
_cell_angle_beta   61.33013405
_cell_angle_gamma   59.33493297
_symmetry_Int_Tables_number   1
_chemical_formula_structural   Zr6Al16Cu2Tc4Rh
_chemical_formula_sum   'Zr6 Al16 Cu2 Tc4 Rh1'
_cell_volume   476.03091810
_cell_formula_units_Z   1
loop_
 _symmetry_equiv_pos_site_id
 _symmetry_equiv_pos_as_xyz
  1  'x, y, z'
loop_
 _atom_site_type_symbol
 _atom_site_label
 _atom_site_symmetry_multiplicity
 _atom_site_fract_x
 _atom_site_fract_y
 _atom_site_fract_z
 _atom_site_occupancy
  Zr  Zr0  1  0.715098  0.715098  0.284902  1
  Zr  Zr1  1  0.317587  0.682413  0.317587  1
  Zr  Zr2  1  0.715098  0.284902  0.284902  1
  Zr  Zr3  1  0.284902  0.284902  0.715098  1
  Zr  Zr4  1  0.682413  0.317587  0.682413  1
  Zr  Zr5  1  0.284902  0.715098  0.715098  1
  Al  Al6  1  0.891798  0.873996  0.360211  1
  Al  Al7  1  0.873996  0.360211  0.873996  1
  Al  Al8  1  0.360211  0.873996  0.891798  1
  Al  Al9  1  0.873996  0.891798  0.873996  1
  Al  Al10  1  0.108202  0.126004  0.639789  1
  Al  Al11  1  0.126004  0.639789  0.126004  1
  Al  Al12  1  0.639789  0.126004  0.108202  1
  Al  Al13  1  0.126004  0.108202  0.126004  1
  Al  Al14  1  0.666997  0.660687  0.011629  1
  Al  Al15  1  0.660687  0.011629  0.660687  1
  Al  Al16  1  0.011629  0.660687  0.666997  1
  Al  Al17  1  0.660687  0.666997  0.660687  1
  Al  Al18  1  0.333003  0.339313  0.988371  1
  Al  Al19  1  0.339313  0.988371  0.339313  1
  Al  Al20  1  0.988371  0.339313  0.333003  1
  Al  Al21  1  0.339313  0.333003  0.339313  1
  Cu  Cu22  1  0.500000  0.000000  0.500000  1
  Cu  Cu23  1  0.000000  0.500000  0.000000  1
  Tc  Tc24  1  0.000000  0.000000  0.500000  1
  Tc  Tc25  1  0.000000  0.500000  0.500000  1
  Tc  Tc26  1  0.500000  0.500000  0.000000  1
  Tc  Tc27  1  0.500000  0.000000  0.000000  1
  Rh  Rh28  1  0.000000  0.000000  0.000000  1
