# generated using pymatgen
data_SmAl7Ag5
_symmetry_space_group_name_H-M   'P 1'
_cell_length_a   7.07061514
_cell_length_b   7.07061590
_cell_length_c   7.07061612
_cell_angle_alpha   133.63450672
_cell_angle_beta   100.22436173
_cell_angle_gamma   97.61068727
_symmetry_Int_Tables_number   1
_chemical_formula_structural   SmAl7Ag5
_chemical_formula_sum   'Sm1 Al7 Ag5'
_cell_volume   235.09596686
_cell_formula_units_Z   1
loop_
 _symmetry_equiv_pos_site_id
 _symmetry_equiv_pos_as_xyz
  1  'x, y, z'
loop_
 _atom_site_type_symbol
 _atom_site_label
 _atom_site_symmetry_multiplicity
 _atom_site_fract_x
 _atom_site_fract_y
 _atom_site_fract_z
 _atom_site_occupancy
  Sm  Sm0  1  0.001304  0.000000  0.001304  1
  Al  Al1  1  0.356639  0.000000  0.356639  1
  Al  Al2  1  0.648468  0.000000  0.648468  1
  Al  Al3  1  0.651158  0.646943  0.004215  1
  Al  Al4  1  0.357270  0.353057  0.004215  1
  Al  Al5  1  0.224236  0.500000  0.724236  1
  Al  Al6  1  0.207015  0.712138  0.494877  1
  Al  Al7  1  0.782738  0.287862  0.494877  1
  Ag  Ag8  1  0.488658  0.989861  0.995594  1
  Ag  Ag9  1  0.488658  0.493064  0.498797  1
  Ag  Ag10  1  0.005733  0.506936  0.995594  1
  Ag  Ag11  1  0.005733  0.010139  0.498797  1
  Ag  Ag12  1  0.782389  0.500000  0.282389  1
