# generated using pymatgen
data_Nd2DyHo5S12
_symmetry_space_group_name_H-M   'P 1'
_cell_length_a   3.98479800
_cell_length_b   11.07977126
_cell_length_c   11.33529800
_cell_angle_alpha   71.33880975
_cell_angle_beta   90.00000000
_cell_angle_gamma   90.00000000
_symmetry_Int_Tables_number   1
_chemical_formula_structural   Nd2DyHo5S12
_chemical_formula_sum   'Nd2 Dy1 Ho5 S12'
_cell_volume   474.15016956
_cell_formula_units_Z   1
loop_
 _symmetry_equiv_pos_site_id
 _symmetry_equiv_pos_as_xyz
  1  'x, y, z'
loop_
 _atom_site_type_symbol
 _atom_site_label
 _atom_site_symmetry_multiplicity
 _atom_site_fract_x
 _atom_site_fract_y
 _atom_site_fract_z
 _atom_site_occupancy
  Nd  Nd0  1  0.750000  0.548172  0.805977  1
  Nd  Nd1  1  0.250000  0.452437  0.193783  1
  Dy  Dy2  1  0.750000  0.180107  0.997756  1
  Ho  Ho3  1  0.250000  0.819429  0.002214  1
  Ho  Ho4  1  0.750000  0.938414  0.667288  1
  Ho  Ho5  1  0.250000  0.061527  0.332764  1
  Ho  Ho6  1  0.750000  0.661164  0.413874  1
  Ho  Ho7  1  0.250000  0.339097  0.585589  1
  S  S8  1  0.750000  0.976779  0.888247  1
  S  S9  1  0.250000  0.021457  0.112788  1
  S  S10  1  0.750000  0.305223  0.747865  1
  S  S11  1  0.250000  0.695177  0.251396  1
  S  S12  1  0.750000  0.896369  0.439124  1
  S  S13  1  0.250000  0.103500  0.561127  1
  S  S14  1  0.750000  0.418408  0.405264  1
  S  S15  1  0.250000  0.581887  0.594442  1
  S  S16  1  0.750000  0.237237  0.227743  1
  S  S17  1  0.250000  0.762751  0.772933  1
  S  S18  1  0.750000  0.617705  0.036637  1
  S  S19  1  0.250000  0.383159  0.963191  1
