# generated using pymatgen
data_YHo7Si12IrRh3
_symmetry_space_group_name_H-M   'P 1'
_cell_length_a   8.16255300
_cell_length_b   8.16255303
_cell_length_c   7.87397900
_cell_angle_alpha   90.00000000
_cell_angle_beta   90.00000000
_cell_angle_gamma   120.00000394
_symmetry_Int_Tables_number   1
_chemical_formula_structural   YHo7Si12IrRh3
_chemical_formula_sum   'Y1 Ho7 Si12 Ir1 Rh3'
_cell_volume   454.33573457
_cell_formula_units_Z   1
loop_
 _symmetry_equiv_pos_site_id
 _symmetry_equiv_pos_as_xyz
  1  'x, y, z'
loop_
 _atom_site_type_symbol
 _atom_site_label
 _atom_site_symmetry_multiplicity
 _atom_site_fract_x
 _atom_site_fract_y
 _atom_site_fract_z
 _atom_site_occupancy
  Y  Y0  1  0.000000  0.000000  0.248869  1
  Ho  Ho1  1  0.000000  0.000000  0.750374  1
  Ho  Ho2  1  0.508792  0.491208  0.250179  1
  Ho  Ho3  1  0.508792  0.017585  0.250179  1
  Ho  Ho4  1  0.982415  0.491208  0.250179  1
  Ho  Ho5  1  0.490500  0.509500  0.749865  1
  Ho  Ho6  1  0.490500  0.981000  0.749865  1
  Ho  Ho7  1  0.019000  0.509500  0.749865  1
  Si  Si8  1  0.166526  0.833474  0.499428  1
  Si  Si9  1  0.166526  0.333050  0.499428  1
  Si  Si10  1  0.666950  0.833474  0.499428  1
  Si  Si11  1  0.832748  0.167252  0.500478  1
  Si  Si12  1  0.832748  0.665498  0.500478  1
  Si  Si13  1  0.334502  0.167252  0.500478  1
  Si  Si14  1  0.832900  0.167100  0.999600  1
  Si  Si15  1  0.832900  0.665803  0.999600  1
  Si  Si16  1  0.334197  0.167100  0.999600  1
  Si  Si17  1  0.166985  0.833015  0.999371  1
  Si  Si18  1  0.166985  0.333968  0.999371  1
  Si  Si19  1  0.666032  0.833015  0.999371  1
  Ir  Ir20  1  0.333333  0.666667  0.468011  1
  Rh  Rh21  1  0.666667  0.333333  0.534088  1
  Rh  Rh22  1  0.666667  0.333333  0.965087  1
  Rh  Rh23  1  0.333333  0.666667  0.036810  1
