# generated using pymatgen
data_Re(TcO4)7
_symmetry_space_group_name_H-M   'P 1'
_cell_length_a   6.02956055
_cell_length_b   7.96203286
_cell_length_c   14.37020676
_cell_angle_alpha   90.05179079
_cell_angle_beta   89.95189028
_cell_angle_gamma   90.01191393
_symmetry_Int_Tables_number   1
_chemical_formula_structural   Re(TcO4)7
_chemical_formula_sum   'Re1 Tc7 O28'
_cell_volume   689.87801235
_cell_formula_units_Z   1
loop_
 _symmetry_equiv_pos_site_id
 _symmetry_equiv_pos_as_xyz
  1  'x, y, z'
loop_
 _atom_site_type_symbol
 _atom_site_label
 _atom_site_symmetry_multiplicity
 _atom_site_fract_x
 _atom_site_fract_y
 _atom_site_fract_z
 _atom_site_occupancy
  Re  Re0  1  0.810901  0.485463  0.396947  1
  Tc  Tc1  1  0.307288  0.513839  0.102971  1
  Tc  Tc2  1  0.692231  0.986855  0.601989  1
  Tc  Tc3  1  0.191423  0.013110  0.897927  1
  Tc  Tc4  1  0.192658  0.513156  0.602545  1
  Tc  Tc5  1  0.690625  0.487490  0.898266  1
  Tc  Tc6  1  0.309374  0.012802  0.397386  1
  Tc  Tc7  1  0.808162  0.987350  0.102644  1
  O  O8  1  0.592633  0.623291  0.413519  1
  O  O9  1  0.090548  0.378469  0.085325  1
  O  O10  1  0.908713  0.122876  0.585044  1
  O  O11  1  0.408556  0.877860  0.914941  1
  O  O12  1  0.410489  0.378398  0.586226  1
  O  O13  1  0.907629  0.623015  0.914964  1
  O  O14  1  0.094187  0.875638  0.414370  1
  O  O15  1  0.591569  0.123068  0.085644  1
  O  O16  1  0.999857  0.000287  0.000194  1
  O  O17  1  0.500305  0.999404  0.500024  1
  O  O18  1  0.499665  0.500594  0.000695  1
  O  O19  1  0.002857  0.499586  0.498694  1
  O  O20  1  0.704149  0.788474  0.113271  1
  O  O21  1  0.202561  0.211141  0.387585  1
  O  O22  1  0.794410  0.288448  0.887212  1
  O  O23  1  0.295023  0.712183  0.614274  1
  O  O24  1  0.294626  0.212241  0.886992  1
  O  O25  1  0.796301  0.787873  0.612724  1
  O  O26  1  0.204343  0.713118  0.113763  1
  O  O27  1  0.702234  0.285832  0.386424  1
  O  O28  1  0.941222  0.040897  0.203126  1
  O  O29  1  0.441458  0.960893  0.296425  1
  O  O30  1  0.557096  0.541021  0.797875  1
  O  O31  1  0.057878  0.458667  0.702356  1
  O  O32  1  0.058508  0.958972  0.797452  1
  O  O33  1  0.558774  0.040500  0.702446  1
  O  O34  1  0.439873  0.459577  0.203390  1
  O  O35  1  0.941875  0.537615  0.294369  1
