# generated using pymatgen
data_Er16TlIn5CoPt
_symmetry_space_group_name_H-M   'P 1'
_cell_length_a   10.36180400
_cell_length_b   10.36800380
_cell_length_c   6.94419400
_cell_angle_alpha   90.00171198
_cell_angle_beta   89.99963598
_cell_angle_gamma   119.98349667
_symmetry_Int_Tables_number   1
_chemical_formula_structural   Er16TlIn5CoPt
_chemical_formula_sum   'Er16 Tl1 In5 Co1 Pt1'
_cell_volume   646.18250585
_cell_formula_units_Z   1
loop_
 _symmetry_equiv_pos_site_id
 _symmetry_equiv_pos_as_xyz
  1  'x, y, z'
loop_
 _atom_site_type_symbol
 _atom_site_label
 _atom_site_symmetry_multiplicity
 _atom_site_fract_x
 _atom_site_fract_y
 _atom_site_fract_z
 _atom_site_occupancy
  Er  Er0  1  0.530576  0.061174  0.795282  1
  Er  Er1  1  0.938656  0.468986  0.794523  1
  Er  Er2  1  0.530307  0.468974  0.794556  1
  Er  Er3  1  0.464166  0.928308  0.293018  1
  Er  Er4  1  0.072538  0.535835  0.293319  1
  Er  Er5  1  0.463323  0.535845  0.293356  1
  Er  Er6  1  0.824729  0.649450  0.498129  1
  Er  Er7  1  0.350737  0.175347  0.499429  1
  Er  Er8  1  0.824630  0.175348  0.499414  1
  Er  Er9  1  0.177991  0.355998  0.000926  1
  Er  Er10  1  0.643887  0.821582  0.000788  1
  Er  Er11  1  0.177674  0.821583  0.000778  1
  Er  Er12  1  0.666543  0.333085  0.169932  1
  Er  Er13  1  0.333337  0.666695  0.682812  1
  Er  Er14  1  0.000407  0.000819  0.777394  1
  Er  Er15  1  0.000557  0.001121  0.277171  1
  Tl  Tl16  1  0.837538  0.675081  0.038455  1
  In  In17  1  0.324101  0.162244  0.037295  1
  In  In18  1  0.838131  0.162242  0.037295  1
  In  In19  1  0.163026  0.326031  0.538612  1
  In  In20  1  0.674215  0.837049  0.538537  1
  In  In21  1  0.162850  0.837035  0.538547  1
  Co  Co22  1  0.333385  0.666765  0.067986  1
  Pt  Pt23  1  0.666697  0.333405  0.568349  1
