# generated using pymatgen
data_TbFe(PRh)2
_symmetry_space_group_name_H-M   'P 1'
_cell_length_a   3.82772400
_cell_length_b   11.17469800
_cell_length_c   12.52321800
_cell_angle_alpha   90.00000000
_cell_angle_beta   90.00000000
_cell_angle_gamma   90.00000000
_symmetry_Int_Tables_number   1
_chemical_formula_structural   TbFe(PRh)2
_chemical_formula_sum   'Tb6 Fe6 P12 Rh12'
_cell_volume   535.66386542
_cell_formula_units_Z   6
loop_
 _symmetry_equiv_pos_site_id
 _symmetry_equiv_pos_as_xyz
  1  'x, y, z'
loop_
 _atom_site_type_symbol
 _atom_site_label
 _atom_site_symmetry_multiplicity
 _atom_site_fract_x
 _atom_site_fract_y
 _atom_site_fract_z
 _atom_site_occupancy
  Tb  Tb0  1  0.000000  0.500000  0.521944  1
  Tb  Tb1  1  0.500000  0.000000  0.478056  1
  Tb  Tb2  1  0.500000  0.821702  0.193717  1
  Tb  Tb3  1  0.500000  0.178298  0.193717  1
  Tb  Tb4  1  0.000000  0.678298  0.806283  1
  Tb  Tb5  1  0.000000  0.321702  0.806283  1
  Fe  Fe6  1  0.000000  0.500000  0.993446  1
  Fe  Fe7  1  0.500000  0.000000  0.006554  1
  Fe  Fe8  1  0.500000  0.334764  0.996116  1
  Fe  Fe9  1  0.500000  0.665236  0.996116  1
  Fe  Fe10  1  0.000000  0.165236  0.003884  1
  Fe  Fe11  1  0.000000  0.834764  0.003884  1
  P  P12  1  0.500000  0.500000  0.896783  1
  P  P13  1  0.000000  0.000000  0.103217  1
  P  P14  1  0.500000  0.500000  0.342877  1
  P  P15  1  0.000000  0.000000  0.657123  1
  P  P16  1  0.500000  0.313598  0.622551  1
  P  P17  1  0.500000  0.686402  0.622551  1
  P  P18  1  0.000000  0.186402  0.377449  1
  P  P19  1  0.000000  0.813598  0.377449  1
  P  P20  1  0.500000  0.838327  0.908186  1
  P  P21  1  0.500000  0.161673  0.908186  1
  P  P22  1  0.000000  0.661673  0.091814  1
  P  P23  1  0.000000  0.338327  0.091814  1
  Rh  Rh24  1  0.500000  0.500000  0.154443  1
  Rh  Rh25  1  0.000000  0.000000  0.845557  1
  Rh  Rh26  1  0.500000  0.500000  0.706263  1
  Rh  Rh27  1  0.000000  0.000000  0.293737  1
  Rh  Rh28  1  0.500000  0.294534  0.427943  1
  Rh  Rh29  1  0.500000  0.705466  0.427943  1
  Rh  Rh30  1  0.000000  0.205466  0.572057  1
  Rh  Rh31  1  0.000000  0.794534  0.572057  1
  Rh  Rh32  1  0.500000  0.874167  0.718918  1
  Rh  Rh33  1  0.500000  0.125833  0.718918  1
  Rh  Rh34  1  0.000000  0.625833  0.281082  1
  Rh  Rh35  1  0.000000  0.374167  0.281082  1
