# generated using pymatgen
data_TmPa3(Co5P3)4
_symmetry_space_group_name_H-M   'P 1'
_cell_length_a   3.67351800
_cell_length_b   10.33217644
_cell_length_c   11.67666649
_cell_angle_alpha   89.96661081
_cell_angle_beta   90.00000000
_cell_angle_gamma   90.00000000
_symmetry_Int_Tables_number   1
_chemical_formula_structural   TmPa3(Co5P3)4
_chemical_formula_sum   'Tm1 Pa3 Co20 P12'
_cell_volume   443.19289409
_cell_formula_units_Z   1
loop_
 _symmetry_equiv_pos_site_id
 _symmetry_equiv_pos_as_xyz
  1  'x, y, z'
loop_
 _atom_site_type_symbol
 _atom_site_label
 _atom_site_symmetry_multiplicity
 _atom_site_fract_x
 _atom_site_fract_y
 _atom_site_fract_z
 _atom_site_occupancy
  Tm  Tm0  1  0.750000  0.084006  0.798355  1
  Pa  Pa1  1  0.250000  0.583430  0.701449  1
  Pa  Pa2  1  0.250000  0.916248  0.203484  1
  Pa  Pa3  1  0.750000  0.417292  0.297976  1
  Co  Co4  1  0.250000  0.717150  0.989633  1
  Co  Co5  1  0.250000  0.786023  0.490072  1
  Co  Co6  1  0.750000  0.283859  0.005862  1
  Co  Co7  1  0.750000  0.216926  0.504896  1
  Co  Co8  1  0.250000  0.409334  0.480659  1
  Co  Co9  1  0.250000  0.092602  0.986758  1
  Co  Co10  1  0.750000  0.591926  0.520345  1
  Co  Co11  1  0.750000  0.907879  0.018383  1
  Co  Co12  1  0.250000  0.219563  0.178650  1
  Co  Co13  1  0.250000  0.280267  0.675852  1
  Co  Co14  1  0.750000  0.780300  0.823697  1
  Co  Co15  1  0.750000  0.719924  0.321999  1
  Co  Co16  1  0.250000  0.883957  0.699388  1
  Co  Co17  1  0.250000  0.615364  0.199018  1
  Co  Co18  1  0.750000  0.113200  0.300506  1
  Co  Co19  1  0.750000  0.385159  0.799696  1
  Co  Co20  1  0.250000  0.468783  0.929117  1
  Co  Co21  1  0.250000  0.028518  0.431428  1
  Co  Co22  1  0.750000  0.526950  0.069346  1
  Co  Co23  1  0.750000  0.973851  0.570667  1
  P  P24  1  0.250000  0.414926  0.110353  1
  P  P25  1  0.250000  0.083537  0.614520  1
  P  P26  1  0.750000  0.584041  0.889131  1
  P  P27  1  0.750000  0.914005  0.392568  1
  P  P28  1  0.250000  0.270221  0.869039  1
  P  P29  1  0.250000  0.223054  0.371378  1
  P  P30  1  0.750000  0.723581  0.127639  1
  P  P31  1  0.750000  0.778254  0.629787  1
  P  P32  1  0.250000  0.607550  0.392032  1
  P  P33  1  0.250000  0.900039  0.890812  1
  P  P34  1  0.750000  0.392381  0.608123  1
  P  P35  1  0.750000  0.105899  0.107379  1
