# generated using pymatgen
data_Yb6Er2Si12Pd3Pt
_symmetry_space_group_name_H-M   'P 1'
_cell_length_a   8.21832400
_cell_length_b   8.21832319
_cell_length_c   8.10613100
_cell_angle_alpha   90.00000000
_cell_angle_beta   90.00000000
_cell_angle_gamma   119.99999522
_symmetry_Int_Tables_number   1
_chemical_formula_structural   Yb6Er2Si12Pd3Pt
_chemical_formula_sum   'Yb6 Er2 Si12 Pd3 Pt1'
_cell_volume   474.14453090
_cell_formula_units_Z   1
loop_
 _symmetry_equiv_pos_site_id
 _symmetry_equiv_pos_as_xyz
  1  'x, y, z'
loop_
 _atom_site_type_symbol
 _atom_site_label
 _atom_site_symmetry_multiplicity
 _atom_site_fract_x
 _atom_site_fract_y
 _atom_site_fract_z
 _atom_site_occupancy
  Yb  Yb0  1  0.502629  0.005258  0.250176  1
  Yb  Yb1  1  0.497047  0.994094  0.749964  1
  Yb  Yb2  1  0.994742  0.497371  0.250176  1
  Yb  Yb3  1  0.005906  0.502953  0.749964  1
  Yb  Yb4  1  0.502629  0.497371  0.250176  1
  Yb  Yb5  1  0.497047  0.502953  0.749964  1
  Er  Er6  1  0.000000  0.000000  0.250141  1
  Er  Er7  1  0.000000  0.000000  0.749568  1
  Si  Si8  1  0.164507  0.329014  0.003623  1
  Si  Si9  1  0.836053  0.672107  0.996590  1
  Si  Si10  1  0.670986  0.835493  0.003623  1
  Si  Si11  1  0.836272  0.672545  0.503623  1
  Si  Si12  1  0.327893  0.163947  0.996590  1
  Si  Si13  1  0.163748  0.327496  0.496342  1
  Si  Si14  1  0.164507  0.835493  0.003623  1
  Si  Si15  1  0.327455  0.163728  0.503623  1
  Si  Si16  1  0.836053  0.163947  0.996590  1
  Si  Si17  1  0.672504  0.836252  0.496342  1
  Si  Si18  1  0.836272  0.163728  0.503623  1
  Si  Si19  1  0.163748  0.836252  0.496342  1
  Pd  Pd20  1  0.666667  0.333333  0.993185  1
  Pd  Pd21  1  0.666667  0.333333  0.507273  1
  Pd  Pd22  1  0.333333  0.666667  0.493270  1
  Pt  Pt23  1  0.333333  0.666667  0.005614  1
