# generated using pymatgen
data_Sc8BeB24IrRh2
_symmetry_space_group_name_H-M   'P 1'
_cell_length_a   3.43454000
_cell_length_b   8.89876796
_cell_length_c   11.19612617
_cell_angle_alpha   89.90002866
_cell_angle_beta   90.00000000
_cell_angle_gamma   90.00000000
_symmetry_Int_Tables_number   1
_chemical_formula_structural   Sc8BeB24IrRh2
_chemical_formula_sum   'Sc8 Be1 B24 Ir1 Rh2'
_cell_volume   342.18863728
_cell_formula_units_Z   1
loop_
 _symmetry_equiv_pos_site_id
 _symmetry_equiv_pos_as_xyz
  1  'x, y, z'
loop_
 _atom_site_type_symbol
 _atom_site_label
 _atom_site_symmetry_multiplicity
 _atom_site_fract_x
 _atom_site_fract_y
 _atom_site_fract_z
 _atom_site_occupancy
  Sc  Sc0  1  0.000000  0.947904  0.370476  1
  Sc  Sc1  1  0.000000  0.055147  0.626978  1
  Sc  Sc2  1  0.000000  0.556391  0.874116  1
  Sc  Sc3  1  0.000000  0.179211  0.920244  1
  Sc  Sc4  1  0.000000  0.825880  0.087795  1
  Sc  Sc5  1  0.000000  0.681212  0.584585  1
  Sc  Sc6  1  0.000000  0.314608  0.408712  1
  Sc  Sc7  1  0.000000  0.439590  0.128153  1
  Be  Be8  1  0.000000  0.138478  0.179452  1
  B  B9  1  0.500000  0.367413  0.819995  1
  B  B10  1  0.500000  0.982970  0.211271  1
  B  B11  1  0.500000  0.553288  0.434819  1
  B  B12  1  0.500000  0.295175  0.237225  1
  B  B13  1  0.500000  0.203534  0.737881  1
  B  B14  1  0.500000  0.102656  0.471129  1
  B  B15  1  0.500000  0.798138  0.261643  1
  B  B16  1  0.500000  0.446454  0.563395  1
  B  B17  1  0.500000  0.247249  0.576946  1
  B  B18  1  0.500000  0.477665  0.286991  1
  B  B19  1  0.500000  0.704312  0.761517  1
  B  B20  1  0.500000  0.755344  0.420371  1
  B  B21  1  0.500000  0.520119  0.713548  1
  B  B22  1  0.500000  0.899424  0.526628  1
  B  B23  1  0.500000  0.054358  0.065690  1
  B  B24  1  0.500000  0.600755  0.028053  1
  B  B25  1  0.500000  0.748892  0.923831  1
  B  B26  1  0.500000  0.019536  0.788340  1
  B  B27  1  0.500000  0.396629  0.973510  1
  B  B28  1  0.500000  0.947626  0.938049  1
  B  B29  1  0.500000  0.630971  0.181773  1
  B  B30  1  0.500000  0.250524  0.080054  1
  B  B31  1  0.500000  0.867813  0.679895  1
  B  B32  1  0.500000  0.132114  0.317212  1
  Ir  Ir33  1  0.000000  0.359586  0.680405  1
  Rh  Rh34  1  0.000000  0.857544  0.818197  1
  Rh  Rh35  1  0.000000  0.641498  0.321118  1
