# generated using pymatgen
data_Zr6Zn22BRh
_symmetry_space_group_name_H-M   'P 1'
_cell_length_a   8.71903715
_cell_length_b   8.71903789
_cell_length_c   8.71903800
_cell_angle_alpha   60.00000715
_cell_angle_beta   60.00000436
_cell_angle_gamma   60.00000132
_symmetry_Int_Tables_number   1
_chemical_formula_structural   Zr6Zn22BRh
_chemical_formula_sum   'Zr6 Zn22 B1 Rh1'
_cell_volume   468.69541769
_cell_formula_units_Z   1
loop_
 _symmetry_equiv_pos_site_id
 _symmetry_equiv_pos_as_xyz
  1  'x, y, z'
loop_
 _atom_site_type_symbol
 _atom_site_label
 _atom_site_symmetry_multiplicity
 _atom_site_fract_x
 _atom_site_fract_y
 _atom_site_fract_z
 _atom_site_occupancy
  Zr  Zr0  1  0.694494  0.305506  0.305506  1
  Zr  Zr1  1  0.305506  0.694494  0.694494  1
  Zr  Zr2  1  0.305506  0.694494  0.305506  1
  Zr  Zr3  1  0.694494  0.305506  0.694494  1
  Zr  Zr4  1  0.305506  0.305506  0.694494  1
  Zr  Zr5  1  0.694494  0.694494  0.305506  1
  Zn  Zn6  1  0.119392  0.119392  0.119392  1
  Zn  Zn7  1  0.880608  0.880608  0.880608  1
  Zn  Zn8  1  0.119392  0.119392  0.641824  1
  Zn  Zn9  1  0.119392  0.641824  0.119392  1
  Zn  Zn10  1  0.880608  0.880608  0.358176  1
  Zn  Zn11  1  0.880608  0.358176  0.880608  1
  Zn  Zn12  1  0.641824  0.119392  0.119392  1
  Zn  Zn13  1  0.358176  0.880608  0.880608  1
  Zn  Zn14  1  0.500000  0.000000  0.000000  1
  Zn  Zn15  1  0.000000  0.500000  0.500000  1
  Zn  Zn16  1  0.000000  0.500000  0.000000  1
  Zn  Zn17  1  0.500000  0.000000  0.500000  1
  Zn  Zn18  1  0.000000  0.000000  0.500000  1
  Zn  Zn19  1  0.500000  0.500000  0.000000  1
  Zn  Zn20  1  0.332338  0.332338  0.332338  1
  Zn  Zn21  1  0.667662  0.667662  0.667662  1
  Zn  Zn22  1  0.332338  0.332338  0.002986  1
  Zn  Zn23  1  0.332338  0.002986  0.332338  1
  Zn  Zn24  1  0.667662  0.667662  0.997014  1
  Zn  Zn25  1  0.667662  0.997014  0.667662  1
  Zn  Zn26  1  0.002986  0.332338  0.332338  1
  Zn  Zn27  1  0.997014  0.667662  0.667662  1
  B  B28  1  0.500000  0.500000  0.500000  1
  Rh  Rh29  1  0.000000  0.000000  0.000000  1
