# generated using pymatgen
data_YEr2Ni6B2Ir
_symmetry_space_group_name_H-M   'P 1'
_cell_length_a   5.07263400
_cell_length_b   5.07263458
_cell_length_c   14.59000000
_cell_angle_alpha   90.00000000
_cell_angle_beta   90.00000000
_cell_angle_gamma   120.00000926
_symmetry_Int_Tables_number   1
_chemical_formula_structural   YEr2Ni6B2Ir
_chemical_formula_sum   'Y2 Er4 Ni12 B4 Ir2'
_cell_volume   325.12696445
_cell_formula_units_Z   2
loop_
 _symmetry_equiv_pos_site_id
 _symmetry_equiv_pos_as_xyz
  1  'x, y, z'
loop_
 _atom_site_type_symbol
 _atom_site_label
 _atom_site_symmetry_multiplicity
 _atom_site_fract_x
 _atom_site_fract_y
 _atom_site_fract_z
 _atom_site_occupancy
  Y  Y0  1  0.333333  0.666667  0.468378  1
  Y  Y1  1  0.666667  0.333333  0.968378  1
  Er  Er2  1  0.666667  0.333333  0.531629  1
  Er  Er3  1  0.333333  0.666667  0.031629  1
  Er  Er4  1  0.666667  0.333333  0.749616  1
  Er  Er5  1  0.333333  0.666667  0.249616  1
  Ni  Ni6  1  0.834606  0.165394  0.347920  1
  Ni  Ni7  1  0.834606  0.669212  0.347920  1
  Ni  Ni8  1  0.834644  0.669288  0.152008  1
  Ni  Ni9  1  0.165356  0.834644  0.652008  1
  Ni  Ni10  1  0.669288  0.834644  0.652008  1
  Ni  Ni11  1  0.330712  0.165356  0.152008  1
  Ni  Ni12  1  0.834644  0.165356  0.152008  1
  Ni  Ni13  1  0.165394  0.330788  0.847920  1
  Ni  Ni14  1  0.165394  0.834606  0.847920  1
  Ni  Ni15  1  0.165356  0.330712  0.652008  1
  Ni  Ni16  1  0.669212  0.834606  0.847920  1
  Ni  Ni17  1  0.330788  0.165394  0.347920  1
  B  B18  1  0.666667  0.333333  0.250011  1
  B  B19  1  0.333333  0.666667  0.750011  1
  B  B20  1  0.000000  0.000000  0.750172  1
  B  B21  1  0.000000  0.000000  0.250172  1
  Ir  Ir22  1  0.000000  0.000000  0.000410  1
  Ir  Ir23  1  0.000000  0.000000  0.500410  1
