# generated using pymatgen
data_Hf8Zr2BePPb6
_symmetry_space_group_name_H-M   'P 1'
_cell_length_a   8.71181707
_cell_length_b   8.71181825
_cell_length_c   5.88293523
_cell_angle_alpha   89.97942060
_cell_angle_beta   89.97942246
_cell_angle_gamma   120.09606228
_symmetry_Int_Tables_number   1
_chemical_formula_structural   Hf8Zr2BePPb6
_chemical_formula_sum   'Hf8 Zr2 Be1 P1 Pb6'
_cell_volume   386.29664283
_cell_formula_units_Z   1
loop_
 _symmetry_equiv_pos_site_id
 _symmetry_equiv_pos_as_xyz
  1  'x, y, z'
loop_
 _atom_site_type_symbol
 _atom_site_label
 _atom_site_symmetry_multiplicity
 _atom_site_fract_x
 _atom_site_fract_y
 _atom_site_fract_z
 _atom_site_occupancy
  Hf  Hf0  1  0.666792  0.333163  0.999419  1
  Hf  Hf1  1  0.333163  0.666792  0.999419  1
  Hf  Hf2  1  0.333315  0.666619  0.500894  1
  Hf  Hf3  1  0.666619  0.333315  0.500894  1
  Hf  Hf4  1  0.754397  0.754397  0.751306  1
  Hf  Hf5  1  0.246709  0.001030  0.753911  1
  Hf  Hf6  1  0.001030  0.246709  0.753911  1
  Hf  Hf7  1  0.241619  0.241619  0.245769  1
  Zr  Zr8  1  0.756101  0.999156  0.247085  1
  Zr  Zr9  1  0.999156  0.756101  0.247085  1
  Be  Be10  1  0.000048  0.000048  0.994959  1
  P  P11  1  0.001553  0.001553  0.506058  1
  Pb  Pb12  1  0.395954  0.395954  0.749555  1
  Pb  Pb13  1  0.605189  0.000160  0.750197  1
  Pb  Pb14  1  0.000160  0.605189  0.750197  1
  Pb  Pb15  1  0.601890  0.601890  0.249082  1
  Pb  Pb16  1  0.395942  0.000365  0.250131  1
  Pb  Pb17  1  0.000365  0.395942  0.250131  1
