# generated using pymatgen
data_CaEr3Sb6Rh7
_symmetry_space_group_name_H-M   'P 1'
_cell_length_a   7.61124555
_cell_length_b   7.61124635
_cell_length_c   7.56866109
_cell_angle_alpha   109.35405299
_cell_angle_beta   109.35405190
_cell_angle_gamma   109.58889964
_symmetry_Int_Tables_number   1
_chemical_formula_structural   CaEr3Sb6Rh7
_chemical_formula_sum   'Ca1 Er3 Sb6 Rh7'
_cell_volume   338.01077042
_cell_formula_units_Z   1
loop_
 _symmetry_equiv_pos_site_id
 _symmetry_equiv_pos_as_xyz
  1  'x, y, z'
loop_
 _atom_site_type_symbol
 _atom_site_label
 _atom_site_symmetry_multiplicity
 _atom_site_fract_x
 _atom_site_fract_y
 _atom_site_fract_z
 _atom_site_occupancy
  Ca  Ca0  1  0.000000  0.000000  0.500000  1
  Er  Er1  1  0.500000  0.000000  0.000000  1
  Er  Er2  1  0.000000  0.500000  0.000000  1
  Er  Er3  1  0.500000  0.500000  0.500000  1
  Sb  Sb4  1  0.316213  0.000012  0.318228  1
  Sb  Sb5  1  0.999988  0.683787  0.681772  1
  Sb  Sb6  1  0.683785  0.683785  0.001974  1
  Sb  Sb7  1  0.683787  0.999988  0.681772  1
  Sb  Sb8  1  0.000012  0.316213  0.318228  1
  Sb  Sb9  1  0.316215  0.316215  0.998026  1
  Rh  Rh10  1  0.253726  0.507492  0.753732  1
  Rh  Rh11  1  0.507492  0.253726  0.753732  1
  Rh  Rh12  1  0.746232  0.253768  0.500000  1
  Rh  Rh13  1  0.492508  0.746274  0.246268  1
  Rh  Rh14  1  0.000000  0.000000  0.000000  1
  Rh  Rh15  1  0.253768  0.746232  0.500000  1
  Rh  Rh16  1  0.746274  0.492508  0.246268  1
