# generated using pymatgen
data_Ta6BiS12
_symmetry_space_group_name_H-M   'P 1'
_cell_length_a   5.81475640
_cell_length_b   5.81475574
_cell_length_c   14.15942232
_cell_angle_alpha   86.09849920
_cell_angle_beta   86.09849978
_cell_angle_gamma   120.00934805
_symmetry_Int_Tables_number   1
_chemical_formula_structural   Ta6BiS12
_chemical_formula_sum   'Ta6 Bi1 S12'
_cell_volume   410.71271077
_cell_formula_units_Z   1
loop_
 _symmetry_equiv_pos_site_id
 _symmetry_equiv_pos_as_xyz
  1  'x, y, z'
loop_
 _atom_site_type_symbol
 _atom_site_label
 _atom_site_symmetry_multiplicity
 _atom_site_fract_x
 _atom_site_fract_y
 _atom_site_fract_z
 _atom_site_occupancy
  Ta  Ta0  1  0.085437  0.085437  0.743119  1
  Ta  Ta1  1  0.419199  0.752736  0.742560  1
  Ta  Ta2  1  0.752736  0.419199  0.742560  1
  Ta  Ta3  1  0.247264  0.580801  0.257440  1
  Ta  Ta4  1  0.580801  0.247264  0.257440  1
  Ta  Ta5  1  0.914563  0.914563  0.256881  1
  Bi  Bi6  1  0.000000  0.000000  0.000000  1
  S  S7  1  0.290157  0.290157  0.144889  1
  S  S8  1  0.612661  0.951554  0.144858  1
  S  S9  1  0.951554  0.612661  0.144858  1
  S  S10  1  0.048446  0.387339  0.855142  1
  S  S11  1  0.387339  0.048446  0.855142  1
  S  S12  1  0.709843  0.709843  0.855111  1
  S  S13  1  0.209888  0.209888  0.366608  1
  S  S14  1  0.545789  0.877650  0.366607  1
  S  S15  1  0.877650  0.545789  0.366607  1
  S  S16  1  0.122350  0.454211  0.633393  1
  S  S17  1  0.454211  0.122350  0.633393  1
  S  S18  1  0.790112  0.790112  0.633392  1
