# generated using pymatgen
data_Ce5U(VAs5)2
_symmetry_space_group_name_H-M   'P 1'
_cell_length_a   8.66105890
_cell_length_b   8.61606064
_cell_length_c   5.81308200
_cell_angle_alpha   90.00000000
_cell_angle_beta   90.00000000
_cell_angle_gamma   119.82829080
_symmetry_Int_Tables_number   1
_chemical_formula_structural   Ce5U(VAs5)2
_chemical_formula_sum   'Ce5 U1 V2 As10'
_cell_volume   376.32724637
_cell_formula_units_Z   1
loop_
 _symmetry_equiv_pos_site_id
 _symmetry_equiv_pos_as_xyz
  1  'x, y, z'
loop_
 _atom_site_type_symbol
 _atom_site_label
 _atom_site_symmetry_multiplicity
 _atom_site_fract_x
 _atom_site_fract_y
 _atom_site_fract_z
 _atom_site_occupancy
  Ce  Ce0  1  0.381449  0.380305  0.750000  1
  Ce  Ce1  1  0.618551  0.998856  0.750000  1
  Ce  Ce2  1  0.000000  0.616078  0.750000  1
  Ce  Ce3  1  0.623404  0.623698  0.250000  1
  Ce  Ce4  1  0.376596  0.000294  0.250000  1
  U  U5  1  0.000000  0.381760  0.250000  1
  V  V6  1  0.000000  0.999276  0.998722  1
  V  V7  1  0.000000  0.999276  0.501278  1
  As  As8  1  0.750208  0.749437  0.750000  1
  As  As9  1  0.249792  0.999230  0.750000  1
  As  As10  1  0.000000  0.253666  0.750000  1
  As  As11  1  0.246096  0.252244  0.250000  1
  As  As12  1  0.753904  0.006148  0.250000  1
  As  As13  1  0.000000  0.747137  0.250000  1
  As  As14  1  0.670296  0.333296  0.005236  1
  As  As15  1  0.329704  0.663001  0.005236  1
  As  As16  1  0.329704  0.663001  0.494764  1
  As  As17  1  0.670296  0.333296  0.494764  1
