# generated using pymatgen
data_Pr17(ErGa4)3
_symmetry_space_group_name_H-M   'P 1'
_cell_length_a   7.84029300
_cell_length_b   7.84029300
_cell_length_c   14.87328100
_cell_angle_alpha   90.00000000
_cell_angle_beta   90.00000000
_cell_angle_gamma   90.00000000
_symmetry_Int_Tables_number   1
_chemical_formula_structural   Pr17(ErGa4)3
_chemical_formula_sum   'Pr17 Er3 Ga12'
_cell_volume   914.26347333
_cell_formula_units_Z   1
loop_
 _symmetry_equiv_pos_site_id
 _symmetry_equiv_pos_as_xyz
  1  'x, y, z'
loop_
 _atom_site_type_symbol
 _atom_site_label
 _atom_site_symmetry_multiplicity
 _atom_site_fract_x
 _atom_site_fract_y
 _atom_site_fract_z
 _atom_site_occupancy
  Pr  Pr0  1  0.813529  0.839942  0.603649  1
  Pr  Pr1  1  0.183193  0.839279  0.104216  1
  Pr  Pr2  1  0.160603  0.815735  0.395245  1
  Pr  Pr3  1  0.839397  0.184265  0.395245  1
  Pr  Pr4  1  0.684265  0.660603  0.395245  1
  Pr  Pr5  1  0.660058  0.313529  0.603649  1
  Pr  Pr6  1  0.339942  0.686471  0.603649  1
  Pr  Pr7  1  0.660721  0.683193  0.104216  1
  Pr  Pr8  1  0.686381  0.342565  0.896226  1
  Pr  Pr9  1  0.842565  0.813619  0.896226  1
  Pr  Pr10  1  0.315735  0.339397  0.395245  1
  Pr  Pr11  1  0.186471  0.160058  0.603649  1
  Pr  Pr12  1  0.816807  0.160721  0.104216  1
  Pr  Pr13  1  0.313619  0.657435  0.896226  1
  Pr  Pr14  1  0.339279  0.316807  0.104216  1
  Pr  Pr15  1  0.157435  0.186381  0.896226  1
  Pr  Pr16  1  0.500000  0.000000  0.786700  1
  Er  Er17  1  0.000000  0.500000  0.722237  1
  Er  Er18  1  0.000000  0.500000  0.223744  1
  Er  Er19  1  0.500000  0.000000  0.274969  1
  Ga  Ga20  1  0.621760  0.378199  0.249678  1
  Ga  Ga21  1  0.116675  0.875435  0.748286  1
  Ga  Ga22  1  0.375435  0.383325  0.748286  1
  Ga  Ga23  1  0.378240  0.621801  0.249678  1
  Ga  Ga24  1  0.878199  0.878240  0.249678  1
  Ga  Ga25  1  0.624565  0.616675  0.748286  1
  Ga  Ga26  1  0.000000  0.500000  0.511828  1
  Ga  Ga27  1  0.883325  0.124565  0.748286  1
  Ga  Ga28  1  0.500000  0.000000  0.483023  1
  Ga  Ga29  1  0.500000  0.000000  0.994834  1
  Ga  Ga30  1  0.121801  0.121760  0.249678  1
  Ga  Ga31  1  0.000000  0.500000  0.013463  1
