# generated using pymatgen
data_LiFePdO4
_symmetry_space_group_name_H-M   'P 1'
_cell_length_a   6.09497600
_cell_length_b   5.99930000
_cell_length_c   8.58807300
_cell_angle_alpha   89.99997395
_cell_angle_beta   90.00010675
_cell_angle_gamma   89.99990600
_symmetry_Int_Tables_number   1
_chemical_formula_structural   LiFePdO4
_chemical_formula_sum   'Li4 Fe4 Pd4 O16'
_cell_volume   314.02795206
_cell_formula_units_Z   4
loop_
 _symmetry_equiv_pos_site_id
 _symmetry_equiv_pos_as_xyz
  1  'x, y, z'
loop_
 _atom_site_type_symbol
 _atom_site_label
 _atom_site_symmetry_multiplicity
 _atom_site_fract_x
 _atom_site_fract_y
 _atom_site_fract_z
 _atom_site_occupancy
  Li  Li0  1  0.000004  0.249999  0.110558  1
  Li  Li1  1  0.499984  0.750001  0.610552  1
  Li  Li2  1  0.000020  0.749997  0.889437  1
  Li  Li3  1  0.500000  0.250001  0.389436  1
  Fe  Fe4  1  0.500114  0.000052  0.000009  1
  Fe  Fe5  1  0.000006  0.000109  0.500069  1
  Fe  Fe6  1  0.999896  0.499917  0.500025  1
  Fe  Fe7  1  0.500079  0.499930  0.999930  1
  Pd  Pd8  1  0.249909  0.750017  0.249988  1
  Pd  Pd9  1  0.749907  0.249986  0.749985  1
  Pd  Pd10  1  0.750079  0.750019  0.249992  1
  Pd  Pd11  1  0.250091  0.249987  0.750000  1
  O  O12  1  0.999987  0.524042  0.259488  1
  O  O13  1  0.499993  0.024049  0.759496  1
  O  O14  1  0.999992  0.975951  0.259495  1
  O  O15  1  0.499994  0.475950  0.759482  1
  O  O16  1  0.999991  0.024035  0.740518  1
  O  O17  1  0.499995  0.524027  0.240507  1
  O  O18  1  0.999987  0.475965  0.740511  1
  O  O19  1  0.499992  0.975965  0.240520  1
  O  O20  1  0.225605  0.749990  0.488047  1
  O  O21  1  0.725628  0.250005  0.988042  1
  O  O22  1  0.774364  0.750006  0.488048  1
  O  O23  1  0.274394  0.250002  0.988044  1
  O  O24  1  0.774371  0.249990  0.511958  1
  O  O25  1  0.274393  0.750004  0.011952  1
  O  O26  1  0.225599  0.250006  0.511957  1
  O  O27  1  0.725629  0.750001  0.011954  1
