# generated using pymatgen
data_Dy2Y4Al23VOs8
_symmetry_space_group_name_H-M   'P 1'
_cell_length_a   8.84256000
_cell_length_b   8.84131630
_cell_length_c   9.54335501
_cell_angle_alpha   90.00200705
_cell_angle_beta   90.00000000
_cell_angle_gamma   120.00464594
_symmetry_Int_Tables_number   1
_chemical_formula_structural   Dy2Y4Al23VOs8
_chemical_formula_sum   'Dy2 Y4 Al23 V1 Os8'
_cell_volume   646.10978828
_cell_formula_units_Z   1
loop_
 _symmetry_equiv_pos_site_id
 _symmetry_equiv_pos_as_xyz
  1  'x, y, z'
loop_
 _atom_site_type_symbol
 _atom_site_label
 _atom_site_symmetry_multiplicity
 _atom_site_fract_x
 _atom_site_fract_y
 _atom_site_fract_z
 _atom_site_occupancy
  Dy  Dy0  1  0.195139  0.390278  0.246559  1
  Dy  Dy1  1  0.807338  0.614677  0.750620  1
  Y  Y2  1  0.609795  0.804843  0.246773  1
  Y  Y3  1  0.385404  0.192730  0.750732  1
  Y  Y4  1  0.195048  0.804843  0.246773  1
  Y  Y5  1  0.807326  0.192730  0.750732  1
  Al  Al6  1  0.666683  0.333366  0.977945  1
  Al  Al7  1  0.666667  0.333332  0.519006  1
  Al  Al8  1  0.333330  0.666660  0.483472  1
  Al  Al9  1  0.162251  0.324502  0.574995  1
  Al  Al10  1  0.836967  0.673934  0.425568  1
  Al  Al11  1  0.675550  0.837777  0.575151  1
  Al  Al12  1  0.835484  0.670967  0.075745  1
  Al  Al13  1  0.326027  0.163011  0.425478  1
  Al  Al14  1  0.160628  0.321256  0.926297  1
  Al  Al15  1  0.162226  0.837777  0.575151  1
  Al  Al16  1  0.329019  0.164506  0.075846  1
  Al  Al17  1  0.836983  0.163011  0.425478  1
  Al  Al18  1  0.678737  0.839362  0.926193  1
  Al  Al19  1  0.835488  0.164506  0.075846  1
  Al  Al20  1  0.160627  0.839362  0.926193  1
  Al  Al21  1  0.562011  0.124021  0.252915  1
  Al  Al22  1  0.441591  0.883183  0.750918  1
  Al  Al23  1  0.875969  0.437937  0.252920  1
  Al  Al24  1  0.116810  0.558453  0.750933  1
  Al  Al25  1  0.561967  0.437937  0.252920  1
  Al  Al26  1  0.441643  0.558453  0.750933  1
  Al  Al27  1  0.000088  0.000174  0.250255  1
  Al  Al28  1  0.999898  0.999795  0.749630  1
  V  V29  1  0.333289  0.666578  0.982356  1
  Os  Os30  1  0.495251  0.990502  0.005096  1
  Os  Os31  1  0.009583  0.504721  0.005233  1
  Os  Os32  1  0.499340  0.998680  0.503295  1
  Os  Os33  1  0.495138  0.504721  0.005233  1
  Os  Os34  1  0.001300  0.500696  0.503307  1
  Os  Os35  1  0.499395  0.500696  0.503307  1
  Os  Os36  1  0.000011  0.000022  0.000833  1
  Os  Os37  1  0.000001  0.000004  0.499362  1
