# generated using pymatgen
data_HoEr3Ga4(IrPd)2
_symmetry_space_group_name_H-M   'P 1'
_cell_length_a   4.39635500
_cell_length_b   6.81842017
_cell_length_c   7.69555743
_cell_angle_alpha   89.90876851
_cell_angle_beta   90.00000000
_cell_angle_gamma   90.00000000
_symmetry_Int_Tables_number   1
_chemical_formula_structural   HoEr3Ga4(IrPd)2
_chemical_formula_sum   'Ho1 Er3 Ga4 Ir2 Pd2'
_cell_volume   230.68324235
_cell_formula_units_Z   1
loop_
 _symmetry_equiv_pos_site_id
 _symmetry_equiv_pos_as_xyz
  1  'x, y, z'
loop_
 _atom_site_type_symbol
 _atom_site_label
 _atom_site_symmetry_multiplicity
 _atom_site_fract_x
 _atom_site_fract_y
 _atom_site_fract_z
 _atom_site_occupancy
  Ho  Ho0  1  0.750000  0.025737  0.686150  1
  Er  Er1  1  0.250000  0.984055  0.305472  1
  Er  Er2  1  0.250000  0.484201  0.194355  1
  Er  Er3  1  0.750000  0.525993  0.814263  1
  Ga  Ga4  1  0.250000  0.335447  0.568253  1
  Ga  Ga5  1  0.250000  0.835528  0.931653  1
  Ga  Ga6  1  0.750000  0.659019  0.428955  1
  Ga  Ga7  1  0.750000  0.159113  0.071445  1
  Ir  Ir8  1  0.750000  0.769530  0.107663  1
  Ir  Ir9  1  0.750000  0.270127  0.391912  1
  Pd  Pd10  1  0.250000  0.226432  0.892350  1
  Pd  Pd11  1  0.250000  0.724821  0.607529  1
