# generated using pymatgen
data_YHo3(Co5P3)4
_symmetry_space_group_name_H-M   'P 1'
_cell_length_a   3.64055100
_cell_length_b   10.26309416
_cell_length_c   11.70921935
_cell_angle_alpha   90.02432901
_cell_angle_beta   90.00000000
_cell_angle_gamma   90.00000000
_symmetry_Int_Tables_number   1
_chemical_formula_structural   YHo3(Co5P3)4
_chemical_formula_sum   'Y1 Ho3 Co20 P12'
_cell_volume   437.49524354
_cell_formula_units_Z   1
loop_
 _symmetry_equiv_pos_site_id
 _symmetry_equiv_pos_as_xyz
  1  'x, y, z'
loop_
 _atom_site_type_symbol
 _atom_site_label
 _atom_site_symmetry_multiplicity
 _atom_site_fract_x
 _atom_site_fract_y
 _atom_site_fract_z
 _atom_site_occupancy
  Y  Y0  1  0.250000  0.583112  0.702757  1
  Ho  Ho1  1  0.250000  0.917151  0.202562  1
  Ho  Ho2  1  0.750000  0.417101  0.297472  1
  Ho  Ho3  1  0.750000  0.082696  0.797413  1
  Co  Co4  1  0.250000  0.716809  0.992026  1
  Co  Co5  1  0.250000  0.783500  0.491620  1
  Co  Co6  1  0.750000  0.283160  0.008232  1
  Co  Co7  1  0.750000  0.216519  0.507853  1
  Co  Co8  1  0.250000  0.406681  0.487661  1
  Co  Co9  1  0.250000  0.092903  0.987861  1
  Co  Co10  1  0.750000  0.592947  0.511192  1
  Co  Co11  1  0.750000  0.906953  0.012190  1
  Co  Co12  1  0.250000  0.221157  0.176675  1
  Co  Co13  1  0.250000  0.278541  0.676618  1
  Co  Co14  1  0.750000  0.779119  0.823531  1
  Co  Co15  1  0.750000  0.721521  0.323122  1
  Co  Co16  1  0.250000  0.883214  0.698720  1
  Co  Co17  1  0.250000  0.617156  0.198942  1
  Co  Co18  1  0.750000  0.117165  0.301183  1
  Co  Co19  1  0.750000  0.382325  0.801514  1
  Co  Co20  1  0.250000  0.467567  0.932126  1
  Co  Co21  1  0.250000  0.032223  0.431561  1
  Co  Co22  1  0.750000  0.532066  0.068818  1
  Co  Co23  1  0.750000  0.968254  0.568273  1
  P  P24  1  0.250000  0.418354  0.112518  1
  P  P25  1  0.250000  0.081587  0.612187  1
  P  P26  1  0.750000  0.581589  0.888505  1
  P  P27  1  0.750000  0.918620  0.387739  1
  P  P28  1  0.250000  0.270296  0.870304  1
  P  P29  1  0.250000  0.229549  0.370163  1
  P  P30  1  0.750000  0.729708  0.129688  1
  P  P31  1  0.750000  0.770938  0.629258  1
  P  P32  1  0.250000  0.601718  0.391173  1
  P  P33  1  0.250000  0.898331  0.891207  1
  P  P34  1  0.750000  0.397886  0.608532  1
  P  P35  1  0.750000  0.101582  0.108803  1
