# generated using pymatgen
data_TbSn6IrRu3
_symmetry_space_group_name_H-M   'P 1'
_cell_length_a   6.97215380
_cell_length_b   6.97413986
_cell_length_c   6.97471538
_cell_angle_alpha   120.36344385
_cell_angle_beta   120.35410045
_cell_angle_gamma   89.36667586
_symmetry_Int_Tables_number   1
_chemical_formula_structural   TbSn6IrRu3
_chemical_formula_sum   'Tb1 Sn6 Ir1 Ru3'
_cell_volume   238.52220096
_cell_formula_units_Z   1
loop_
 _symmetry_equiv_pos_site_id
 _symmetry_equiv_pos_as_xyz
  1  'x, y, z'
loop_
 _atom_site_type_symbol
 _atom_site_label
 _atom_site_symmetry_multiplicity
 _atom_site_fract_x
 _atom_site_fract_y
 _atom_site_fract_z
 _atom_site_occupancy
  Tb  Tb0  1  0.000213  0.998659  0.000000  1
  Sn  Sn1  1  0.876717  0.532421  0.000000  1
  Sn  Sn2  1  0.536147  0.881125  0.000000  1
  Sn  Sn3  1  0.120254  0.115062  0.649285  1
  Sn  Sn4  1  0.000775  0.499717  0.495296  1
  Sn  Sn5  1  0.470969  0.465777  0.350715  1
  Sn  Sn6  1  0.505479  0.004421  0.504704  1
  Ir  Ir7  1  0.243554  0.600144  0.000000  1
  Ru  Ru8  1  0.401646  0.403901  0.653230  1
  Ru  Ru9  1  0.595831  0.248102  0.000000  1
  Ru  Ru10  1  0.748416  0.750671  0.346770  1
