# generated using pymatgen
data_Ho5ErZr2(Co4P3)4
_symmetry_space_group_name_H-M   'P 1'
_cell_length_a   3.71457600
_cell_length_b   10.67539500
_cell_length_c   12.38333300
_cell_angle_alpha   90.00221144
_cell_angle_beta   90.00000000
_cell_angle_gamma   90.00000000
_symmetry_Int_Tables_number   1
_chemical_formula_structural   Ho5ErZr2(Co4P3)4
_chemical_formula_sum   'Ho5 Er1 Zr2 Co16 P12'
_cell_volume   491.05569628
_cell_formula_units_Z   1
loop_
 _symmetry_equiv_pos_site_id
 _symmetry_equiv_pos_as_xyz
  1  'x, y, z'
loop_
 _atom_site_type_symbol
 _atom_site_label
 _atom_site_symmetry_multiplicity
 _atom_site_fract_x
 _atom_site_fract_y
 _atom_site_fract_z
 _atom_site_occupancy
  Ho  Ho0  1  0.750000  0.250025  0.470294  1
  Ho  Ho1  1  0.250000  0.750001  0.529646  1
  Ho  Ho2  1  0.250000  0.928014  0.795217  1
  Ho  Ho3  1  0.250000  0.571970  0.795193  1
  Ho  Ho4  1  0.750000  0.071960  0.204821  1
  Er  Er5  1  0.750000  0.428105  0.204786  1
  Zr  Zr6  1  0.250000  0.250021  0.841468  1
  Zr  Zr7  1  0.750000  0.749920  0.158606  1
  Co  Co8  1  0.250000  0.250335  0.297110  1
  Co  Co9  1  0.750000  0.749972  0.702748  1
  Co  Co10  1  0.750000  0.250130  0.014431  1
  Co  Co11  1  0.250000  0.749928  0.985712  1
  Co  Co12  1  0.250000  0.417965  0.007424  1
  Co  Co13  1  0.250000  0.082106  0.007291  1
  Co  Co14  1  0.750000  0.581945  0.992823  1
  Co  Co15  1  0.750000  0.917939  0.992737  1
  Co  Co16  1  0.250000  0.454960  0.566392  1
  Co  Co17  1  0.250000  0.045050  0.566445  1
  Co  Co18  1  0.750000  0.544969  0.433436  1
  Co  Co19  1  0.750000  0.954969  0.433520  1
  Co  Co20  1  0.250000  0.872804  0.298899  1
  Co  Co21  1  0.250000  0.626960  0.298735  1
  Co  Co22  1  0.750000  0.127195  0.701118  1
  Co  Co23  1  0.750000  0.372816  0.701095  1
  P  P24  1  0.250000  0.250296  0.116911  1
  P  P25  1  0.750000  0.749971  0.883268  1
  P  P26  1  0.250000  0.249994  0.636269  1
  P  P27  1  0.750000  0.750059  0.363678  1
  P  P28  1  0.250000  0.439280  0.383919  1
  P  P29  1  0.250000  0.060633  0.384192  1
  P  P30  1  0.750000  0.560623  0.615742  1
  P  P31  1  0.750000  0.939365  0.615793  1
  P  P32  1  0.250000  0.912268  0.106362  1
  P  P33  1  0.250000  0.587424  0.106612  1
  P  P34  1  0.750000  0.087733  0.893667  1
  P  P35  1  0.750000  0.412294  0.893641  1
