# generated using pymatgen
data_TbDy6Co4Sn23Os2
_symmetry_space_group_name_H-M   'P 1'
_cell_length_a   9.75616331
_cell_length_b   9.75616352
_cell_length_c   10.04343230
_cell_angle_alpha   90.47992569
_cell_angle_beta   89.52006746
_cell_angle_gamma   119.86839428
_symmetry_Int_Tables_number   1
_chemical_formula_structural   TbDy6Co4Sn23Os2
_chemical_formula_sum   'Tb1 Dy6 Co4 Sn23 Os2'
_cell_volume   828.94361404
_cell_formula_units_Z   1
loop_
 _symmetry_equiv_pos_site_id
 _symmetry_equiv_pos_as_xyz
  1  'x, y, z'
loop_
 _atom_site_type_symbol
 _atom_site_label
 _atom_site_symmetry_multiplicity
 _atom_site_fract_x
 _atom_site_fract_y
 _atom_site_fract_z
 _atom_site_occupancy
  Tb  Tb0  1  0.000000  0.000000  0.000000  1
  Dy  Dy1  1  0.480164  0.519836  0.306701  1
  Dy  Dy2  1  0.519836  0.480164  0.693299  1
  Dy  Dy3  1  0.481620  0.959639  0.304859  1
  Dy  Dy4  1  0.518380  0.040361  0.695141  1
  Dy  Dy5  1  0.040361  0.518380  0.304859  1
  Dy  Dy6  1  0.959639  0.481620  0.695141  1
  Co  Co7  1  0.830572  0.662539  0.198151  1
  Co  Co8  1  0.169428  0.337461  0.801849  1
  Co  Co9  1  0.337461  0.169428  0.198151  1
  Co  Co10  1  0.662539  0.830572  0.801849  1
  Sn  Sn11  1  0.349555  0.003341  0.004247  1
  Sn  Sn12  1  0.650445  0.996659  0.995753  1
  Sn  Sn13  1  0.003341  0.349555  0.995753  1
  Sn  Sn14  1  0.996659  0.650445  0.004247  1
  Sn  Sn15  1  0.654046  0.654046  0.000000  1
  Sn  Sn16  1  0.345954  0.345954  0.000000  1
  Sn  Sn17  1  0.334467  0.665533  0.818885  1
  Sn  Sn18  1  0.665533  0.334467  0.181115  1
  Sn  Sn19  1  0.000000  0.000000  0.500000  1
  Sn  Sn20  1  0.780487  0.219513  0.458226  1
  Sn  Sn21  1  0.219513  0.780487  0.541774  1
  Sn  Sn22  1  0.782250  0.564293  0.451513  1
  Sn  Sn23  1  0.217750  0.435707  0.548487  1
  Sn  Sn24  1  0.435707  0.217750  0.451513  1
  Sn  Sn25  1  0.564293  0.782250  0.548487  1
  Sn  Sn26  1  0.334007  0.665993  0.116934  1
  Sn  Sn27  1  0.665993  0.334007  0.883066  1
  Sn  Sn28  1  0.117194  0.882806  0.271117  1
  Sn  Sn29  1  0.882806  0.117194  0.728883  1
  Sn  Sn30  1  0.123691  0.236078  0.276033  1
  Sn  Sn31  1  0.876309  0.763922  0.723967  1
  Sn  Sn32  1  0.763922  0.876309  0.276033  1
  Sn  Sn33  1  0.236078  0.123691  0.723967  1
  Os  Os34  1  0.832276  0.167724  0.198796  1
  Os  Os35  1  0.167724  0.832276  0.801204  1
