# generated using pymatgen
data_Li4Al8OsPd3
_symmetry_space_group_name_H-M   'P 1'
_cell_length_a   6.07011400
_cell_length_b   4.32608800
_cell_length_c   8.66897300
_cell_angle_alpha   90.00000000
_cell_angle_beta   90.00034174
_cell_angle_gamma   90.00000000
_symmetry_Int_Tables_number   1
_chemical_formula_structural   Li4Al8OsPd3
_chemical_formula_sum   'Li4 Al8 Os1 Pd3'
_cell_volume   227.64590752
_cell_formula_units_Z   1
loop_
 _symmetry_equiv_pos_site_id
 _symmetry_equiv_pos_as_xyz
  1  'x, y, z'
loop_
 _atom_site_type_symbol
 _atom_site_label
 _atom_site_symmetry_multiplicity
 _atom_site_fract_x
 _atom_site_fract_y
 _atom_site_fract_z
 _atom_site_occupancy
  Li  Li0  1  0.249993  0.250001  0.124850  1
  Li  Li1  1  0.749989  0.750000  0.372604  1
  Li  Li2  1  0.250020  0.250001  0.624843  1
  Li  Li3  1  0.750023  0.750000  0.877646  1
  Al  Al4  1  0.507168  0.750000  0.125076  1
  Al  Al5  1  0.992836  0.750000  0.125087  1
  Al  Al6  1  0.503689  0.250001  0.368142  1
  Al  Al7  1  0.996309  0.250001  0.368152  1
  Al  Al8  1  0.998228  0.750000  0.625080  1
  Al  Al9  1  0.501784  0.750000  0.625087  1
  Al  Al10  1  0.996292  0.250001  0.881691  1
  Al  Al11  1  0.503742  0.250001  0.881693  1
  Os  Os12  1  0.750011  0.250001  0.124960  1
  Pd  Pd13  1  0.250006  0.750000  0.381562  1
  Pd  Pd14  1  0.750002  0.250001  0.624939  1
  Pd  Pd15  1  0.250008  0.750000  0.868593  1
