# generated using pymatgen
data_Ho8Cd3Cu8Sn
_symmetry_space_group_name_H-M   'P 1'
_cell_length_a   7.56061800
_cell_length_b   7.56061800
_cell_length_c   7.29848900
_cell_angle_alpha   90.00000000
_cell_angle_beta   90.00000000
_cell_angle_gamma   90.00000000
_symmetry_Int_Tables_number   1
_chemical_formula_structural   Ho8Cd3Cu8Sn
_chemical_formula_sum   'Ho8 Cd3 Cu8 Sn1'
_cell_volume   417.20312195
_cell_formula_units_Z   1
loop_
 _symmetry_equiv_pos_site_id
 _symmetry_equiv_pos_as_xyz
  1  'x, y, z'
loop_
 _atom_site_type_symbol
 _atom_site_label
 _atom_site_symmetry_multiplicity
 _atom_site_fract_x
 _atom_site_fract_y
 _atom_site_fract_z
 _atom_site_occupancy
  Ho  Ho0  1  0.831551  0.171761  0.500017  1
  Ho  Ho1  1  0.168449  0.828239  0.500017  1
  Ho  Ho2  1  0.328239  0.331551  0.999983  1
  Ho  Ho3  1  0.671761  0.668449  0.999983  1
  Ho  Ho4  1  0.680249  0.677499  0.500483  1
  Ho  Ho5  1  0.319751  0.322501  0.500483  1
  Ho  Ho6  1  0.177499  0.819751  0.999517  1
  Ho  Ho7  1  0.822501  0.180249  0.999517  1
  Cd  Cd8  1  0.500000  0.000000  0.250000  1
  Cd  Cd9  1  0.000000  0.500000  0.750000  1
  Cd  Cd10  1  0.500000  0.000000  0.750000  1
  Cu  Cu11  1  0.616477  0.377572  0.259710  1
  Cu  Cu12  1  0.383523  0.622428  0.259710  1
  Cu  Cu13  1  0.120629  0.117434  0.759124  1
  Cu  Cu14  1  0.879371  0.882566  0.759124  1
  Cu  Cu15  1  0.382566  0.620629  0.740876  1
  Cu  Cu16  1  0.617434  0.379371  0.740876  1
  Cu  Cu17  1  0.877572  0.883523  0.240290  1
  Cu  Cu18  1  0.122428  0.116477  0.240290  1
  Sn  Sn19  1  0.000000  0.500000  0.250000  1
