# generated using pymatgen
data_Nb5Co19(SiP)6
_symmetry_space_group_name_H-M   'P 1'
_cell_length_a   11.81676300
_cell_length_b   11.81676279
_cell_length_c   3.57104900
_cell_angle_alpha   90.00000000
_cell_angle_beta   90.00000000
_cell_angle_gamma   119.99999778
_symmetry_Int_Tables_number   1
_chemical_formula_structural   Nb5Co19(SiP)6
_chemical_formula_sum   'Nb5 Co19 Si6 P6'
_cell_volume   431.84062311
_cell_formula_units_Z   1
loop_
 _symmetry_equiv_pos_site_id
 _symmetry_equiv_pos_as_xyz
  1  'x, y, z'
loop_
 _atom_site_type_symbol
 _atom_site_label
 _atom_site_symmetry_multiplicity
 _atom_site_fract_x
 _atom_site_fract_y
 _atom_site_fract_z
 _atom_site_occupancy
  Nb  Nb0  1  0.333333  0.666667  0.500000  1
  Nb  Nb1  1  0.666667  0.333333  0.500000  1
  Nb  Nb2  1  0.818261  0.000000  0.000000  1
  Nb  Nb3  1  0.000000  0.818261  0.000000  1
  Nb  Nb4  1  0.181739  0.181739  0.000000  1
  Co  Co5  1  0.629897  0.808244  0.500000  1
  Co  Co6  1  0.191756  0.821653  0.500000  1
  Co  Co7  1  0.178347  0.370103  0.500000  1
  Co  Co8  1  0.370103  0.178347  0.500000  1
  Co  Co9  1  0.808244  0.629897  0.500000  1
  Co  Co10  1  0.821653  0.191756  0.500000  1
  Co  Co11  1  0.278381  0.000000  0.000000  1
  Co  Co12  1  0.000000  0.278381  0.000000  1
  Co  Co13  1  0.721619  0.721619  0.000000  1
  Co  Co14  1  0.449035  0.000000  0.500000  1
  Co  Co15  1  0.000000  0.449035  0.500000  1
  Co  Co16  1  0.550965  0.550965  0.500000  1
  Co  Co17  1  0.524451  0.876320  0.000000  1
  Co  Co18  1  0.123680  0.648131  0.000000  1
  Co  Co19  1  0.351869  0.475549  0.000000  1
  Co  Co20  1  0.475549  0.351869  0.000000  1
  Co  Co21  1  0.876320  0.524451  0.000000  1
  Co  Co22  1  0.648131  0.123680  0.000000  1
  Co  Co23  1  0.000000  0.000000  0.500000  1
  Si  Si24  1  0.514883  0.679481  0.000000  1
  Si  Si25  1  0.320519  0.835402  0.000000  1
  Si  Si26  1  0.164598  0.485117  0.000000  1
  Si  Si27  1  0.485117  0.164598  0.000000  1
  Si  Si28  1  0.679481  0.514883  0.000000  1
  Si  Si29  1  0.835402  0.320519  0.000000  1
  P  P30  1  0.176035  0.000000  0.500000  1
  P  P31  1  0.000000  0.176035  0.500000  1
  P  P32  1  0.823965  0.823965  0.500000  1
  P  P33  1  0.638811  0.000000  0.500000  1
  P  P34  1  0.000000  0.638811  0.500000  1
  P  P35  1  0.361189  0.361189  0.500000  1
