# generated using pymatgen
data_Y12Tc3Au
_symmetry_space_group_name_H-M   'P 1'
_cell_length_a   6.37023431
_cell_length_b   7.49001351
_cell_length_c   9.28148700
_cell_angle_alpha   90.00000000
_cell_angle_beta   90.00000000
_cell_angle_gamma   90.05930877
_symmetry_Int_Tables_number   1
_chemical_formula_structural   Y12Tc3Au
_chemical_formula_sum   'Y12 Tc3 Au1'
_cell_volume   442.84866079
_cell_formula_units_Z   1
loop_
 _symmetry_equiv_pos_site_id
 _symmetry_equiv_pos_as_xyz
  1  'x, y, z'
loop_
 _atom_site_type_symbol
 _atom_site_label
 _atom_site_symmetry_multiplicity
 _atom_site_fract_x
 _atom_site_fract_y
 _atom_site_fract_z
 _atom_site_occupancy
  Y  Y0  1  0.621260  0.047352  0.250000  1
  Y  Y1  1  0.367900  0.955694  0.750000  1
  Y  Y2  1  0.126071  0.460585  0.750000  1
  Y  Y3  1  0.867940  0.528517  0.250000  1
  Y  Y4  1  0.168728  0.186346  0.055939  1
  Y  Y5  1  0.828689  0.825367  0.929978  1
  Y  Y6  1  0.666627  0.321535  0.934553  1
  Y  Y7  1  0.828689  0.825367  0.570022  1
  Y  Y8  1  0.343230  0.668049  0.058145  1
  Y  Y9  1  0.168728  0.186346  0.444061  1
  Y  Y10  1  0.343230  0.668049  0.441855  1
  Y  Y11  1  0.666627  0.321535  0.565447  1
  Tc  Tc12  1  0.452611  0.385704  0.250000  1
  Tc  Tc13  1  0.536248  0.615020  0.750000  1
  Tc  Tc14  1  0.964064  0.115973  0.750000  1
  Au  Au15  1  0.049356  0.888560  0.250000  1
