# generated using pymatgen
data_K2Zr3(CuS4)2
_symmetry_space_group_name_H-M   'P 1'
_cell_length_a   3.72662909
_cell_length_b   7.44558406
_cell_length_c   12.83366367
_cell_angle_alpha   93.98441609
_cell_angle_beta   98.34824052
_cell_angle_gamma   104.49277051
_symmetry_Int_Tables_number   1
_chemical_formula_structural   K2Zr3(CuS4)2
_chemical_formula_sum   'K2 Zr3 Cu2 S8'
_cell_volume   339.02268938
_cell_formula_units_Z   1
loop_
 _symmetry_equiv_pos_site_id
 _symmetry_equiv_pos_as_xyz
  1  'x, y, z'
loop_
 _atom_site_type_symbol
 _atom_site_label
 _atom_site_symmetry_multiplicity
 _atom_site_fract_x
 _atom_site_fract_y
 _atom_site_fract_z
 _atom_site_occupancy
  K  K0  1  0.869016  0.536724  0.201308  1
  K  K1  1  0.130984  0.463276  0.798691  1
  Zr  Zr2  1  0.500000  0.000000  0.000000  1
  Zr  Zr3  1  0.723039  0.065407  0.380670  1
  Zr  Zr4  1  0.276960  0.934593  0.619329  1
  Cu  Cu5  1  0.146057  0.095626  0.196490  1
  Cu  Cu6  1  0.853942  0.904375  0.803509  1
  S  S7  1  0.146449  0.246299  0.046597  1
  S  S8  1  0.542776  0.895904  0.189650  1
  S  S9  1  0.323522  0.298371  0.348674  1
  S  S10  1  0.124653  0.828858  0.420448  1
  S  S11  1  0.875347  0.171143  0.579551  1
  S  S12  1  0.676479  0.701630  0.651327  1
  S  S13  1  0.457224  0.104096  0.810350  1
  S  S14  1  0.853550  0.753700  0.953402  1
