# generated using pymatgen
data_YbHoTm8(In2Pt)4
_symmetry_space_group_name_H-M   'P 1'
_cell_length_a   3.56945100
_cell_length_b   8.12636756
_cell_length_c   18.19469474
_cell_angle_alpha   89.90897456
_cell_angle_beta   90.00000000
_cell_angle_gamma   90.00000000
_symmetry_Int_Tables_number   1
_chemical_formula_structural   YbHoTm8(In2Pt)4
_chemical_formula_sum   'Yb1 Ho1 Tm8 In8 Pt4'
_cell_volume   527.76685510
_cell_formula_units_Z   1
loop_
 _symmetry_equiv_pos_site_id
 _symmetry_equiv_pos_as_xyz
  1  'x, y, z'
loop_
 _atom_site_type_symbol
 _atom_site_label
 _atom_site_symmetry_multiplicity
 _atom_site_fract_x
 _atom_site_fract_y
 _atom_site_fract_z
 _atom_site_occupancy
  Yb  Yb0  1  0.000000  0.000000  0.000000  1
  Ho  Ho1  1  0.000000  0.500000  0.500000  1
  Tm  Tm2  1  0.000000  0.117316  0.414229  1
  Tm  Tm3  1  0.000000  0.882684  0.585771  1
  Tm  Tm4  1  0.000000  0.382014  0.914060  1
  Tm  Tm5  1  0.000000  0.617986  0.085940  1
  Tm  Tm6  1  0.000000  0.243254  0.220700  1
  Tm  Tm7  1  0.000000  0.756746  0.779300  1
  Tm  Tm8  1  0.000000  0.256897  0.720757  1
  Tm  Tm9  1  0.000000  0.743103  0.279243  1
  In  In10  1  0.500000  0.423110  0.351204  1
  In  In11  1  0.500000  0.576890  0.648796  1
  In  In12  1  0.500000  0.076199  0.850884  1
  In  In13  1  0.500000  0.923801  0.149116  1
  In  In14  1  0.500000  0.293720  0.066925  1
  In  In15  1  0.500000  0.706280  0.933075  1
  In  In16  1  0.500000  0.206853  0.566532  1
  In  In17  1  0.500000  0.793147  0.433468  1
  Pt  Pt18  1  0.500000  0.025522  0.303632  1
  Pt  Pt19  1  0.500000  0.974478  0.696368  1
  Pt  Pt20  1  0.500000  0.475964  0.803254  1
  Pt  Pt21  1  0.500000  0.524036  0.196746  1
