# generated using pymatgen
data_Dy20OsPt11
_symmetry_space_group_name_H-M   'P 1'
_cell_length_a   11.03153900
_cell_length_b   11.03153900
_cell_length_c   6.43039700
_cell_angle_alpha   90.00000000
_cell_angle_beta   90.00000000
_cell_angle_gamma   90.00000000
_symmetry_Int_Tables_number   1
_chemical_formula_structural   Dy20OsPt11
_chemical_formula_sum   'Dy20 Os1 Pt11'
_cell_volume   782.54621577
_cell_formula_units_Z   1
loop_
 _symmetry_equiv_pos_site_id
 _symmetry_equiv_pos_as_xyz
  1  'x, y, z'
loop_
 _atom_site_type_symbol
 _atom_site_label
 _atom_site_symmetry_multiplicity
 _atom_site_fract_x
 _atom_site_fract_y
 _atom_site_fract_z
 _atom_site_occupancy
  Dy  Dy0  1  0.293737  0.088308  0.371493  1
  Dy  Dy1  1  0.294729  0.911620  0.881793  1
  Dy  Dy2  1  0.705271  0.088380  0.881793  1
  Dy  Dy3  1  0.706263  0.911692  0.371493  1
  Dy  Dy4  1  0.588380  0.794729  0.881793  1
  Dy  Dy5  1  0.588308  0.206263  0.371493  1
  Dy  Dy6  1  0.411692  0.793737  0.371493  1
  Dy  Dy7  1  0.411620  0.205271  0.881793  1
  Dy  Dy8  1  0.207314  0.410917  0.622878  1
  Dy  Dy9  1  0.207148  0.588289  0.122246  1
  Dy  Dy10  1  0.792852  0.411711  0.122246  1
  Dy  Dy11  1  0.792686  0.589083  0.622878  1
  Dy  Dy12  1  0.911711  0.707148  0.122246  1
  Dy  Dy13  1  0.910917  0.292686  0.622878  1
  Dy  Dy14  1  0.089083  0.707314  0.622878  1
  Dy  Dy15  1  0.088289  0.292852  0.122246  1
  Dy  Dy16  1  0.000000  0.000000  0.499430  1
  Dy  Dy17  1  0.000000  0.000000  0.999099  1
  Dy  Dy18  1  0.500000  0.500000  0.999099  1
  Dy  Dy19  1  0.500000  0.500000  0.499430  1
  Os  Os20  1  0.500000  0.000000  0.125033  1
  Pt  Pt21  1  0.847917  0.154623  0.249988  1
  Pt  Pt22  1  0.847023  0.846023  0.749791  1
  Pt  Pt23  1  0.152977  0.153977  0.749791  1
  Pt  Pt24  1  0.152083  0.845377  0.249988  1
  Pt  Pt25  1  0.653977  0.347023  0.749791  1
  Pt  Pt26  1  0.654623  0.652083  0.249988  1
  Pt  Pt27  1  0.345377  0.347917  0.249988  1
  Pt  Pt28  1  0.346023  0.652977  0.749791  1
  Pt  Pt29  1  0.500000  0.000000  0.622171  1
  Pt  Pt30  1  0.000000  0.500000  0.881205  1
  Pt  Pt31  1  0.000000  0.500000  0.381770  1
