# generated using pymatgen
data_Sm4Ga20Pt11
_symmetry_space_group_name_H-M   'P 1'
_cell_length_a   4.21059575
_cell_length_b   11.01342876
_cell_length_c   13.72455466
_cell_angle_alpha   82.21609080
_cell_angle_beta   81.17619456
_cell_angle_gamma   78.97966635
_symmetry_Int_Tables_number   1
_chemical_formula_structural   Sm4Ga20Pt11
_chemical_formula_sum   'Sm4 Ga20 Pt11'
_cell_volume   613.61445707
_cell_formula_units_Z   1
loop_
 _symmetry_equiv_pos_site_id
 _symmetry_equiv_pos_as_xyz
  1  'x, y, z'
loop_
 _atom_site_type_symbol
 _atom_site_label
 _atom_site_symmetry_multiplicity
 _atom_site_fract_x
 _atom_site_fract_y
 _atom_site_fract_z
 _atom_site_occupancy
  Sm  Sm0  1  0.123239  0.088914  0.664609  1
  Sm  Sm1  1  0.876761  0.911086  0.335391  1
  Sm  Sm2  1  0.774442  0.631011  0.820103  1
  Sm  Sm3  1  0.225558  0.368989  0.179897  1
  Ga  Ga4  1  0.007274  0.073089  0.912364  1
  Ga  Ga5  1  0.992726  0.926911  0.087636  1
  Ga  Ga6  1  0.066242  0.672588  0.194929  1
  Ga  Ga7  1  0.933758  0.327412  0.805071  1
  Ga  Ga8  1  0.102096  0.341973  0.453833  1
  Ga  Ga9  1  0.897904  0.658027  0.546167  1
  Ga  Ga10  1  0.202342  0.603507  0.991808  1
  Ga  Ga11  1  0.797658  0.396493  0.008192  1
  Ga  Ga12  1  0.257142  0.783477  0.702240  1
  Ga  Ga13  1  0.742858  0.216523  0.297760  1
  Ga  Ga14  1  0.302024  0.899116  0.496836  1
  Ga  Ga15  1  0.697976  0.100884  0.503164  1
  Ga  Ga16  1  0.387881  0.524656  0.699582  1
  Ga  Ga17  1  0.612119  0.475344  0.300418  1
  Ga  Ga18  1  0.396993  0.204381  0.001632  1
  Ga  Ga19  1  0.603007  0.795619  0.998368  1
  Ga  Ga20  1  0.543522  0.285157  0.627799  1
  Ga  Ga21  1  0.456478  0.714843  0.372201  1
  Ga  Ga22  1  0.635003  0.935566  0.794429  1
  Ga  Ga23  1  0.364997  0.064434  0.205571  1
  Pt  Pt24  1  0.500000  0.500000  0.500000  1
  Pt  Pt25  1  0.027379  0.574740  0.370501  1
  Pt  Pt26  1  0.972621  0.425260  0.629499  1
  Pt  Pt27  1  0.135849  0.837449  0.890852  1
  Pt  Pt28  1  0.864151  0.162551  0.109148  1
  Pt  Pt29  1  0.240154  0.128440  0.391252  1
  Pt  Pt30  1  0.759846  0.871560  0.608748  1
  Pt  Pt31  1  0.345341  0.416606  0.892713  1
  Pt  Pt32  1  0.654659  0.583394  0.107287  1
  Pt  Pt33  1  0.504976  0.170689  0.819360  1
  Pt  Pt34  1  0.495024  0.829311  0.180640  1
