# generated using pymatgen
data_Cs3ScSb2
_symmetry_space_group_name_H-M   'P 1'
_cell_length_a   10.34683292
_cell_length_b   10.34683251
_cell_length_c   10.34683320
_cell_angle_alpha   126.67555246
_cell_angle_beta   70.73614563
_cell_angle_gamma   137.10782982
_symmetry_Int_Tables_number   1
_chemical_formula_structural   Cs3ScSb2
_chemical_formula_sum   'Cs6 Sc2 Sb4'
_cell_volume   592.79073413
_cell_formula_units_Z   2
loop_
 _symmetry_equiv_pos_site_id
 _symmetry_equiv_pos_as_xyz
  1  'x, y, z'
loop_
 _atom_site_type_symbol
 _atom_site_label
 _atom_site_symmetry_multiplicity
 _atom_site_fract_x
 _atom_site_fract_y
 _atom_site_fract_z
 _atom_site_occupancy
  Cs  Cs0  1  0.317748  0.703202  0.020950  1
  Cs  Cs1  1  0.182252  0.203202  0.385454  1
  Cs  Cs2  1  0.750000  0.250000  0.500000  1
  Cs  Cs3  1  0.250000  0.749999  0.499999  1
  Cs  Cs4  1  0.817748  0.796799  0.614547  1
  Cs  Cs5  1  0.682252  0.296799  0.979051  1
  Sc  Sc6  1  0.250000  0.250000  0.000000  1
  Sc  Sc7  1  0.750000  0.750000  0.000000  1
  Sb  Sb8  1  0.911047  0.178093  0.089139  1
  Sb  Sb9  1  0.588954  0.678094  0.267047  1
  Sb  Sb10  1  0.411046  0.321906  0.732952  1
  Sb  Sb11  1  0.088954  0.821906  0.910860  1
