# generated using pymatgen
data_LiLa6Ir9Rh8
_symmetry_space_group_name_H-M   'P 1'
_cell_length_a   5.40310067
_cell_length_b   5.38159923
_cell_length_c   17.67495186
_cell_angle_alpha   89.99999946
_cell_angle_beta   90.04582681
_cell_angle_gamma   119.86845467
_symmetry_Int_Tables_number   1
_chemical_formula_structural   LiLa6Ir9Rh8
_chemical_formula_sum   'Li1 La6 Ir9 Rh8'
_cell_volume   445.67394778
_cell_formula_units_Z   1
loop_
 _symmetry_equiv_pos_site_id
 _symmetry_equiv_pos_as_xyz
  1  'x, y, z'
loop_
 _atom_site_type_symbol
 _atom_site_label
 _atom_site_symmetry_multiplicity
 _atom_site_fract_x
 _atom_site_fract_y
 _atom_site_fract_z
 _atom_site_occupancy
  Li  Li0  1  0.001904  0.000952  0.251963  1
  La  La1  1  0.333147  0.666574  0.537150  1
  La  La2  1  0.666752  0.333375  0.041536  1
  La  La3  1  0.667321  0.333660  0.455101  1
  La  La4  1  0.332227  0.666114  0.961710  1
  La  La5  1  0.332987  0.666494  0.748793  1
  La  La6  1  0.667461  0.333730  0.248172  1
  Ir  Ir7  1  0.165657  0.330313  0.130407  1
  Ir  Ir8  1  0.831128  0.663837  0.626446  1
  Ir  Ir9  1  0.669514  0.834757  0.130378  1
  Ir  Ir10  1  0.165657  0.835343  0.130407  1
  Ir  Ir11  1  0.831128  0.167290  0.626446  1
  Ir  Ir12  1  0.333806  0.166902  0.628857  1
  Ir  Ir13  1  0.834014  0.666260  0.873075  1
  Ir  Ir14  1  0.834014  0.167753  0.873075  1
  Ir  Ir15  1  0.332315  0.666158  0.250317  1
  Rh  Rh16  1  0.335688  0.167843  0.872101  1
  Rh  Rh17  1  0.668723  0.834361  0.370728  1
  Rh  Rh18  1  0.166721  0.833750  0.371390  1
  Rh  Rh19  1  0.166721  0.332970  0.371390  1
  Rh  Rh20  1  0.988057  0.994029  0.749889  1
  Rh  Rh21  1  0.675832  0.337915  0.750007  1
  Rh  Rh22  1  0.996971  0.998485  0.001576  1
  Rh  Rh23  1  0.002259  0.001130  0.499089  1
