# generated using pymatgen
data_Ta4CrB2P
_symmetry_space_group_name_H-M   'P 1'
_cell_length_a   6.02598223
_cell_length_b   6.02598220
_cell_length_c   7.14403508
_cell_angle_alpha   114.94508297
_cell_angle_beta   114.94507569
_cell_angle_gamma   89.99999302
_symmetry_Int_Tables_number   1
_chemical_formula_structural   Ta4CrB2P
_chemical_formula_sum   'Ta8 Cr2 B4 P2'
_cell_volume   208.22275337
_cell_formula_units_Z   2
loop_
 _symmetry_equiv_pos_site_id
 _symmetry_equiv_pos_as_xyz
  1  'x, y, z'
loop_
 _atom_site_type_symbol
 _atom_site_label
 _atom_site_symmetry_multiplicity
 _atom_site_fract_x
 _atom_site_fract_y
 _atom_site_fract_z
 _atom_site_occupancy
  Ta  Ta0  1  0.031431  0.531431  0.723537  1
  Ta  Ta1  1  0.692106  0.192106  0.723537  1
  Ta  Ta2  1  0.192106  0.031431  0.723537  1
  Ta  Ta3  1  0.531431  0.692106  0.723537  1
  Ta  Ta4  1  0.968569  0.468569  0.276463  1
  Ta  Ta5  1  0.307894  0.807894  0.276463  1
  Ta  Ta6  1  0.807894  0.968569  0.276463  1
  Ta  Ta7  1  0.468569  0.307894  0.276463  1
  Cr  Cr8  1  0.500000  0.500000  0.000000  1
  Cr  Cr9  1  0.000000  0.000000  0.000000  1
  B  B10  1  0.379636  0.879636  0.000000  1
  B  B11  1  0.620364  0.120364  0.000000  1
  B  B12  1  0.120364  0.379636  0.000000  1
  B  B13  1  0.879636  0.620364  0.000000  1
  P  P14  1  0.250000  0.250000  0.500000  1
  P  P15  1  0.750000  0.750000  0.500000  1
