# generated using pymatgen
data_Zr6Zn16TePd7
_symmetry_space_group_name_H-M   'P 1'
_cell_length_a   8.88792489
_cell_length_b   8.88792446
_cell_length_c   8.88792400
_cell_angle_alpha   60.00000171
_cell_angle_beta   60.00000332
_cell_angle_gamma   60.00000061
_symmetry_Int_Tables_number   1
_chemical_formula_structural   Zr6Zn16TePd7
_chemical_formula_sum   'Zr6 Zn16 Te1 Pd7'
_cell_volume   496.46208138
_cell_formula_units_Z   1
loop_
 _symmetry_equiv_pos_site_id
 _symmetry_equiv_pos_as_xyz
  1  'x, y, z'
loop_
 _atom_site_type_symbol
 _atom_site_label
 _atom_site_symmetry_multiplicity
 _atom_site_fract_x
 _atom_site_fract_y
 _atom_site_fract_z
 _atom_site_occupancy
  Zr  Zr0  1  0.725751  0.274249  0.274249  1
  Zr  Zr1  1  0.274249  0.725751  0.725751  1
  Zr  Zr2  1  0.274249  0.725751  0.274249  1
  Zr  Zr3  1  0.725751  0.274249  0.725751  1
  Zr  Zr4  1  0.274249  0.274249  0.725751  1
  Zr  Zr5  1  0.725751  0.725751  0.274249  1
  Zn  Zn6  1  0.124413  0.124413  0.124413  1
  Zn  Zn7  1  0.875587  0.875587  0.875587  1
  Zn  Zn8  1  0.124413  0.124413  0.626761  1
  Zn  Zn9  1  0.124413  0.626761  0.124413  1
  Zn  Zn10  1  0.875587  0.875587  0.373239  1
  Zn  Zn11  1  0.875587  0.373239  0.875587  1
  Zn  Zn12  1  0.626761  0.124413  0.124413  1
  Zn  Zn13  1  0.373239  0.875587  0.875587  1
  Zn  Zn14  1  0.340655  0.340655  0.340655  1
  Zn  Zn15  1  0.659345  0.659345  0.659345  1
  Zn  Zn16  1  0.340655  0.340655  0.978038  1
  Zn  Zn17  1  0.340655  0.978038  0.340655  1
  Zn  Zn18  1  0.659345  0.659345  0.021962  1
  Zn  Zn19  1  0.659345  0.021962  0.659345  1
  Zn  Zn20  1  0.978038  0.340655  0.340655  1
  Zn  Zn21  1  0.021962  0.659345  0.659345  1
  Te  Te22  1  0.500000  0.500000  0.500000  1
  Pd  Pd23  1  0.500000  0.000000  0.000000  1
  Pd  Pd24  1  0.000000  0.500000  0.500000  1
  Pd  Pd25  1  0.000000  0.500000  0.000000  1
  Pd  Pd26  1  0.500000  0.000000  0.500000  1
  Pd  Pd27  1  0.000000  0.000000  0.500000  1
  Pd  Pd28  1  0.500000  0.500000  0.000000  1
  Pd  Pd29  1  0.000000  0.000000  0.000000  1
