# generated using pymatgen
data_Th5Nb3(P3Ru4)4
_symmetry_space_group_name_H-M   'P 1'
_cell_length_a   12.85922300
_cell_length_b   12.85882178
_cell_length_c   3.99695400
_cell_angle_alpha   89.99997772
_cell_angle_beta   89.99994653
_cell_angle_gamma   119.99598813
_symmetry_Int_Tables_number   1
_chemical_formula_structural   Th5Nb3(P3Ru4)4
_chemical_formula_sum   'Th5 Nb3 P12 Ru16'
_cell_volume   572.39158747
_cell_formula_units_Z   1
loop_
 _symmetry_equiv_pos_site_id
 _symmetry_equiv_pos_as_xyz
  1  'x, y, z'
loop_
 _atom_site_type_symbol
 _atom_site_label
 _atom_site_symmetry_multiplicity
 _atom_site_fract_x
 _atom_site_fract_y
 _atom_site_fract_z
 _atom_site_occupancy
  Th  Th0  1  0.186514  0.186505  0.500000  1
  Th  Th1  1  0.813507  0.999994  0.500000  1
  Th  Th2  1  0.000010  0.813552  0.500000  1
  Th  Th3  1  0.333363  0.666687  0.000002  1
  Th  Th4  1  0.666634  0.333310  0.999999  1
  Nb  Nb5  1  0.563285  0.563304  0.000000  1
  Nb  Nb6  1  0.436716  0.999979  0.000000  1
  Nb  Nb7  1  0.999992  0.436707  0.000000  1
  P  P8  1  0.815103  0.815101  0.000000  1
  P  P9  1  0.184879  0.999994  0.000000  1
  P  P10  1  0.000005  0.184882  0.000000  1
  P  P11  1  0.167156  0.476033  0.500000  1
  P  P12  1  0.523983  0.691139  0.500000  1
  P  P13  1  0.308878  0.832856  0.500000  1
  P  P14  1  0.691122  0.523979  0.500000  1
  P  P15  1  0.832843  0.308866  0.500000  1
  P  P16  1  0.476023  0.167142  0.500000  1
  P  P17  1  0.366554  0.366553  0.000000  1
  P  P18  1  0.633444  0.999992  0.000000  1
  P  P19  1  0.000004  0.633469  0.000000  1
  Ru  Ru20  1  0.720563  0.720560  0.500000  1
  Ru  Ru21  1  0.279439  0.999989  0.500000  1
  Ru  Ru22  1  0.000003  0.279437  0.500000  1
  Ru  Ru23  1  0.182763  0.375984  0.000001  1
  Ru  Ru24  1  0.624024  0.806790  0.999999  1
  Ru  Ru25  1  0.193234  0.817251  0.000000  1
  Ru  Ru26  1  0.806769  0.624012  0.000000  1
  Ru  Ru27  1  0.817240  0.193210  0.999999  1
  Ru  Ru28  1  0.375967  0.182766  0.999999  1
  Ru  Ru29  1  0.362018  0.488254  0.500000  1
  Ru  Ru30  1  0.511753  0.873744  0.500000  1
  Ru  Ru31  1  0.126236  0.637985  0.500000  1
  Ru  Ru32  1  0.873773  0.511763  0.500001  1
  Ru  Ru33  1  0.637980  0.126226  0.500000  1
  Ru  Ru34  1  0.488251  0.362002  0.499999  1
  Ru  Ru35  1  0.999972  0.999985  0.000000  1
