# generated using pymatgen
data_Tb2CdGa6Ni2Hg
_symmetry_space_group_name_H-M   'P 1'
_cell_length_a   4.20577279
_cell_length_b   6.56946186
_cell_length_c   8.12434333
_cell_angle_alpha   90.49393871
_cell_angle_beta   105.00111558
_cell_angle_gamma   90.00000439
_symmetry_Int_Tables_number   1
_chemical_formula_structural   Tb2CdGa6Ni2Hg
_chemical_formula_sum   'Tb2 Cd1 Ga6 Ni2 Hg1'
_cell_volume   216.81438121
_cell_formula_units_Z   1
loop_
 _symmetry_equiv_pos_site_id
 _symmetry_equiv_pos_as_xyz
  1  'x, y, z'
loop_
 _atom_site_type_symbol
 _atom_site_label
 _atom_site_symmetry_multiplicity
 _atom_site_fract_x
 _atom_site_fract_y
 _atom_site_fract_z
 _atom_site_occupancy
  Tb  Tb0  1  0.873741  0.750297  0.747481  1
  Tb  Tb1  1  0.126259  0.249703  0.252519  1
  Cd  Cd2  1  0.500000  0.500000  0.000000  1
  Ga  Ga3  1  0.072471  0.748911  0.144943  1
  Ga  Ga4  1  0.927529  0.251089  0.855057  1
  Ga  Ga5  1  0.687327  0.549108  0.374653  1
  Ga  Ga6  1  0.312673  0.450892  0.625347  1
  Ga  Ga7  1  0.688289  0.948099  0.376578  1
  Ga  Ga8  1  0.311711  0.051901  0.623422  1
  Ni  Ni9  1  0.222361  0.750217  0.444722  1
  Ni  Ni10  1  0.777639  0.249783  0.555278  1
  Hg  Hg11  1  0.500000  0.000000  0.000000  1
