# generated using pymatgen
data_Na4TbSbO6
_symmetry_space_group_name_H-M   'P 1'
_cell_length_a   5.79037398
_cell_length_b   5.79037571
_cell_length_c   5.87776141
_cell_angle_alpha   99.39844029
_cell_angle_beta   99.39841031
_cell_angle_gamma   120.10277600
_symmetry_Int_Tables_number   1
_chemical_formula_structural   Na4TbSbO6
_chemical_formula_sum   'Na4 Tb1 Sb1 O6'
_cell_volume   161.11329402
_cell_formula_units_Z   1
loop_
 _symmetry_equiv_pos_site_id
 _symmetry_equiv_pos_as_xyz
  1  'x, y, z'
loop_
 _atom_site_type_symbol
 _atom_site_label
 _atom_site_symmetry_multiplicity
 _atom_site_fract_x
 _atom_site_fract_y
 _atom_site_fract_z
 _atom_site_occupancy
  Na  Na0  1  0.499054  0.500947  0.000001  1
  Na  Na1  1  0.014837  0.985164  0.500001  1
  Na  Na2  1  0.656196  0.343804  0.500000  1
  Na  Na3  1  0.333399  0.666602  0.500000  1
  Tb  Tb4  1  0.833362  0.166636  0.000000  1
  Sb  Sb5  1  0.166857  0.833140  0.999999  1
  O  O6  1  0.951888  0.600910  0.207264  1
  O  O7  1  0.217637  0.185659  0.212694  1
  O  O8  1  0.535917  0.922580  0.213641  1
  O  O9  1  0.077420  0.464083  0.786360  1
  O  O10  1  0.814342  0.782364  0.787309  1
  O  O11  1  0.399091  0.048113  0.792739  1
