# generated using pymatgen
data_Lu3MnAl3SiGe
_symmetry_space_group_name_H-M   'P 1'
_cell_length_a   6.83822500
_cell_length_b   6.83822513
_cell_length_c   4.14050300
_cell_angle_alpha   90.00000000
_cell_angle_beta   90.00000000
_cell_angle_gamma   119.99999456
_symmetry_Int_Tables_number   1
_chemical_formula_structural   Lu3MnAl3SiGe
_chemical_formula_sum   'Lu3 Mn1 Al3 Si1 Ge1'
_cell_volume   167.67585901
_cell_formula_units_Z   1
loop_
 _symmetry_equiv_pos_site_id
 _symmetry_equiv_pos_as_xyz
  1  'x, y, z'
loop_
 _atom_site_type_symbol
 _atom_site_label
 _atom_site_symmetry_multiplicity
 _atom_site_fract_x
 _atom_site_fract_y
 _atom_site_fract_z
 _atom_site_occupancy
  Lu  Lu0  1  0.414622  0.002315  0.000000  1
  Lu  Lu1  1  0.997685  0.412306  0.000000  1
  Lu  Lu2  1  0.587693  0.585377  0.000000  1
  Mn  Mn3  1  0.000000  0.000000  0.000000  1
  Al  Al4  1  0.767785  0.002784  0.499999  1
  Al  Al5  1  0.234999  0.232214  0.499999  1
  Al  Al6  1  0.997216  0.765001  0.499999  1
  Si  Si7  1  0.666667  0.333334  0.499999  1
  Ge  Ge8  1  0.333334  0.666667  0.499999  1
