# generated using pymatgen
data_SrAgAsS3
_symmetry_space_group_name_H-M   'P 1'
_cell_length_a   12.50060400
_cell_length_b   6.05152724
_cell_length_c   7.85576656
_cell_angle_alpha   87.94436373
_cell_angle_beta   90.00000000
_cell_angle_gamma   90.00000000
_symmetry_Int_Tables_number   1
_chemical_formula_structural   SrAgAsS3
_chemical_formula_sum   'Sr4 Ag4 As4 S12'
_cell_volume   593.88859677
_cell_formula_units_Z   4
loop_
 _symmetry_equiv_pos_site_id
 _symmetry_equiv_pos_as_xyz
  1  'x, y, z'
loop_
 _atom_site_type_symbol
 _atom_site_label
 _atom_site_symmetry_multiplicity
 _atom_site_fract_x
 _atom_site_fract_y
 _atom_site_fract_z
 _atom_site_occupancy
  Sr  Sr0  1  0.577232  0.753984  0.669036  1
  Sr  Sr1  1  0.077232  0.246016  0.830964  1
  Sr  Sr2  1  0.422768  0.246016  0.330964  1
  Sr  Sr3  1  0.922768  0.753984  0.169036  1
  Ag  Ag4  1  0.769933  0.250192  0.376014  1
  Ag  Ag5  1  0.730067  0.250192  0.876014  1
  Ag  Ag6  1  0.269933  0.749808  0.123986  1
  Ag  Ag7  1  0.230067  0.749808  0.623986  1
  As  As8  1  0.899262  0.763266  0.670869  1
  As  As9  1  0.100738  0.236734  0.329131  1
  As  As10  1  0.600738  0.763266  0.170869  1
  As  As11  1  0.399262  0.236734  0.829131  1
  S  S12  1  0.449906  0.749914  0.340546  1
  S  S13  1  0.949906  0.250086  0.159454  1
  S  S14  1  0.550094  0.250086  0.659454  1
  S  S15  1  0.050094  0.749914  0.840546  1
  S  S16  1  0.130965  0.862070  0.349352  1
  S  S17  1  0.630965  0.137930  0.150648  1
  S  S18  1  0.869035  0.137930  0.650648  1
  S  S19  1  0.774558  0.671029  0.874317  1
  S  S20  1  0.725442  0.671029  0.374317  1
  S  S21  1  0.225442  0.328971  0.125683  1
  S  S22  1  0.274558  0.328971  0.625683  1
  S  S23  1  0.369035  0.862070  0.849352  1
