# generated using pymatgen
data_Dy8Zn3Si12Ru
_symmetry_space_group_name_H-M   'P 1'
_cell_length_a   8.13548300
_cell_length_b   8.13548366
_cell_length_c   8.05884600
_cell_angle_alpha   90.00000000
_cell_angle_beta   90.00000000
_cell_angle_gamma   119.99999325
_symmetry_Int_Tables_number   1
_chemical_formula_structural   Dy8Zn3Si12Ru
_chemical_formula_sum   'Dy8 Zn3 Si12 Ru1'
_cell_volume   461.92369119
_cell_formula_units_Z   1
loop_
 _symmetry_equiv_pos_site_id
 _symmetry_equiv_pos_as_xyz
  1  'x, y, z'
loop_
 _atom_site_type_symbol
 _atom_site_label
 _atom_site_symmetry_multiplicity
 _atom_site_fract_x
 _atom_site_fract_y
 _atom_site_fract_z
 _atom_site_occupancy
  Dy  Dy0  1  0.000000  0.000000  0.248426  1
  Dy  Dy1  1  0.000000  0.000000  0.751486  1
  Dy  Dy2  1  0.998678  0.499340  0.252304  1
  Dy  Dy3  1  0.500660  0.499340  0.252304  1
  Dy  Dy4  1  0.503596  0.007192  0.748055  1
  Dy  Dy5  1  0.500660  0.001322  0.252304  1
  Dy  Dy6  1  0.503596  0.496404  0.748055  1
  Dy  Dy7  1  0.992808  0.496404  0.748055  1
  Zn  Zn8  1  0.333333  0.666667  0.992996  1
  Zn  Zn9  1  0.333333  0.666667  0.503631  1
  Zn  Zn10  1  0.666667  0.333333  0.008324  1
  Si  Si11  1  0.165981  0.331961  0.001102  1
  Si  Si12  1  0.668039  0.834019  0.001102  1
  Si  Si13  1  0.163030  0.326060  0.500961  1
  Si  Si14  1  0.333538  0.166770  0.998511  1
  Si  Si15  1  0.165981  0.834019  0.001102  1
  Si  Si16  1  0.673940  0.836970  0.500961  1
  Si  Si17  1  0.833230  0.666462  0.998511  1
  Si  Si18  1  0.340114  0.170057  0.498850  1
  Si  Si19  1  0.163030  0.836970  0.500961  1
  Si  Si20  1  0.829943  0.659886  0.498850  1
  Si  Si21  1  0.833230  0.166770  0.998511  1
  Si  Si22  1  0.829943  0.170057  0.498850  1
  Ru  Ru23  1  0.666667  0.333333  0.495791  1
