# generated using pymatgen
data_Ho3Lu3Si24Os5Ru3
_symmetry_space_group_name_H-M   'P 1'
_cell_length_a   10.09511904
_cell_length_b   10.09488063
_cell_length_c   8.12222095
_cell_angle_alpha   89.94964967
_cell_angle_beta   90.05058113
_cell_angle_gamma   132.53191262
_symmetry_Int_Tables_number   1
_chemical_formula_structural   Ho3Lu3Si24Os5Ru3
_chemical_formula_sum   'Ho3 Lu3 Si24 Os5 Ru3'
_cell_volume   609.95295121
_cell_formula_units_Z   1
loop_
 _symmetry_equiv_pos_site_id
 _symmetry_equiv_pos_as_xyz
  1  'x, y, z'
loop_
 _atom_site_type_symbol
 _atom_site_label
 _atom_site_symmetry_multiplicity
 _atom_site_fract_x
 _atom_site_fract_y
 _atom_site_fract_z
 _atom_site_occupancy
  Ho  Ho0  1  0.998168  0.498291  0.250539  1
  Ho  Ho1  1  0.498334  0.998235  0.250523  1
  Ho  Ho2  1  0.001609  0.501685  0.749498  1
  Lu  Lu3  1  0.499423  0.499414  0.500185  1
  Lu  Lu4  1  0.000012  0.000024  0.999239  1
  Lu  Lu5  1  0.501489  0.001452  0.749505  1
  Si  Si6  1  0.795137  0.203953  0.500825  1
  Si  Si7  1  0.296419  0.704537  0.999609  1
  Si  Si8  1  0.205014  0.796122  0.500859  1
  Si  Si9  1  0.703431  0.295359  0.999585  1
  Si  Si10  1  0.332895  0.332997  0.833382  1
  Si  Si11  1  0.667801  0.667835  0.167278  1
  Si  Si12  1  0.166747  0.166676  0.331101  1
  Si  Si13  1  0.830751  0.830718  0.666042  1
  Si  Si14  1  0.120830  0.886716  0.727980  1
  Si  Si15  1  0.113568  0.880047  0.271630  1
  Si  Si16  1  0.611485  0.378674  0.228937  1
  Si  Si17  1  0.622086  0.388874  0.772015  1
  Si  Si18  1  0.880738  0.114209  0.271618  1
  Si  Si19  1  0.886244  0.120184  0.727839  1
  Si  Si20  1  0.389274  0.622607  0.771856  1
  Si  Si21  1  0.377900  0.610788  0.228902  1
  Si  Si22  1  0.344895  0.111538  0.504393  1
  Si  Si23  1  0.887611  0.654697  0.496436  1
  Si  Si24  1  0.388019  0.155360  0.005347  1
  Si  Si25  1  0.845515  0.613003  0.994645  1
  Si  Si26  1  0.655692  0.888197  0.497092  1
  Si  Si27  1  0.112110  0.345651  0.503796  1
  Si  Si28  1  0.612442  0.844767  0.994051  1
  Si  Si29  1  0.154384  0.387472  0.005970  1
  Os  Os30  1  0.668296  0.329554  0.500838  1
  Os  Os31  1  0.170808  0.831181  0.999404  1
  Os  Os32  1  0.331739  0.670417  0.500515  1
  Os  Os33  1  0.829028  0.168688  0.999140  1
  Os  Os34  1  0.126787  0.126738  0.627320  1
  Ru  Ru35  1  0.873372  0.873356  0.372205  1
  Ru  Ru36  1  0.372285  0.372323  0.128245  1
  Ru  Ru37  1  0.627661  0.627660  0.871652  1
