# generated using pymatgen
data_ZrU(PaH6)2
_symmetry_space_group_name_H-M   'P 1'
_cell_length_a   6.49190400
_cell_length_b   6.47069800
_cell_length_c   6.47069800
_cell_angle_alpha   90.00000000
_cell_angle_beta   90.00000000
_cell_angle_gamma   90.00000000
_symmetry_Int_Tables_number   1
_chemical_formula_structural   ZrU(PaH6)2
_chemical_formula_sum   'Zr2 U2 Pa4 H24'
_cell_volume   271.81558297
_cell_formula_units_Z   2
loop_
 _symmetry_equiv_pos_site_id
 _symmetry_equiv_pos_as_xyz
  1  'x, y, z'
loop_
 _atom_site_type_symbol
 _atom_site_label
 _atom_site_symmetry_multiplicity
 _atom_site_fract_x
 _atom_site_fract_y
 _atom_site_fract_z
 _atom_site_occupancy
  Zr  Zr0  1  0.000000  0.000000  0.000000  1
  Zr  Zr1  1  0.500000  0.500000  0.500000  1
  U  U2  1  0.250000  0.000000  0.500000  1
  U  U3  1  0.750000  0.000000  0.500000  1
  Pa  Pa4  1  0.000000  0.500000  0.248762  1
  Pa  Pa5  1  0.000000  0.500000  0.751238  1
  Pa  Pa6  1  0.500000  0.748762  0.000000  1
  Pa  Pa7  1  0.500000  0.251238  0.000000  1
  H  H8  1  0.000000  0.151837  0.296888  1
  H  H9  1  0.500000  0.203112  0.651837  1
  H  H10  1  0.500000  0.796888  0.348163  1
  H  H11  1  0.795956  0.652137  0.500000  1
  H  H12  1  0.204044  0.652137  0.500000  1
  H  H13  1  0.348036  0.500000  0.796231  1
  H  H14  1  0.651964  0.500000  0.796231  1
  H  H15  1  0.295956  0.000000  0.152137  1
  H  H16  1  0.151964  0.296231  0.000000  1
  H  H17  1  0.848036  0.703769  0.000000  1
  H  H18  1  0.295956  0.000000  0.847863  1
  H  H19  1  0.848036  0.296231  0.000000  1
  H  H20  1  0.704044  0.000000  0.152137  1
  H  H21  1  0.704044  0.000000  0.847863  1
  H  H22  1  0.151964  0.703769  0.000000  1
  H  H23  1  0.000000  0.848163  0.703112  1
  H  H24  1  0.000000  0.151837  0.703112  1
  H  H25  1  0.000000  0.848163  0.296888  1
  H  H26  1  0.651964  0.500000  0.203769  1
  H  H27  1  0.348036  0.500000  0.203769  1
  H  H28  1  0.795956  0.347863  0.500000  1
  H  H29  1  0.204044  0.347863  0.500000  1
  H  H30  1  0.500000  0.796888  0.651837  1
  H  H31  1  0.500000  0.203112  0.348163  1
