# generated using pymatgen
data_Sr2Al3SiAu10
_symmetry_space_group_name_H-M   'P 1'
_cell_length_a   7.27744600
_cell_length_b   9.06199900
_cell_length_c   9.89283700
_cell_angle_alpha   90.00000000
_cell_angle_beta   90.00000000
_cell_angle_gamma   90.00000000
_symmetry_Int_Tables_number   1
_chemical_formula_structural   Sr2Al3SiAu10
_chemical_formula_sum   'Sr4 Al6 Si2 Au20'
_cell_volume   652.41487589
_cell_formula_units_Z   2
loop_
 _symmetry_equiv_pos_site_id
 _symmetry_equiv_pos_as_xyz
  1  'x, y, z'
loop_
 _atom_site_type_symbol
 _atom_site_label
 _atom_site_symmetry_multiplicity
 _atom_site_fract_x
 _atom_site_fract_y
 _atom_site_fract_z
 _atom_site_occupancy
  Sr  Sr0  1  0.250000  0.251274  0.124346  1
  Sr  Sr1  1  0.250000  0.751274  0.375654  1
  Sr  Sr2  1  0.750000  0.750865  0.877466  1
  Sr  Sr3  1  0.750000  0.250865  0.622534  1
  Al  Al4  1  0.250000  0.052202  0.619779  1
  Al  Al5  1  0.250000  0.552202  0.880221  1
  Al  Al6  1  0.750000  0.950872  0.380268  1
  Al  Al7  1  0.750000  0.450872  0.119732  1
  Al  Al8  1  0.250000  0.350872  0.481160  1
  Al  Al9  1  0.250000  0.850872  0.018840  1
  Si  Si10  1  0.750000  0.663918  0.533998  1
  Si  Si11  1  0.750000  0.163918  0.966002  1
  Au  Au12  1  0.052381  0.110175  0.397586  1
  Au  Au13  1  0.447619  0.610175  0.102414  1
  Au  Au14  1  0.553483  0.897047  0.602538  1
  Au  Au15  1  0.946517  0.397047  0.897462  1
  Au  Au16  1  0.946517  0.897047  0.602538  1
  Au  Au17  1  0.553483  0.397047  0.897462  1
  Au  Au18  1  0.447619  0.110175  0.397586  1
  Au  Au19  1  0.052381  0.610175  0.102414  1
  Au  Au20  1  0.032688  0.057097  0.869687  1
  Au  Au21  1  0.467312  0.557097  0.630313  1
  Au  Au22  1  0.534069  0.929591  0.145917  1
  Au  Au23  1  0.965931  0.429591  0.354083  1
  Au  Au24  1  0.965931  0.929591  0.145917  1
  Au  Au25  1  0.534069  0.429591  0.354083  1
  Au  Au26  1  0.467312  0.057097  0.869687  1
  Au  Au27  1  0.032688  0.557097  0.630313  1
  Au  Au28  1  0.250000  0.302044  0.734676  1
  Au  Au29  1  0.250000  0.802044  0.765324  1
  Au  Au30  1  0.750000  0.690134  0.286036  1
  Au  Au31  1  0.750000  0.190134  0.213964  1
