# generated using pymatgen
data_Pr2SmSn2Hg3
_symmetry_space_group_name_H-M   'P 1'
_cell_length_a   6.48390268
_cell_length_b   6.48390256
_cell_length_c   10.74809600
_cell_angle_alpha   90.00000000
_cell_angle_beta   90.00000000
_cell_angle_gamma   101.82902186
_symmetry_Int_Tables_number   1
_chemical_formula_structural   Pr2SmSn2Hg3
_chemical_formula_sum   'Pr4 Sm2 Sn4 Hg6'
_cell_volume   442.26477413
_cell_formula_units_Z   2
loop_
 _symmetry_equiv_pos_site_id
 _symmetry_equiv_pos_as_xyz
  1  'x, y, z'
loop_
 _atom_site_type_symbol
 _atom_site_label
 _atom_site_symmetry_multiplicity
 _atom_site_fract_x
 _atom_site_fract_y
 _atom_site_fract_z
 _atom_site_occupancy
  Pr  Pr0  1  0.200525  0.799475  0.500000  1
  Pr  Pr1  1  0.200525  0.799475  0.000000  1
  Pr  Pr2  1  0.799475  0.200525  0.500000  1
  Pr  Pr3  1  0.799475  0.200525  0.000000  1
  Sm  Sm4  1  0.635112  0.635112  0.250000  1
  Sm  Sm5  1  0.364888  0.364888  0.750000  1
  Sn  Sn6  1  0.318055  0.318055  0.045439  1
  Sn  Sn7  1  0.681945  0.681945  0.954561  1
  Sn  Sn8  1  0.318055  0.318055  0.454561  1
  Sn  Sn9  1  0.681945  0.681945  0.545439  1
  Hg  Hg10  1  0.015059  0.015059  0.250000  1
  Hg  Hg11  1  0.984941  0.984941  0.750000  1
  Hg  Hg12  1  0.507282  0.078092  0.250000  1
  Hg  Hg13  1  0.921908  0.492718  0.750000  1
  Hg  Hg14  1  0.492718  0.921908  0.750000  1
  Hg  Hg15  1  0.078092  0.507282  0.250000  1
