# generated using pymatgen
data_Sr15(SiAs6)2
_symmetry_space_group_name_H-M   'P 1'
_cell_length_a   9.50349482
_cell_length_b   9.50349557
_cell_length_c   9.50349518
_cell_angle_alpha   88.85219086
_cell_angle_beta   88.85218765
_cell_angle_gamma   88.85218880
_symmetry_Int_Tables_number   1
_chemical_formula_structural   Sr15(SiAs6)2
_chemical_formula_sum   'Sr15 Si2 As12'
_cell_volume   857.81179040
_cell_formula_units_Z   1
loop_
 _symmetry_equiv_pos_site_id
 _symmetry_equiv_pos_as_xyz
  1  'x, y, z'
loop_
 _atom_site_type_symbol
 _atom_site_label
 _atom_site_symmetry_multiplicity
 _atom_site_fract_x
 _atom_site_fract_y
 _atom_site_fract_z
 _atom_site_occupancy
  Sr  Sr0  1  0.408173  0.287522  0.773899  1
  Sr  Sr1  1  0.773899  0.408173  0.287522  1
  Sr  Sr2  1  0.287522  0.773899  0.408173  1
  Sr  Sr3  1  0.017135  0.528178  0.660216  1
  Sr  Sr4  1  0.660216  0.017135  0.528178  1
  Sr  Sr5  1  0.528178  0.660216  0.017135  1
  Sr  Sr6  1  0.166542  0.533578  0.029431  1
  Sr  Sr7  1  0.029431  0.166542  0.533578  1
  Sr  Sr8  1  0.533578  0.029431  0.166542  1
  Sr  Sr9  1  0.775700  0.294423  0.919160  1
  Sr  Sr10  1  0.919160  0.775700  0.294423  1
  Sr  Sr11  1  0.294423  0.919160  0.775700  1
  Sr  Sr12  1  0.166752  0.166752  0.166752  1
  Sr  Sr13  1  0.398989  0.398989  0.398989  1
  Sr  Sr14  1  0.946272  0.946272  0.946272  1
  Si  Si15  1  0.756032  0.756032  0.756032  1
  Si  Si16  1  0.607228  0.607228  0.607228  1
  As  As17  1  0.700161  0.366492  0.605447  1
  As  As18  1  0.605447  0.700161  0.366492  1
  As  As19  1  0.366492  0.605447  0.700161  1
  As  As20  1  0.621991  0.958440  0.850747  1
  As  As21  1  0.850747  0.621991  0.958440  1
  As  As22  1  0.958440  0.850747  0.621991  1
  As  As23  1  0.473926  0.343372  0.086177  1
  As  As24  1  0.086177  0.473926  0.343372  1
  As  As25  1  0.343372  0.086177  0.473926  1
  As  As26  1  0.093294  0.238713  0.846741  1
  As  As27  1  0.846741  0.093294  0.238713  1
  As  As28  1  0.238713  0.846741  0.093294  1
