# generated using pymatgen
data_Cs6DyHoSb4
_symmetry_space_group_name_H-M   'P 1'
_cell_length_a   10.54027799
_cell_length_b   10.54027756
_cell_length_c   10.54027800
_cell_angle_alpha   127.66106468
_cell_angle_beta   70.23364918
_cell_angle_gamma   136.65183942
_symmetry_Int_Tables_number   1
_chemical_formula_structural   Cs6DyHoSb4
_chemical_formula_sum   'Cs6 Dy1 Ho1 Sb4'
_cell_volume   624.07309885
_cell_formula_units_Z   1
loop_
 _symmetry_equiv_pos_site_id
 _symmetry_equiv_pos_as_xyz
  1  'x, y, z'
loop_
 _atom_site_type_symbol
 _atom_site_label
 _atom_site_symmetry_multiplicity
 _atom_site_fract_x
 _atom_site_fract_y
 _atom_site_fract_z
 _atom_site_occupancy
  Cs  Cs0  1  0.315866  0.703813  0.019506  1
  Cs  Cs1  1  0.184134  0.203639  0.387947  1
  Cs  Cs2  1  0.750000  0.250000  0.500000  1
  Cs  Cs3  1  0.250000  0.749999  0.499999  1
  Cs  Cs4  1  0.815693  0.796188  0.612054  1
  Cs  Cs5  1  0.684307  0.296362  0.980495  1
  Dy  Dy6  1  0.250000  0.250000  0.000000  1
  Ho  Ho7  1  0.750000  0.750000  0.000000  1
  Sb  Sb8  1  0.904910  0.184163  0.090499  1
  Sb  Sb9  1  0.595091  0.685591  0.279254  1
  Sb  Sb10  1  0.406337  0.315836  0.720745  1
  Sb  Sb11  1  0.093663  0.814409  0.909500  1
