# generated using pymatgen
data_CsScMn7O16
_symmetry_space_group_name_H-M   'P 1'
_cell_length_a   5.95511937
_cell_length_b   7.19407134
_cell_length_c   7.30108600
_cell_angle_alpha   88.56561421
_cell_angle_beta   78.94682629
_cell_angle_gamma   77.75348775
_symmetry_Int_Tables_number   1
_chemical_formula_structural   CsScMn7O16
_chemical_formula_sum   'Cs1 Sc1 Mn7 O16'
_cell_volume   299.96184892
_cell_formula_units_Z   1
loop_
 _symmetry_equiv_pos_site_id
 _symmetry_equiv_pos_as_xyz
  1  'x, y, z'
loop_
 _atom_site_type_symbol
 _atom_site_label
 _atom_site_symmetry_multiplicity
 _atom_site_fract_x
 _atom_site_fract_y
 _atom_site_fract_z
 _atom_site_occupancy
  Cs  Cs0  1  0.002083  0.000756  0.002776  1
  Sc  Sc1  1  0.578214  0.511636  0.189490  1
  Mn  Mn2  1  0.083215  0.505287  0.178616  1
  Mn  Mn3  1  0.170281  0.818459  0.520411  1
  Mn  Mn4  1  0.669015  0.821548  0.522124  1
  Mn  Mn5  1  0.334610  0.184018  0.484182  1
  Mn  Mn6  1  0.839621  0.183600  0.487463  1
  Mn  Mn7  1  0.428035  0.488524  0.814513  1
  Mn  Mn8  1  0.926405  0.491636  0.815430  1
  O  O9  1  0.849630  0.636025  0.043887  1
  O  O10  1  0.315067  0.634917  0.043515  1
  O  O11  1  0.981908  0.705387  0.380729  1
  O  O12  1  0.477985  0.713066  0.395733  1
  O  O13  1  0.856948  0.954741  0.640270  1
  O  O14  1  0.357561  0.959083  0.643354  1
  O  O15  1  0.326116  0.362064  0.291296  1
  O  O16  1  0.857693  0.360038  0.290797  1
  O  O17  1  0.168410  0.627526  0.708524  1
  O  O18  1  0.666289  0.633071  0.714567  1
  O  O19  1  0.150584  0.042851  0.368880  1
  O  O20  1  0.649710  0.046587  0.367295  1
  O  O21  1  0.027554  0.293922  0.620887  1
  O  O22  1  0.526172  0.304593  0.608352  1
  O  O23  1  0.180809  0.359020  0.940467  1
  O  O24  1  0.683181  0.361644  0.926441  1
