# generated using pymatgen
data_TbLu4CoRu
_symmetry_space_group_name_H-M   'P 1'
_cell_length_a   6.19717966
_cell_length_b   7.05260256
_cell_length_c   8.33110707
_cell_angle_alpha   96.85279750
_cell_angle_beta   112.31305495
_cell_angle_gamma   89.56804578
_symmetry_Int_Tables_number   1
_chemical_formula_structural   TbLu4CoRu
_chemical_formula_sum   'Tb2 Lu8 Co2 Ru2'
_cell_volume   334.16788806
_cell_formula_units_Z   2
loop_
 _symmetry_equiv_pos_site_id
 _symmetry_equiv_pos_as_xyz
  1  'x, y, z'
loop_
 _atom_site_type_symbol
 _atom_site_label
 _atom_site_symmetry_multiplicity
 _atom_site_fract_x
 _atom_site_fract_y
 _atom_site_fract_z
 _atom_site_occupancy
  Tb  Tb0  1  0.526504  0.088447  0.812695  1
  Tb  Tb1  1  0.473496  0.911553  0.187305  1
  Lu  Lu2  1  0.701283  0.417769  0.189760  1
  Lu  Lu3  1  0.298717  0.582231  0.810240  1
  Lu  Lu4  1  0.288339  0.321767  0.431970  1
  Lu  Lu5  1  0.711661  0.678233  0.568030  1
  Lu  Lu6  1  0.858262  0.187599  0.564857  1
  Lu  Lu7  1  0.141738  0.812401  0.435143  1
  Lu  Lu8  1  0.078146  0.260479  0.000616  1
  Lu  Lu9  1  0.921854  0.739521  0.999384  1
  Co  Co10  1  0.325675  0.575353  0.227348  1
  Co  Co11  1  0.674325  0.424647  0.772652  1
  Ru  Ru12  1  0.101151  0.924426  0.782691  1
  Ru  Ru13  1  0.898849  0.075574  0.217309  1
