# generated using pymatgen
data_Dy4HoLu15(CoSb2)4
_symmetry_space_group_name_H-M   'P 1'
_cell_length_a   7.71913160
_cell_length_b   8.72904300
_cell_length_c   11.98301549
_cell_angle_alpha   90.00000000
_cell_angle_beta   90.07375552
_cell_angle_gamma   90.00000000
_symmetry_Int_Tables_number   1
_chemical_formula_structural   Dy4HoLu15(CoSb2)4
_chemical_formula_sum   'Dy4 Ho1 Lu15 Co4 Sb8'
_cell_volume   807.42248327
_cell_formula_units_Z   1
loop_
 _symmetry_equiv_pos_site_id
 _symmetry_equiv_pos_as_xyz
  1  'x, y, z'
loop_
 _atom_site_type_symbol
 _atom_site_label
 _atom_site_symmetry_multiplicity
 _atom_site_fract_x
 _atom_site_fract_y
 _atom_site_fract_z
 _atom_site_occupancy
  Dy  Dy0  1  0.622626  0.750000  0.307695  1
  Dy  Dy1  1  0.878212  0.750000  0.807823  1
  Dy  Dy2  1  0.377907  0.250000  0.692307  1
  Dy  Dy3  1  0.121999  0.250000  0.192259  1
  Ho  Ho4  1  0.155599  0.750000  0.204709  1
  Lu  Lu5  1  0.344815  0.750000  0.703739  1
  Lu  Lu6  1  0.844576  0.250000  0.796144  1
  Lu  Lu7  1  0.655219  0.250000  0.296320  1
  Lu  Lu8  1  0.447707  0.750000  0.997256  1
  Lu  Lu9  1  0.053110  0.750000  0.498154  1
  Lu  Lu10  1  0.553529  0.250000  0.002087  1
  Lu  Lu11  1  0.946654  0.250000  0.502447  1
  Lu  Lu12  1  0.823635  0.536491  0.064949  1
  Lu  Lu13  1  0.675752  0.962812  0.565358  1
  Lu  Lu14  1  0.175815  0.037656  0.934415  1
  Lu  Lu15  1  0.324277  0.462410  0.434867  1
  Lu  Lu16  1  0.175815  0.462344  0.934415  1
  Lu  Lu17  1  0.324277  0.037590  0.434867  1
  Lu  Lu18  1  0.823635  0.963509  0.064949  1
  Lu  Lu19  1  0.675752  0.537188  0.565358  1
  Co  Co20  1  0.431738  0.750000  0.491799  1
  Co  Co21  1  0.067802  0.750000  0.991249  1
  Co  Co22  1  0.567925  0.250000  0.508155  1
  Co  Co23  1  0.931776  0.250000  0.008119  1
  Sb  Sb24  1  0.930100  0.507704  0.329469  1
  Sb  Sb25  1  0.568863  0.991421  0.828947  1
  Sb  Sb26  1  0.068866  0.008620  0.671095  1
  Sb  Sb27  1  0.432095  0.490706  0.170767  1
  Sb  Sb28  1  0.068866  0.491380  0.671095  1
  Sb  Sb29  1  0.432095  0.009294  0.170767  1
  Sb  Sb30  1  0.930100  0.992296  0.329469  1
  Sb  Sb31  1  0.568863  0.508579  0.828947  1
