# generated using pymatgen
data_Zr4Ge2B4Ir3Ru7
_symmetry_space_group_name_H-M   'P 1'
_cell_length_a   9.41213203
_cell_length_b   9.42236803
_cell_length_c   3.10094400
_cell_angle_alpha   90.00000000
_cell_angle_beta   90.00000000
_cell_angle_gamma   89.99036880
_symmetry_Int_Tables_number   1
_chemical_formula_structural   Zr4Ge2B4Ir3Ru7
_chemical_formula_sum   'Zr4 Ge2 B4 Ir3 Ru7'
_cell_volume   275.00588754
_cell_formula_units_Z   1
loop_
 _symmetry_equiv_pos_site_id
 _symmetry_equiv_pos_as_xyz
  1  'x, y, z'
loop_
 _atom_site_type_symbol
 _atom_site_label
 _atom_site_symmetry_multiplicity
 _atom_site_fract_x
 _atom_site_fract_y
 _atom_site_fract_z
 _atom_site_occupancy
  Zr  Zr0  1  0.679825  0.179029  0.000000  1
  Zr  Zr1  1  0.323172  0.816934  0.000000  1
  Zr  Zr2  1  0.179161  0.324959  0.000000  1
  Zr  Zr3  1  0.820367  0.678893  0.000000  1
  Ge  Ge4  1  0.994305  0.998653  0.000000  1
  Ge  Ge5  1  0.500046  0.500254  0.000000  1
  B  B6  1  0.123693  0.624305  0.000000  1
  B  B7  1  0.875662  0.376399  0.000000  1
  B  B8  1  0.623514  0.874622  0.000000  1
  B  B9  1  0.378550  0.124834  0.000000  1
  Ir  Ir10  1  0.217099  0.068074  0.500000  1
  Ir  Ir11  1  0.499576  0.999534  0.500000  1
  Ir  Ir12  1  0.999450  0.501386  0.500000  1
  Ru  Ru13  1  0.782034  0.932386  0.500000  1
  Ru  Ru14  1  0.069032  0.785982  0.500000  1
  Ru  Ru15  1  0.716515  0.431229  0.500000  1
  Ru  Ru16  1  0.935656  0.216118  0.500000  1
  Ru  Ru17  1  0.283228  0.567209  0.500000  1
  Ru  Ru18  1  0.567367  0.715756  0.500000  1
  Ru  Ru19  1  0.431749  0.283444  0.500000  1
