# generated using pymatgen
data_Pr5Sn2Bi
_symmetry_space_group_name_H-M   'P 1'
_cell_length_a   9.48194143
_cell_length_b   9.50106368
_cell_length_c   6.75841200
_cell_angle_alpha   90.00000000
_cell_angle_beta   90.00000000
_cell_angle_gamma   120.06672282
_symmetry_Int_Tables_number   1
_chemical_formula_structural   Pr5Sn2Bi
_chemical_formula_sum   'Pr10 Sn4 Bi2'
_cell_volume   526.92936844
_cell_formula_units_Z   2
loop_
 _symmetry_equiv_pos_site_id
 _symmetry_equiv_pos_as_xyz
  1  'x, y, z'
loop_
 _atom_site_type_symbol
 _atom_site_label
 _atom_site_symmetry_multiplicity
 _atom_site_fract_x
 _atom_site_fract_y
 _atom_site_fract_z
 _atom_site_occupancy
  Pr  Pr0  1  0.670315  0.336493  0.503213  1
  Pr  Pr1  1  0.329685  0.666179  0.503213  1
  Pr  Pr2  1  0.329685  0.666179  0.996787  1
  Pr  Pr3  1  0.670315  0.336493  0.996787  1
  Pr  Pr4  1  0.761746  0.756346  0.250000  1
  Pr  Pr5  1  0.238254  0.994601  0.250000  1
  Pr  Pr6  1  0.000000  0.245719  0.250000  1
  Pr  Pr7  1  0.242251  0.242324  0.750000  1
  Pr  Pr8  1  0.757749  0.000074  0.750000  1
  Pr  Pr9  1  0.000000  0.756983  0.750000  1
  Sn  Sn10  1  0.000000  0.607839  0.250000  1
  Sn  Sn11  1  0.607566  0.608522  0.750000  1
  Sn  Sn12  1  0.392434  0.000956  0.750000  1
  Sn  Sn13  1  0.000000  0.391329  0.750000  1
  Bi  Bi14  1  0.390710  0.390336  0.250000  1
  Bi  Bi15  1  0.609290  0.999626  0.250000  1
