# generated using pymatgen
data_CaLa6Os4C9
_symmetry_space_group_name_H-M   'P 1'
_cell_length_a   6.60914316
_cell_length_b   6.60914248
_cell_length_c   11.96273235
_cell_angle_alpha   70.80541131
_cell_angle_beta   109.19458683
_cell_angle_gamma   131.72223778
_symmetry_Int_Tables_number   1
_chemical_formula_structural   CaLa6Os4C9
_chemical_formula_sum   'Ca1 La6 Os4 C9'
_cell_volume   363.82241423
_cell_formula_units_Z   1
loop_
 _symmetry_equiv_pos_site_id
 _symmetry_equiv_pos_as_xyz
  1  'x, y, z'
loop_
 _atom_site_type_symbol
 _atom_site_label
 _atom_site_symmetry_multiplicity
 _atom_site_fract_x
 _atom_site_fract_y
 _atom_site_fract_z
 _atom_site_occupancy
  Ca  Ca0  1  0.000000  0.000000  0.000000  1
  La  La1  1  0.137546  0.862451  0.618471  1
  La  La2  1  0.862450  0.137546  0.381528  1
  La  La3  1  0.141525  0.858472  0.314240  1
  La  La4  1  0.371408  0.628589  0.151080  1
  La  La5  1  0.628589  0.371408  0.848920  1
  La  La6  1  0.858472  0.141525  0.685760  1
  Os  Os7  1  0.641328  0.358669  0.141720  1
  Os  Os8  1  0.358670  0.641327  0.858280  1
  Os  Os9  1  0.564438  0.435559  0.427922  1
  Os  Os10  1  0.435559  0.564438  0.572079  1
  C  C11  1  0.386892  0.613105  0.710084  1
  C  C12  1  0.613106  0.386891  0.289917  1
  C  C13  1  0.391072  0.608925  0.387466  1
  C  C14  1  0.608924  0.391073  0.612535  1
  C  C15  1  0.080872  0.919125  0.823402  1
  C  C16  1  0.919126  0.080871  0.176598  1
  C  C17  1  0.499998  0.499998  0.000000  1
  C  C18  1  0.801645  0.198351  0.141235  1
  C  C19  1  0.198351  0.801646  0.858765  1
