# generated using pymatgen
data_PrY5Cd23As
_symmetry_space_group_name_H-M   'P 1'
_cell_length_a   10.03481968
_cell_length_b   9.95302648
_cell_length_c   9.95302600
_cell_angle_alpha   60.54443523
_cell_angle_beta   59.72777577
_cell_angle_gamma   59.72777363
_symmetry_Int_Tables_number   1
_chemical_formula_structural   PrY5Cd23As
_chemical_formula_sum   'Pr1 Y5 Cd23 As1'
_cell_volume   702.82252543
_cell_formula_units_Z   1
loop_
 _symmetry_equiv_pos_site_id
 _symmetry_equiv_pos_as_xyz
  1  'x, y, z'
loop_
 _atom_site_type_symbol
 _atom_site_label
 _atom_site_symmetry_multiplicity
 _atom_site_fract_x
 _atom_site_fract_y
 _atom_site_fract_z
 _atom_site_occupancy
  Pr  Pr0  1  0.209613  0.790387  0.790387  1
  Y  Y1  1  0.796915  0.797436  0.203085  1
  Y  Y2  1  0.202564  0.797436  0.203085  1
  Y  Y3  1  0.792171  0.207829  0.207829  1
  Y  Y4  1  0.202564  0.203085  0.797436  1
  Y  Y5  1  0.796915  0.203085  0.797436  1
  Cd  Cd6  1  0.836726  0.839649  0.486900  1
  Cd  Cd7  1  0.836726  0.486900  0.839649  1
  Cd  Cd8  1  0.492656  0.835950  0.835950  1
  Cd  Cd9  1  0.835446  0.835950  0.835950  1
  Cd  Cd10  1  0.164050  0.164554  0.507344  1
  Cd  Cd11  1  0.164050  0.507344  0.164554  1
  Cd  Cd12  1  0.513100  0.163274  0.163274  1
  Cd  Cd13  1  0.160351  0.163274  0.163274  1
  Cd  Cd14  1  0.620061  0.623248  0.136630  1
  Cd  Cd15  1  0.620061  0.136630  0.623248  1
  Cd  Cd16  1  0.133211  0.619282  0.619282  1
  Cd  Cd17  1  0.628225  0.619282  0.619282  1
  Cd  Cd18  1  0.380718  0.371775  0.866789  1
  Cd  Cd19  1  0.380718  0.866789  0.371775  1
  Cd  Cd20  1  0.863370  0.379939  0.379939  1
  Cd  Cd21  1  0.376752  0.379939  0.379939  1
  Cd  Cd22  1  0.999646  0.000354  0.499850  1
  Cd  Cd23  1  0.500150  0.000354  0.499850  1
  Cd  Cd24  1  0.999494  0.500506  0.500506  1
  Cd  Cd25  1  0.500150  0.499850  0.000354  1
  Cd  Cd26  1  0.999646  0.499850  0.000354  1
  Cd  Cd27  1  0.499494  0.000506  0.000506  1
  Cd  Cd28  1  0.497863  0.502137  0.502137  1
  As  As29  1  0.996589  0.003411  0.003411  1
