# generated using pymatgen
data_Nd3Tl2InPd2Au
_symmetry_space_group_name_H-M   'P 1'
_cell_length_a   8.01583816
_cell_length_b   8.00659486
_cell_length_c   3.97091500
_cell_angle_alpha   90.00000000
_cell_angle_beta   90.00000000
_cell_angle_gamma   120.42082373
_symmetry_Int_Tables_number   1
_chemical_formula_structural   Nd3Tl2InPd2Au
_chemical_formula_sum   'Nd3 Tl2 In1 Pd2 Au1'
_cell_volume   219.76611333
_cell_formula_units_Z   1
loop_
 _symmetry_equiv_pos_site_id
 _symmetry_equiv_pos_as_xyz
  1  'x, y, z'
loop_
 _atom_site_type_symbol
 _atom_site_label
 _atom_site_symmetry_multiplicity
 _atom_site_fract_x
 _atom_site_fract_y
 _atom_site_fract_z
 _atom_site_occupancy
  Nd  Nd0  1  0.008176  0.597061  0.500000  1
  Nd  Nd1  1  0.590361  0.993745  0.500000  1
  Nd  Nd2  1  0.401819  0.409123  0.500000  1
  Tl  Tl3  1  0.001260  0.259063  0.000000  1
  Tl  Tl4  1  0.256813  0.996180  0.000000  1
  In  In5  1  0.741590  0.744380  0.000000  1
  Pd  Pd6  1  0.990316  0.990179  0.500000  1
  Pd  Pd7  1  0.341377  0.668347  0.000000  1
  Au  Au8  1  0.668287  0.341920  0.000000  1
