# generated using pymatgen
data_Er2Tm3(Cd2Ni)2
_symmetry_space_group_name_H-M   'P 1'
_cell_length_a   3.52217000
_cell_length_b   7.81940328
_cell_length_c   18.05786548
_cell_angle_alpha   89.98053227
_cell_angle_beta   90.00000000
_cell_angle_gamma   90.00000000
_symmetry_Int_Tables_number   1
_chemical_formula_structural   Er2Tm3(Cd2Ni)2
_chemical_formula_sum   'Er4 Tm6 Cd8 Ni4'
_cell_volume   497.33647747
_cell_formula_units_Z   2
loop_
 _symmetry_equiv_pos_site_id
 _symmetry_equiv_pos_as_xyz
  1  'x, y, z'
loop_
 _atom_site_type_symbol
 _atom_site_label
 _atom_site_symmetry_multiplicity
 _atom_site_fract_x
 _atom_site_fract_y
 _atom_site_fract_z
 _atom_site_occupancy
  Er  Er0  1  0.000000  0.500000  0.500000  1
  Er  Er1  1  0.000000  0.000000  0.000000  1
  Er  Er2  1  0.000000  0.745907  0.279167  1
  Er  Er3  1  0.000000  0.254093  0.720833  1
  Tm  Tm4  1  0.000000  0.754098  0.779273  1
  Tm  Tm5  1  0.000000  0.245902  0.220727  1
  Tm  Tm6  1  0.000000  0.615418  0.088294  1
  Tm  Tm7  1  0.000000  0.384582  0.911706  1
  Tm  Tm8  1  0.000000  0.884244  0.588360  1
  Tm  Tm9  1  0.000000  0.115756  0.411640  1
  Cd  Cd10  1  0.500000  0.708411  0.931522  1
  Cd  Cd11  1  0.500000  0.291589  0.068478  1
  Cd  Cd12  1  0.500000  0.791946  0.431735  1
  Cd  Cd13  1  0.500000  0.208054  0.568265  1
  Cd  Cd14  1  0.500000  0.571961  0.651205  1
  Cd  Cd15  1  0.500000  0.428039  0.348795  1
  Cd  Cd16  1  0.500000  0.929107  0.151019  1
  Cd  Cd17  1  0.500000  0.070893  0.848981  1
  Ni  Ni18  1  0.500000  0.525821  0.195672  1
  Ni  Ni19  1  0.500000  0.474179  0.804328  1
  Ni  Ni20  1  0.500000  0.972229  0.695902  1
  Ni  Ni21  1  0.500000  0.027771  0.304098  1
