# generated using pymatgen
data_Tb7Zn(Sn11Os3)2
_symmetry_space_group_name_H-M   'P 1'
_cell_length_a   9.84544900
_cell_length_b   9.84544843
_cell_length_c   10.14876500
_cell_angle_alpha   90.00000000
_cell_angle_beta   90.00000000
_cell_angle_gamma   120.00000527
_symmetry_Int_Tables_number   1
_chemical_formula_structural   Tb7Zn(Sn11Os3)2
_chemical_formula_sum   'Tb7 Zn1 Sn22 Os6'
_cell_volume   851.95142474
_cell_formula_units_Z   1
loop_
 _symmetry_equiv_pos_site_id
 _symmetry_equiv_pos_as_xyz
  1  'x, y, z'
loop_
 _atom_site_type_symbol
 _atom_site_label
 _atom_site_symmetry_multiplicity
 _atom_site_fract_x
 _atom_site_fract_y
 _atom_site_fract_z
 _atom_site_occupancy
  Tb  Tb0  1  0.000000  0.000000  0.000000  1
  Tb  Tb1  1  0.481869  0.518131  0.305885  1
  Tb  Tb2  1  0.518131  0.481869  0.694115  1
  Tb  Tb3  1  0.481869  0.963736  0.305885  1
  Tb  Tb4  1  0.518131  0.036264  0.694115  1
  Tb  Tb5  1  0.036264  0.518131  0.305885  1
  Tb  Tb6  1  0.963736  0.481869  0.694115  1
  Zn  Zn7  1  0.000000  0.000000  0.500000  1
  Sn  Sn8  1  0.349479  0.000000  0.000000  1
  Sn  Sn9  1  0.650521  0.000000  0.000000  1
  Sn  Sn10  1  0.000000  0.349479  0.000000  1
  Sn  Sn11  1  0.000000  0.650521  0.000000  1
  Sn  Sn12  1  0.650521  0.650521  0.000000  1
  Sn  Sn13  1  0.349479  0.349479  0.000000  1
  Sn  Sn14  1  0.333333  0.666667  0.822661  1
  Sn  Sn15  1  0.666667  0.333333  0.177339  1
  Sn  Sn16  1  0.780022  0.219978  0.460161  1
  Sn  Sn17  1  0.219978  0.780022  0.539839  1
  Sn  Sn18  1  0.780022  0.560046  0.460161  1
  Sn  Sn19  1  0.219978  0.439954  0.539839  1
  Sn  Sn20  1  0.439954  0.219978  0.460161  1
  Sn  Sn21  1  0.560046  0.780022  0.539839  1
  Sn  Sn22  1  0.333333  0.666667  0.124149  1
  Sn  Sn23  1  0.666667  0.333333  0.875851  1
  Sn  Sn24  1  0.119742  0.880258  0.272571  1
  Sn  Sn25  1  0.880258  0.119742  0.727429  1
  Sn  Sn26  1  0.119742  0.239486  0.272571  1
  Sn  Sn27  1  0.880258  0.760514  0.727429  1
  Sn  Sn28  1  0.760514  0.880258  0.272571  1
  Sn  Sn29  1  0.239486  0.119742  0.727429  1
  Os  Os30  1  0.831531  0.168469  0.203910  1
  Os  Os31  1  0.168469  0.831531  0.796090  1
  Os  Os32  1  0.831531  0.663063  0.203910  1
  Os  Os33  1  0.168469  0.336937  0.796090  1
  Os  Os34  1  0.336937  0.168469  0.203910  1
  Os  Os35  1  0.663063  0.831531  0.796090  1
