# generated using pymatgen
data_TbNd2Er5(CdIr)2
_symmetry_space_group_name_H-M   'P 1'
_cell_length_a   9.66037511
_cell_length_b   9.66769682
_cell_length_c   9.66769577
_cell_angle_alpha   59.94989799
_cell_angle_beta   60.02504874
_cell_angle_gamma   60.02504954
_symmetry_Int_Tables_number   1
_chemical_formula_structural   TbNd2Er5(CdIr)2
_chemical_formula_sum   'Tb2 Nd4 Er10 Cd4 Ir4'
_cell_volume   638.44645534
_cell_formula_units_Z   2
loop_
 _symmetry_equiv_pos_site_id
 _symmetry_equiv_pos_as_xyz
  1  'x, y, z'
loop_
 _atom_site_type_symbol
 _atom_site_label
 _atom_site_symmetry_multiplicity
 _atom_site_fract_x
 _atom_site_fract_y
 _atom_site_fract_z
 _atom_site_occupancy
  Tb  Tb0  1  0.943535  0.556465  0.556465  1
  Tb  Tb1  1  0.556465  0.943535  0.943535  1
  Nd  Nd2  1  0.560558  0.939442  0.560558  1
  Nd  Nd3  1  0.939442  0.560558  0.939442  1
  Nd  Nd4  1  0.560558  0.560558  0.939442  1
  Nd  Nd5  1  0.939442  0.939442  0.560558  1
  Er  Er6  1  0.348209  0.347217  0.347217  1
  Er  Er7  1  0.347217  0.348209  0.957357  1
  Er  Er8  1  0.347217  0.957357  0.348209  1
  Er  Er9  1  0.957357  0.347217  0.347217  1
  Er  Er10  1  0.813159  0.186841  0.186841  1
  Er  Er11  1  0.186841  0.813159  0.813159  1
  Er  Er12  1  0.188237  0.811763  0.188237  1
  Er  Er13  1  0.811763  0.188237  0.811763  1
  Er  Er14  1  0.188237  0.188237  0.811763  1
  Er  Er15  1  0.811763  0.811763  0.188237  1
  Cd  Cd16  1  0.581328  0.578944  0.578944  1
  Cd  Cd17  1  0.578944  0.581328  0.260783  1
  Cd  Cd18  1  0.578944  0.260783  0.581328  1
  Cd  Cd19  1  0.260783  0.578944  0.578944  1
  Ir  Ir20  1  0.143621  0.140150  0.140150  1
  Ir  Ir21  1  0.140150  0.143621  0.576078  1
  Ir  Ir22  1  0.140150  0.576078  0.143621  1
  Ir  Ir23  1  0.576078  0.140150  0.140150  1
