# generated using pymatgen
data_Dy2Si5Ir3
_symmetry_space_group_name_H-M   'P 1'
_cell_length_a   8.15596414
_cell_length_b   8.15596356
_cell_length_c   8.15596329
_cell_angle_alpha   138.15195609
_cell_angle_beta   104.16223196
_cell_angle_gamma   90.59674153
_symmetry_Int_Tables_number   1
_chemical_formula_structural   Dy2Si5Ir3
_chemical_formula_sum   'Dy4 Si10 Ir6'
_cell_volume   335.02496517
_cell_formula_units_Z   2
loop_
 _symmetry_equiv_pos_site_id
 _symmetry_equiv_pos_as_xyz
  1  'x, y, z'
loop_
 _atom_site_type_symbol
 _atom_site_label
 _atom_site_symmetry_multiplicity
 _atom_site_fract_x
 _atom_site_fract_y
 _atom_site_fract_z
 _atom_site_occupancy
  Dy  Dy0  1  0.859951  0.631646  0.228305  1
  Dy  Dy1  1  0.140049  0.368354  0.771695  1
  Dy  Dy2  1  0.403341  0.131646  0.271695  1
  Dy  Dy3  1  0.596659  0.868354  0.728305  1
  Si  Si4  1  0.500000  0.750000  0.250000  1
  Si  Si5  1  0.500000  0.250000  0.750000  1
  Si  Si6  1  0.224919  0.974919  0.750000  1
  Si  Si7  1  0.775081  0.525081  0.750000  1
  Si  Si8  1  0.775081  0.025081  0.250000  1
  Si  Si9  1  0.224919  0.474919  0.250000  1
  Si  Si10  1  0.049613  0.893688  0.155925  1
  Si  Si11  1  0.950387  0.106312  0.844075  1
  Si  Si12  1  0.737763  0.393688  0.344075  1
  Si  Si13  1  0.262237  0.606312  0.655925  1
  Ir  Ir14  1  0.000000  0.750000  0.750000  1
  Ir  Ir15  1  0.000000  0.250000  0.250000  1
  Ir  Ir16  1  0.246697  0.860405  0.386293  1
  Ir  Ir17  1  0.753303  0.139595  0.613707  1
  Ir  Ir18  1  0.474112  0.360405  0.113707  1
  Ir  Ir19  1  0.525888  0.639595  0.886293  1
