# generated using pymatgen
data_Eu(PPt4)2
_symmetry_space_group_name_H-M   'P 1'
_cell_length_a   6.34936593
_cell_length_b   6.34936562
_cell_length_c   9.38616588
_cell_angle_alpha   54.94682769
_cell_angle_beta   54.94683149
_cell_angle_gamma   37.52212099
_symmetry_Int_Tables_number   1
_chemical_formula_structural   Eu(PPt4)2
_chemical_formula_sum   'Eu1 P2 Pt8'
_cell_volume   183.23161757
_cell_formula_units_Z   1
loop_
 _symmetry_equiv_pos_site_id
 _symmetry_equiv_pos_as_xyz
  1  'x, y, z'
loop_
 _atom_site_type_symbol
 _atom_site_label
 _atom_site_symmetry_multiplicity
 _atom_site_fract_x
 _atom_site_fract_y
 _atom_site_fract_z
 _atom_site_occupancy
  Eu  Eu0  1  0.500000  0.500000  0.500000  1
  P  P1  1  0.058057  0.058057  0.707632  1
  P  P2  1  0.941943  0.941943  0.292368  1
  Pt  Pt3  1  0.232919  0.232919  0.409910  1
  Pt  Pt4  1  0.820896  0.820896  0.846518  1
  Pt  Pt5  1  0.179104  0.179104  0.153482  1
  Pt  Pt6  1  0.163900  0.163900  0.849283  1
  Pt  Pt7  1  0.473171  0.473171  0.871175  1
  Pt  Pt8  1  0.526829  0.526829  0.128825  1
  Pt  Pt9  1  0.767081  0.767081  0.590090  1
  Pt  Pt10  1  0.836100  0.836100  0.150717  1
