# generated using pymatgen
data_Y3ThTlFe
_symmetry_space_group_name_H-M   'P 1'
_cell_length_a   9.66872211
_cell_length_b   9.66872226
_cell_length_c   9.66872200
_cell_angle_alpha   60.00000091
_cell_angle_beta   60.00000037
_cell_angle_gamma   60.00000473
_symmetry_Int_Tables_number   1
_chemical_formula_structural   Y3ThTlFe
_chemical_formula_sum   'Y12 Th4 Tl4 Fe4'
_cell_volume   639.13449658
_cell_formula_units_Z   4
loop_
 _symmetry_equiv_pos_site_id
 _symmetry_equiv_pos_as_xyz
  1  'x, y, z'
loop_
 _atom_site_type_symbol
 _atom_site_label
 _atom_site_symmetry_multiplicity
 _atom_site_fract_x
 _atom_site_fract_y
 _atom_site_fract_z
 _atom_site_occupancy
  Y  Y0  1  0.812448  0.187596  0.187596  1
  Y  Y1  1  0.187560  0.812406  0.812406  1
  Y  Y2  1  0.187596  0.812448  0.187596  1
  Y  Y3  1  0.812406  0.187560  0.812406  1
  Y  Y4  1  0.187596  0.187596  0.812448  1
  Y  Y5  1  0.812406  0.812406  0.187560  1
  Y  Y6  1  0.939992  0.560017  0.560017  1
  Y  Y7  1  0.559818  0.940097  0.940097  1
  Y  Y8  1  0.560017  0.939992  0.560017  1
  Y  Y9  1  0.940097  0.559818  0.940097  1
  Y  Y10  1  0.560017  0.560017  0.939992  1
  Y  Y11  1  0.940097  0.940097  0.559818  1
  Th  Th12  1  0.343657  0.343657  0.343657  1
  Th  Th13  1  0.343538  0.343538  0.969122  1
  Th  Th14  1  0.343538  0.969122  0.343538  1
  Th  Th15  1  0.969122  0.343538  0.343538  1
  Tl  Tl16  1  0.585475  0.585475  0.585475  1
  Tl  Tl17  1  0.585432  0.585432  0.243611  1
  Tl  Tl18  1  0.585432  0.243611  0.585432  1
  Tl  Tl19  1  0.243611  0.585432  0.585432  1
  Fe  Fe20  1  0.145483  0.145483  0.145483  1
  Fe  Fe21  1  0.145465  0.145465  0.563734  1
  Fe  Fe22  1  0.145465  0.563734  0.145465  1
  Fe  Fe23  1  0.563734  0.145465  0.145465  1
