# generated using pymatgen
data_FeRe(IrRh2)2
_symmetry_space_group_name_H-M   'P 1'
_cell_length_a   5.47863594
_cell_length_b   5.47863605
_cell_length_c   4.36269300
_cell_angle_alpha   90.00000000
_cell_angle_beta   90.00000000
_cell_angle_gamma   119.93270634
_symmetry_Int_Tables_number   1
_chemical_formula_structural   FeRe(IrRh2)2
_chemical_formula_sum   'Fe1 Re1 Ir2 Rh4'
_cell_volume   113.48129218
_cell_formula_units_Z   1
loop_
 _symmetry_equiv_pos_site_id
 _symmetry_equiv_pos_as_xyz
  1  'x, y, z'
loop_
 _atom_site_type_symbol
 _atom_site_label
 _atom_site_symmetry_multiplicity
 _atom_site_fract_x
 _atom_site_fract_y
 _atom_site_fract_z
 _atom_site_occupancy
  Fe  Fe0  1  0.666462  0.333538  0.250000  1
  Re  Re1  1  0.333398  0.666602  0.750000  1
  Ir  Ir2  1  0.167016  0.334539  0.250000  1
  Ir  Ir3  1  0.665461  0.832984  0.250000  1
  Rh  Rh4  1  0.167197  0.832803  0.250000  1
  Rh  Rh5  1  0.832434  0.664231  0.750000  1
  Rh  Rh6  1  0.335769  0.167566  0.750000  1
  Rh  Rh7  1  0.832262  0.167738  0.750000  1
