# generated using pymatgen
data_TaNb3(SiRh)4
_symmetry_space_group_name_H-M   'P 1'
_cell_length_a   3.77705400
_cell_length_b   6.44463243
_cell_length_c   7.36189164
_cell_angle_alpha   90.07645013
_cell_angle_beta   90.00000000
_cell_angle_gamma   90.00000000
_symmetry_Int_Tables_number   1
_chemical_formula_structural   TaNb3(SiRh)4
_chemical_formula_sum   'Ta1 Nb3 Si4 Rh4'
_cell_volume   179.20098011
_cell_formula_units_Z   1
loop_
 _symmetry_equiv_pos_site_id
 _symmetry_equiv_pos_as_xyz
  1  'x, y, z'
loop_
 _atom_site_type_symbol
 _atom_site_label
 _atom_site_symmetry_multiplicity
 _atom_site_fract_x
 _atom_site_fract_y
 _atom_site_fract_z
 _atom_site_occupancy
  Ta  Ta0  1  0.750000  0.974245  0.173726  1
  Nb  Nb1  1  0.250000  0.526090  0.673675  1
  Nb  Nb2  1  0.750000  0.473868  0.326617  1
  Nb  Nb3  1  0.250000  0.025604  0.827233  1
  Si  Si4  1  0.250000  0.268239  0.123939  1
  Si  Si5  1  0.750000  0.731607  0.875327  1
  Si  Si6  1  0.250000  0.768173  0.376160  1
  Si  Si7  1  0.750000  0.231650  0.624779  1
  Rh  Rh8  1  0.750000  0.855273  0.561592  1
  Rh  Rh9  1  0.250000  0.143966  0.435292  1
  Rh  Rh10  1  0.750000  0.354420  0.938163  1
  Rh  Rh11  1  0.250000  0.646864  0.063496  1
