# generated using pymatgen
data_Nd4ThMg(P2Ru3)6
_symmetry_space_group_name_H-M   'P 1'
_cell_length_a   12.73670571
_cell_length_b   12.58769016
_cell_length_c   4.02541900
_cell_angle_alpha   90.00000000
_cell_angle_beta   90.00000000
_cell_angle_gamma   119.59849184
_symmetry_Int_Tables_number   1
_chemical_formula_structural   Nd4ThMg(P2Ru3)6
_chemical_formula_sum   'Nd4 Th1 Mg1 P12 Ru18'
_cell_volume   561.16141104
_cell_formula_units_Z   1
loop_
 _symmetry_equiv_pos_site_id
 _symmetry_equiv_pos_as_xyz
  1  'x, y, z'
loop_
 _atom_site_type_symbol
 _atom_site_label
 _atom_site_symmetry_multiplicity
 _atom_site_fract_x
 _atom_site_fract_y
 _atom_site_fract_z
 _atom_site_occupancy
  Nd  Nd0  1  0.999968  0.181044  0.500000  1
  Nd  Nd1  1  0.816481  0.816259  0.500000  1
  Nd  Nd2  1  0.184703  0.000761  0.500000  1
  Nd  Nd3  1  0.339249  0.668767  0.000000  1
  Th  Th4  1  0.660467  0.329717  0.000000  1
  Mg  Mg5  1  0.000455  0.561960  0.000000  1
  P  P6  1  0.000951  0.809824  0.000000  1
  P  P7  1  0.184708  0.185780  0.000000  1
  P  P8  1  0.813711  0.999606  0.000000  1
  P  P9  1  0.692642  0.169580  0.500000  1
  P  P10  1  0.820862  0.522799  0.500000  1
  P  P11  1  0.471869  0.306361  0.500000  1
  P  P12  1  0.181179  0.701941  0.500000  1
  P  P13  1  0.526413  0.831785  0.500000  1
  P  P14  1  0.307802  0.479137  0.500000  1
  P  P15  1  0.000594  0.362180  0.000000  1
  P  P16  1  0.622892  0.624468  0.000000  1
  P  P17  1  0.375466  0.999436  0.000000  1
  Ru  Ru18  1  0.444646  0.444093  0.000000  1
  Ru  Ru19  1  0.555784  0.001367  0.000000  1
  Ru  Ru20  1  0.000458  0.714747  0.500000  1
  Ru  Ru21  1  0.282594  0.284799  0.500000  1
  Ru  Ru22  1  0.716615  0.000681  0.500000  1
  Ru  Ru23  1  0.803832  0.184444  0.000000  1
  Ru  Ru24  1  0.813844  0.619301  0.000000  1
  Ru  Ru25  1  0.375399  0.191414  0.000000  1
  Ru  Ru26  1  0.186086  0.804827  0.000000  1
  Ru  Ru27  1  0.624390  0.816252  0.000000  1
  Ru  Ru28  1  0.195837  0.379842  0.000000  1
  Ru  Ru29  1  0.874254  0.366312  0.500000  1
  Ru  Ru30  1  0.630877  0.508963  0.500000  1
  Ru  Ru31  1  0.494119  0.129537  0.500000  1
  Ru  Ru32  1  0.370001  0.880405  0.500000  1
  Ru  Ru33  1  0.508502  0.634766  0.500000  1
  Ru  Ru34  1  0.123138  0.490023  0.500000  1
  Ru  Ru35  1  0.999212  0.996818  0.000000  1
