# generated using pymatgen
data_RbIrOF4
_symmetry_space_group_name_H-M   'P 1'
_cell_length_a   5.26304847
_cell_length_b   5.26304781
_cell_length_c   6.98729283
_cell_angle_alpha   114.21215502
_cell_angle_beta   114.21215224
_cell_angle_gamma   41.31022368
_symmetry_Int_Tables_number   1
_chemical_formula_structural   RbIrOF4
_chemical_formula_sum   'Rb1 Ir1 O1 F4'
_cell_volume   114.84082224
_cell_formula_units_Z   1
loop_
 _symmetry_equiv_pos_site_id
 _symmetry_equiv_pos_as_xyz
  1  'x, y, z'
loop_
 _atom_site_type_symbol
 _atom_site_label
 _atom_site_symmetry_multiplicity
 _atom_site_fract_x
 _atom_site_fract_y
 _atom_site_fract_z
 _atom_site_occupancy
  Rb  Rb0  1  0.999563  0.000437  0.000000  1
  Ir  Ir1  1  0.500831  0.499169  0.500000  1
  O  O2  1  0.000766  0.999234  0.500000  1
  F  F3  1  0.339341  0.340254  0.205003  1
  F  F4  1  0.632180  0.633129  0.357275  1
  F  F5  1  0.366871  0.367820  0.642726  1
  F  F6  1  0.659746  0.660659  0.794997  1
