# generated using pymatgen
data_TbTmCo9P6Os
_symmetry_space_group_name_H-M   'P 1'
_cell_length_a   3.68057800
_cell_length_b   10.33540800
_cell_length_c   11.73925100
_cell_angle_alpha   90.00000000
_cell_angle_beta   90.00000000
_cell_angle_gamma   90.00000000
_symmetry_Int_Tables_number   1
_chemical_formula_structural   TbTmCo9P6Os
_chemical_formula_sum   'Tb2 Tm2 Co18 P12 Os2'
_cell_volume   446.56433992
_cell_formula_units_Z   2
loop_
 _symmetry_equiv_pos_site_id
 _symmetry_equiv_pos_as_xyz
  1  'x, y, z'
loop_
 _atom_site_type_symbol
 _atom_site_label
 _atom_site_symmetry_multiplicity
 _atom_site_fract_x
 _atom_site_fract_y
 _atom_site_fract_z
 _atom_site_occupancy
  Tb  Tb0  1  0.250000  0.582472  0.702011  1
  Tb  Tb1  1  0.250000  0.917528  0.202011  1
  Tm  Tm2  1  0.750000  0.413162  0.295629  1
  Tm  Tm3  1  0.750000  0.086838  0.795629  1
  Co  Co4  1  0.750000  0.283554  0.008370  1
  Co  Co5  1  0.750000  0.216446  0.508370  1
  Co  Co6  1  0.250000  0.405392  0.486712  1
  Co  Co7  1  0.250000  0.094608  0.986712  1
  Co  Co8  1  0.750000  0.590928  0.508722  1
  Co  Co9  1  0.750000  0.909072  0.008722  1
  Co  Co10  1  0.250000  0.220625  0.176938  1
  Co  Co11  1  0.250000  0.279375  0.676938  1
  Co  Co12  1  0.750000  0.777865  0.822685  1
  Co  Co13  1  0.750000  0.722135  0.322685  1
  Co  Co14  1  0.250000  0.888650  0.702352  1
  Co  Co15  1  0.250000  0.611350  0.202352  1
  Co  Co16  1  0.750000  0.116480  0.301356  1
  Co  Co17  1  0.750000  0.383520  0.801356  1
  Co  Co18  1  0.250000  0.464432  0.933689  1
  Co  Co19  1  0.250000  0.035568  0.433689  1
  Co  Co20  1  0.750000  0.532526  0.069776  1
  Co  Co21  1  0.750000  0.967474  0.569776  1
  P  P22  1  0.250000  0.416074  0.113552  1
  P  P23  1  0.250000  0.083926  0.613552  1
  P  P24  1  0.750000  0.578385  0.887555  1
  P  P25  1  0.750000  0.921615  0.387555  1
  P  P26  1  0.250000  0.270041  0.868876  1
  P  P27  1  0.250000  0.229959  0.368876  1
  P  P28  1  0.750000  0.728592  0.132027  1
  P  P29  1  0.750000  0.771408  0.632027  1
  P  P30  1  0.250000  0.592772  0.389792  1
  P  P31  1  0.250000  0.907228  0.889792  1
  P  P32  1  0.750000  0.396604  0.608251  1
  P  P33  1  0.750000  0.103396  0.108251  1
  Os  Os34  1  0.250000  0.715568  0.991706  1
  Os  Os35  1  0.250000  0.784432  0.491706  1
