# generated using pymatgen
data_Y3ErAl18Pd5W
_symmetry_space_group_name_H-M   'P 1'
_cell_length_a   7.62375214
_cell_length_b   7.62751377
_cell_length_c   9.53732750
_cell_angle_alpha   89.66061174
_cell_angle_beta   89.60270068
_cell_angle_gamma   118.84667123
_symmetry_Int_Tables_number   1
_chemical_formula_structural   Y3ErAl18Pd5W
_chemical_formula_sum   'Y3 Er1 Al18 Pd5 W1'
_cell_volume   485.74144170
_cell_formula_units_Z   1
loop_
 _symmetry_equiv_pos_site_id
 _symmetry_equiv_pos_as_xyz
  1  'x, y, z'
loop_
 _atom_site_type_symbol
 _atom_site_label
 _atom_site_symmetry_multiplicity
 _atom_site_fract_x
 _atom_site_fract_y
 _atom_site_fract_z
 _atom_site_occupancy
  Y  Y0  1  0.995315  0.679218  0.246908  1
  Y  Y1  1  0.004920  0.320695  0.753057  1
  Y  Y2  1  0.679045  0.995147  0.246990  1
  Er  Er3  1  0.319965  0.004969  0.753654  1
  Al  Al4  1  0.136195  0.136129  0.249069  1
  Al  Al5  1  0.864409  0.863964  0.750750  1
  Al  Al6  1  0.003424  0.335678  0.076505  1
  Al  Al7  1  0.997336  0.664836  0.922906  1
  Al  Al8  1  0.998822  0.661216  0.578616  1
  Al  Al9  1  0.339205  0.001678  0.422460  1
  Al  Al10  1  0.001724  0.339300  0.421867  1
  Al  Al11  1  0.659995  0.998297  0.578686  1
  Al  Al12  1  0.663734  0.996637  0.923012  1
  Al  Al13  1  0.335879  0.003425  0.075916  1
  Al  Al14  1  0.333625  0.333030  0.555064  1
  Al  Al15  1  0.666405  0.666408  0.445593  1
  Al  Al16  1  0.666812  0.666807  0.052117  1
  Al  Al17  1  0.333393  0.332794  0.947285  1
  Al  Al18  1  0.342454  0.550908  0.250256  1
  Al  Al19  1  0.656929  0.448292  0.749729  1
  Al  Al20  1  0.550881  0.342328  0.250285  1
  Al  Al21  1  0.448828  0.658025  0.749716  1
  Pd  Pd22  1  0.672470  0.327564  0.999954  1
  Pd  Pd23  1  0.327539  0.672491  0.999928  1
  Pd  Pd24  1  0.328013  0.672039  0.500057  1
  Pd  Pd25  1  0.671964  0.327977  0.500031  1
  Pd  Pd26  1  0.000165  0.000008  0.500158  1
  W  W27  1  0.000555  0.000141  0.999429  1
