# generated using pymatgen
data_HoEr2Tm(WO6)2
_symmetry_space_group_name_H-M   'P 1'
_cell_length_a   5.35909200
_cell_length_b   7.65742088
_cell_length_c   11.39904400
_cell_angle_alpha   75.34023276
_cell_angle_beta   90.00000000
_cell_angle_gamma   90.00000000
_symmetry_Int_Tables_number   1
_chemical_formula_structural   HoEr2Tm(WO6)2
_chemical_formula_sum   'Ho2 Er4 Tm2 W4 O24'
_cell_volume   452.55228318
_cell_formula_units_Z   2
loop_
 _symmetry_equiv_pos_site_id
 _symmetry_equiv_pos_as_xyz
  1  'x, y, z'
loop_
 _atom_site_type_symbol
 _atom_site_label
 _atom_site_symmetry_multiplicity
 _atom_site_fract_x
 _atom_site_fract_y
 _atom_site_fract_z
 _atom_site_occupancy
  Ho  Ho0  1  0.684257  0.499651  0.750188  1
  Ho  Ho1  1  0.315743  0.499651  0.250188  1
  Er  Er2  1  0.739591  0.000389  0.750071  1
  Er  Er3  1  0.260409  0.000389  0.250071  1
  Er  Er4  1  0.185567  0.796177  0.578048  1
  Er  Er5  1  0.814433  0.796177  0.078048  1
  Tm  Tm6  1  0.185514  0.204555  0.921443  1
  Tm  Tm7  1  0.814486  0.204555  0.421443  1
  W  W8  1  0.254869  0.722722  0.885807  1
  W  W9  1  0.745131  0.722722  0.385807  1
  W  W10  1  0.254927  0.276848  0.614092  1
  W  W11  1  0.745073  0.276848  0.114092  1
  O  O12  1  0.042017  0.941146  0.895660  1
  O  O13  1  0.532905  0.848824  0.930895  1
  O  O14  1  0.957983  0.941146  0.395660  1
  O  O15  1  0.460547  0.790173  0.726967  1
  O  O16  1  0.467095  0.848824  0.430895  1
  O  O17  1  0.981033  0.711091  0.770815  1
  O  O18  1  0.539453  0.790173  0.226967  1
  O  O19  1  0.851788  0.634147  0.549390  1
  O  O20  1  0.361079  0.487615  0.886668  1
  O  O21  1  0.018967  0.711091  0.270815  1
  O  O22  1  0.361892  0.511455  0.613242  1
  O  O23  1  0.853157  0.365161  0.950606  1
  O  O24  1  0.148212  0.634147  0.049390  1
  O  O25  1  0.638921  0.487615  0.386668  1
  O  O26  1  0.981829  0.288929  0.729886  1
  O  O27  1  0.638108  0.511455  0.113242  1
  O  O28  1  0.146843  0.365161  0.450606  1
  O  O29  1  0.459500  0.209238  0.773578  1
  O  O30  1  0.018171  0.288929  0.229886  1
  O  O31  1  0.533738  0.151625  0.568625  1
  O  O32  1  0.540500  0.209238  0.273578  1
  O  O33  1  0.040373  0.060251  0.604017  1
  O  O34  1  0.466262  0.151625  0.068625  1
  O  O35  1  0.959627  0.060251  0.104017  1
