# generated using pymatgen
data_Pm2Se2S
_symmetry_space_group_name_H-M   'P 1'
_cell_length_a   4.09530100
_cell_length_b   10.93157600
_cell_length_c   11.36558400
_cell_angle_alpha   90.00000000
_cell_angle_beta   90.00000000
_cell_angle_gamma   90.00000000
_symmetry_Int_Tables_number   1
_chemical_formula_structural   Pm2Se2S
_chemical_formula_sum   'Pm8 Se8 S4'
_cell_volume   508.81553429
_cell_formula_units_Z   4
loop_
 _symmetry_equiv_pos_site_id
 _symmetry_equiv_pos_as_xyz
  1  'x, y, z'
loop_
 _atom_site_type_symbol
 _atom_site_label
 _atom_site_symmetry_multiplicity
 _atom_site_fract_x
 _atom_site_fract_y
 _atom_site_fract_z
 _atom_site_occupancy
  Pm  Pm0  1  0.250000  0.002792  0.697934  1
  Pm  Pm1  1  0.750000  0.997208  0.302066  1
  Pm  Pm2  1  0.750000  0.502792  0.802066  1
  Pm  Pm3  1  0.250000  0.497208  0.197934  1
  Pm  Pm4  1  0.250000  0.320837  0.509076  1
  Pm  Pm5  1  0.750000  0.679163  0.490924  1
  Pm  Pm6  1  0.750000  0.820837  0.990924  1
  Pm  Pm7  1  0.250000  0.179163  0.009076  1
  Se  Se8  1  0.250000  0.873164  0.457101  1
  Se  Se9  1  0.750000  0.126836  0.542899  1
  Se  Se10  1  0.750000  0.373164  0.042899  1
  Se  Se11  1  0.250000  0.626836  0.957101  1
  Se  Se12  1  0.250000  0.299882  0.769579  1
  Se  Se13  1  0.750000  0.700118  0.230421  1
  Se  Se14  1  0.750000  0.799882  0.730421  1
  Se  Se15  1  0.250000  0.200118  0.269579  1
  S  S16  1  0.750000  0.055200  0.881698  1
  S  S17  1  0.250000  0.944800  0.118302  1
  S  S18  1  0.250000  0.555200  0.618302  1
  S  S19  1  0.750000  0.444800  0.381698  1
