# generated using pymatgen
data_Ca3(H6Rh)2
_symmetry_space_group_name_H-M   'P 1'
_cell_length_a   4.93609900
_cell_length_b   4.93609864
_cell_length_c   8.18053100
_cell_angle_alpha   90.00000000
_cell_angle_beta   90.00000000
_cell_angle_gamma   119.99999573
_symmetry_Int_Tables_number   1
_chemical_formula_structural   Ca3(H6Rh)2
_chemical_formula_sum   'Ca3 H12 Rh2'
_cell_volume   172.61551813
_cell_formula_units_Z   1
loop_
 _symmetry_equiv_pos_site_id
 _symmetry_equiv_pos_as_xyz
  1  'x, y, z'
loop_
 _atom_site_type_symbol
 _atom_site_label
 _atom_site_symmetry_multiplicity
 _atom_site_fract_x
 _atom_site_fract_y
 _atom_site_fract_z
 _atom_site_occupancy
  Ca  Ca0  1  0.000000  0.000000  0.000000  1
  Ca  Ca1  1  0.666667  0.333333  0.362544  1
  Ca  Ca2  1  0.333333  0.666667  0.637456  1
  H  H3  1  0.172494  0.827506  0.366168  1
  H  H4  1  0.655012  0.827506  0.366168  1
  H  H5  1  0.172494  0.344988  0.366168  1
  H  H6  1  0.827506  0.172494  0.633832  1
  H  H7  1  0.344988  0.172494  0.633832  1
  H  H8  1  0.827506  0.655012  0.633832  1
  H  H9  1  0.510867  0.021735  0.871221  1
  H  H10  1  0.510867  0.489133  0.871221  1
  H  H11  1  0.978265  0.489133  0.871221  1
  H  H12  1  0.489133  0.978265  0.128779  1
  H  H13  1  0.489133  0.510867  0.128779  1
  H  H14  1  0.021735  0.510867  0.128779  1
  Rh  Rh15  1  0.666667  0.333333  0.749864  1
  Rh  Rh16  1  0.333333  0.666667  0.250136  1
