# generated using pymatgen
data_Ca2CdAsP
_symmetry_space_group_name_H-M   'P 1'
_cell_length_a   8.35182260
_cell_length_b   8.35182175
_cell_length_c   7.24374200
_cell_angle_alpha   90.00000000
_cell_angle_beta   90.00000000
_cell_angle_gamma   150.31602692
_symmetry_Int_Tables_number   1
_chemical_formula_structural   Ca2CdAsP
_chemical_formula_sum   'Ca4 Cd2 As2 P2'
_cell_volume   250.21873987
_cell_formula_units_Z   2
loop_
 _symmetry_equiv_pos_site_id
 _symmetry_equiv_pos_as_xyz
  1  'x, y, z'
loop_
 _atom_site_type_symbol
 _atom_site_label
 _atom_site_symmetry_multiplicity
 _atom_site_fract_x
 _atom_site_fract_y
 _atom_site_fract_z
 _atom_site_occupancy
  Ca  Ca0  1  0.294883  0.705117  0.914886  1
  Ca  Ca1  1  0.705117  0.294883  0.414886  1
  Ca  Ca2  1  0.463059  0.536941  0.274370  1
  Ca  Ca3  1  0.536941  0.463059  0.774370  1
  Cd  Cd4  1  0.100395  0.899605  0.107829  1
  Cd  Cd5  1  0.899605  0.100395  0.607829  1
  As  As6  1  0.065518  0.934482  0.484375  1
  As  As7  1  0.934482  0.065518  0.984375  1
  P  P8  1  0.318570  0.681430  0.507209  1
  P  P9  1  0.681430  0.318570  0.007209  1
