# generated using pymatgen
data_Tb3DyLu2(Al3Os)8
_symmetry_space_group_name_H-M   'P 1'
_cell_length_a   8.79784225
_cell_length_b   8.79102170
_cell_length_c   9.61680800
_cell_angle_alpha   90.00000000
_cell_angle_beta   90.00000000
_cell_angle_gamma   120.01831146
_symmetry_Int_Tables_number   1
_chemical_formula_structural   Tb3DyLu2(Al3Os)8
_chemical_formula_sum   'Tb3 Dy1 Lu2 Al24 Os8'
_cell_volume   644.01641181
_cell_formula_units_Z   1
loop_
 _symmetry_equiv_pos_site_id
 _symmetry_equiv_pos_as_xyz
  1  'x, y, z'
loop_
 _atom_site_type_symbol
 _atom_site_label
 _atom_site_symmetry_multiplicity
 _atom_site_fract_x
 _atom_site_fract_y
 _atom_site_fract_z
 _atom_site_occupancy
  Tb  Tb0  1  0.193234  0.386741  0.250000  1
  Tb  Tb1  1  0.806660  0.613196  0.750000  1
  Tb  Tb2  1  0.387084  0.193650  0.750000  1
  Dy  Dy3  1  0.807078  0.193240  0.750000  1
  Lu  Lu4  1  0.608690  0.804604  0.250000  1
  Lu  Lu5  1  0.195695  0.804555  0.250000  1
  Al  Al6  1  0.333587  0.667181  0.021532  1
  Al  Al7  1  0.666947  0.333348  0.980828  1
  Al  Al8  1  0.666947  0.333348  0.519172  1
  Al  Al9  1  0.333587  0.667181  0.478468  1
  Al  Al10  1  0.163832  0.327825  0.575673  1
  Al  Al11  1  0.836797  0.673745  0.423119  1
  Al  Al12  1  0.672604  0.836508  0.574829  1
  Al  Al13  1  0.836797  0.673745  0.076881  1
  Al  Al14  1  0.326978  0.162996  0.423236  1
  Al  Al15  1  0.163832  0.327825  0.924327  1
  Al  Al16  1  0.163799  0.836456  0.574753  1
  Al  Al17  1  0.326978  0.162996  0.076764  1
  Al  Al18  1  0.835868  0.163007  0.423209  1
  Al  Al19  1  0.672604  0.836508  0.925171  1
  Al  Al20  1  0.835868  0.163007  0.076791  1
  Al  Al21  1  0.163799  0.836456  0.925247  1
  Al  Al22  1  0.561082  0.122500  0.250000  1
  Al  Al23  1  0.438117  0.875781  0.750000  1
  Al  Al24  1  0.876353  0.439237  0.250000  1
  Al  Al25  1  0.124458  0.562265  0.750000  1
  Al  Al26  1  0.562611  0.439171  0.250000  1
  Al  Al27  1  0.437872  0.562673  0.750000  1
  Al  Al28  1  0.998468  0.997209  0.250000  1
  Al  Al29  1  0.000685  0.999715  0.750000  1
  Os  Os30  1  0.499444  0.999225  0.001228  1
  Os  Os31  1  0.000753  0.501119  0.000853  1
  Os  Os32  1  0.499444  0.999225  0.498772  1
  Os  Os33  1  0.500250  0.500892  0.000681  1
  Os  Os34  1  0.000753  0.501119  0.499147  1
  Os  Os35  1  0.500250  0.500892  0.499319  1
  Os  Os36  1  0.000098  0.000428  0.000240  1
  Os  Os37  1  0.000098  0.000428  0.499760  1
