# generated using pymatgen
data_Ce3Mg3OsAu2
_symmetry_space_group_name_H-M   'P 1'
_cell_length_a   7.64874700
_cell_length_b   7.64874657
_cell_length_c   4.05884700
_cell_angle_alpha   90.00000000
_cell_angle_beta   90.00000000
_cell_angle_gamma   119.99999754
_symmetry_Int_Tables_number   1
_chemical_formula_structural   Ce3Mg3OsAu2
_chemical_formula_sum   'Ce3 Mg3 Os1 Au2'
_cell_volume   205.64298083
_cell_formula_units_Z   1
loop_
 _symmetry_equiv_pos_site_id
 _symmetry_equiv_pos_as_xyz
  1  'x, y, z'
loop_
 _atom_site_type_symbol
 _atom_site_label
 _atom_site_symmetry_multiplicity
 _atom_site_fract_x
 _atom_site_fract_y
 _atom_site_fract_z
 _atom_site_occupancy
  Ce  Ce0  1  0.025803  0.591397  0.000000  1
  Ce  Ce1  1  0.408603  0.434405  0.000000  1
  Ce  Ce2  1  0.565595  0.974197  0.000000  1
  Mg  Mg3  1  0.998306  0.244596  0.500000  1
  Mg  Mg4  1  0.246290  0.001694  0.500000  1
  Mg  Mg5  1  0.755404  0.753710  0.500000  1
  Os  Os6  1  0.333333  0.666667  0.500000  1
  Au  Au7  1  0.000000  0.000000  0.000000  1
  Au  Au8  1  0.666667  0.333333  0.500000  1
