# generated using pymatgen
data_LiEuHgPd3
_symmetry_space_group_name_H-M   'P 1'
_cell_length_a   5.50738178
_cell_length_b   5.50738147
_cell_length_c   5.29208600
_cell_angle_alpha   58.64485237
_cell_angle_beta   58.64485439
_cell_angle_gamma   60.00000387
_symmetry_Int_Tables_number   1
_chemical_formula_structural   LiEuHgPd3
_chemical_formula_sum   'Li1 Eu1 Hg1 Pd3'
_cell_volume   111.12096948
_cell_formula_units_Z   1
loop_
 _symmetry_equiv_pos_site_id
 _symmetry_equiv_pos_as_xyz
  1  'x, y, z'
loop_
 _atom_site_type_symbol
 _atom_site_label
 _atom_site_symmetry_multiplicity
 _atom_site_fract_x
 _atom_site_fract_y
 _atom_site_fract_z
 _atom_site_occupancy
  Li  Li0  1  0.122920  0.122920  0.631239  1
  Eu  Eu1  1  0.502894  0.502894  0.491317  1
  Hg  Hg2  1  0.752537  0.752537  0.742390  1
  Pd  Pd3  1  0.123365  0.624919  0.128352  1
  Pd  Pd4  1  0.123365  0.123365  0.128352  1
  Pd  Pd5  1  0.624919  0.123365  0.128352  1
