# generated using pymatgen
data_Ho2Co2Os
_symmetry_space_group_name_H-M   'P 1'
_cell_length_a   5.45876822
_cell_length_b   5.45876788
_cell_length_c   7.08622900
_cell_angle_alpha   90.00000000
_cell_angle_beta   90.00000000
_cell_angle_gamma   121.52055498
_symmetry_Int_Tables_number   1
_chemical_formula_structural   Ho2Co2Os
_chemical_formula_sum   'Ho4 Co4 Os2'
_cell_volume   180.00092469
_cell_formula_units_Z   2
loop_
 _symmetry_equiv_pos_site_id
 _symmetry_equiv_pos_as_xyz
  1  'x, y, z'
loop_
 _atom_site_type_symbol
 _atom_site_label
 _atom_site_symmetry_multiplicity
 _atom_site_fract_x
 _atom_site_fract_y
 _atom_site_fract_z
 _atom_site_occupancy
  Ho  Ho0  1  0.838507  0.161492  0.100611  1
  Ho  Ho1  1  0.338507  0.661492  0.399389  1
  Ho  Ho2  1  0.661492  0.338507  0.600610  1
  Ho  Ho3  1  0.161492  0.838507  0.899389  1
  Co  Co4  1  0.340463  0.159537  0.250000  1
  Co  Co5  1  0.840462  0.659536  0.250000  1
  Co  Co6  1  0.159537  0.340463  0.750000  1
  Co  Co7  1  0.659536  0.840462  0.750000  1
  Os  Os8  1  0.499999  0.499999  0.000000  1
  Os  Os9  1  0.000000  0.000000  0.499999  1
