# generated using pymatgen
data_LiPr(S2O7)2
_symmetry_space_group_name_H-M   'P 1'
_cell_length_a   6.22334531
_cell_length_b   5.79659854
_cell_length_c   10.33827752
_cell_angle_alpha   117.95837369
_cell_angle_beta   71.35663559
_cell_angle_gamma   105.78851886
_symmetry_Int_Tables_number   1
_chemical_formula_structural   LiPr(S2O7)2
_chemical_formula_sum   'Li1 Pr1 S4 O14'
_cell_volume   308.78699139
_cell_formula_units_Z   1
loop_
 _symmetry_equiv_pos_site_id
 _symmetry_equiv_pos_as_xyz
  1  'x, y, z'
loop_
 _atom_site_type_symbol
 _atom_site_label
 _atom_site_symmetry_multiplicity
 _atom_site_fract_x
 _atom_site_fract_y
 _atom_site_fract_z
 _atom_site_occupancy
  Li  Li0  1  0.500000  0.000000  0.000000  1
  Pr  Pr1  1  0.500000  0.500000  0.500000  1
  S  S2  1  0.917513  0.682100  0.734828  1
  S  S3  1  0.082487  0.317900  0.265172  1
  S  S4  1  0.571936  0.226874  0.736294  1
  S  S5  1  0.428064  0.773126  0.263706  1
  O  O6  1  0.838847  0.658679  0.609502  1
  O  O7  1  0.161153  0.341321  0.390498  1
  O  O8  1  0.445422  0.393315  0.723876  1
  O  O9  1  0.554578  0.606685  0.276124  1
  O  O10  1  0.166183  0.698053  0.703097  1
  O  O11  1  0.833817  0.301947  0.296903  1
  O  O12  1  0.817865  0.873908  0.879296  1
  O  O13  1  0.182135  0.126092  0.120704  1
  O  O14  1  0.496002  0.192546  0.873855  1
  O  O15  1  0.503998  0.807454  0.126145  1
  O  O16  1  0.837236  0.387547  0.738851  1
  O  O17  1  0.162764  0.612453  0.261149  1
  O  O18  1  0.606498  0.983921  0.598588  1
  O  O19  1  0.393502  0.016079  0.401412  1
