# generated using pymatgen
data_Ho4B16Ru13Rh3
_symmetry_space_group_name_H-M   'P 1'
_cell_length_a   9.21936257
_cell_length_b   7.48202028
_cell_length_c   7.49077981
_cell_angle_alpha   90.02150022
_cell_angle_beta   114.06159679
_cell_angle_gamma   114.15457161
_symmetry_Int_Tables_number   1
_chemical_formula_structural   Ho4B16Ru13Rh3
_chemical_formula_sum   'Ho4 B16 Ru13 Rh3'
_cell_volume   421.74288798
_cell_formula_units_Z   1
loop_
 _symmetry_equiv_pos_site_id
 _symmetry_equiv_pos_as_xyz
  1  'x, y, z'
loop_
 _atom_site_type_symbol
 _atom_site_label
 _atom_site_symmetry_multiplicity
 _atom_site_fract_x
 _atom_site_fract_y
 _atom_site_fract_z
 _atom_site_occupancy
  Ho  Ho0  1  0.749863  0.874847  0.123991  1
  Ho  Ho1  1  0.250998  0.625697  0.374085  1
  Ho  Ho2  1  0.749478  0.375768  0.625367  1
  Ho  Ho3  1  0.248135  0.123390  0.874402  1
  B  B4  1  0.911340  0.283259  0.069244  1
  B  B5  1  0.414815  0.561087  0.124932  1
  B  B6  1  0.088122  0.216610  0.156110  1
  B  B7  1  0.588510  0.155940  0.211414  1
  B  B8  1  0.418229  0.070310  0.294733  1
  B  B9  1  0.913309  0.624262  0.355481  1
  B  B10  1  0.586066  0.651478  0.375070  1
  B  B11  1  0.085782  0.875916  0.441398  1
  B  B12  1  0.913331  0.124966  0.564634  1
  B  B13  1  0.413064  0.347204  0.622947  1
  B  B14  1  0.087185  0.375088  0.653978  1
  B  B15  1  0.587844  0.934184  0.710779  1
  B  B16  1  0.414196  0.844785  0.784124  1
  B  B17  1  0.911472  0.789578  0.843511  1
  B  B18  1  0.582143  0.431622  0.874970  1
  B  B19  1  0.082935  0.707581  0.926527  1
  Ru  Ru20  1  0.627548  0.461544  0.176703  1
  Ru  Ru21  1  0.372242  0.332979  0.320317  1
  Ru  Ru22  1  0.873967  0.323151  0.336066  1
  Ru  Ru23  1  0.625495  0.961527  0.446961  1
  Ru  Ru24  1  0.126530  0.176939  0.461063  1
  Ru  Ru25  1  0.873045  0.823121  0.538675  1
  Ru  Ru26  1  0.371397  0.036320  0.550129  1
  Ru  Ru27  1  0.128898  0.678170  0.666232  1
  Ru  Ru28  1  0.624308  0.664614  0.676029  1
  Ru  Ru29  1  0.373945  0.538214  0.824041  1
  Ru  Ru30  1  0.873109  0.054099  0.834335  1
  Ru  Ru31  1  0.627611  0.166690  0.947629  1
  Ru  Ru32  1  0.129506  0.449908  0.963961  1
  Rh  Rh33  1  0.876505  0.553124  0.037875  1
  Rh  Rh34  1  0.376773  0.839498  0.051356  1
  Rh  Rh35  1  0.122306  0.946534  0.160927  1
