# generated using pymatgen
data_DyTm3TcOsC4
_symmetry_space_group_name_H-M   'P 1'
_cell_length_a   5.03941700
_cell_length_b   6.49793681
_cell_length_c   9.71347041
_cell_angle_alpha   89.43100910
_cell_angle_beta   90.00000000
_cell_angle_gamma   90.00000000
_symmetry_Int_Tables_number   1
_chemical_formula_structural   DyTm3TcOsC4
_chemical_formula_sum   'Dy2 Tm6 Tc2 Os2 C8'
_cell_volume   318.05980363
_cell_formula_units_Z   2
loop_
 _symmetry_equiv_pos_site_id
 _symmetry_equiv_pos_as_xyz
  1  'x, y, z'
loop_
 _atom_site_type_symbol
 _atom_site_label
 _atom_site_symmetry_multiplicity
 _atom_site_fract_x
 _atom_site_fract_y
 _atom_site_fract_z
 _atom_site_occupancy
  Dy  Dy0  1  0.750000  0.969047  0.712291  1
  Dy  Dy1  1  0.250000  0.030953  0.287709  1
  Tm  Tm2  1  0.250000  0.675468  0.556928  1
  Tm  Tm3  1  0.750000  0.324532  0.443072  1
  Tm  Tm4  1  0.750000  0.825681  0.056868  1
  Tm  Tm5  1  0.250000  0.174319  0.943132  1
  Tm  Tm6  1  0.250000  0.532910  0.215899  1
  Tm  Tm7  1  0.750000  0.467090  0.784101  1
  Tc  Tc8  1  0.250000  0.718553  0.867512  1
  Tc  Tc9  1  0.750000  0.281447  0.132488  1
  Os  Os10  1  0.750000  0.778209  0.366786  1
  Os  Os11  1  0.250000  0.221791  0.633214  1
  C  C12  1  0.250000  0.452554  0.759470  1
  C  C13  1  0.750000  0.547446  0.240530  1
  C  C14  1  0.750000  0.046672  0.259310  1
  C  C15  1  0.250000  0.953328  0.740690  1
  C  C16  1  0.250000  0.824539  0.053541  1
  C  C17  1  0.750000  0.175461  0.946459  1
  C  C18  1  0.750000  0.669230  0.553406  1
  C  C19  1  0.250000  0.330770  0.446594  1
