# generated using pymatgen
data_DyY3(UAl9)2
_symmetry_space_group_name_H-M   'P 1'
_cell_length_a   14.41602538
_cell_length_b   14.41602524
_cell_length_c   14.41602700
_cell_angle_alpha   24.94923346
_cell_angle_beta   24.94923466
_cell_angle_gamma   24.94923268
_symmetry_Int_Tables_number   1
_chemical_formula_structural   DyY3(UAl9)2
_chemical_formula_sum   'Dy1 Y3 U2 Al18'
_cell_volume   468.93813010
_cell_formula_units_Z   1
loop_
 _symmetry_equiv_pos_site_id
 _symmetry_equiv_pos_as_xyz
  1  'x, y, z'
loop_
 _atom_site_type_symbol
 _atom_site_label
 _atom_site_symmetry_multiplicity
 _atom_site_fract_x
 _atom_site_fract_y
 _atom_site_fract_z
 _atom_site_occupancy
  Dy  Dy0  1  0.608966  0.608966  0.608966  1
  Y  Y1  1  0.109019  0.109019  0.109019  1
  Y  Y2  1  0.890998  0.890998  0.890998  1
  Y  Y3  1  0.390923  0.390923  0.390923  1
  U  U4  1  0.999985  0.999985  0.999985  1
  U  U5  1  0.500019  0.500019  0.500019  1
  Al  Al6  1  0.923718  0.370689  0.370689  1
  Al  Al7  1  0.423724  0.870530  0.870530  1
  Al  Al8  1  0.370689  0.370689  0.923718  1
  Al  Al9  1  0.870530  0.870530  0.423724  1
  Al  Al10  1  0.370689  0.923718  0.370689  1
  Al  Al11  1  0.870530  0.423724  0.870530  1
  Al  Al12  1  0.576308  0.129429  0.129429  1
  Al  Al13  1  0.076072  0.629505  0.629505  1
  Al  Al14  1  0.129429  0.129429  0.576308  1
  Al  Al15  1  0.629505  0.629505  0.076072  1
  Al  Al16  1  0.129429  0.576308  0.129429  1
  Al  Al17  1  0.629505  0.076072  0.629505  1
  Al  Al18  1  0.500375  0.500375  0.999035  1
  Al  Al19  1  0.000217  0.000217  0.499740  1
  Al  Al20  1  0.500375  0.999035  0.500375  1
  Al  Al21  1  0.000217  0.499740  0.000217  1
  Al  Al22  1  0.999035  0.500375  0.500375  1
  Al  Al23  1  0.499740  0.000217  0.000217  1
