# generated using pymatgen
data_Yb3Al9Si3Os4
_symmetry_space_group_name_H-M   'P 1'
_cell_length_a   8.67917100
_cell_length_b   8.65497923
_cell_length_c   9.66020800
_cell_angle_alpha   90.00000000
_cell_angle_beta   90.00000000
_cell_angle_gamma   120.09250907
_symmetry_Int_Tables_number   1
_chemical_formula_structural   Yb3Al9Si3Os4
_chemical_formula_sum   'Yb6 Al18 Si6 Os8'
_cell_volume   627.84983882
_cell_formula_units_Z   2
loop_
 _symmetry_equiv_pos_site_id
 _symmetry_equiv_pos_as_xyz
  1  'x, y, z'
loop_
 _atom_site_type_symbol
 _atom_site_label
 _atom_site_symmetry_multiplicity
 _atom_site_fract_x
 _atom_site_fract_y
 _atom_site_fract_z
 _atom_site_occupancy
  Yb  Yb0  1  0.194274  0.388549  0.250000  1
  Yb  Yb1  1  0.805726  0.611451  0.750000  1
  Yb  Yb2  1  0.607206  0.807261  0.250000  1
  Yb  Yb3  1  0.392794  0.192739  0.750000  1
  Yb  Yb4  1  0.200054  0.807261  0.250000  1
  Yb  Yb5  1  0.799946  0.192739  0.750000  1
  Al  Al6  1  0.165477  0.330955  0.577097  1
  Al  Al7  1  0.834523  0.669045  0.422903  1
  Al  Al8  1  0.668931  0.834022  0.574781  1
  Al  Al9  1  0.834523  0.669045  0.077097  1
  Al  Al10  1  0.331069  0.165978  0.425219  1
  Al  Al11  1  0.165477  0.330955  0.922903  1
  Al  Al12  1  0.165090  0.834022  0.574781  1
  Al  Al13  1  0.331069  0.165978  0.074781  1
  Al  Al14  1  0.834910  0.165978  0.425219  1
  Al  Al15  1  0.668931  0.834022  0.925219  1
  Al  Al16  1  0.834910  0.165978  0.074781  1
  Al  Al17  1  0.165090  0.834022  0.925219  1
  Al  Al18  1  0.872464  0.432240  0.250000  1
  Al  Al19  1  0.127536  0.567760  0.750000  1
  Al  Al20  1  0.559777  0.432240  0.250000  1
  Al  Al21  1  0.440223  0.567760  0.750000  1
  Al  Al22  1  0.998563  0.997126  0.250000  1
  Al  Al23  1  0.001437  0.002874  0.750000  1
  Si  Si24  1  0.331884  0.663769  0.029754  1
  Si  Si25  1  0.668116  0.336231  0.970246  1
  Si  Si26  1  0.668116  0.336231  0.529754  1
  Si  Si27  1  0.331884  0.663769  0.470246  1
  Si  Si28  1  0.563605  0.127209  0.250000  1
  Si  Si29  1  0.436395  0.872791  0.750000  1
  Os  Os30  1  0.500000  0.000000  0.000000  1
  Os  Os31  1  0.000000  0.500000  0.000000  1
  Os  Os32  1  0.500000  0.000000  0.500000  1
  Os  Os33  1  0.500000  0.500000  0.000000  1
  Os  Os34  1  0.000000  0.500000  0.500000  1
  Os  Os35  1  0.500000  0.500000  0.500000  1
  Os  Os36  1  0.000000  0.000000  0.000000  1
  Os  Os37  1  0.000000  0.000000  0.500000  1
