# generated using pymatgen
data_YHo(MgSn)2
_symmetry_space_group_name_H-M   'P 1'
_cell_length_a   4.40004949
_cell_length_b   4.40004928
_cell_length_c   8.53157802
_cell_angle_alpha   104.94362460
_cell_angle_beta   104.94361956
_cell_angle_gamma   89.99999267
_symmetry_Int_Tables_number   1
_chemical_formula_structural   YHo(MgSn)2
_chemical_formula_sum   'Y1 Ho1 Mg2 Sn2'
_cell_volume   153.79986400
_cell_formula_units_Z   1
loop_
 _symmetry_equiv_pos_site_id
 _symmetry_equiv_pos_as_xyz
  1  'x, y, z'
loop_
 _atom_site_type_symbol
 _atom_site_label
 _atom_site_symmetry_multiplicity
 _atom_site_fract_x
 _atom_site_fract_y
 _atom_site_fract_z
 _atom_site_occupancy
  Y  Y0  1  0.667508  0.667508  0.335017  1
  Ho  Ho1  1  0.332500  0.332500  0.665000  1
  Mg  Mg2  1  0.499912  0.999913  0.999826  1
  Mg  Mg3  1  0.999913  0.499912  0.999826  1
  Sn  Sn4  1  0.135767  0.135767  0.271534  1
  Sn  Sn5  1  0.864396  0.864396  0.728795  1
