# generated using pymatgen
data_CaSm(Al5Ru)4
_symmetry_space_group_name_H-M   'P 1'
_cell_length_a   6.86691521
_cell_length_b   6.86691541
_cell_length_c   9.16795400
_cell_angle_alpha   90.00000000
_cell_angle_beta   90.00000000
_cell_angle_gamma   96.77280507
_symmetry_Int_Tables_number   1
_chemical_formula_structural   CaSm(Al5Ru)4
_chemical_formula_sum   'Ca1 Sm1 Al20 Ru4'
_cell_volume   429.29368655
_cell_formula_units_Z   1
loop_
 _symmetry_equiv_pos_site_id
 _symmetry_equiv_pos_as_xyz
  1  'x, y, z'
loop_
 _atom_site_type_symbol
 _atom_site_label
 _atom_site_symmetry_multiplicity
 _atom_site_fract_x
 _atom_site_fract_y
 _atom_site_fract_z
 _atom_site_occupancy
  Ca  Ca0  1  0.874866  0.125134  0.750000  1
  Sm  Sm1  1  0.123419  0.876581  0.250000  1
  Al  Al2  1  0.623405  0.376595  0.547165  1
  Al  Al3  1  0.377366  0.622634  0.450104  1
  Al  Al4  1  0.377366  0.622634  0.049896  1
  Al  Al5  1  0.623405  0.376595  0.952835  1
  Al  Al6  1  0.226133  0.227745  0.500372  1
  Al  Al7  1  0.772255  0.773867  0.500372  1
  Al  Al8  1  0.772255  0.773867  0.999628  1
  Al  Al9  1  0.226133  0.227745  0.999628  1
  Al  Al10  1  0.843081  0.156919  0.099249  1
  Al  Al11  1  0.159332  0.840668  0.899465  1
  Al  Al12  1  0.159332  0.840668  0.600535  1
  Al  Al13  1  0.843081  0.156919  0.400751  1
  Al  Al14  1  0.860323  0.587571  0.750000  1
  Al  Al15  1  0.139414  0.412478  0.250000  1
  Al  Al16  1  0.412429  0.139677  0.750000  1
  Al  Al17  1  0.587522  0.860586  0.250000  1
  Al  Al18  1  0.220530  0.478501  0.750000  1
  Al  Al19  1  0.779076  0.518835  0.250000  1
  Al  Al20  1  0.521499  0.779470  0.750000  1
  Al  Al21  1  0.481165  0.220924  0.250000  1
  Ru  Ru22  1  0.999746  0.501440  0.499633  1
  Ru  Ru23  1  0.999746  0.501440  0.000367  1
  Ru  Ru24  1  0.498560  0.000254  0.000367  1
  Ru  Ru25  1  0.498560  0.000254  0.499633  1
