# generated using pymatgen
data_Fe3AsCl7O
_symmetry_space_group_name_H-M   'P 1'
_cell_length_a   7.96933085
_cell_length_b   7.96932960
_cell_length_c   7.87014400
_cell_angle_alpha   54.72053054
_cell_angle_beta   54.72052810
_cell_angle_gamma   54.20433157
_symmetry_Int_Tables_number   1
_chemical_formula_structural   Fe3AsCl7O
_chemical_formula_sum   'Fe3 As1 Cl7 O1'
_cell_volume   308.50545554
_cell_formula_units_Z   1
loop_
 _symmetry_equiv_pos_site_id
 _symmetry_equiv_pos_as_xyz
  1  'x, y, z'
loop_
 _atom_site_type_symbol
 _atom_site_label
 _atom_site_symmetry_multiplicity
 _atom_site_fract_x
 _atom_site_fract_y
 _atom_site_fract_z
 _atom_site_occupancy
  Fe  Fe0  1  0.503956  0.985325  0.496106  1
  Fe  Fe1  1  0.985325  0.503956  0.496106  1
  Fe  Fe2  1  0.498846  0.498846  0.989315  1
  As  As3  1  0.962836  0.962836  0.063625  1
  Cl  Cl4  1  0.725829  0.725829  0.752649  1
  Cl  Cl5  1  0.242167  0.738572  0.236257  1
  Cl  Cl6  1  0.738572  0.242167  0.236257  1
  Cl  Cl7  1  0.270333  0.270333  0.243904  1
  Cl  Cl8  1  0.245809  0.245809  0.698743  1
  Cl  Cl9  1  0.753555  0.272246  0.748207  1
  Cl  Cl10  1  0.272246  0.753555  0.748207  1
  O  O11  1  0.800527  0.800527  0.290627  1
