# generated using pymatgen
data_Yb2ZnPd4Au
_symmetry_space_group_name_H-M   'P 1'
_cell_length_a   4.27667100
_cell_length_b   5.67321376
_cell_length_c   11.21176000
_cell_angle_alpha   88.39535677
_cell_angle_beta   90.00000000
_cell_angle_gamma   90.00000000
_symmetry_Int_Tables_number   1
_chemical_formula_structural   Yb2ZnPd4Au
_chemical_formula_sum   'Yb4 Zn2 Pd8 Au2'
_cell_volume   271.91830175
_cell_formula_units_Z   2
loop_
 _symmetry_equiv_pos_site_id
 _symmetry_equiv_pos_as_xyz
  1  'x, y, z'
loop_
 _atom_site_type_symbol
 _atom_site_label
 _atom_site_symmetry_multiplicity
 _atom_site_fract_x
 _atom_site_fract_y
 _atom_site_fract_z
 _atom_site_occupancy
  Yb  Yb0  1  0.500000  0.187479  0.133133  1
  Yb  Yb1  1  0.500000  0.812521  0.866867  1
  Yb  Yb2  1  0.500000  0.293571  0.631993  1
  Yb  Yb3  1  0.500000  0.706429  0.368007  1
  Zn  Zn4  1  0.000000  0.000000  0.500000  1
  Zn  Zn5  1  0.000000  0.500000  0.000000  1
  Pd  Pd6  1  0.500000  0.201613  0.387820  1
  Pd  Pd7  1  0.500000  0.798387  0.612180  1
  Pd  Pd8  1  0.500000  0.307922  0.887744  1
  Pd  Pd9  1  0.500000  0.692078  0.112256  1
  Pd  Pd10  1  0.000000  0.053343  0.744004  1
  Pd  Pd11  1  0.000000  0.946657  0.255996  1
  Pd  Pd12  1  0.000000  0.000000  0.000000  1
  Pd  Pd13  1  0.000000  0.500000  0.500000  1
  Au  Au14  1  0.000000  0.447464  0.248399  1
  Au  Au15  1  0.000000  0.552536  0.751601  1
