# generated using pymatgen
data_Tb3Ho2(MnB3)2
_symmetry_space_group_name_H-M   'P 1'
_cell_length_a   5.42220461
_cell_length_b   5.42220432
_cell_length_c   8.26084895
_cell_angle_alpha   70.84124290
_cell_angle_beta   70.84124485
_cell_angle_gamma   59.99999472
_symmetry_Int_Tables_number   1
_chemical_formula_structural   Tb3Ho2(MnB3)2
_chemical_formula_sum   'Tb3 Ho2 Mn2 B6'
_cell_volume   194.64497094
_cell_formula_units_Z   1
loop_
 _symmetry_equiv_pos_site_id
 _symmetry_equiv_pos_as_xyz
  1  'x, y, z'
loop_
 _atom_site_type_symbol
 _atom_site_label
 _atom_site_symmetry_multiplicity
 _atom_site_fract_x
 _atom_site_fract_y
 _atom_site_fract_z
 _atom_site_occupancy
  Tb  Tb0  1  0.000000  0.000000  0.000000  1
  Tb  Tb1  1  0.251473  0.251473  0.245582  1
  Tb  Tb2  1  0.748527  0.748527  0.754418  1
  Ho  Ho3  1  0.417375  0.417375  0.747874  1
  Ho  Ho4  1  0.582625  0.582625  0.252126  1
  Mn  Mn5  1  0.114374  0.114374  0.656877  1
  Mn  Mn6  1  0.885626  0.885626  0.343123  1
  B  B7  1  0.166066  0.833934  0.500000  1
  B  B8  1  0.833934  0.500000  0.500000  1
  B  B9  1  0.500000  0.166066  0.500000  1
  B  B10  1  0.166066  0.500000  0.500000  1
  B  B11  1  0.500000  0.833934  0.500000  1
  B  B12  1  0.833934  0.166066  0.500000  1
