# generated using pymatgen
data_GaCo20(TcB3)2
_symmetry_space_group_name_H-M   'P 1'
_cell_length_a   7.40885283
_cell_length_b   7.40885274
_cell_length_c   7.40885300
_cell_angle_alpha   60.00000329
_cell_angle_beta   60.00000369
_cell_angle_gamma   59.99999949
_symmetry_Int_Tables_number   1
_chemical_formula_structural   GaCo20(TcB3)2
_chemical_formula_sum   'Ga1 Co20 Tc2 B6'
_cell_volume   287.56626179
_cell_formula_units_Z   1
loop_
 _symmetry_equiv_pos_site_id
 _symmetry_equiv_pos_as_xyz
  1  'x, y, z'
loop_
 _atom_site_type_symbol
 _atom_site_label
 _atom_site_symmetry_multiplicity
 _atom_site_fract_x
 _atom_site_fract_y
 _atom_site_fract_z
 _atom_site_occupancy
  Ga  Ga0  1  0.000000  0.000000  0.000000  1
  Co  Co1  1  0.618411  0.144767  0.618411  1
  Co  Co2  1  0.381589  0.381589  0.855233  1
  Co  Co3  1  0.855233  0.381589  0.381589  1
  Co  Co4  1  0.381589  0.381589  0.381589  1
  Co  Co5  1  0.144767  0.618411  0.618411  1
  Co  Co6  1  0.618411  0.618411  0.618411  1
  Co  Co7  1  0.618411  0.618411  0.144767  1
  Co  Co8  1  0.381589  0.855233  0.381589  1
  Co  Co9  1  0.658042  0.341958  0.000000  1
  Co  Co10  1  0.000000  0.341958  0.658042  1
  Co  Co11  1  0.658042  0.000000  0.000000  1
  Co  Co12  1  0.000000  0.000000  0.341958  1
  Co  Co13  1  0.000000  0.000000  0.658042  1
  Co  Co14  1  0.000000  0.341958  0.000000  1
  Co  Co15  1  0.658042  0.000000  0.341958  1
  Co  Co16  1  0.341958  0.000000  0.000000  1
  Co  Co17  1  0.000000  0.658042  0.000000  1
  Co  Co18  1  0.341958  0.000000  0.658042  1
  Co  Co19  1  0.000000  0.658042  0.341958  1
  Co  Co20  1  0.341958  0.658042  0.000000  1
  Tc  Tc21  1  0.750000  0.750000  0.750000  1
  Tc  Tc22  1  0.250000  0.250000  0.250000  1
  B  B23  1  0.277484  0.277484  0.722516  1
  B  B24  1  0.277484  0.722516  0.722516  1
  B  B25  1  0.722516  0.277484  0.277484  1
  B  B26  1  0.277484  0.722516  0.277484  1
  B  B27  1  0.722516  0.277484  0.722516  1
  B  B28  1  0.722516  0.722516  0.277484  1
