# generated using pymatgen
data_Rb3Na(NpBr6)2
_symmetry_space_group_name_H-M   'P 1'
_cell_length_a   7.97548440
_cell_length_b   7.83248693
_cell_length_c   13.62044500
_cell_angle_alpha   55.12523829
_cell_angle_beta   90.06666742
_cell_angle_gamma   89.65971981
_symmetry_Int_Tables_number   1
_chemical_formula_structural   Rb3Na(NpBr6)2
_chemical_formula_sum   'Rb3 Na1 Np2 Br12'
_cell_volume   698.00953293
_cell_formula_units_Z   1
loop_
 _symmetry_equiv_pos_site_id
 _symmetry_equiv_pos_as_xyz
  1  'x, y, z'
loop_
 _atom_site_type_symbol
 _atom_site_label
 _atom_site_symmetry_multiplicity
 _atom_site_fract_x
 _atom_site_fract_y
 _atom_site_fract_z
 _atom_site_occupancy
  Rb  Rb0  1  0.446182  0.736644  0.249450  1
  Rb  Rb1  1  0.938719  0.266669  0.247529  1
  Rb  Rb2  1  0.058940  0.738206  0.752563  1
  Na  Na3  1  0.569280  0.251081  0.750096  1
  Np  Np4  1  0.994727  0.006435  0.992376  1
  Np  Np5  1  0.504833  0.993737  0.508292  1
  Br  Br6  1  0.801407  0.327768  0.963847  1
  Br  Br7  1  0.500984  0.166729  0.264282  1
  Br  Br8  1  0.496570  0.858919  0.746503  1
  Br  Br9  1  0.292418  0.224954  0.946019  1
  Br  Br10  1  0.334062  0.635952  0.567147  1
  Br  Br11  1  0.209077  0.210203  0.472346  1
  Br  Br12  1  0.188001  0.679225  0.028630  1
  Br  Br13  1  0.796124  0.779236  0.533365  1
  Br  Br14  1  0.706949  0.780703  0.028928  1
  Br  Br15  1  0.012631  0.830322  0.236422  1
  Br  Br16  1  0.953387  0.187863  0.749011  1
  Br  Br17  1  0.695707  0.325350  0.463196  1
