# generated using pymatgen
data_Zr4Nb4AlAs3
_symmetry_space_group_name_H-M   'P 1'
_cell_length_a   3.64319600
_cell_length_b   7.14520033
_cell_length_c   8.66048467
_cell_angle_alpha   89.67276472
_cell_angle_beta   90.00000000
_cell_angle_gamma   90.00000000
_symmetry_Int_Tables_number   1
_chemical_formula_structural   Zr4Nb4AlAs3
_chemical_formula_sum   'Zr4 Nb4 Al1 As3'
_cell_volume   225.44056283
_cell_formula_units_Z   1
loop_
 _symmetry_equiv_pos_site_id
 _symmetry_equiv_pos_as_xyz
  1  'x, y, z'
loop_
 _atom_site_type_symbol
 _atom_site_label
 _atom_site_symmetry_multiplicity
 _atom_site_fract_x
 _atom_site_fract_y
 _atom_site_fract_z
 _atom_site_occupancy
  Zr  Zr0  1  0.250000  0.044951  0.667101  1
  Zr  Zr1  1  0.250000  0.540733  0.830561  1
  Zr  Zr2  1  0.750000  0.459175  0.162747  1
  Zr  Zr3  1  0.750000  0.952673  0.333076  1
  Nb  Nb4  1  0.750000  0.862849  0.939602  1
  Nb  Nb5  1  0.250000  0.634002  0.441134  1
  Nb  Nb6  1  0.750000  0.373270  0.563985  1
  Nb  Nb7  1  0.250000  0.128781  0.057635  1
  Al  Al8  1  0.250000  0.255224  0.358897  1
  As  As9  1  0.250000  0.755413  0.143888  1
  As  As10  1  0.750000  0.750028  0.642076  1
  As  As11  1  0.750000  0.242902  0.859296  1
