# generated using pymatgen
data_Dy3CuHg3Au2
_symmetry_space_group_name_H-M   'P 1'
_cell_length_a   7.78266700
_cell_length_b   7.78266783
_cell_length_c   3.81581700
_cell_angle_alpha   90.00000000
_cell_angle_beta   90.00000000
_cell_angle_gamma   120.00000073
_symmetry_Int_Tables_number   1
_chemical_formula_structural   Dy3CuHg3Au2
_chemical_formula_sum   'Dy3 Cu1 Hg3 Au2'
_cell_volume   200.15899435
_cell_formula_units_Z   1
loop_
 _symmetry_equiv_pos_site_id
 _symmetry_equiv_pos_as_xyz
  1  'x, y, z'
loop_
 _atom_site_type_symbol
 _atom_site_label
 _atom_site_symmetry_multiplicity
 _atom_site_fract_x
 _atom_site_fract_y
 _atom_site_fract_z
 _atom_site_occupancy
  Dy  Dy0  1  0.000000  0.404224  0.500000  1
  Dy  Dy1  1  0.595776  0.595776  0.500000  1
  Dy  Dy2  1  0.404224  0.000000  0.500000  1
  Cu  Cu3  1  0.000000  0.000000  0.500000  1
  Hg  Hg4  1  0.000000  0.747655  0.000000  1
  Hg  Hg5  1  0.252345  0.252345  0.000000  1
  Hg  Hg6  1  0.747655  0.000000  0.000000  1
  Au  Au7  1  0.333333  0.666667  0.000000  1
  Au  Au8  1  0.666667  0.333333  0.000000  1
