# generated using pymatgen
data_Er3Cr2(ReN4)3
_symmetry_space_group_name_H-M   'P 1'
_cell_length_a   10.72190175
_cell_length_b   10.72190159
_cell_length_c   10.72190200
_cell_angle_alpha   109.47121952
_cell_angle_beta   109.47121922
_cell_angle_gamma   109.47122235
_symmetry_Int_Tables_number   1
_chemical_formula_structural   Er3Cr2(ReN4)3
_chemical_formula_sum   'Er12 Cr8 Re12 N48'
_cell_volume   948.84131544
_cell_formula_units_Z   4
loop_
 _symmetry_equiv_pos_site_id
 _symmetry_equiv_pos_as_xyz
  1  'x, y, z'
loop_
 _atom_site_type_symbol
 _atom_site_label
 _atom_site_symmetry_multiplicity
 _atom_site_fract_x
 _atom_site_fract_y
 _atom_site_fract_z
 _atom_site_occupancy
  Er  Er0  1  0.250000  0.375000  0.125000  1
  Er  Er1  1  0.375000  0.750000  0.125000  1
  Er  Er2  1  0.375000  0.125000  0.250000  1
  Er  Er3  1  0.875000  0.625000  0.250000  1
  Er  Er4  1  0.750000  0.125000  0.375000  1
  Er  Er5  1  0.125000  0.250000  0.375000  1
  Er  Er6  1  0.875000  0.750000  0.625000  1
  Er  Er7  1  0.250000  0.875000  0.625000  1
  Er  Er8  1  0.125000  0.375000  0.750000  1
  Er  Er9  1  0.625000  0.875000  0.750000  1
  Er  Er10  1  0.625000  0.250000  0.875000  1
  Er  Er11  1  0.750000  0.625000  0.875000  1
  Cr  Cr12  1  0.000000  0.000000  0.000000  1
  Cr  Cr13  1  0.500000  0.000000  0.000000  1
  Cr  Cr14  1  0.000000  0.500000  0.000000  1
  Cr  Cr15  1  0.500000  0.500000  0.000000  1
  Cr  Cr16  1  0.000000  0.000000  0.500000  1
  Cr  Cr17  1  0.500000  0.000000  0.500000  1
  Cr  Cr18  1  0.000000  0.500000  0.500000  1
  Cr  Cr19  1  0.500000  0.500000  0.500000  1
  Re  Re20  1  0.875000  0.250000  0.125000  1
  Re  Re21  1  0.750000  0.875000  0.125000  1
  Re  Re22  1  0.625000  0.375000  0.250000  1
  Re  Re23  1  0.125000  0.875000  0.250000  1
  Re  Re24  1  0.250000  0.625000  0.375000  1
  Re  Re25  1  0.625000  0.750000  0.375000  1
  Re  Re26  1  0.375000  0.250000  0.625000  1
  Re  Re27  1  0.750000  0.375000  0.625000  1
  Re  Re28  1  0.875000  0.125000  0.750000  1
  Re  Re29  1  0.375000  0.625000  0.750000  1
  Re  Re30  1  0.250000  0.125000  0.875000  1
  Re  Re31  1  0.125000  0.750000  0.875000  1
  N  N32  1  0.204848  0.117665  0.022741  1
  N  N33  1  0.317893  0.905075  0.022741  1
  N  N34  1  0.882335  0.405075  0.087182  1
  N  N35  1  0.704848  0.682107  0.087182  1
  N  N36  1  0.617665  0.412818  0.094925  1
  N  N37  1  0.977259  0.682107  0.094925  1
  N  N38  1  0.594925  0.912819  0.117665  1
  N  N39  1  0.022741  0.204848  0.117665  1
  N  N40  1  0.204848  0.587182  0.182107  1
  N  N41  1  0.477259  0.594925  0.182107  1
  N  N42  1  0.117665  0.022741  0.204848  1
  N  N43  1  0.587182  0.182107  0.204848  1
  N  N44  1  0.477259  0.382335  0.295152  1
  N  N45  1  0.317893  0.912819  0.295152  1
  N  N46  1  0.912819  0.295152  0.317893  1
  N  N47  1  0.905075  0.022741  0.317893  1
  N  N48  1  0.295152  0.477259  0.382335  1
  N  N49  1  0.587182  0.905075  0.382335  1
  N  N50  1  0.817894  0.522741  0.405075  1
  N  N51  1  0.087182  0.882335  0.405075  1
  N  N52  1  0.094925  0.617665  0.412818  1
  N  N53  1  0.817894  0.795152  0.412818  1
  N  N54  1  0.594925  0.182107  0.477259  1
  N  N55  1  0.382335  0.295152  0.477259  1
  N  N56  1  0.617665  0.704848  0.522741  1
  N  N57  1  0.405075  0.817894  0.522741  1
  N  N58  1  0.182107  0.204848  0.587182  1
  N  N59  1  0.905075  0.382335  0.587182  1
  N  N60  1  0.912819  0.117665  0.594925  1
  N  N61  1  0.182107  0.477259  0.594925  1
  N  N62  1  0.412818  0.094925  0.617665  1
  N  N63  1  0.704848  0.522741  0.617665  1
  N  N64  1  0.087182  0.704848  0.682107  1
  N  N65  1  0.094925  0.977259  0.682107  1
  N  N66  1  0.682107  0.087182  0.704848  1
  N  N67  1  0.522741  0.617665  0.704848  1
  N  N68  1  0.412818  0.817894  0.795152  1
  N  N69  1  0.882335  0.977259  0.795152  1
  N  N70  1  0.522741  0.405075  0.817894  1
  N  N71  1  0.795152  0.412818  0.817894  1
  N  N72  1  0.405075  0.087182  0.882335  1
  N  N73  1  0.977259  0.795152  0.882335  1
  N  N74  1  0.022741  0.317893  0.905075  1
  N  N75  1  0.382335  0.587182  0.905075  1
  N  N76  1  0.295152  0.317893  0.912819  1
  N  N77  1  0.117665  0.594925  0.912819  1
  N  N78  1  0.682107  0.094925  0.977259  1
  N  N79  1  0.795152  0.882335  0.977259  1
