# generated using pymatgen
data_Dy11Y(OsRu)2
_symmetry_space_group_name_H-M   'P 1'
_cell_length_a   6.32857171
_cell_length_b   7.33769457
_cell_length_c   9.14889478
_cell_angle_alpha   89.99793602
_cell_angle_beta   90.07134641
_cell_angle_gamma   90.04486666
_symmetry_Int_Tables_number   1
_chemical_formula_structural   Dy11Y(OsRu)2
_chemical_formula_sum   'Dy11 Y1 Os2 Ru2'
_cell_volume   424.84792175
_cell_formula_units_Z   1
loop_
 _symmetry_equiv_pos_site_id
 _symmetry_equiv_pos_as_xyz
  1  'x, y, z'
loop_
 _atom_site_type_symbol
 _atom_site_label
 _atom_site_symmetry_multiplicity
 _atom_site_fract_x
 _atom_site_fract_y
 _atom_site_fract_z
 _atom_site_occupancy
  Dy  Dy0  1  0.168496  0.175708  0.436620  1
  Dy  Dy1  1  0.671452  0.323285  0.564586  1
  Dy  Dy2  1  0.828237  0.823574  0.935169  1
  Dy  Dy3  1  0.671842  0.323405  0.935280  1
  Dy  Dy4  1  0.828456  0.823325  0.564626  1
  Dy  Dy5  1  0.331611  0.675719  0.436873  1
  Dy  Dy6  1  0.168345  0.175504  0.063133  1
  Dy  Dy7  1  0.866924  0.540722  0.250183  1
  Dy  Dy8  1  0.633082  0.040650  0.250062  1
  Dy  Dy9  1  0.132352  0.461762  0.749647  1
  Dy  Dy10  1  0.367824  0.961855  0.749674  1
  Y  Y11  1  0.331764  0.676100  0.062742  1
  Os  Os12  1  0.960073  0.115152  0.749999  1
  Os  Os13  1  0.540104  0.615233  0.749602  1
  Ru  Ru14  1  0.036667  0.884924  0.250614  1
  Ru  Ru15  1  0.462770  0.383079  0.251190  1
