# generated using pymatgen
data_Lu3ThMgCo
_symmetry_space_group_name_H-M   'P 1'
_cell_length_a   9.48572130
_cell_length_b   9.48572211
_cell_length_c   9.48572200
_cell_angle_alpha   60.00000736
_cell_angle_beta   60.00000455
_cell_angle_gamma   59.99999980
_symmetry_Int_Tables_number   1
_chemical_formula_structural   Lu3ThMgCo
_chemical_formula_sum   'Lu12 Th4 Mg4 Co4'
_cell_volume   603.52628780
_cell_formula_units_Z   4
loop_
 _symmetry_equiv_pos_site_id
 _symmetry_equiv_pos_as_xyz
  1  'x, y, z'
loop_
 _atom_site_type_symbol
 _atom_site_label
 _atom_site_symmetry_multiplicity
 _atom_site_fract_x
 _atom_site_fract_y
 _atom_site_fract_z
 _atom_site_occupancy
  Lu  Lu0  1  0.814636  0.185364  0.185364  1
  Lu  Lu1  1  0.185364  0.814636  0.814636  1
  Lu  Lu2  1  0.185364  0.814636  0.185364  1
  Lu  Lu3  1  0.814636  0.185364  0.814636  1
  Lu  Lu4  1  0.185364  0.185364  0.814636  1
  Lu  Lu5  1  0.814636  0.814636  0.185364  1
  Lu  Lu6  1  0.934447  0.565553  0.565553  1
  Lu  Lu7  1  0.565553  0.934447  0.934447  1
  Lu  Lu8  1  0.565553  0.934447  0.565553  1
  Lu  Lu9  1  0.934447  0.565553  0.934447  1
  Lu  Lu10  1  0.565553  0.565553  0.934447  1
  Lu  Lu11  1  0.934447  0.934447  0.565553  1
  Th  Th12  1  0.345898  0.345898  0.345898  1
  Th  Th13  1  0.345898  0.345898  0.962307  1
  Th  Th14  1  0.345898  0.962307  0.345898  1
  Th  Th15  1  0.962307  0.345898  0.345898  1
  Mg  Mg16  1  0.581046  0.581046  0.581046  1
  Mg  Mg17  1  0.581046  0.581046  0.256860  1
  Mg  Mg18  1  0.581046  0.256860  0.581046  1
  Mg  Mg19  1  0.256860  0.581046  0.581046  1
  Co  Co20  1  0.143842  0.143842  0.143842  1
  Co  Co21  1  0.143842  0.143842  0.568476  1
  Co  Co22  1  0.143842  0.568476  0.143842  1
  Co  Co23  1  0.568476  0.143842  0.143842  1
