# generated using pymatgen
data_Y3TmAl17GeIr6
_symmetry_space_group_name_H-M   'P 1'
_cell_length_a   7.54876100
_cell_length_b   7.54949064
_cell_length_c   9.47158000
_cell_angle_alpha   90.00000000
_cell_angle_beta   90.00000000
_cell_angle_gamma   119.58443429
_symmetry_Int_Tables_number   1
_chemical_formula_structural   Y3TmAl17GeIr6
_chemical_formula_sum   'Y3 Tm1 Al17 Ge1 Ir6'
_cell_volume   469.40727529
_cell_formula_units_Z   1
loop_
 _symmetry_equiv_pos_site_id
 _symmetry_equiv_pos_as_xyz
  1  'x, y, z'
loop_
 _atom_site_type_symbol
 _atom_site_label
 _atom_site_symmetry_multiplicity
 _atom_site_fract_x
 _atom_site_fract_y
 _atom_site_fract_z
 _atom_site_occupancy
  Y  Y0  1  0.994651  0.676740  0.250000  1
  Y  Y1  1  0.003458  0.328474  0.750000  1
  Y  Y2  1  0.676920  0.994513  0.250000  1
  Tm  Tm3  1  0.328371  0.003103  0.750000  1
  Al  Al4  1  0.872032  0.871328  0.750000  1
  Al  Al5  1  0.000703  0.338211  0.074117  1
  Al  Al6  1  0.998540  0.665368  0.924554  1
  Al  Al7  1  0.998540  0.665368  0.575446  1
  Al  Al8  1  0.338033  0.000646  0.426819  1
  Al  Al9  1  0.000703  0.338211  0.425883  1
  Al  Al10  1  0.663812  0.997796  0.575582  1
  Al  Al11  1  0.663812  0.997796  0.924418  1
  Al  Al12  1  0.338033  0.000646  0.073181  1
  Al  Al13  1  0.332662  0.331954  0.559680  1
  Al  Al14  1  0.663260  0.663245  0.448928  1
  Al  Al15  1  0.663260  0.663245  0.051072  1
  Al  Al16  1  0.332662  0.331954  0.940320  1
  Al  Al17  1  0.337312  0.554133  0.250000  1
  Al  Al18  1  0.660217  0.450425  0.750000  1
  Al  Al19  1  0.554039  0.337238  0.250000  1
  Al  Al20  1  0.451196  0.661658  0.750000  1
  Ge  Ge21  1  0.136953  0.136741  0.250000  1
  Ir  Ir22  1  0.669247  0.326379  0.999658  1
  Ir  Ir23  1  0.326628  0.669745  0.999668  1
  Ir  Ir24  1  0.326628  0.669745  0.500332  1
  Ir  Ir25  1  0.669247  0.326379  0.500342  1
  Ir  Ir26  1  0.999540  0.999479  0.000616  1
  Ir  Ir27  1  0.999540  0.999479  0.499384  1
