# generated using pymatgen
data_Sc5In4CoRh
_symmetry_space_group_name_H-M   'P 1'
_cell_length_a   3.35420900
_cell_length_b   7.65125490
_cell_length_c   17.52238831
_cell_angle_alpha   89.90188036
_cell_angle_beta   90.00000000
_cell_angle_gamma   90.00000000
_symmetry_Int_Tables_number   1
_chemical_formula_structural   Sc5In4CoRh
_chemical_formula_sum   'Sc10 In8 Co2 Rh2'
_cell_volume   449.69230270
_cell_formula_units_Z   2
loop_
 _symmetry_equiv_pos_site_id
 _symmetry_equiv_pos_as_xyz
  1  'x, y, z'
loop_
 _atom_site_type_symbol
 _atom_site_label
 _atom_site_symmetry_multiplicity
 _atom_site_fract_x
 _atom_site_fract_y
 _atom_site_fract_z
 _atom_site_occupancy
  Sc  Sc0  1  0.000000  0.000000  0.000000  1
  Sc  Sc1  1  0.000000  0.500000  0.500000  1
  Sc  Sc2  1  0.000000  0.752200  0.775746  1
  Sc  Sc3  1  0.000000  0.247800  0.224254  1
  Sc  Sc4  1  0.000000  0.235879  0.718855  1
  Sc  Sc5  1  0.000000  0.764121  0.281145  1
  Sc  Sc6  1  0.000000  0.878351  0.588946  1
  Sc  Sc7  1  0.000000  0.121649  0.411054  1
  Sc  Sc8  1  0.000000  0.375301  0.912902  1
  Sc  Sc9  1  0.000000  0.624699  0.087098  1
  In  In10  1  0.500000  0.799937  0.434321  1
  In  In11  1  0.500000  0.200063  0.565679  1
  In  In12  1  0.500000  0.296755  0.066865  1
  In  In13  1  0.500000  0.703245  0.933135  1
  In  In14  1  0.500000  0.934136  0.151694  1
  In  In15  1  0.500000  0.065864  0.848306  1
  In  In16  1  0.500000  0.431361  0.351774  1
  In  In17  1  0.500000  0.568639  0.648226  1
  Co  Co18  1  0.500000  0.963244  0.693847  1
  Co  Co19  1  0.500000  0.036756  0.306153  1
  Rh  Rh20  1  0.500000  0.461676  0.803556  1
  Rh  Rh21  1  0.500000  0.538324  0.196444  1
