# generated using pymatgen
data_HoEr11Co4TcBi
_symmetry_space_group_name_H-M   'P 1'
_cell_length_a   8.25628295
_cell_length_b   8.25628193
_cell_length_c   8.25150177
_cell_angle_alpha   110.63823106
_cell_angle_beta   111.63672427
_cell_angle_gamma   106.21430792
_symmetry_Int_Tables_number   1
_chemical_formula_structural   HoEr11Co4TcBi
_chemical_formula_sum   'Ho1 Er11 Co4 Tc1 Bi1'
_cell_volume   431.77470361
_cell_formula_units_Z   1
loop_
 _symmetry_equiv_pos_site_id
 _symmetry_equiv_pos_as_xyz
  1  'x, y, z'
loop_
 _atom_site_type_symbol
 _atom_site_label
 _atom_site_symmetry_multiplicity
 _atom_site_fract_x
 _atom_site_fract_y
 _atom_site_fract_z
 _atom_site_occupancy
  Ho  Ho0  1  0.280377  0.182638  0.463014  1
  Er  Er1  1  0.719899  0.817643  0.537543  1
  Er  Er2  1  0.280423  0.816700  0.097124  1
  Er  Er3  1  0.719837  0.182964  0.902802  1
  Er  Er4  1  0.618235  0.309326  0.308701  1
  Er  Er5  1  0.382179  0.691004  0.691484  1
  Er  Er6  1  0.000482  0.309304  0.691484  1
  Er  Er7  1  0.999374  0.690466  0.308701  1
  Er  Er8  1  0.216196  0.414006  0.197062  1
  Er  Er9  1  0.784135  0.586761  0.803207  1
  Er  Er10  1  0.216447  0.019072  0.803207  1
  Er  Er11  1  0.783055  0.980866  0.197062  1
  Co  Co12  1  0.999694  0.377399  0.377093  1
  Co  Co13  1  0.999843  0.622990  0.622833  1
  Co  Co14  1  0.389465  0.888490  0.499824  1
  Co  Co15  1  0.611333  0.110358  0.499824  1
  Tc  Tc16  1  0.999061  0.000022  0.999084  1
  Bi  Bi17  1  0.499962  0.499990  0.999952  1
