# generated using pymatgen
data_Mg2Ni(SnRh)2
_symmetry_space_group_name_H-M   'P 1'
_cell_length_a   7.61478555
_cell_length_b   7.61478567
_cell_length_c   7.61478562
_cell_angle_alpha   33.83058778
_cell_angle_beta   33.83058442
_cell_angle_gamma   33.83059219
_symmetry_Int_Tables_number   1
_chemical_formula_structural   Mg2Ni(SnRh)2
_chemical_formula_sum   'Mg2 Ni1 Sn2 Rh2'
_cell_volume   121.95944108
_cell_formula_units_Z   1
loop_
 _symmetry_equiv_pos_site_id
 _symmetry_equiv_pos_as_xyz
  1  'x, y, z'
loop_
 _atom_site_type_symbol
 _atom_site_label
 _atom_site_symmetry_multiplicity
 _atom_site_fract_x
 _atom_site_fract_y
 _atom_site_fract_z
 _atom_site_occupancy
  Mg  Mg0  1  0.243561  0.243561  0.243561  1
  Mg  Mg1  1  0.755601  0.755601  0.755601  1
  Ni  Ni2  1  0.879561  0.879561  0.879561  1
  Sn  Sn3  1  0.002886  0.002886  0.002886  1
  Sn  Sn4  1  0.497899  0.497899  0.497899  1
  Rh  Rh5  1  0.372057  0.372057  0.372057  1
  Rh  Rh6  1  0.623433  0.623433  0.623433  1
