# generated using pymatgen
data_Dy3MgZrInIr3
_symmetry_space_group_name_H-M   'P 1'
_cell_length_a   7.33887237
_cell_length_b   7.18282768
_cell_length_c   4.21564400
_cell_angle_alpha   90.00000000
_cell_angle_beta   90.00000000
_cell_angle_gamma   118.77412725
_symmetry_Int_Tables_number   1
_chemical_formula_structural   Dy3MgZrInIr3
_chemical_formula_sum   'Dy3 Mg1 Zr1 In1 Ir3'
_cell_volume   194.78369028
_cell_formula_units_Z   1
loop_
 _symmetry_equiv_pos_site_id
 _symmetry_equiv_pos_as_xyz
  1  'x, y, z'
loop_
 _atom_site_type_symbol
 _atom_site_label
 _atom_site_symmetry_multiplicity
 _atom_site_fract_x
 _atom_site_fract_y
 _atom_site_fract_z
 _atom_site_occupancy
  Dy  Dy0  1  0.580716  0.590634  0.000000  1
  Dy  Dy1  1  0.419949  0.004482  0.000000  1
  Dy  Dy2  1  0.996495  0.393157  0.000000  1
  Mg  Mg3  1  0.248385  0.248358  0.500000  1
  Zr  Zr4  1  0.001084  0.752625  0.500000  1
  In  In5  1  0.750089  0.001281  0.500000  1
  Ir  Ir6  1  0.007669  0.984246  0.000000  1
  Ir  Ir7  1  0.673725  0.354940  0.500000  1
  Ir  Ir8  1  0.321888  0.670278  0.500000  1
