# generated using pymatgen
data_Ni2Te10Se3
_symmetry_space_group_name_H-M   'P 1'
_cell_length_a   3.98312808
_cell_length_b   7.30482586
_cell_length_c   15.54606835
_cell_angle_alpha   105.93226539
_cell_angle_beta   89.99782973
_cell_angle_gamma   106.10764542
_symmetry_Int_Tables_number   1
_chemical_formula_structural   Ni2Te10Se3
_chemical_formula_sum   'Ni2 Te10 Se3'
_cell_volume   416.45762991
_cell_formula_units_Z   1
loop_
 _symmetry_equiv_pos_site_id
 _symmetry_equiv_pos_as_xyz
  1  'x, y, z'
loop_
 _atom_site_type_symbol
 _atom_site_label
 _atom_site_symmetry_multiplicity
 _atom_site_fract_x
 _atom_site_fract_y
 _atom_site_fract_z
 _atom_site_occupancy
  Ni  Ni0  1  0.013262  0.036513  0.499699  1
  Ni  Ni1  1  0.589826  0.172272  0.301875  1
  Te  Te2  1  0.855571  0.706656  0.108067  1
  Te  Te3  1  0.463878  0.930851  0.895641  1
  Te  Te4  1  0.075809  0.155361  0.681697  1
  Te  Te5  1  0.630449  0.267468  0.483651  1
  Te  Te6  1  0.208486  0.406218  0.292799  1
  Te  Te7  1  0.516932  0.025140  0.126167  1
  Te  Te8  1  0.127989  0.248132  0.907536  1
  Te  Te9  1  0.738627  0.475884  0.697784  1
  Te  Te10  1  0.392876  0.799537  0.503863  1
  Te  Te11  1  0.975105  0.946177  0.322624  1
  Se  Se12  1  0.807094  0.614917  0.888086  1
  Se  Se13  1  0.410767  0.830760  0.680224  1
  Se  Se14  1  0.193327  0.384115  0.110287  1
