# generated using pymatgen
data_Tb2Y3Er3(CdPt)2
_symmetry_space_group_name_H-M   'P 1'
_cell_length_a   9.67580977
_cell_length_b   9.67580943
_cell_length_c   9.67580900
_cell_angle_alpha   59.99999806
_cell_angle_beta   59.99999922
_cell_angle_gamma   59.99999634
_symmetry_Int_Tables_number   1
_chemical_formula_structural   Tb2Y3Er3(CdPt)2
_chemical_formula_sum   'Tb4 Y6 Er6 Cd4 Pt4'
_cell_volume   640.54094444
_cell_formula_units_Z   2
loop_
 _symmetry_equiv_pos_site_id
 _symmetry_equiv_pos_as_xyz
  1  'x, y, z'
loop_
 _atom_site_type_symbol
 _atom_site_label
 _atom_site_symmetry_multiplicity
 _atom_site_fract_x
 _atom_site_fract_y
 _atom_site_fract_z
 _atom_site_occupancy
  Tb  Tb0  1  0.352689  0.352689  0.352689  1
  Tb  Tb1  1  0.352689  0.352689  0.941933  1
  Tb  Tb2  1  0.352689  0.941933  0.352689  1
  Tb  Tb3  1  0.941933  0.352689  0.352689  1
  Y  Y4  1  0.935975  0.564025  0.564025  1
  Y  Y5  1  0.564025  0.935975  0.935975  1
  Y  Y6  1  0.564025  0.935975  0.564025  1
  Y  Y7  1  0.935975  0.564025  0.935975  1
  Y  Y8  1  0.564025  0.564025  0.935975  1
  Y  Y9  1  0.935975  0.935975  0.564025  1
  Er  Er10  1  0.811348  0.188652  0.188652  1
  Er  Er11  1  0.188652  0.811348  0.811348  1
  Er  Er12  1  0.188652  0.811348  0.188652  1
  Er  Er13  1  0.811348  0.188652  0.811348  1
  Er  Er14  1  0.188652  0.188652  0.811348  1
  Er  Er15  1  0.811348  0.811348  0.188652  1
  Cd  Cd16  1  0.581820  0.581820  0.581820  1
  Cd  Cd17  1  0.581820  0.581820  0.254539  1
  Cd  Cd18  1  0.581820  0.254539  0.581820  1
  Cd  Cd19  1  0.254539  0.581820  0.581820  1
  Pt  Pt20  1  0.142795  0.142795  0.142795  1
  Pt  Pt21  1  0.142795  0.142795  0.571616  1
  Pt  Pt22  1  0.142795  0.571616  0.142795  1
  Pt  Pt23  1  0.571616  0.142795  0.142795  1
