# generated using pymatgen
data_ErThMn12P7
_symmetry_space_group_name_H-M   'P 1'
_cell_length_a   9.31861600
_cell_length_b   9.31861721
_cell_length_c   3.62948300
_cell_angle_alpha   90.00000000
_cell_angle_beta   90.00000000
_cell_angle_gamma   120.00000282
_symmetry_Int_Tables_number   1
_chemical_formula_structural   ErThMn12P7
_chemical_formula_sum   'Er1 Th1 Mn12 P7'
_cell_volume   272.94696759
_cell_formula_units_Z   1
loop_
 _symmetry_equiv_pos_site_id
 _symmetry_equiv_pos_as_xyz
  1  'x, y, z'
loop_
 _atom_site_type_symbol
 _atom_site_label
 _atom_site_symmetry_multiplicity
 _atom_site_fract_x
 _atom_site_fract_y
 _atom_site_fract_z
 _atom_site_occupancy
  Er  Er0  1  0.333333  0.666667  0.000000  1
  Th  Th1  1  0.000000  0.000000  0.500000  1
  Mn  Mn2  1  0.044104  0.285055  0.000000  1
  Mn  Mn3  1  0.714945  0.759049  0.000000  1
  Mn  Mn4  1  0.240951  0.955896  0.000000  1
  Mn  Mn5  1  0.544174  0.057314  0.000000  1
  Mn  Mn6  1  0.942686  0.486861  0.000000  1
  Mn  Mn7  1  0.513139  0.455826  0.000000  1
  Mn  Mn8  1  0.619185  0.894920  0.500000  1
  Mn  Mn9  1  0.105080  0.724265  0.500000  1
  Mn  Mn10  1  0.275735  0.380815  0.500000  1
  Mn  Mn11  1  0.789778  0.230160  0.500000  1
  Mn  Mn12  1  0.769840  0.559618  0.500000  1
  Mn  Mn13  1  0.440382  0.210222  0.500000  1
  P  P14  1  0.779495  0.043516  0.000000  1
  P  P15  1  0.956484  0.735979  0.000000  1
  P  P16  1  0.264021  0.220505  0.000000  1
  P  P17  1  0.385070  0.924178  0.500000  1
  P  P18  1  0.075822  0.460893  0.500000  1
  P  P19  1  0.539107  0.614930  0.500000  1
  P  P20  1  0.666667  0.333333  0.000000  1
