# generated using pymatgen
data_Sr6Ni2MoO12
_symmetry_space_group_name_H-M   'P 1'
_cell_length_a   8.80823272
_cell_length_b   8.80823310
_cell_length_c   6.89045597
_cell_angle_alpha   67.55154716
_cell_angle_beta   67.55154646
_cell_angle_gamma   36.72044644
_symmetry_Int_Tables_number   1
_chemical_formula_structural   Sr6Ni2MoO12
_chemical_formula_sum   'Sr6 Ni2 Mo1 O12'
_cell_volume   292.62908552
_cell_formula_units_Z   1
loop_
 _symmetry_equiv_pos_site_id
 _symmetry_equiv_pos_as_xyz
  1  'x, y, z'
loop_
 _atom_site_type_symbol
 _atom_site_label
 _atom_site_symmetry_multiplicity
 _atom_site_fract_x
 _atom_site_fract_y
 _atom_site_fract_z
 _atom_site_occupancy
  Sr  Sr0  1  0.871607  0.871607  0.718827  1
  Sr  Sr1  1  0.222604  0.222604  0.713901  1
  Sr  Sr2  1  0.548586  0.548586  0.705041  1
  Sr  Sr3  1  0.451414  0.451414  0.294959  1
  Sr  Sr4  1  0.777396  0.777396  0.286099  1
  Sr  Sr5  1  0.128393  0.128393  0.281173  1
  Ni  Ni6  1  0.666988  0.666988  0.999468  1
  Ni  Ni7  1  0.333012  0.333012  0.000532  1
  Mo  Mo8  1  0.000000  0.000000  0.000000  1
  O  O9  1  0.947429  0.947429  0.314851  1
  O  O10  1  0.280651  0.280651  0.321369  1
  O  O11  1  0.612122  0.612122  0.321858  1
  O  O12  1  0.387878  0.387878  0.678142  1
  O  O13  1  0.719349  0.719349  0.678631  1
  O  O14  1  0.052571  0.052571  0.685149  1
  O  O15  1  0.500000  0.000000  0.000000  1
  O  O16  1  0.835526  0.325977  0.000408  1
  O  O17  1  0.164474  0.674023  0.999592  1
  O  O18  1  0.000000  0.500000  0.000000  1
  O  O19  1  0.325977  0.835526  0.000408  1
  O  O20  1  0.674023  0.164474  0.999592  1
