# generated using pymatgen
data_Nb8CrCuTe8
_symmetry_space_group_name_H-M   'P 1'
_cell_length_a   4.87295200
_cell_length_b   11.28589700
_cell_length_c   19.95126200
_cell_angle_alpha   90.00000000
_cell_angle_beta   90.00000000
_cell_angle_gamma   90.00000000
_symmetry_Int_Tables_number   1
_chemical_formula_structural   Nb8CrCuTe8
_chemical_formula_sum   'Nb16 Cr2 Cu2 Te16'
_cell_volume   1097.23230993
_cell_formula_units_Z   2
loop_
 _symmetry_equiv_pos_site_id
 _symmetry_equiv_pos_as_xyz
  1  'x, y, z'
loop_
 _atom_site_type_symbol
 _atom_site_label
 _atom_site_symmetry_multiplicity
 _atom_site_fract_x
 _atom_site_fract_y
 _atom_site_fract_z
 _atom_site_occupancy
  Nb  Nb0  1  0.498273  0.563214  0.387046  1
  Nb  Nb1  1  0.498273  0.436786  0.612954  1
  Nb  Nb2  1  0.501727  0.063214  0.112954  1
  Nb  Nb3  1  0.501727  0.936786  0.887046  1
  Nb  Nb4  1  0.498943  0.700011  0.535696  1
  Nb  Nb5  1  0.498943  0.299989  0.464304  1
  Nb  Nb6  1  0.501057  0.200011  0.964304  1
  Nb  Nb7  1  0.501057  0.799989  0.035696  1
  Nb  Nb8  1  0.001929  0.686252  0.445279  1
  Nb  Nb9  1  0.001929  0.313748  0.554721  1
  Nb  Nb10  1  0.998071  0.186252  0.054721  1
  Nb  Nb11  1  0.998071  0.813748  0.945279  1
  Nb  Nb12  1  0.000802  0.403161  0.394861  1
  Nb  Nb13  1  0.000802  0.596839  0.605139  1
  Nb  Nb14  1  0.999198  0.903161  0.105139  1
  Nb  Nb15  1  0.999198  0.096839  0.894861  1
  Cr  Cr16  1  0.750031  0.500000  0.500000  1
  Cr  Cr17  1  0.249969  0.000000  0.000000  1
  Cu  Cu18  1  0.249668  0.500000  0.500000  1
  Cu  Cu19  1  0.750332  0.000000  0.000000  1
  Te  Te20  1  0.000897  0.837919  0.560094  1
  Te  Te21  1  0.000897  0.162081  0.439906  1
  Te  Te22  1  0.999103  0.337919  0.939906  1
  Te  Te23  1  0.999103  0.662081  0.060094  1
  Te  Te24  1  0.498867  0.337069  0.322482  1
  Te  Te25  1  0.498867  0.662931  0.677518  1
  Te  Te26  1  0.501133  0.837069  0.177518  1
  Te  Te27  1  0.501133  0.162931  0.822482  1
  Te  Te28  1  0.499566  0.814127  0.407679  1
  Te  Te29  1  0.499566  0.185873  0.592321  1
  Te  Te30  1  0.500434  0.314127  0.092321  1
  Te  Te31  1  0.500434  0.685873  0.907679  1
  Te  Te32  1  0.000717  0.606693  0.309397  1
  Te  Te33  1  0.000717  0.393307  0.690603  1
  Te  Te34  1  0.999283  0.106693  0.190603  1
  Te  Te35  1  0.999283  0.893307  0.809397  1
