# generated using pymatgen
data_TbTmSc3(SiGe)2
_symmetry_space_group_name_H-M   'P 1'
_cell_length_a   7.15499152
_cell_length_b   7.40841069
_cell_length_c   14.06044621
_cell_angle_alpha   90.00823679
_cell_angle_beta   90.01787843
_cell_angle_gamma   89.84630619
_symmetry_Int_Tables_number   1
_chemical_formula_structural   TbTmSc3(SiGe)2
_chemical_formula_sum   'Tb4 Tm4 Sc12 Si8 Ge8'
_cell_volume   745.30097255
_cell_formula_units_Z   4
loop_
 _symmetry_equiv_pos_site_id
 _symmetry_equiv_pos_as_xyz
  1  'x, y, z'
loop_
 _atom_site_type_symbol
 _atom_site_label
 _atom_site_symmetry_multiplicity
 _atom_site_fract_x
 _atom_site_fract_y
 _atom_site_fract_z
 _atom_site_occupancy
  Tb  Tb0  1  0.506907  0.322777  0.097335  1
  Tb  Tb1  1  0.006348  0.176137  0.402322  1
  Tb  Tb2  1  0.507173  0.323179  0.401261  1
  Tb  Tb3  1  0.493424  0.677314  0.599054  1
  Tm  Tm4  1  0.006681  0.177124  0.098225  1
  Tm  Tm5  1  0.993950  0.822263  0.901513  1
  Tm  Tm6  1  0.492992  0.678541  0.900384  1
  Tm  Tm7  1  0.993618  0.822597  0.599876  1
  Sc  Sc8  1  0.166296  0.501297  0.750627  1
  Sc  Sc9  1  0.833457  0.499370  0.249516  1
  Sc  Sc10  1  0.333177  0.001239  0.249358  1
  Sc  Sc11  1  0.666660  0.998233  0.750460  1
  Sc  Sc12  1  0.336562  0.171735  0.627162  1
  Sc  Sc13  1  0.663316  0.827955  0.373462  1
  Sc  Sc14  1  0.162346  0.673488  0.373113  1
  Sc  Sc15  1  0.662651  0.827576  0.125383  1
  Sc  Sc16  1  0.837070  0.327202  0.627899  1
  Sc  Sc17  1  0.336624  0.171732  0.873643  1
  Sc  Sc18  1  0.837613  0.326820  0.873283  1
  Sc  Sc19  1  0.162409  0.673443  0.126132  1
  Si  Si20  1  0.038305  0.114613  0.750516  1
  Si  Si21  1  0.961020  0.883707  0.249253  1
  Si  Si22  1  0.461344  0.618471  0.249522  1
  Si  Si23  1  0.537943  0.383173  0.750779  1
  Si  Si24  1  0.289271  0.870169  0.750956  1
  Si  Si25  1  0.710366  0.127892  0.248845  1
  Si  Si26  1  0.208057  0.371484  0.249053  1
  Si  Si27  1  0.791620  0.630542  0.751157  1
  Ge  Ge28  1  0.169267  0.461943  0.541325  1
  Ge  Ge29  1  0.830190  0.540502  0.460145  1
  Ge  Ge30  1  0.328382  0.959842  0.459858  1
  Ge  Ge31  1  0.830214  0.539149  0.040112  1
  Ge  Ge32  1  0.673672  0.038781  0.541339  1
  Ge  Ge33  1  0.171723  0.462264  0.958837  1
  Ge  Ge34  1  0.674009  0.037438  0.958471  1
  Ge  Ge35  1  0.325342  0.960008  0.039823  1
