# generated using pymatgen
data_Tb4YTm7Co5Bi
_symmetry_space_group_name_H-M   'P 1'
_cell_length_a   8.25286621
_cell_length_b   8.25286791
_cell_length_c   8.23407233
_cell_angle_alpha   111.20313204
_cell_angle_beta   110.67803039
_cell_angle_gamma   106.66864025
_symmetry_Int_Tables_number   1
_chemical_formula_structural   Tb4YTm7Co5Bi
_chemical_formula_sum   'Tb4 Y1 Tm7 Co5 Bi1'
_cell_volume   430.39472483
_cell_formula_units_Z   1
loop_
 _symmetry_equiv_pos_site_id
 _symmetry_equiv_pos_as_xyz
  1  'x, y, z'
loop_
 _atom_site_type_symbol
 _atom_site_label
 _atom_site_symmetry_multiplicity
 _atom_site_fract_x
 _atom_site_fract_y
 _atom_site_fract_z
 _atom_site_occupancy
  Tb  Tb0  1  0.596615  0.792880  0.805412  1
  Tb  Tb1  1  0.401279  0.206154  0.194185  1
  Tb  Tb2  1  0.988032  0.792908  0.194185  1
  Tb  Tb3  1  0.012534  0.208797  0.805412  1
  Y  Y4  1  0.815418  0.709995  0.525413  1
  Tm  Tm5  1  0.182782  0.290092  0.472874  1
  Tm  Tm6  1  0.183621  0.709050  0.892671  1
  Tm  Tm7  1  0.817334  0.290081  0.107413  1
  Tm  Tm8  1  0.687396  0.377338  0.690487  1
  Tm  Tm9  1  0.311144  0.621877  0.309290  1
  Tm  Tm10  1  0.687412  0.998145  0.309290  1
  Tm  Tm11  1  0.313149  0.003091  0.690487  1
  Co  Co12  1  0.623337  0.000461  0.623798  1
  Co  Co13  1  0.376584  0.000131  0.376716  1
  Co  Co14  1  0.113462  0.610625  0.500541  1
  Co  Co15  1  0.889916  0.387079  0.500541  1
  Co  Co16  1  0.999732  0.001180  0.000912  1
  Bi  Bi17  1  0.500254  0.500118  0.000373  1
