# generated using pymatgen
data_MgTePtO6
_symmetry_space_group_name_H-M   'P 1'
_cell_length_a   5.19126502
_cell_length_b   5.19151809
_cell_length_c   9.14092100
_cell_angle_alpha   90.00950790
_cell_angle_beta   89.99575338
_cell_angle_gamma   120.00198629
_symmetry_Int_Tables_number   1
_chemical_formula_structural   MgTePtO6
_chemical_formula_sum   'Mg2 Te2 Pt2 O12'
_cell_volume   213.34352190
_cell_formula_units_Z   2
loop_
 _symmetry_equiv_pos_site_id
 _symmetry_equiv_pos_as_xyz
  1  'x, y, z'
loop_
 _atom_site_type_symbol
 _atom_site_label
 _atom_site_symmetry_multiplicity
 _atom_site_fract_x
 _atom_site_fract_y
 _atom_site_fract_z
 _atom_site_occupancy
  Mg  Mg0  1  0.999999  0.999999  0.000000  1
  Mg  Mg1  1  0.000000  0.000000  0.500000  1
  Te  Te2  1  0.666722  0.333361  0.249999  1
  Te  Te3  1  0.333279  0.666640  0.750001  1
  Pt  Pt4  1  0.333352  0.666675  0.249998  1
  Pt  Pt5  1  0.666649  0.333326  0.750002  1
  O  O6  1  0.353611  0.008510  0.132822  1
  O  O7  1  0.654894  0.646377  0.132826  1
  O  O8  1  0.991470  0.345098  0.132839  1
  O  O9  1  0.991472  0.646375  0.367161  1
  O  O10  1  0.654898  0.008520  0.367173  1
  O  O11  1  0.353615  0.345104  0.367178  1
  O  O12  1  0.646385  0.654896  0.632823  1
  O  O13  1  0.345103  0.991480  0.632827  1
  O  O14  1  0.008527  0.353624  0.632840  1
  O  O15  1  0.008529  0.654901  0.867160  1
  O  O16  1  0.345108  0.353624  0.867174  1
  O  O17  1  0.646387  0.991489  0.867178  1
