# generated using pymatgen
data_Th4Si10(OsPt)3
_symmetry_space_group_name_H-M   'P 1'
_cell_length_a   8.25454467
_cell_length_b   8.27367438
_cell_length_c   8.27367427
_cell_angle_alpha   137.16424587
_cell_angle_beta   105.33333466
_cell_angle_gamma   90.16490916
_symmetry_Int_Tables_number   1
_chemical_formula_structural   Th4Si10(OsPt)3
_chemical_formula_sum   'Th4 Si10 Os3 Pt3'
_cell_volume   353.42434864
_cell_formula_units_Z   1
loop_
 _symmetry_equiv_pos_site_id
 _symmetry_equiv_pos_as_xyz
  1  'x, y, z'
loop_
 _atom_site_type_symbol
 _atom_site_label
 _atom_site_symmetry_multiplicity
 _atom_site_fract_x
 _atom_site_fract_y
 _atom_site_fract_z
 _atom_site_occupancy
  Th  Th0  1  0.863363  0.629649  0.233714  1
  Th  Th1  1  0.139603  0.371121  0.768481  1
  Th  Th2  1  0.395931  0.130029  0.265902  1
  Th  Th3  1  0.601512  0.869557  0.731955  1
  Si  Si4  1  0.494558  0.753206  0.255079  1
  Si  Si5  1  0.494558  0.239479  0.741352  1
  Si  Si6  1  0.223598  0.972606  0.745348  1
  Si  Si7  1  0.777103  0.526607  0.748780  1
  Si  Si8  1  0.777103  0.028322  0.250496  1
  Si  Si9  1  0.223598  0.478250  0.250992  1
  Si  Si10  1  0.045720  0.894371  0.151349  1
  Si  Si11  1  0.960024  0.106813  0.853211  1
  Si  Si12  1  0.745724  0.392651  0.353073  1
  Si  Si13  1  0.255885  0.606777  0.649108  1
  Os  Os14  1  0.000866  0.751129  0.750696  1
  Os  Os15  1  0.000866  0.250170  0.249737  1
  Os  Os16  1  0.244739  0.859044  0.385696  1
  Pt  Pt17  1  0.750535  0.139576  0.610958  1
  Pt  Pt18  1  0.474677  0.362006  0.112671  1
  Pt  Pt19  1  0.530038  0.638636  0.891402  1
