# generated using pymatgen
data_Dy5Ho3InAgRh2
_symmetry_space_group_name_H-M   'P 1'
_cell_length_a   9.58380778
_cell_length_b   9.58699975
_cell_length_c   9.60740472
_cell_angle_alpha   59.88749101
_cell_angle_beta   59.89107259
_cell_angle_gamma   59.90178847
_symmetry_Int_Tables_number   1
_chemical_formula_structural   Dy5Ho3InAgRh2
_chemical_formula_sum   'Dy10 Ho6 In2 Ag2 Rh4'
_cell_volume   622.67405428
_cell_formula_units_Z   2
loop_
 _symmetry_equiv_pos_site_id
 _symmetry_equiv_pos_as_xyz
  1  'x, y, z'
loop_
 _atom_site_type_symbol
 _atom_site_label
 _atom_site_symmetry_multiplicity
 _atom_site_fract_x
 _atom_site_fract_y
 _atom_site_fract_z
 _atom_site_occupancy
  Dy  Dy0  1  0.185825  0.186395  0.813341  1
  Dy  Dy1  1  0.600698  0.600467  0.198026  1
  Dy  Dy2  1  0.438908  0.059722  0.440414  1
  Dy  Dy3  1  0.441275  0.441312  0.058111  1
  Dy  Dy4  1  0.813156  0.183234  0.814382  1
  Dy  Dy5  1  0.182140  0.812763  0.190898  1
  Dy  Dy6  1  0.438540  0.061119  0.059780  1
  Dy  Dy7  1  0.183250  0.813079  0.814331  1
  Dy  Dy8  1  0.060996  0.438463  0.060188  1
  Dy  Dy9  1  0.811168  0.811203  0.188892  1
  Ho  Ho10  1  0.198369  0.601258  0.601739  1
  Ho  Ho11  1  0.059479  0.438683  0.440656  1
  Ho  Ho12  1  0.061579  0.061646  0.437166  1
  Ho  Ho13  1  0.812820  0.182419  0.190573  1
  Ho  Ho14  1  0.601270  0.198502  0.601609  1
  Ho  Ho15  1  0.600339  0.599938  0.599928  1
  In  In16  1  0.507853  0.833151  0.828779  1
  In  In17  1  0.833262  0.507711  0.828803  1
  Ag  Ag18  1  0.833727  0.833719  0.831355  1
  Ag  Ag19  1  0.833950  0.834196  0.500030  1
  Rh  Rh20  1  0.392866  0.822040  0.393289  1
  Rh  Rh21  1  0.392872  0.392928  0.392448  1
  Rh  Rh22  1  0.822198  0.392811  0.393403  1
  Rh  Rh23  1  0.393462  0.393243  0.821860  1
