# generated using pymatgen
data_KSn3PdAu2
_symmetry_space_group_name_H-M   'P 1'
_cell_length_a   4.71620500
_cell_length_b   7.74297800
_cell_length_c   9.25465100
_cell_angle_alpha   90.00000000
_cell_angle_beta   90.00000000
_cell_angle_gamma   90.00000000
_symmetry_Int_Tables_number   1
_chemical_formula_structural   KSn3PdAu2
_chemical_formula_sum   'K2 Sn6 Pd2 Au4'
_cell_volume   337.95645468
_cell_formula_units_Z   2
loop_
 _symmetry_equiv_pos_site_id
 _symmetry_equiv_pos_as_xyz
  1  'x, y, z'
loop_
 _atom_site_type_symbol
 _atom_site_label
 _atom_site_symmetry_multiplicity
 _atom_site_fract_x
 _atom_site_fract_y
 _atom_site_fract_z
 _atom_site_occupancy
  K  K0  1  0.000000  0.500000  0.260639  1
  K  K1  1  0.500000  0.000000  0.739361  1
  Sn  Sn2  1  0.500000  0.198614  0.111196  1
  Sn  Sn3  1  0.500000  0.801386  0.111196  1
  Sn  Sn4  1  0.000000  0.698614  0.888804  1
  Sn  Sn5  1  0.000000  0.301386  0.888804  1
  Sn  Sn6  1  0.000000  0.000000  0.366661  1
  Sn  Sn7  1  0.500000  0.500000  0.633339  1
  Pd  Pd8  1  0.000000  0.000000  0.066329  1
  Pd  Pd9  1  0.500000  0.500000  0.933671  1
  Au  Au10  1  0.500000  0.779099  0.413821  1
  Au  Au11  1  0.000000  0.720901  0.586179  1
  Au  Au12  1  0.000000  0.279099  0.586179  1
  Au  Au13  1  0.500000  0.220901  0.413821  1
