# generated using pymatgen
data_K2Th(SiO3)3
_symmetry_space_group_name_H-M   'P 1'
_cell_length_a   7.22611300
_cell_length_b   7.22611361
_cell_length_c   10.74067000
_cell_angle_alpha   90.00000000
_cell_angle_beta   90.00000000
_cell_angle_gamma   119.99998347
_symmetry_Int_Tables_number   1
_chemical_formula_structural   K2Th(SiO3)3
_chemical_formula_sum   'K4 Th2 Si6 O18'
_cell_volume   485.70392322
_cell_formula_units_Z   2
loop_
 _symmetry_equiv_pos_site_id
 _symmetry_equiv_pos_as_xyz
  1  'x, y, z'
loop_
 _atom_site_type_symbol
 _atom_site_label
 _atom_site_symmetry_multiplicity
 _atom_site_fract_x
 _atom_site_fract_y
 _atom_site_fract_z
 _atom_site_occupancy
  K  K0  1  0.333333  0.666667  0.056842  1
  K  K1  1  0.666667  0.333333  0.556842  1
  K  K2  1  0.333333  0.666667  0.443158  1
  K  K3  1  0.666667  0.333333  0.943158  1
  Th  Th4  1  0.000000  0.000000  0.000000  1
  Th  Th5  1  0.000000  0.000000  0.500000  1
  Si  Si6  1  0.600559  0.723387  0.750000  1
  Si  Si7  1  0.877171  0.600559  0.250000  1
  Si  Si8  1  0.723387  0.122829  0.250000  1
  Si  Si9  1  0.276613  0.877171  0.750000  1
  Si  Si10  1  0.122829  0.399441  0.750000  1
  Si  Si11  1  0.399441  0.276613  0.250000  1
  O  O12  1  0.271154  0.256147  0.377883  1
  O  O13  1  0.015007  0.271154  0.877883  1
  O  O14  1  0.256147  0.984993  0.877883  1
  O  O15  1  0.743853  0.015007  0.377883  1
  O  O16  1  0.984993  0.728846  0.377883  1
  O  O17  1  0.728846  0.743853  0.877883  1
  O  O18  1  0.728846  0.743853  0.622117  1
  O  O19  1  0.984993  0.728846  0.122117  1
  O  O20  1  0.743853  0.015007  0.122117  1
  O  O21  1  0.256147  0.984993  0.622117  1
  O  O22  1  0.015007  0.271154  0.622117  1
  O  O23  1  0.271154  0.256147  0.122117  1
  O  O24  1  0.482454  0.099814  0.250000  1
  O  O25  1  0.382640  0.482454  0.750000  1
  O  O26  1  0.099814  0.617360  0.750000  1
  O  O27  1  0.900186  0.382640  0.250000  1
  O  O28  1  0.617360  0.517546  0.250000  1
  O  O29  1  0.517546  0.900186  0.750000  1
