# generated using pymatgen
data_NdTh2Al2GaIr3
_symmetry_space_group_name_H-M   'P 1'
_cell_length_a   7.19892600
_cell_length_b   7.27163286
_cell_length_c   4.13044500
_cell_angle_alpha   90.00000000
_cell_angle_beta   90.00000000
_cell_angle_gamma   119.66979328
_symmetry_Int_Tables_number   1
_chemical_formula_structural   NdTh2Al2GaIr3
_chemical_formula_sum   'Nd1 Th2 Al2 Ga1 Ir3'
_cell_volume   187.87223252
_cell_formula_units_Z   1
loop_
 _symmetry_equiv_pos_site_id
 _symmetry_equiv_pos_as_xyz
  1  'x, y, z'
loop_
 _atom_site_type_symbol
 _atom_site_label
 _atom_site_symmetry_multiplicity
 _atom_site_fract_x
 _atom_site_fract_y
 _atom_site_fract_z
 _atom_site_occupancy
  Nd  Nd0  1  0.419073  0.000000  0.500000  1
  Th  Th1  1  0.998886  0.414802  0.500000  1
  Th  Th2  1  0.584083  0.585198  0.500000  1
  Al  Al3  1  0.005701  0.775870  0.000000  1
  Al  Al4  1  0.229831  0.224130  0.000000  1
  Ga  Ga5  1  0.756349  0.000000  0.000000  1
  Ir  Ir6  1  0.322285  0.637228  0.000000  1
  Ir  Ir7  1  0.685058  0.362772  0.000000  1
  Ir  Ir8  1  0.998733  0.000000  0.500000  1
