# generated using pymatgen
data_Hf8TiSi6MoN2
_symmetry_space_group_name_H-M   'P 1'
_cell_length_a   7.75174100
_cell_length_b   7.75174107
_cell_length_c   5.43216000
_cell_angle_alpha   90.00000000
_cell_angle_beta   90.00000000
_cell_angle_gamma   119.99999543
_symmetry_Int_Tables_number   1
_chemical_formula_structural   Hf8TiSi6MoN2
_chemical_formula_sum   'Hf8 Ti1 Si6 Mo1 N2'
_cell_volume   282.68431787
_cell_formula_units_Z   1
loop_
 _symmetry_equiv_pos_site_id
 _symmetry_equiv_pos_as_xyz
  1  'x, y, z'
loop_
 _atom_site_type_symbol
 _atom_site_label
 _atom_site_symmetry_multiplicity
 _atom_site_fract_x
 _atom_site_fract_y
 _atom_site_fract_z
 _atom_site_occupancy
  Hf  Hf0  1  0.236024  0.000008  0.249771  1
  Hf  Hf1  1  0.763983  0.000008  0.750229  1
  Hf  Hf2  1  0.999992  0.236017  0.249771  1
  Hf  Hf3  1  0.999992  0.763976  0.750229  1
  Hf  Hf4  1  0.763983  0.763976  0.249771  1
  Hf  Hf5  1  0.236024  0.236017  0.750229  1
  Hf  Hf6  1  0.666667  0.333333  0.500000  1
  Hf  Hf7  1  0.333333  0.666667  0.500000  1
  Ti  Ti8  1  0.333333  0.666667  0.000000  1
  Si  Si9  1  0.592197  0.000209  0.231542  1
  Si  Si10  1  0.408012  0.000209  0.768458  1
  Si  Si11  1  0.999791  0.591988  0.231542  1
  Si  Si12  1  0.999791  0.407803  0.768458  1
  Si  Si13  1  0.408012  0.407803  0.231542  1
  Si  Si14  1  0.592197  0.591988  0.768458  1
  Mo  Mo15  1  0.666667  0.333333  0.000000  1
  N  N16  1  0.000000  0.000000  0.000000  1
  N  N17  1  0.000000  0.000000  0.500000  1
