# generated using pymatgen
data_Tm3Ga3(FeO6)2
_symmetry_space_group_name_H-M   'P 1'
_cell_length_a   10.80591033
_cell_length_b   10.80590962
_cell_length_c   10.80591000
_cell_angle_alpha   109.47122135
_cell_angle_beta   109.47122002
_cell_angle_gamma   109.47122259
_symmetry_Int_Tables_number   1
_chemical_formula_structural   Tm3Ga3(FeO6)2
_chemical_formula_sum   'Tm12 Ga12 Fe8 O48'
_cell_volume   971.31955983
_cell_formula_units_Z   4
loop_
 _symmetry_equiv_pos_site_id
 _symmetry_equiv_pos_as_xyz
  1  'x, y, z'
loop_
 _atom_site_type_symbol
 _atom_site_label
 _atom_site_symmetry_multiplicity
 _atom_site_fract_x
 _atom_site_fract_y
 _atom_site_fract_z
 _atom_site_occupancy
  Tm  Tm0  1  0.250000  0.375000  0.125000  1
  Tm  Tm1  1  0.750000  0.625000  0.875000  1
  Tm  Tm2  1  0.750000  0.125000  0.375000  1
  Tm  Tm3  1  0.125000  0.250000  0.375000  1
  Tm  Tm4  1  0.375000  0.750000  0.125000  1
  Tm  Tm5  1  0.250000  0.875000  0.625000  1
  Tm  Tm6  1  0.875000  0.750000  0.625000  1
  Tm  Tm7  1  0.625000  0.250000  0.875000  1
  Tm  Tm8  1  0.375000  0.125000  0.250000  1
  Tm  Tm9  1  0.625000  0.875000  0.750000  1
  Tm  Tm10  1  0.125000  0.375000  0.750000  1
  Tm  Tm11  1  0.875000  0.625000  0.250000  1
  Ga  Ga12  1  0.250000  0.625000  0.375000  1
  Ga  Ga13  1  0.750000  0.375000  0.625000  1
  Ga  Ga14  1  0.750000  0.875000  0.125000  1
  Ga  Ga15  1  0.375000  0.250000  0.625000  1
  Ga  Ga16  1  0.625000  0.750000  0.375000  1
  Ga  Ga17  1  0.250000  0.125000  0.875000  1
  Ga  Ga18  1  0.125000  0.750000  0.875000  1
  Ga  Ga19  1  0.875000  0.250000  0.125000  1
  Ga  Ga20  1  0.625000  0.375000  0.250000  1
  Ga  Ga21  1  0.375000  0.625000  0.750000  1
  Ga  Ga22  1  0.875000  0.125000  0.750000  1
  Ga  Ga23  1  0.125000  0.875000  0.250000  1
  Fe  Fe24  1  0.000000  0.000000  0.000000  1
  Fe  Fe25  1  0.500000  0.000000  0.500000  1
  Fe  Fe26  1  0.000000  0.500000  0.500000  1
  Fe  Fe27  1  0.500000  0.000000  0.000000  1
  Fe  Fe28  1  0.500000  0.500000  0.000000  1
  Fe  Fe29  1  0.500000  0.500000  0.500000  1
  Fe  Fe30  1  0.000000  0.000000  0.500000  1
  Fe  Fe31  1  0.000000  0.500000  0.000000  1
  O  O32  1  0.468816  0.373561  0.290200  1
  O  O33  1  0.531184  0.626439  0.709800  1
  O  O34  1  0.583360  0.178615  0.209800  1
  O  O35  1  0.916640  0.126439  0.595255  1
  O  O36  1  0.290200  0.468816  0.373561  1
  O  O37  1  0.321385  0.916640  0.290200  1
  O  O38  1  0.416640  0.821385  0.790200  1
  O  O39  1  0.083360  0.873561  0.404745  1
  O  O40  1  0.709800  0.531184  0.626439  1
  O  O41  1  0.678615  0.083360  0.709800  1
  O  O42  1  0.031184  0.321385  0.904745  1
  O  O43  1  0.209800  0.583360  0.178615  1
  O  O44  1  0.126439  0.031184  0.209800  1
  O  O45  1  0.968816  0.678615  0.095255  1
  O  O46  1  0.790200  0.416640  0.821385  1
  O  O47  1  0.873561  0.968816  0.790200  1
  O  O48  1  0.595255  0.916640  0.126439  1
  O  O49  1  0.178615  0.468816  0.595255  1
  O  O50  1  0.404745  0.083360  0.873561  1
  O  O51  1  0.821385  0.531184  0.404745  1
  O  O52  1  0.904745  0.031184  0.321385  1
  O  O53  1  0.373561  0.583360  0.904745  1
  O  O54  1  0.095255  0.968816  0.678615  1
  O  O55  1  0.626439  0.416640  0.095255  1
  O  O56  1  0.373561  0.290200  0.468816  1
  O  O57  1  0.583360  0.904745  0.373561  1
  O  O58  1  0.626439  0.709800  0.531184  1
  O  O59  1  0.416640  0.095255  0.626439  1
  O  O60  1  0.126439  0.595255  0.916640  1
  O  O61  1  0.031184  0.209800  0.126439  1
  O  O62  1  0.873561  0.404745  0.083360  1
  O  O63  1  0.968816  0.790200  0.873561  1
  O  O64  1  0.321385  0.904745  0.031184  1
  O  O65  1  0.916640  0.290200  0.321385  1
  O  O66  1  0.678615  0.095255  0.968816  1
  O  O67  1  0.083360  0.709800  0.678615  1
  O  O68  1  0.178615  0.209800  0.583360  1
  O  O69  1  0.468816  0.595255  0.178615  1
  O  O70  1  0.821385  0.790200  0.416640  1
  O  O71  1  0.531184  0.404745  0.821385  1
  O  O72  1  0.290200  0.321385  0.916640  1
  O  O73  1  0.709800  0.678615  0.083360  1
  O  O74  1  0.209800  0.126439  0.031184  1
  O  O75  1  0.790200  0.873561  0.968816  1
  O  O76  1  0.904745  0.373561  0.583360  1
  O  O77  1  0.095255  0.626439  0.416640  1
  O  O78  1  0.595255  0.178615  0.468816  1
  O  O79  1  0.404745  0.821385  0.531184  1
