# generated using pymatgen
data_Th2InGaOs
_symmetry_space_group_name_H-M   'P 1'
_cell_length_a   7.80903100
_cell_length_b   7.84003800
_cell_length_c   3.99597300
_cell_angle_alpha   90.00000000
_cell_angle_beta   90.00000000
_cell_angle_gamma   90.00000000
_symmetry_Int_Tables_number   1
_chemical_formula_structural   Th2InGaOs
_chemical_formula_sum   'Th4 In2 Ga2 Os2'
_cell_volume   244.64585371
_cell_formula_units_Z   2
loop_
 _symmetry_equiv_pos_site_id
 _symmetry_equiv_pos_as_xyz
  1  'x, y, z'
loop_
 _atom_site_type_symbol
 _atom_site_label
 _atom_site_symmetry_multiplicity
 _atom_site_fract_x
 _atom_site_fract_y
 _atom_site_fract_z
 _atom_site_occupancy
  Th  Th0  1  0.669277  0.194556  0.500000  1
  Th  Th1  1  0.169277  0.305444  0.500000  1
  Th  Th2  1  0.824743  0.652312  0.500000  1
  Th  Th3  1  0.324743  0.847688  0.500000  1
  In  In4  1  0.992618  0.999968  0.000000  1
  In  In5  1  0.492618  0.500032  0.000000  1
  Ga  Ga6  1  0.626427  0.880716  0.000000  1
  Ga  Ga7  1  0.126427  0.619284  0.000000  1
  Os  Os8  1  0.886934  0.383137  0.000000  1
  Os  Os9  1  0.386934  0.116863  0.000000  1
