# generated using pymatgen
data_Er6Ni19As13Pt
_symmetry_space_group_name_H-M   'P 1'
_cell_length_a   13.20443400
_cell_length_b   13.20443498
_cell_length_c   3.86496200
_cell_angle_alpha   90.00000000
_cell_angle_beta   90.00000000
_cell_angle_gamma   119.99999686
_symmetry_Int_Tables_number   1
_chemical_formula_structural   Er6Ni19As13Pt
_chemical_formula_sum   'Er6 Ni19 As13 Pt1'
_cell_volume   583.60027310
_cell_formula_units_Z   1
loop_
 _symmetry_equiv_pos_site_id
 _symmetry_equiv_pos_as_xyz
  1  'x, y, z'
loop_
 _atom_site_type_symbol
 _atom_site_label
 _atom_site_symmetry_multiplicity
 _atom_site_fract_x
 _atom_site_fract_y
 _atom_site_fract_z
 _atom_site_occupancy
  Er  Er0  1  0.801507  0.949102  0.000000  1
  Er  Er1  1  0.050898  0.852406  0.000000  1
  Er  Er2  1  0.147594  0.198493  0.000000  1
  Er  Er3  1  0.523475  0.136887  0.500000  1
  Er  Er4  1  0.863113  0.386589  0.500000  1
  Er  Er5  1  0.613411  0.476525  0.500000  1
  Ni  Ni6  1  0.532358  0.774927  0.000000  1
  Ni  Ni7  1  0.225073  0.757431  0.000000  1
  Ni  Ni8  1  0.242569  0.467642  0.000000  1
  Ni  Ni9  1  0.402064  0.814328  0.500000  1
  Ni  Ni10  1  0.185672  0.587736  0.500000  1
  Ni  Ni11  1  0.412264  0.597936  0.500000  1
  Ni  Ni12  1  0.666667  0.333333  0.000000  1
  Ni  Ni13  1  0.765439  0.681906  0.000000  1
  Ni  Ni14  1  0.318094  0.083534  0.000000  1
  Ni  Ni15  1  0.916466  0.234561  0.000000  1
  Ni  Ni16  1  0.645051  0.734658  0.500000  1
  Ni  Ni17  1  0.265342  0.910393  0.500000  1
  Ni  Ni18  1  0.089607  0.354949  0.500000  1
  Ni  Ni19  1  0.357435  0.254962  0.500000  1
  Ni  Ni20  1  0.745038  0.102472  0.500000  1
  Ni  Ni21  1  0.897528  0.642565  0.500000  1
  Ni  Ni22  1  0.580456  0.989723  0.000000  1
  Ni  Ni23  1  0.010277  0.590733  0.000000  1
  Ni  Ni24  1  0.409267  0.419544  0.000000  1
  As  As25  1  0.847963  0.793138  0.500000  1
  As  As26  1  0.206862  0.054825  0.500000  1
  As  As27  1  0.945175  0.152037  0.500000  1
  As  As28  1  0.613748  0.899671  0.500000  1
  As  As29  1  0.100329  0.714075  0.500000  1
  As  As30  1  0.285925  0.386252  0.500000  1
  As  As31  1  0.473865  0.280549  0.000000  1
  As  As32  1  0.719451  0.193315  0.000000  1
  As  As33  1  0.806685  0.526135  0.000000  1
  As  As34  1  0.386945  0.949038  0.000000  1
  As  As35  1  0.050962  0.437908  0.000000  1
  As  As36  1  0.562092  0.613055  0.000000  1
  As  As37  1  0.333333  0.666667  0.000000  1
  Pt  Pt38  1  0.000000  0.000000  0.500000  1
