# generated using pymatgen
data_La4Y12Cd4TcNi3
_symmetry_space_group_name_H-M   'P 1'
_cell_length_a   9.76891872
_cell_length_b   9.76891938
_cell_length_c   9.76891870
_cell_angle_alpha   59.22198822
_cell_angle_beta   59.22198511
_cell_angle_gamma   59.22197164
_symmetry_Int_Tables_number   1
_chemical_formula_structural   La4Y12Cd4TcNi3
_chemical_formula_sum   'La4 Y12 Cd4 Tc1 Ni3'
_cell_volume   647.52739968
_cell_formula_units_Z   1
loop_
 _symmetry_equiv_pos_site_id
 _symmetry_equiv_pos_as_xyz
  1  'x, y, z'
loop_
 _atom_site_type_symbol
 _atom_site_label
 _atom_site_symmetry_multiplicity
 _atom_site_fract_x
 _atom_site_fract_y
 _atom_site_fract_z
 _atom_site_occupancy
  La  La0  1  0.599890  0.599890  0.599890  1
  La  La1  1  0.599476  0.599476  0.202956  1
  La  La2  1  0.599476  0.202956  0.599476  1
  La  La3  1  0.202956  0.599476  0.599476  1
  Y  Y4  1  0.064370  0.435664  0.435664  1
  Y  Y5  1  0.434996  0.062500  0.062500  1
  Y  Y6  1  0.435664  0.064370  0.435664  1
  Y  Y7  1  0.062500  0.434996  0.062500  1
  Y  Y8  1  0.435664  0.435664  0.064370  1
  Y  Y9  1  0.062500  0.062500  0.434996  1
  Y  Y10  1  0.183949  0.815981  0.815981  1
  Y  Y11  1  0.809580  0.185230  0.185230  1
  Y  Y12  1  0.815981  0.183949  0.815981  1
  Y  Y13  1  0.185230  0.809580  0.185230  1
  Y  Y14  1  0.815981  0.815981  0.183949  1
  Y  Y15  1  0.185230  0.185230  0.809580  1
  Cd  Cd16  1  0.830831  0.830831  0.830831  1
  Cd  Cd17  1  0.831182  0.831182  0.502541  1
  Cd  Cd18  1  0.831182  0.502541  0.831182  1
  Cd  Cd19  1  0.502541  0.831182  0.831182  1
  Tc  Tc20  1  0.395679  0.395679  0.395679  1
  Ni  Ni21  1  0.392416  0.392416  0.830307  1
  Ni  Ni22  1  0.392416  0.830307  0.392416  1
  Ni  Ni23  1  0.830307  0.392416  0.392416  1
