# generated using pymatgen
data_Hf4Nb3Si4Tc
_symmetry_space_group_name_H-M   'P 1'
_cell_length_a   3.56049800
_cell_length_b   6.99995685
_cell_length_c   8.35918642
_cell_angle_alpha   90.16769154
_cell_angle_beta   90.00000000
_cell_angle_gamma   90.00000000
_symmetry_Int_Tables_number   1
_chemical_formula_structural   Hf4Nb3Si4Tc
_chemical_formula_sum   'Hf4 Nb3 Si4 Tc1'
_cell_volume   208.33788916
_cell_formula_units_Z   1
loop_
 _symmetry_equiv_pos_site_id
 _symmetry_equiv_pos_as_xyz
  1  'x, y, z'
loop_
 _atom_site_type_symbol
 _atom_site_label
 _atom_site_symmetry_multiplicity
 _atom_site_fract_x
 _atom_site_fract_y
 _atom_site_fract_z
 _atom_site_occupancy
  Hf  Hf0  1  0.250000  0.545296  0.164440  1
  Hf  Hf1  1  0.250000  0.041841  0.331691  1
  Hf  Hf2  1  0.750000  0.457538  0.834231  1
  Hf  Hf3  1  0.750000  0.957745  0.669210  1
  Nb  Nb4  1  0.250000  0.637221  0.560758  1
  Nb  Nb5  1  0.250000  0.129387  0.939876  1
  Nb  Nb6  1  0.750000  0.367719  0.437573  1
  Si  Si7  1  0.250000  0.755999  0.865933  1
  Si  Si8  1  0.250000  0.254454  0.640390  1
  Si  Si9  1  0.750000  0.241935  0.140219  1
  Si  Si10  1  0.750000  0.747656  0.355083  1
  Tc  Tc11  1  0.750000  0.863208  0.060599  1
