# generated using pymatgen
data_Y8Hf3Si16Mo9
_symmetry_space_group_name_H-M   'P 1'
_cell_length_a   6.98697044
_cell_length_b   6.98697073
_cell_length_c   12.92707300
_cell_angle_alpha   89.93497608
_cell_angle_beta   90.06502173
_cell_angle_gamma   89.82180393
_symmetry_Int_Tables_number   1
_chemical_formula_structural   Y8Hf3Si16Mo9
_chemical_formula_sum   'Y8 Hf3 Si16 Mo9'
_cell_volume   631.06685306
_cell_formula_units_Z   1
loop_
 _symmetry_equiv_pos_site_id
 _symmetry_equiv_pos_as_xyz
  1  'x, y, z'
loop_
 _atom_site_type_symbol
 _atom_site_label
 _atom_site_symmetry_multiplicity
 _atom_site_fract_x
 _atom_site_fract_y
 _atom_site_fract_z
 _atom_site_occupancy
  Y  Y0  1  0.999603  0.338211  0.216657  1
  Y  Y1  1  0.004896  0.660095  0.720375  1
  Y  Y2  1  0.160428  0.496853  0.468309  1
  Y  Y3  1  0.500474  0.841557  0.031108  1
  Y  Y4  1  0.841557  0.500474  0.968892  1
  Y  Y5  1  0.496853  0.160428  0.531691  1
  Y  Y6  1  0.338211  0.999603  0.783343  1
  Y  Y7  1  0.660095  0.004896  0.279625  1
  Hf  Hf8  1  0.831571  0.831571  0.500000  1
  Hf  Hf9  1  0.329578  0.669470  0.247700  1
  Hf  Hf10  1  0.669470  0.329578  0.752300  1
  Si  Si11  1  0.370771  0.295435  0.316517  1
  Si  Si12  1  0.627322  0.705753  0.817121  1
  Si  Si13  1  0.204031  0.872023  0.567609  1
  Si  Si14  1  0.125410  0.804824  0.934975  1
  Si  Si15  1  0.804824  0.125410  0.065025  1
  Si  Si16  1  0.872023  0.204031  0.432391  1
  Si  Si17  1  0.295435  0.370771  0.683483  1
  Si  Si18  1  0.705753  0.627322  0.182879  1
  Si  Si19  1  0.286714  0.047059  0.183012  1
  Si  Si20  1  0.709794  0.957776  0.689053  1
  Si  Si21  1  0.456387  0.789776  0.437820  1
  Si  Si22  1  0.212724  0.533731  0.058362  1
  Si  Si23  1  0.533731  0.212724  0.941638  1
  Si  Si24  1  0.789776  0.456387  0.562180  1
  Si  Si25  1  0.047059  0.286714  0.816988  1
  Si  Si26  1  0.957776  0.709794  0.310947  1
  Mo  Mo27  1  0.168059  0.168059  0.000000  1
  Mo  Mo28  1  0.160418  0.994687  0.375255  1
  Mo  Mo29  1  0.833145  0.003488  0.877193  1
  Mo  Mo30  1  0.506526  0.659486  0.626592  1
  Mo  Mo31  1  0.344381  0.497545  0.873553  1
  Mo  Mo32  1  0.497545  0.344381  0.126447  1
  Mo  Mo33  1  0.659486  0.506526  0.373408  1
  Mo  Mo34  1  0.994687  0.160418  0.624745  1
  Mo  Mo35  1  0.003488  0.833145  0.122807  1
