# generated using pymatgen
data_LaHo(Al3Zn5)2
_symmetry_space_group_name_H-M   'P 1'
_cell_length_a   8.56542214
_cell_length_b   8.56542173
_cell_length_c   10.46785400
_cell_angle_alpha   114.15018721
_cell_angle_beta   114.15017865
_cell_angle_gamma   89.99999343
_symmetry_Int_Tables_number   1
_chemical_formula_structural   LaHo(Al3Zn5)2
_chemical_formula_sum   'La2 Ho2 Al12 Zn20'
_cell_volume   626.38256969
_cell_formula_units_Z   2
loop_
 _symmetry_equiv_pos_site_id
 _symmetry_equiv_pos_as_xyz
  1  'x, y, z'
loop_
 _atom_site_type_symbol
 _atom_site_label
 _atom_site_symmetry_multiplicity
 _atom_site_fract_x
 _atom_site_fract_y
 _atom_site_fract_z
 _atom_site_occupancy
  La  La0  1  0.500000  0.000000  0.000000  1
  La  La1  1  0.000000  0.500000  0.000000  1
  Ho  Ho2  1  0.721507  0.721507  0.443015  1
  Ho  Ho3  1  0.278492  0.278492  0.556985  1
  Al  Al4  1  0.369672  0.139263  0.278527  1
  Al  Al5  1  0.908855  0.139263  0.278527  1
  Al  Al6  1  0.139263  0.369672  0.278527  1
  Al  Al7  1  0.139263  0.908855  0.278527  1
  Al  Al8  1  0.000000  0.000000  0.500000  1
  Al  Al9  1  0.500000  0.000000  0.500000  1
  Al  Al10  1  0.000000  0.500000  0.500000  1
  Al  Al11  1  0.500000  0.500000  0.500000  1
  Al  Al12  1  0.860736  0.091146  0.721472  1
  Al  Al13  1  0.860736  0.630327  0.721472  1
  Al  Al14  1  0.091146  0.860736  0.721472  1
  Al  Al15  1  0.630327  0.860736  0.721472  1
  Zn  Zn16  1  0.151920  0.151920  0.000000  1
  Zn  Zn17  1  0.848080  0.151920  0.000000  1
  Zn  Zn18  1  0.151920  0.848080  0.000000  1
  Zn  Zn19  1  0.848080  0.848080  0.000000  1
  Zn  Zn20  1  0.417238  0.417238  0.157433  1
  Zn  Zn21  1  0.740196  0.417238  0.157433  1
  Zn  Zn22  1  0.417238  0.740196  0.157433  1
  Zn  Zn23  1  0.740196  0.740196  0.157433  1
  Zn  Zn24  1  0.673781  0.021807  0.347562  1
  Zn  Zn25  1  0.673781  0.325755  0.347562  1
  Zn  Zn26  1  0.021807  0.673781  0.347562  1
  Zn  Zn27  1  0.325755  0.673781  0.347562  1
  Zn  Zn28  1  0.674245  0.326219  0.652438  1
  Zn  Zn29  1  0.978193  0.326219  0.652438  1
  Zn  Zn30  1  0.326219  0.674245  0.652438  1
  Zn  Zn31  1  0.326219  0.978193  0.652438  1
  Zn  Zn32  1  0.259805  0.259805  0.842567  1
  Zn  Zn33  1  0.582763  0.259805  0.842567  1
  Zn  Zn34  1  0.259805  0.582763  0.842567  1
  Zn  Zn35  1  0.582763  0.582763  0.842567  1
