# generated using pymatgen
data_Ba12SnBi3I8
_symmetry_space_group_name_H-M   'P 1'
_cell_length_a   16.96291469
_cell_length_b   16.16798672
_cell_length_c   8.88462334
_cell_angle_alpha   79.45033026
_cell_angle_beta   69.55795950
_cell_angle_gamma   30.66689395
_symmetry_Int_Tables_number   1
_chemical_formula_structural   Ba12SnBi3I8
_chemical_formula_sum   'Ba12 Sn1 Bi3 I8'
_cell_volume   1128.90882804
_cell_formula_units_Z   1
loop_
 _symmetry_equiv_pos_site_id
 _symmetry_equiv_pos_as_xyz
  1  'x, y, z'
loop_
 _atom_site_type_symbol
 _atom_site_label
 _atom_site_symmetry_multiplicity
 _atom_site_fract_x
 _atom_site_fract_y
 _atom_site_fract_z
 _atom_site_occupancy
  Ba  Ba0  1  0.020921  0.479261  0.478340  1
  Ba  Ba1  1  0.772397  0.224196  0.226393  1
  Ba  Ba2  1  0.084892  0.592848  0.931938  1
  Ba  Ba3  1  0.853029  0.321201  0.664980  1
  Ba  Ba4  1  0.592848  0.084892  0.390324  1
  Ba  Ba5  1  0.158069  0.667664  0.315651  1
  Ba  Ba6  1  0.321201  0.853029  0.160789  1
  Ba  Ba7  1  0.397283  0.928186  0.585237  1
  Ba  Ba8  1  0.224196  0.772397  0.777013  1
  Ba  Ba9  1  0.479261  0.020921  0.021479  1
  Ba  Ba10  1  0.928186  0.397283  0.089296  1
  Ba  Ba11  1  0.667664  0.158069  0.858615  1
  Sn  Sn12  1  0.916431  0.916431  0.083569  1
  Bi  Bi13  1  0.333170  0.333170  0.166830  1
  Bi  Bi14  1  0.165976  0.165976  0.334024  1
  Bi  Bi15  1  0.084517  0.084517  0.915483  1
  I  I16  1  0.579770  0.579770  0.420230  1
  I  I17  1  0.670166  0.670166  0.829834  1
  I  I18  1  0.252053  0.252053  0.747947  1
  I  I19  1  0.419760  0.419760  0.580240  1
  I  I20  1  0.998687  0.998687  0.501313  1
  I  I21  1  0.747306  0.747306  0.252694  1
  I  I22  1  0.829622  0.829622  0.670378  1
  I  I23  1  0.502599  0.502599  0.997401  1
