# generated using pymatgen
data_Sr20Si11Au
_symmetry_space_group_name_H-M   'P 1'
_cell_length_a   8.13939800
_cell_length_b   8.13939800
_cell_length_c   15.76101300
_cell_angle_alpha   90.00000000
_cell_angle_beta   90.00000000
_cell_angle_gamma   90.00000000
_symmetry_Int_Tables_number   1
_chemical_formula_structural   Sr20Si11Au
_chemical_formula_sum   'Sr20 Si11 Au1'
_cell_volume   1044.16395593
_cell_formula_units_Z   1
loop_
 _symmetry_equiv_pos_site_id
 _symmetry_equiv_pos_as_xyz
  1  'x, y, z'
loop_
 _atom_site_type_symbol
 _atom_site_label
 _atom_site_symmetry_multiplicity
 _atom_site_fract_x
 _atom_site_fract_y
 _atom_site_fract_z
 _atom_site_occupancy
  Sr  Sr0  1  0.323105  0.677512  0.108453  1
  Sr  Sr1  1  0.177512  0.176895  0.108453  1
  Sr  Sr2  1  0.500000  0.000000  0.733509  1
  Sr  Sr3  1  0.325711  0.684854  0.391717  1
  Sr  Sr4  1  0.664722  0.688266  0.891390  1
  Sr  Sr5  1  0.184854  0.174289  0.391717  1
  Sr  Sr6  1  0.674289  0.315146  0.391717  1
  Sr  Sr7  1  0.173622  0.812012  0.608895  1
  Sr  Sr8  1  0.335278  0.311734  0.891390  1
  Sr  Sr9  1  0.188266  0.835278  0.891390  1
  Sr  Sr10  1  0.500000  0.000000  0.243633  1
  Sr  Sr11  1  0.826378  0.187988  0.608895  1
  Sr  Sr12  1  0.312012  0.326378  0.608895  1
  Sr  Sr13  1  0.815146  0.825711  0.391717  1
  Sr  Sr14  1  0.811734  0.164722  0.891390  1
  Sr  Sr15  1  0.822488  0.823105  0.108453  1
  Sr  Sr16  1  0.000000  0.500000  0.264600  1
  Sr  Sr17  1  0.000000  0.500000  0.760979  1
  Sr  Sr18  1  0.676895  0.322488  0.108453  1
  Sr  Sr19  1  0.687988  0.673622  0.608895  1
  Si  Si20  1  0.106497  0.108669  0.749847  1
  Si  Si21  1  0.391331  0.606497  0.749847  1
  Si  Si22  1  0.608854  0.605922  0.249852  1
  Si  Si23  1  0.500000  0.000000  0.006027  1
  Si  Si24  1  0.105922  0.891146  0.249852  1
  Si  Si25  1  0.608669  0.393503  0.749847  1
  Si  Si26  1  0.893503  0.891331  0.749847  1
  Si  Si27  1  0.391146  0.394078  0.249852  1
  Si  Si28  1  0.894078  0.108854  0.249852  1
  Si  Si29  1  0.500000  0.000000  0.503510  1
  Si  Si30  1  0.000000  0.500000  0.496229  1
  Au  Au31  1  0.000000  0.500000  0.990898  1
