# generated using pymatgen
data_Tb8Y2(SnSb)3
_symmetry_space_group_name_H-M   'P 1'
_cell_length_a   6.44714100
_cell_length_b   9.02823021
_cell_length_c   9.03180221
_cell_angle_alpha   119.98692154
_cell_angle_beta   89.99989345
_cell_angle_gamma   90.00021588
_symmetry_Int_Tables_number   1
_chemical_formula_structural   Tb8Y2(SnSb)3
_chemical_formula_sum   'Tb8 Y2 Sn3 Sb3'
_cell_volume   455.33607790
_cell_formula_units_Z   1
loop_
 _symmetry_equiv_pos_site_id
 _symmetry_equiv_pos_as_xyz
  1  'x, y, z'
loop_
 _atom_site_type_symbol
 _atom_site_label
 _atom_site_symmetry_multiplicity
 _atom_site_fract_x
 _atom_site_fract_y
 _atom_site_fract_z
 _atom_site_occupancy
  Tb  Tb0  1  0.500389  0.333343  0.666672  1
  Tb  Tb1  1  0.500389  0.666672  0.333328  1
  Tb  Tb2  1  0.999611  0.666673  0.333330  1
  Tb  Tb3  1  0.999611  0.333343  0.666670  1
  Tb  Tb4  1  0.750001  0.241763  0.000000  1
  Tb  Tb5  1  0.249997  0.757431  0.000000  1
  Tb  Tb6  1  0.250003  0.242548  0.242531  1
  Tb  Tb7  1  0.250003  0.000017  0.757469  1
  Y  Y8  1  0.750002  0.758218  0.758206  1
  Y  Y9  1  0.750002  0.000011  0.241794  1
  Sn  Sn10  1  0.749999  0.607666  0.000000  1
  Sn  Sn11  1  0.750001  0.392459  0.392518  1
  Sn  Sn12  1  0.750001  0.999940  0.607482  1
  Sb  Sb13  1  0.249992  0.390985  0.000000  1
  Sb  Sb14  1  0.250002  0.608963  0.608995  1
  Sb  Sb15  1  0.250002  0.999968  0.391005  1
