# generated using pymatgen
data_NdHoLuGa8Ag3
_symmetry_space_group_name_H-M   'P 1'
_cell_length_a   4.35093462
_cell_length_b   8.38872861
_cell_length_c   8.38872796
_cell_angle_alpha   69.38208720
_cell_angle_beta   74.96954677
_cell_angle_gamma   74.96954924
_symmetry_Int_Tables_number   1
_chemical_formula_structural   NdHoLuGa8Ag3
_chemical_formula_sum   'Nd1 Ho1 Lu1 Ga8 Ag3'
_cell_volume   271.94092753
_cell_formula_units_Z   1
loop_
 _symmetry_equiv_pos_site_id
 _symmetry_equiv_pos_as_xyz
  1  'x, y, z'
loop_
 _atom_site_type_symbol
 _atom_site_label
 _atom_site_symmetry_multiplicity
 _atom_site_fract_x
 _atom_site_fract_y
 _atom_site_fract_z
 _atom_site_occupancy
  Nd  Nd0  1  0.500142  0.499858  0.499858  1
  Ho  Ho1  1  0.199891  0.800109  0.800109  1
  Lu  Lu2  1  0.800624  0.199376  0.199376  1
  Ga  Ga3  1  0.355314  0.360482  0.928891  1
  Ga  Ga4  1  0.644363  0.638576  0.072699  1
  Ga  Ga5  1  0.355314  0.928891  0.360482  1
  Ga  Ga6  1  0.644363  0.072699  0.638576  1
  Ga  Ga7  1  0.161335  0.470383  0.206947  1
  Ga  Ga8  1  0.839609  0.528488  0.792293  1
  Ga  Ga9  1  0.161335  0.206947  0.470383  1
  Ga  Ga10  1  0.839609  0.792293  0.528488  1
  Ag  Ag11  1  0.499433  0.000567  0.000567  1
  Ag  Ag12  1  0.999333  0.805840  0.195493  1
  Ag  Ag13  1  0.999333  0.195493  0.805840  1
