# generated using pymatgen
data_Nd3Sm2Nb3(Co4P3)4
_symmetry_space_group_name_H-M   'P 1'
_cell_length_a   12.29668500
_cell_length_b   12.29946688
_cell_length_c   3.74217100
_cell_angle_alpha   90.00000000
_cell_angle_beta   90.00000000
_cell_angle_gamma   119.99251565
_symmetry_Int_Tables_number   1
_chemical_formula_structural   Nd3Sm2Nb3(Co4P3)4
_chemical_formula_sum   'Nd3 Sm2 Nb3 Co16 P12'
_cell_volume   490.18649773
_cell_formula_units_Z   1
loop_
 _symmetry_equiv_pos_site_id
 _symmetry_equiv_pos_as_xyz
  1  'x, y, z'
loop_
 _atom_site_type_symbol
 _atom_site_label
 _atom_site_symmetry_multiplicity
 _atom_site_fract_x
 _atom_site_fract_y
 _atom_site_fract_z
 _atom_site_occupancy
  Nd  Nd0  1  0.816146  0.000000  0.500000  1
  Nd  Nd1  1  0.333297  0.666840  0.000000  1
  Nd  Nd2  1  0.666459  0.333160  0.000000  1
  Sm  Sm3  1  0.000267  0.815756  0.500000  1
  Sm  Sm4  1  0.184511  0.184244  0.500000  1
  Nb  Nb5  1  0.442087  0.000000  0.000000  1
  Nb  Nb6  1  0.000231  0.443054  0.000000  1
  Nb  Nb7  1  0.557178  0.556946  0.000000  1
  Co  Co8  1  0.279385  0.000000  0.500000  1
  Co  Co9  1  0.000931  0.280625  0.500000  1
  Co  Co10  1  0.720307  0.719375  0.500000  1
  Co  Co11  1  0.625458  0.801839  0.000000  1
  Co  Co12  1  0.196974  0.823342  0.000000  1
  Co  Co13  1  0.177133  0.374167  0.000000  1
  Co  Co14  1  0.373632  0.176658  0.000000  1
  Co  Co15  1  0.802966  0.625833  0.000000  1
  Co  Co16  1  0.823619  0.198161  0.000000  1
  Co  Co17  1  0.520246  0.874977  0.500000  1
  Co  Co18  1  0.124769  0.645896  0.500000  1
  Co  Co19  1  0.354406  0.479320  0.500000  1
  Co  Co20  1  0.478874  0.354104  0.500000  1
  Co  Co21  1  0.875085  0.520680  0.500000  1
  Co  Co22  1  0.645269  0.125023  0.500000  1
  Co  Co23  1  0.000560  0.000000  0.000000  1
  P  P24  1  0.179642  0.000000  0.000000  1
  P  P25  1  0.001424  0.180999  0.000000  1
  P  P26  1  0.820425  0.819001  0.000000  1
  P  P27  1  0.524218  0.690142  0.500000  1
  P  P28  1  0.309622  0.834028  0.500000  1
  P  P29  1  0.166356  0.476352  0.500000  1
  P  P30  1  0.475594  0.165972  0.500000  1
  P  P31  1  0.690005  0.523648  0.500000  1
  P  P32  1  0.834076  0.309858  0.500000  1
  P  P33  1  0.639827  0.000000  0.000000  1
  P  P34  1  0.000053  0.641087  0.000000  1
  P  P35  1  0.358966  0.358913  0.000000  1
