# generated using pymatgen
data_Ca2Tb5Yb(Si3Pd)4
_symmetry_space_group_name_H-M   'P 1'
_cell_length_a   8.25033900
_cell_length_b   8.23172745
_cell_length_c   8.11822900
_cell_angle_alpha   90.00000000
_cell_angle_beta   90.00000000
_cell_angle_gamma   120.07482399
_symmetry_Int_Tables_number   1
_chemical_formula_structural   Ca2Tb5Yb(Si3Pd)4
_chemical_formula_sum   'Ca2 Tb5 Yb1 Si12 Pd4'
_cell_volume   477.11905767
_cell_formula_units_Z   1
loop_
 _symmetry_equiv_pos_site_id
 _symmetry_equiv_pos_as_xyz
  1  'x, y, z'
loop_
 _atom_site_type_symbol
 _atom_site_label
 _atom_site_symmetry_multiplicity
 _atom_site_fract_x
 _atom_site_fract_y
 _atom_site_fract_z
 _atom_site_occupancy
  Ca  Ca0  1  0.983570  0.491713  0.250000  1
  Ca  Ca1  1  0.508143  0.491713  0.250000  1
  Tb  Tb2  1  0.493401  0.986803  0.750000  1
  Tb  Tb3  1  0.012856  0.506577  0.750000  1
  Tb  Tb4  1  0.493720  0.506577  0.750000  1
  Tb  Tb5  1  0.000215  0.000432  0.250000  1
  Tb  Tb6  1  0.000074  0.000150  0.750000  1
  Yb  Yb7  1  0.507224  0.014449  0.250000  1
  Si  Si8  1  0.165118  0.330235  0.994057  1
  Si  Si9  1  0.834984  0.669969  0.994209  1
  Si  Si10  1  0.670743  0.835381  0.995791  1
  Si  Si11  1  0.834984  0.669969  0.505791  1
  Si  Si12  1  0.329428  0.164822  0.995478  1
  Si  Si13  1  0.165118  0.330235  0.505943  1
  Si  Si14  1  0.164639  0.835381  0.995791  1
  Si  Si15  1  0.329428  0.164822  0.504522  1
  Si  Si16  1  0.835394  0.164822  0.995478  1
  Si  Si17  1  0.670743  0.835381  0.504209  1
  Si  Si18  1  0.835394  0.164822  0.504522  1
  Si  Si19  1  0.164639  0.835381  0.504209  1
  Pd  Pd20  1  0.334139  0.668279  0.018760  1
  Pd  Pd21  1  0.665952  0.331903  0.969281  1
  Pd  Pd22  1  0.665952  0.331903  0.530719  1
  Pd  Pd23  1  0.334139  0.668279  0.481240  1
