# generated using pymatgen
data_Ta8Hg2Pb4O25
_symmetry_space_group_name_H-M   'P 1'
_cell_length_a   7.54287247
_cell_length_b   7.54287276
_cell_length_c   10.62183881
_cell_angle_alpha   89.61568424
_cell_angle_beta   89.61568803
_cell_angle_gamma   89.76340478
_symmetry_Int_Tables_number   1
_chemical_formula_structural   Ta8Hg2Pb4O25
_chemical_formula_sum   'Ta8 Hg2 Pb4 O25'
_cell_volume   604.29651636
_cell_formula_units_Z   1
loop_
 _symmetry_equiv_pos_site_id
 _symmetry_equiv_pos_as_xyz
  1  'x, y, z'
loop_
 _atom_site_type_symbol
 _atom_site_label
 _atom_site_symmetry_multiplicity
 _atom_site_fract_x
 _atom_site_fract_y
 _atom_site_fract_z
 _atom_site_occupancy
  Ta  Ta0  1  0.745803  0.003101  0.125819  1
  Ta  Ta1  1  0.502590  0.252272  0.379723  1
  Ta  Ta2  1  0.245350  0.002623  0.125079  1
  Ta  Ta3  1  0.241360  0.506344  0.620830  1
  Ta  Ta4  1  0.996899  0.254197  0.874181  1
  Ta  Ta5  1  0.997377  0.754650  0.874921  1
  Ta  Ta6  1  0.747728  0.497410  0.620277  1
  Ta  Ta7  1  0.493656  0.758640  0.379170  1
  Hg  Hg8  1  0.087635  0.096189  0.419208  1
  Hg  Hg9  1  0.903811  0.912365  0.580792  1
  Pb  Pb10  1  0.743649  0.506354  0.131016  1
  Pb  Pb11  1  0.493646  0.256351  0.868984  1
  Pb  Pb12  1  0.493908  0.750610  0.859568  1
  Pb  Pb13  1  0.249390  0.506092  0.140432  1
  O  O14  1  0.313125  0.322448  0.501802  1
  O  O15  1  0.990842  0.005926  0.177450  1
  O  O16  1  0.994074  0.009158  0.822550  1
  O  O17  1  0.804716  0.327447  0.755259  1
  O  O18  1  0.798126  0.201874  0.000000  1
  O  O19  1  0.795908  0.813262  0.997271  1
  O  O20  1  0.679353  0.320647  0.500000  1
  O  O21  1  0.497233  0.508991  0.699210  1
  O  O22  1  0.489335  0.013523  0.058318  1
  O  O23  1  0.491009  0.502767  0.300790  1
  O  O24  1  0.492701  0.507299  0.000000  1
  O  O25  1  0.286970  0.191040  0.260165  1
  O  O26  1  0.307720  0.814999  0.245821  1
  O  O27  1  0.311956  0.688044  0.500000  1
  O  O28  1  0.186738  0.204092  0.002729  1
  O  O29  1  0.184884  0.324452  0.756017  1
  O  O30  1  0.184626  0.815374  0.000000  1
  O  O31  1  0.995497  0.505610  0.569303  1
  O  O32  1  0.986477  0.510665  0.941682  1
  O  O33  1  0.808960  0.713030  0.739835  1
  O  O34  1  0.672553  0.195284  0.244741  1
  O  O35  1  0.675548  0.815116  0.243983  1
  O  O36  1  0.677552  0.686875  0.498198  1
  O  O37  1  0.494390  0.004503  0.430697  1
  O  O38  1  0.185001  0.692280  0.754179  1
