# generated using pymatgen
data_Pr6DyIrBr12
_symmetry_space_group_name_H-M   'P 1'
_cell_length_a   9.68353527
_cell_length_b   9.68353480
_cell_length_c   9.68353535
_cell_angle_alpha   107.31589288
_cell_angle_beta   107.31589279
_cell_angle_gamma   107.31587055
_symmetry_Int_Tables_number   1
_chemical_formula_structural   Pr6DyIrBr12
_chemical_formula_sum   'Pr6 Dy1 Ir1 Br12'
_cell_volume   749.60706599
_cell_formula_units_Z   1
loop_
 _symmetry_equiv_pos_site_id
 _symmetry_equiv_pos_as_xyz
  1  'x, y, z'
loop_
 _atom_site_type_symbol
 _atom_site_label
 _atom_site_symmetry_multiplicity
 _atom_site_fract_x
 _atom_site_fract_y
 _atom_site_fract_z
 _atom_site_occupancy
  Pr  Pr0  1  0.103706  0.314371  0.025735  1
  Pr  Pr1  1  0.314371  0.025736  0.103705  1
  Pr  Pr2  1  0.025736  0.103705  0.314372  1
  Pr  Pr3  1  0.974265  0.896295  0.685629  1
  Pr  Pr4  1  0.685629  0.974265  0.896295  1
  Pr  Pr5  1  0.896294  0.685629  0.974265  1
  Dy  Dy6  1  0.500000  0.500000  0.500000  1
  Ir  Ir7  1  0.000000  0.000000  0.000000  1
  Br  Br8  1  0.221673  0.685853  0.074506  1
  Br  Br9  1  0.465998  0.391080  0.181864  1
  Br  Br10  1  0.685854  0.074506  0.221673  1
  Br  Br11  1  0.925495  0.778327  0.314147  1
  Br  Br12  1  0.181864  0.465998  0.391080  1
  Br  Br13  1  0.391080  0.181864  0.465998  1
  Br  Br14  1  0.608920  0.818136  0.534003  1
  Br  Br15  1  0.818137  0.534002  0.608920  1
  Br  Br16  1  0.074506  0.221673  0.685854  1
  Br  Br17  1  0.314147  0.925495  0.778327  1
  Br  Br18  1  0.534002  0.608920  0.818137  1
  Br  Br19  1  0.778327  0.314147  0.925494  1
