# generated using pymatgen
data_Nd5InIrO12
_symmetry_space_group_name_H-M   'P 1'
_cell_length_a   7.15209790
_cell_length_b   7.15209633
_cell_length_c   7.61554945
_cell_angle_alpha   74.48664216
_cell_angle_beta   74.48664382
_cell_angle_gamma   51.44042639
_symmetry_Int_Tables_number   1
_chemical_formula_structural   Nd5InIrO12
_chemical_formula_sum   'Nd5 In1 Ir1 O12'
_cell_volume   290.88276324
_cell_formula_units_Z   1
loop_
 _symmetry_equiv_pos_site_id
 _symmetry_equiv_pos_as_xyz
  1  'x, y, z'
loop_
 _atom_site_type_symbol
 _atom_site_label
 _atom_site_symmetry_multiplicity
 _atom_site_fract_x
 _atom_site_fract_y
 _atom_site_fract_z
 _atom_site_occupancy
  Nd  Nd0  1  0.302809  0.300403  0.360206  1
  Nd  Nd1  1  0.699597  0.697191  0.639794  1
  Nd  Nd2  1  0.689349  0.699218  0.167589  1
  Nd  Nd3  1  0.300782  0.310651  0.832411  1
  Nd  Nd4  1  0.010604  0.989396  0.500000  1
  In  In5  1  0.760550  0.239450  0.000000  1
  Ir  Ir6  1  0.248415  0.751585  0.000000  1
  O  O7  1  0.095943  0.596922  0.573127  1
  O  O8  1  0.030069  0.969481  0.183751  1
  O  O9  1  0.403078  0.904057  0.426873  1
  O  O10  1  0.475989  0.525330  0.183041  1
  O  O11  1  0.100625  0.582311  0.081573  1
  O  O12  1  0.904943  0.402724  0.422667  1
  O  O13  1  0.030519  0.969931  0.816249  1
  O  O14  1  0.597276  0.095056  0.577333  1
  O  O15  1  0.474670  0.524011  0.816959  1
  O  O16  1  0.558682  0.101588  0.083491  1
  O  O17  1  0.417689  0.899375  0.918427  1
  O  O18  1  0.898412  0.441318  0.916509  1
