# generated using pymatgen
data_Sc4Ru3Pt
_symmetry_space_group_name_H-M   'P 1'
_cell_length_a   5.59893981
_cell_length_b   5.59894022
_cell_length_c   5.59894063
_cell_angle_alpha   109.44684272
_cell_angle_beta   109.44684434
_cell_angle_gamma   109.51997790
_symmetry_Int_Tables_number   1
_chemical_formula_structural   Sc4Ru3Pt
_chemical_formula_sum   'Sc4 Ru3 Pt1'
_cell_volume   135.11246193
_cell_formula_units_Z   1
loop_
 _symmetry_equiv_pos_site_id
 _symmetry_equiv_pos_as_xyz
  1  'x, y, z'
loop_
 _atom_site_type_symbol
 _atom_site_label
 _atom_site_symmetry_multiplicity
 _atom_site_fract_x
 _atom_site_fract_y
 _atom_site_fract_z
 _atom_site_occupancy
  Sc  Sc0  1  0.750520  0.249479  0.000000  1
  Sc  Sc1  1  0.249479  0.750520  0.000000  1
  Sc  Sc2  1  0.249480  0.249480  0.498961  1
  Sc  Sc3  1  0.750520  0.750520  0.501040  1
  Ru  Ru4  1  0.251049  0.251049  0.000000  1
  Ru  Ru5  1  0.748952  0.748952  0.000000  1
  Ru  Ru6  1  0.750001  0.250001  0.500001  1
  Pt  Pt7  1  0.250001  0.750001  0.500001  1
