# generated using pymatgen
data_Dy2Sc2ReB12Ru
_symmetry_space_group_name_H-M   'P 1'
_cell_length_a   3.57801700
_cell_length_b   8.98724647
_cell_length_c   11.37925939
_cell_angle_alpha   90.10069023
_cell_angle_beta   90.00000000
_cell_angle_gamma   90.00000000
_symmetry_Int_Tables_number   1
_chemical_formula_structural   Dy2Sc2ReB12Ru
_chemical_formula_sum   'Dy4 Sc4 Re2 B24 Ru2'
_cell_volume   365.91682462
_cell_formula_units_Z   2
loop_
 _symmetry_equiv_pos_site_id
 _symmetry_equiv_pos_as_xyz
  1  'x, y, z'
loop_
 _atom_site_type_symbol
 _atom_site_label
 _atom_site_symmetry_multiplicity
 _atom_site_fract_x
 _atom_site_fract_y
 _atom_site_fract_z
 _atom_site_occupancy
  Dy  Dy0  1  0.000000  0.319938  0.413611  1
  Dy  Dy1  1  0.000000  0.680062  0.586389  1
  Dy  Dy2  1  0.000000  0.822553  0.085099  1
  Dy  Dy3  1  0.000000  0.177447  0.914901  1
  Sc  Sc4  1  0.000000  0.945545  0.371375  1
  Sc  Sc5  1  0.000000  0.054455  0.628625  1
  Sc  Sc6  1  0.000000  0.443524  0.128474  1
  Sc  Sc7  1  0.000000  0.556476  0.871526  1
  Re  Re8  1  0.000000  0.140614  0.181951  1
  Re  Re9  1  0.000000  0.859386  0.818049  1
  B  B10  1  0.500000  0.555301  0.432528  1
  B  B11  1  0.500000  0.444699  0.567472  1
  B  B12  1  0.500000  0.054506  0.067271  1
  B  B13  1  0.500000  0.945494  0.932729  1
  B  B14  1  0.500000  0.753738  0.417998  1
  B  B15  1  0.500000  0.246262  0.582002  1
  B  B16  1  0.500000  0.254022  0.081631  1
  B  B17  1  0.500000  0.745978  0.918369  1
  B  B18  1  0.500000  0.793808  0.265167  1
  B  B19  1  0.500000  0.206192  0.734833  1
  B  B20  1  0.500000  0.295147  0.235549  1
  B  B21  1  0.500000  0.704853  0.764451  1
  B  B22  1  0.500000  0.628899  0.183311  1
  B  B23  1  0.500000  0.371101  0.816689  1
  B  B24  1  0.500000  0.129327  0.317322  1
  B  B25  1  0.500000  0.870673  0.682678  1
  B  B26  1  0.500000  0.981481  0.214245  1
  B  B27  1  0.500000  0.018519  0.785755  1
  B  B28  1  0.500000  0.482375  0.286270  1
  B  B29  1  0.500000  0.517625  0.713730  1
  B  B30  1  0.500000  0.597020  0.026448  1
  B  B31  1  0.500000  0.402980  0.973552  1
  B  B32  1  0.500000  0.097714  0.473820  1
  B  B33  1  0.500000  0.902286  0.526180  1
  Ru  Ru34  1  0.000000  0.640319  0.318751  1
  Ru  Ru35  1  0.000000  0.359681  0.681249  1
