# generated using pymatgen
data_YbSb2PbO7
_symmetry_space_group_name_H-M   'P 1'
_cell_length_a   7.48710341
_cell_length_b   7.48710420
_cell_length_c   7.48710528
_cell_angle_alpha   120.52875585
_cell_angle_beta   118.31560796
_cell_angle_gamma   91.01425522
_symmetry_Int_Tables_number   1
_chemical_formula_structural   YbSb2PbO7
_chemical_formula_sum   'Yb2 Sb4 Pb2 O14'
_cell_volume   299.17915523
_cell_formula_units_Z   2
loop_
 _symmetry_equiv_pos_site_id
 _symmetry_equiv_pos_as_xyz
  1  'x, y, z'
loop_
 _atom_site_type_symbol
 _atom_site_label
 _atom_site_symmetry_multiplicity
 _atom_site_fract_x
 _atom_site_fract_y
 _atom_site_fract_z
 _atom_site_occupancy
  Yb  Yb0  1  0.000000  0.000000  0.000000  1
  Yb  Yb1  1  0.500000  0.500000  0.000000  1
  Sb  Sb2  1  0.500000  0.000000  0.000000  1
  Sb  Sb3  1  0.500000  0.500000  0.500000  1
  Sb  Sb4  1  0.500000  0.000000  0.500000  1
  Sb  Sb5  1  0.000000  0.500000  0.500000  1
  Pb  Pb6  1  0.000000  0.000000  0.500000  1
  Pb  Pb7  1  0.000000  0.500000  0.000000  1
  O  O8  1  0.447398  0.093094  0.775105  1
  O  O9  1  0.552602  0.327707  0.645696  1
  O  O10  1  0.182012  0.406907  0.354304  1
  O  O11  1  0.817987  0.172293  0.224895  1
  O  O12  1  0.552602  0.906907  0.224895  1
  O  O13  1  0.447398  0.672293  0.354304  1
  O  O14  1  0.817988  0.593093  0.645696  1
  O  O15  1  0.182013  0.827707  0.775105  1
  O  O16  1  0.598153  0.750001  0.848154  1
  O  O17  1  0.401847  0.249999  0.151846  1
  O  O18  1  0.188373  0.918178  0.270196  1
  O  O19  1  0.811627  0.081822  0.729804  1
  O  O20  1  0.852018  0.581823  0.270196  1
  O  O21  1  0.147982  0.418177  0.729804  1
