# generated using pymatgen
data_Re4(TcB)3
_symmetry_space_group_name_H-M   'P 1'
_cell_length_a   7.52285415
_cell_length_b   7.52285394
_cell_length_c   4.91286200
_cell_angle_alpha   90.00000000
_cell_angle_beta   90.00000000
_cell_angle_gamma   119.81178514
_symmetry_Int_Tables_number   1
_chemical_formula_structural   Re4(TcB)3
_chemical_formula_sum   'Re8 Tc6 B6'
_cell_volume   241.24094526
_cell_formula_units_Z   2
loop_
 _symmetry_equiv_pos_site_id
 _symmetry_equiv_pos_as_xyz
  1  'x, y, z'
loop_
 _atom_site_type_symbol
 _atom_site_label
 _atom_site_symmetry_multiplicity
 _atom_site_fract_x
 _atom_site_fract_y
 _atom_site_fract_z
 _atom_site_occupancy
  Re  Re0  1  0.545392  0.454608  0.047863  1
  Re  Re1  1  0.454608  0.545392  0.547863  1
  Re  Re2  1  0.546134  0.091581  0.049270  1
  Re  Re3  1  0.908419  0.453866  0.049270  1
  Re  Re4  1  0.091581  0.546134  0.549270  1
  Re  Re5  1  0.453866  0.908419  0.549270  1
  Re  Re6  1  0.122230  0.877770  0.252104  1
  Re  Re7  1  0.877770  0.122230  0.752104  1
  Tc  Tc8  1  0.123198  0.245946  0.252041  1
  Tc  Tc9  1  0.754054  0.876802  0.252041  1
  Tc  Tc10  1  0.245946  0.123198  0.752041  1
  Tc  Tc11  1  0.876802  0.754054  0.752041  1
  Tc  Tc12  1  0.332934  0.667066  0.085175  1
  Tc  Tc13  1  0.667066  0.332934  0.585175  1
  B  B14  1  0.810370  0.620748  0.341203  1
  B  B15  1  0.188895  0.811105  0.841807  1
  B  B16  1  0.811105  0.188895  0.341807  1
  B  B17  1  0.379252  0.189630  0.341203  1
  B  B18  1  0.620748  0.810370  0.841203  1
  B  B19  1  0.189630  0.379252  0.841203  1
