# generated using pymatgen
data_Tb16CdCo2Hg3Ru2
_symmetry_space_group_name_H-M   'P 1'
_cell_length_a   9.66466969
_cell_length_b   9.57595775
_cell_length_c   9.57575937
_cell_angle_alpha   59.51472417
_cell_angle_beta   59.69211260
_cell_angle_gamma   59.69305777
_symmetry_Int_Tables_number   1
_chemical_formula_structural   Tb16CdCo2Hg3Ru2
_chemical_formula_sum   'Tb16 Cd1 Co2 Hg3 Ru2'
_cell_volume   621.42755017
_cell_formula_units_Z   1
loop_
 _symmetry_equiv_pos_site_id
 _symmetry_equiv_pos_as_xyz
  1  'x, y, z'
loop_
 _atom_site_type_symbol
 _atom_site_label
 _atom_site_symmetry_multiplicity
 _atom_site_fract_x
 _atom_site_fract_y
 _atom_site_fract_z
 _atom_site_occupancy
  Tb  Tb0  1  0.440795  0.436300  0.057072  1
  Tb  Tb1  1  0.590589  0.599323  0.599723  1
  Tb  Tb2  1  0.186572  0.813261  0.813598  1
  Tb  Tb3  1  0.064958  0.056602  0.437271  1
  Tb  Tb4  1  0.440322  0.059713  0.059636  1
  Tb  Tb5  1  0.814510  0.187668  0.808863  1
  Tb  Tb6  1  0.441162  0.056605  0.437271  1
  Tb  Tb7  1  0.594554  0.206579  0.604314  1
  Tb  Tb8  1  0.814305  0.808696  0.188988  1
  Tb  Tb9  1  0.210367  0.599325  0.599722  1
  Tb  Tb10  1  0.808252  0.191121  0.192366  1
  Tb  Tb11  1  0.061635  0.438159  0.438567  1
  Tb  Tb12  1  0.188027  0.808676  0.188995  1
  Tb  Tb13  1  0.593978  0.603669  0.208374  1
  Tb  Tb14  1  0.188976  0.187676  0.808841  1
  Tb  Tb15  1  0.065828  0.436301  0.057067  1
  Cd  Cd16  1  0.830519  0.510939  0.828015  1
  Co  Co17  1  0.388108  0.829972  0.393815  1
  Co  Co18  1  0.388182  0.393424  0.830211  1
  Hg  Hg19  1  0.835620  0.831364  0.497387  1
  Hg  Hg20  1  0.835868  0.832333  0.834233  1
  Hg  Hg21  1  0.497569  0.832326  0.834231  1
  Ru  Ru22  1  0.389139  0.389983  0.390718  1
  Ru  Ru23  1  0.830163  0.389984  0.390721  1
