# generated using pymatgen
data_LaNdMg2(SnH)2
_symmetry_space_group_name_H-M   'P 1'
_cell_length_a   4.50848100
_cell_length_b   8.12532814
_cell_length_c   9.15608155
_cell_angle_alpha   90.19760151
_cell_angle_beta   90.00000000
_cell_angle_gamma   90.00000000
_symmetry_Int_Tables_number   1
_chemical_formula_structural   LaNdMg2(SnH)2
_chemical_formula_sum   'La2 Nd2 Mg4 Sn4 H4'
_cell_volume   335.41171083
_cell_formula_units_Z   2
loop_
 _symmetry_equiv_pos_site_id
 _symmetry_equiv_pos_as_xyz
  1  'x, y, z'
loop_
 _atom_site_type_symbol
 _atom_site_label
 _atom_site_symmetry_multiplicity
 _atom_site_fract_x
 _atom_site_fract_y
 _atom_site_fract_z
 _atom_site_occupancy
  La  La0  1  0.250000  0.013288  0.329076  1
  La  La1  1  0.750000  0.986712  0.670924  1
  Nd  Nd2  1  0.750000  0.484928  0.834719  1
  Nd  Nd3  1  0.250000  0.515072  0.165281  1
  Mg  Mg4  1  0.750000  0.335211  0.426606  1
  Mg  Mg5  1  0.250000  0.664789  0.573394  1
  Mg  Mg6  1  0.250000  0.170557  0.925685  1
  Mg  Mg7  1  0.750000  0.829443  0.074315  1
  Sn  Sn8  1  0.750000  0.203251  0.114512  1
  Sn  Sn9  1  0.250000  0.796749  0.885488  1
  Sn  Sn10  1  0.250000  0.299106  0.619615  1
  Sn  Sn11  1  0.750000  0.700894  0.380385  1
  H  H12  1  0.250000  0.926902  0.573121  1
  H  H13  1  0.750000  0.073098  0.426879  1
  H  H14  1  0.750000  0.565754  0.072330  1
  H  H15  1  0.250000  0.434246  0.927670  1
