# generated using pymatgen
data_TbZn6(Ga2Cu)2
_symmetry_space_group_name_H-M   'P 1'
_cell_length_a   6.73197235
_cell_length_b   6.73659811
_cell_length_c   6.73659800
_cell_angle_alpha   98.73937160
_cell_angle_beta   99.06670678
_cell_angle_gamma   133.71392829
_symmetry_Int_Tables_number   1
_chemical_formula_structural   TbZn6(Ga2Cu)2
_chemical_formula_sum   'Tb1 Zn6 Ga4 Cu2'
_cell_volume   202.98003119
_cell_formula_units_Z   1
loop_
 _symmetry_equiv_pos_site_id
 _symmetry_equiv_pos_as_xyz
  1  'x, y, z'
loop_
 _atom_site_type_symbol
 _atom_site_label
 _atom_site_symmetry_multiplicity
 _atom_site_fract_x
 _atom_site_fract_y
 _atom_site_fract_z
 _atom_site_occupancy
  Tb  Tb0  1  0.000000  0.000000  0.000000  1
  Zn  Zn1  1  0.000000  0.000000  0.500000  1
  Zn  Zn2  1  0.000000  0.500000  0.000000  1
  Zn  Zn3  1  0.500000  0.286950  0.786950  1
  Zn  Zn4  1  0.500000  0.713050  0.213050  1
  Zn  Zn5  1  0.704418  0.492031  0.212387  1
  Zn  Zn6  1  0.295582  0.507969  0.787613  1
  Ga  Ga7  1  0.000000  0.349539  0.349539  1
  Ga  Ga8  1  0.000000  0.650461  0.650461  1
  Ga  Ga9  1  0.634172  0.984114  0.650059  1
  Ga  Ga10  1  0.365828  0.015886  0.349941  1
  Cu  Cu11  1  0.500000  0.500000  0.500000  1
  Cu  Cu12  1  0.500000  0.000000  0.000000  1
