# generated using pymatgen
data_Y16MgTl(Ni2Ag)2
_symmetry_space_group_name_H-M   'P 1'
_cell_length_a   9.60259572
_cell_length_b   9.57085374
_cell_length_c   9.57085334
_cell_angle_alpha   60.03561227
_cell_angle_beta   60.00114679
_cell_angle_gamma   60.00115254
_symmetry_Int_Tables_number   1
_chemical_formula_structural   Y16MgTl(Ni2Ag)2
_chemical_formula_sum   'Y16 Mg1 Tl1 Ni4 Ag2'
_cell_volume   622.15599176
_cell_formula_units_Z   1
loop_
 _symmetry_equiv_pos_site_id
 _symmetry_equiv_pos_as_xyz
  1  'x, y, z'
loop_
 _atom_site_type_symbol
 _atom_site_label
 _atom_site_symmetry_multiplicity
 _atom_site_fract_x
 _atom_site_fract_y
 _atom_site_fract_z
 _atom_site_occupancy
  Y  Y0  1  0.060039  0.440545  0.440545  1
  Y  Y1  1  0.439144  0.061057  0.061057  1
  Y  Y2  1  0.437172  0.063018  0.438427  1
  Y  Y3  1  0.059279  0.440490  0.060382  1
  Y  Y4  1  0.437172  0.438427  0.063018  1
  Y  Y5  1  0.059279  0.060382  0.440490  1
  Y  Y6  1  0.186339  0.815597  0.815597  1
  Y  Y7  1  0.811438  0.187614  0.187614  1
  Y  Y8  1  0.813727  0.192820  0.814829  1
  Y  Y9  1  0.185064  0.813043  0.188640  1
  Y  Y10  1  0.813727  0.814829  0.192820  1
  Y  Y11  1  0.185064  0.188640  0.813043  1
  Y  Y12  1  0.593253  0.595865  0.595865  1
  Y  Y13  1  0.601184  0.600271  0.201832  1
  Y  Y14  1  0.601184  0.201832  0.600271  1
  Y  Y15  1  0.193275  0.603062  0.603062  1
  Mg  Mg16  1  0.532354  0.818487  0.818487  1
  Tl  Tl17  1  0.833823  0.832229  0.832229  1
  Ni  Ni18  1  0.391979  0.394939  0.394939  1
  Ni  Ni19  1  0.388611  0.392431  0.823443  1
  Ni  Ni20  1  0.388611  0.823443  0.392431  1
  Ni  Ni21  1  0.823208  0.391615  0.391615  1
  Ag  Ag22  1  0.832535  0.831720  0.497642  1
  Ag  Ag23  1  0.832535  0.497642  0.831720  1
