# generated using pymatgen
data_TbYbSm2(B6Os)2
_symmetry_space_group_name_H-M   'P 1'
_cell_length_a   3.69333900
_cell_length_b   9.19586705
_cell_length_c   11.59607684
_cell_angle_alpha   89.90672469
_cell_angle_beta   90.00000000
_cell_angle_gamma   90.00000000
_symmetry_Int_Tables_number   1
_chemical_formula_structural   TbYbSm2(B6Os)2
_chemical_formula_sum   'Tb2 Yb2 Sm4 B24 Os4'
_cell_volume   393.84230515
_cell_formula_units_Z   2
loop_
 _symmetry_equiv_pos_site_id
 _symmetry_equiv_pos_as_xyz
  1  'x, y, z'
loop_
 _atom_site_type_symbol
 _atom_site_label
 _atom_site_symmetry_multiplicity
 _atom_site_fract_x
 _atom_site_fract_y
 _atom_site_fract_z
 _atom_site_occupancy
  Tb  Tb0  1  0.000000  0.443084  0.129332  1
  Tb  Tb1  1  0.000000  0.556916  0.870668  1
  Yb  Yb2  1  0.000000  0.942686  0.370875  1
  Yb  Yb3  1  0.000000  0.057314  0.629125  1
  Sm  Sm4  1  0.000000  0.321203  0.414459  1
  Sm  Sm5  1  0.000000  0.678797  0.585541  1
  Sm  Sm6  1  0.000000  0.823794  0.086954  1
  Sm  Sm7  1  0.000000  0.176206  0.913046  1
  B  B8  1  0.500000  0.555710  0.431822  1
  B  B9  1  0.500000  0.444290  0.568178  1
  B  B10  1  0.500000  0.054385  0.069376  1
  B  B11  1  0.500000  0.945615  0.930624  1
  B  B12  1  0.500000  0.750533  0.417703  1
  B  B13  1  0.500000  0.249467  0.582297  1
  B  B14  1  0.500000  0.247878  0.082430  1
  B  B15  1  0.500000  0.752122  0.917570  1
  B  B16  1  0.500000  0.791615  0.267659  1
  B  B17  1  0.500000  0.208385  0.732341  1
  B  B18  1  0.500000  0.288730  0.233866  1
  B  B19  1  0.500000  0.711270  0.766134  1
  B  B20  1  0.500000  0.631792  0.187141  1
  B  B21  1  0.500000  0.368208  0.812859  1
  B  B22  1  0.500000  0.128689  0.314757  1
  B  B23  1  0.500000  0.871311  0.685243  1
  B  B24  1  0.500000  0.984033  0.214291  1
  B  B25  1  0.500000  0.015967  0.785709  1
  B  B26  1  0.500000  0.484975  0.287920  1
  B  B27  1  0.500000  0.515025  0.712080  1
  B  B28  1  0.500000  0.605380  0.029141  1
  B  B29  1  0.500000  0.394620  0.970859  1
  B  B30  1  0.500000  0.097638  0.472796  1
  B  B31  1  0.500000  0.902362  0.527204  1
  Os  Os32  1  0.000000  0.639174  0.320745  1
  Os  Os33  1  0.000000  0.360826  0.679255  1
  Os  Os34  1  0.000000  0.137762  0.179558  1
  Os  Os35  1  0.000000  0.862238  0.820442  1
