# generated using pymatgen
data_Ce3Er(B4Ru)4
_symmetry_space_group_name_H-M   'P 1'
_cell_length_a   3.61038200
_cell_length_b   5.98743250
_cell_length_c   11.61612884
_cell_angle_alpha   89.89006289
_cell_angle_beta   90.00000000
_cell_angle_gamma   90.00000000
_symmetry_Int_Tables_number   1
_chemical_formula_structural   Ce3Er(B4Ru)4
_chemical_formula_sum   'Ce3 Er1 B16 Ru4'
_cell_volume   251.10444861
_cell_formula_units_Z   1
loop_
 _symmetry_equiv_pos_site_id
 _symmetry_equiv_pos_as_xyz
  1  'x, y, z'
loop_
 _atom_site_type_symbol
 _atom_site_label
 _atom_site_symmetry_multiplicity
 _atom_site_fract_x
 _atom_site_fract_y
 _atom_site_fract_z
 _atom_site_occupancy
  Ce  Ce0  1  0.000000  0.628870  0.350153  1
  Ce  Ce1  1  0.000000  0.371213  0.650979  1
  Ce  Ce2  1  0.000000  0.128559  0.148542  1
  Er  Er3  1  0.000000  0.871911  0.850925  1
  B  B4  1  0.500000  0.786696  0.184397  1
  B  B5  1  0.500000  0.211659  0.814793  1
  B  B6  1  0.500000  0.285308  0.313743  1
  B  B7  1  0.500000  0.714782  0.687159  1
  B  B8  1  0.500000  0.863741  0.030094  1
  B  B9  1  0.500000  0.136556  0.967589  1
  B  B10  1  0.500000  0.362127  0.469220  1
  B  B11  1  0.500000  0.637401  0.531876  1
  B  B12  1  0.500000  0.888337  0.454647  1
  B  B13  1  0.500000  0.110518  0.547185  1
  B  B14  1  0.500000  0.388811  0.044401  1
  B  B15  1  0.500000  0.613752  0.952630  1
  B  B16  1  0.500000  0.975203  0.309249  1
  B  B17  1  0.500000  0.023818  0.692556  1
  B  B18  1  0.500000  0.473791  0.189521  1
  B  B19  1  0.500000  0.526949  0.809485  1
  Ru  Ru20  1  0.000000  0.639776  0.093052  1
  Ru  Ru21  1  0.000000  0.359604  0.906863  1
  Ru  Ru22  1  0.000000  0.140333  0.406588  1
  Ru  Ru23  1  0.000000  0.860283  0.594352  1
