# generated using pymatgen
data_TmNpB6W
_symmetry_space_group_name_H-M   'P 1'
_cell_length_a   3.58625600
_cell_length_b   9.33728100
_cell_length_c   11.40851300
_cell_angle_alpha   90.00000000
_cell_angle_beta   90.00000000
_cell_angle_gamma   90.00000000
_symmetry_Int_Tables_number   1
_chemical_formula_structural   TmNpB6W
_chemical_formula_sum   'Tm4 Np4 B24 W4'
_cell_volume   382.02409741
_cell_formula_units_Z   4
loop_
 _symmetry_equiv_pos_site_id
 _symmetry_equiv_pos_as_xyz
  1  'x, y, z'
loop_
 _atom_site_type_symbol
 _atom_site_label
 _atom_site_symmetry_multiplicity
 _atom_site_fract_x
 _atom_site_fract_y
 _atom_site_fract_z
 _atom_site_occupancy
  Tm  Tm0  1  0.000000  0.337593  0.408000  1
  Tm  Tm1  1  0.000000  0.662407  0.592000  1
  Tm  Tm2  1  0.000000  0.837593  0.092000  1
  Tm  Tm3  1  0.000000  0.162407  0.908000  1
  Np  Np4  1  0.000000  0.958890  0.400900  1
  Np  Np5  1  0.000000  0.041110  0.599100  1
  Np  Np6  1  0.000000  0.458890  0.099100  1
  Np  Np7  1  0.000000  0.541110  0.900900  1
  B  B8  1  0.500000  0.551007  0.432709  1
  B  B9  1  0.500000  0.448993  0.567291  1
  B  B10  1  0.500000  0.051007  0.067291  1
  B  B11  1  0.500000  0.948993  0.932709  1
  B  B12  1  0.500000  0.746138  0.424608  1
  B  B13  1  0.500000  0.253862  0.575392  1
  B  B14  1  0.500000  0.246138  0.075392  1
  B  B15  1  0.500000  0.753862  0.924608  1
  B  B16  1  0.500000  0.806502  0.275069  1
  B  B17  1  0.500000  0.193498  0.724931  1
  B  B18  1  0.500000  0.306502  0.224931  1
  B  B19  1  0.500000  0.693498  0.775069  1
  B  B20  1  0.500000  0.644729  0.186369  1
  B  B21  1  0.500000  0.355271  0.813631  1
  B  B22  1  0.500000  0.144729  0.313631  1
  B  B23  1  0.500000  0.855271  0.686369  1
  B  B24  1  0.500000  0.987211  0.221200  1
  B  B25  1  0.500000  0.012789  0.778800  1
  B  B26  1  0.500000  0.487211  0.278800  1
  B  B27  1  0.500000  0.512789  0.721200  1
  B  B28  1  0.500000  0.639390  0.038672  1
  B  B29  1  0.500000  0.360610  0.961328  1
  B  B30  1  0.500000  0.139390  0.461328  1
  B  B31  1  0.500000  0.860610  0.538672  1
  W  W32  1  0.000000  0.647230  0.318096  1
  W  W33  1  0.000000  0.352770  0.681904  1
  W  W34  1  0.000000  0.147230  0.181904  1
  W  W35  1  0.000000  0.852770  0.818096  1
