# generated using pymatgen
data_Y3LuAl17GaRh6
_symmetry_space_group_name_H-M   'P 1'
_cell_length_a   7.53740500
_cell_length_b   7.53910820
_cell_length_c   9.50148500
_cell_angle_alpha   90.00000000
_cell_angle_beta   90.00000000
_cell_angle_gamma   119.38843219
_symmetry_Int_Tables_number   1
_chemical_formula_structural   Y3LuAl17GaRh6
_chemical_formula_sum   'Y3 Lu1 Al17 Ga1 Rh6'
_cell_volume   470.44348776
_cell_formula_units_Z   1
loop_
 _symmetry_equiv_pos_site_id
 _symmetry_equiv_pos_as_xyz
  1  'x, y, z'
loop_
 _atom_site_type_symbol
 _atom_site_label
 _atom_site_symmetry_multiplicity
 _atom_site_fract_x
 _atom_site_fract_y
 _atom_site_fract_z
 _atom_site_occupancy
  Y  Y0  1  0.994025  0.674256  0.250000  1
  Y  Y1  1  0.005094  0.327785  0.750000  1
  Y  Y2  1  0.674088  0.993832  0.250000  1
  Lu  Lu3  1  0.327179  0.005008  0.750000  1
  Al  Al4  1  0.871599  0.870729  0.750000  1
  Al  Al5  1  0.001944  0.336028  0.074045  1
  Al  Al6  1  0.999649  0.665280  0.924289  1
  Al  Al7  1  0.999649  0.665280  0.575711  1
  Al  Al8  1  0.335946  0.001706  0.427388  1
  Al  Al9  1  0.001944  0.336028  0.425955  1
  Al  Al10  1  0.663350  0.998738  0.575803  1
  Al  Al11  1  0.663350  0.998738  0.924197  1
  Al  Al12  1  0.335946  0.001706  0.072612  1
  Al  Al13  1  0.332924  0.332071  0.554794  1
  Al  Al14  1  0.665934  0.666005  0.451662  1
  Al  Al15  1  0.665934  0.666005  0.048338  1
  Al  Al16  1  0.332924  0.332071  0.945206  1
  Al  Al17  1  0.338699  0.549901  0.250000  1
  Al  Al18  1  0.659344  0.448590  0.750000  1
  Al  Al19  1  0.549569  0.338097  0.250000  1
  Al  Al20  1  0.449766  0.661800  0.750000  1
  Ga  Ga21  1  0.132928  0.132606  0.250000  1
  Rh  Rh22  1  0.672236  0.327667  0.999953  1
  Rh  Rh23  1  0.327462  0.671710  0.999836  1
  Rh  Rh24  1  0.327462  0.671710  0.500164  1
  Rh  Rh25  1  0.672236  0.327667  0.500047  1
  Rh  Rh26  1  0.999411  0.999493  0.997294  1
  Rh  Rh27  1  0.999411  0.999493  0.502706  1
