# generated using pymatgen
data_Li4PrTm3Pb4
_symmetry_space_group_name_H-M   'P 1'
_cell_length_a   9.58348000
_cell_length_b   9.58347902
_cell_length_c   7.25975300
_cell_angle_alpha   90.00000000
_cell_angle_beta   90.00000000
_cell_angle_gamma   120.00000340
_symmetry_Int_Tables_number   1
_chemical_formula_structural   Li4PrTm3Pb4
_chemical_formula_sum   'Li8 Pr2 Tm6 Pb8'
_cell_volume   577.42940855
_cell_formula_units_Z   2
loop_
 _symmetry_equiv_pos_site_id
 _symmetry_equiv_pos_as_xyz
  1  'x, y, z'
loop_
 _atom_site_type_symbol
 _atom_site_label
 _atom_site_symmetry_multiplicity
 _atom_site_fract_x
 _atom_site_fract_y
 _atom_site_fract_z
 _atom_site_occupancy
  Li  Li0  1  0.832487  0.167513  0.735488  1
  Li  Li1  1  0.832487  0.664974  0.735488  1
  Li  Li2  1  0.335026  0.167513  0.735488  1
  Li  Li3  1  0.167513  0.832487  0.235488  1
  Li  Li4  1  0.167513  0.335026  0.235488  1
  Li  Li5  1  0.664974  0.832487  0.235488  1
  Li  Li6  1  0.666667  0.333333  0.288615  1
  Li  Li7  1  0.333333  0.666667  0.788615  1
  Pr  Pr8  1  0.000000  0.000000  0.500338  1
  Pr  Pr9  1  0.000000  0.000000  0.000338  1
  Tm  Tm10  1  0.494941  0.505059  0.503960  1
  Tm  Tm11  1  0.494941  0.989883  0.503960  1
  Tm  Tm12  1  0.010117  0.505059  0.503960  1
  Tm  Tm13  1  0.505059  0.494941  0.003960  1
  Tm  Tm14  1  0.505059  0.010117  0.003960  1
  Tm  Tm15  1  0.989883  0.494941  0.003960  1
  Pb  Pb16  1  0.830196  0.169804  0.259261  1
  Pb  Pb17  1  0.830196  0.660390  0.259261  1
  Pb  Pb18  1  0.339610  0.169804  0.259261  1
  Pb  Pb19  1  0.169804  0.830196  0.759261  1
  Pb  Pb20  1  0.169804  0.339610  0.759261  1
  Pb  Pb21  1  0.660390  0.830196  0.759261  1
  Pb  Pb22  1  0.666667  0.333333  0.743925  1
  Pb  Pb23  1  0.333333  0.666667  0.243925  1
