# generated using pymatgen
data_Rb2NaFe3F12
_symmetry_space_group_name_H-M   'P 1'
_cell_length_a   7.54915600
_cell_length_b   7.35371720
_cell_length_c   10.37443073
_cell_angle_alpha   91.24618678
_cell_angle_beta   90.00000000
_cell_angle_gamma   90.00000000
_symmetry_Int_Tables_number   1
_chemical_formula_structural   Rb2NaFe3F12
_chemical_formula_sum   'Rb4 Na2 Fe6 F24'
_cell_volume   575.79364414
_cell_formula_units_Z   2
loop_
 _symmetry_equiv_pos_site_id
 _symmetry_equiv_pos_as_xyz
  1  'x, y, z'
loop_
 _atom_site_type_symbol
 _atom_site_label
 _atom_site_symmetry_multiplicity
 _atom_site_fract_x
 _atom_site_fract_y
 _atom_site_fract_z
 _atom_site_occupancy
  Rb  Rb0  1  0.250000  0.531972  0.360534  1
  Rb  Rb1  1  0.250000  0.985110  0.105416  1
  Rb  Rb2  1  0.750000  0.468028  0.639466  1
  Rb  Rb3  1  0.750000  0.014890  0.894584  1
  Na  Na4  1  0.750000  0.792406  0.242389  1
  Na  Na5  1  0.250000  0.207594  0.757611  1
  Fe  Fe6  1  0.000000  0.500000  0.000000  1
  Fe  Fe7  1  0.250000  0.691605  0.718694  1
  Fe  Fe8  1  0.750000  0.308395  0.281306  1
  Fe  Fe9  1  0.500000  0.000000  0.500000  1
  Fe  Fe10  1  0.500000  0.500000  0.000000  1
  Fe  Fe11  1  0.000000  0.000000  0.500000  1
  F  F12  1  0.438403  0.779081  0.600228  1
  F  F13  1  0.036796  0.864270  0.343554  1
  F  F14  1  0.447755  0.257736  0.943626  1
  F  F15  1  0.963204  0.135730  0.656446  1
  F  F16  1  0.938403  0.220919  0.399772  1
  F  F17  1  0.250000  0.538353  0.060538  1
  F  F18  1  0.444499  0.586286  0.824965  1
  F  F19  1  0.250000  0.082019  0.503613  1
  F  F20  1  0.947755  0.742264  0.056374  1
  F  F21  1  0.250000  0.465814  0.625400  1
  F  F22  1  0.052245  0.257736  0.943626  1
  F  F23  1  0.555501  0.413714  0.175035  1
  F  F24  1  0.944499  0.413714  0.175035  1
  F  F25  1  0.750000  0.461647  0.939462  1
  F  F26  1  0.061597  0.779081  0.600228  1
  F  F27  1  0.250000  0.907024  0.820673  1
  F  F28  1  0.750000  0.092976  0.179327  1
  F  F29  1  0.463204  0.864270  0.343554  1
  F  F30  1  0.750000  0.534186  0.374600  1
  F  F31  1  0.536796  0.135730  0.656446  1
  F  F32  1  0.561597  0.220919  0.399772  1
  F  F33  1  0.055501  0.586286  0.824965  1
  F  F34  1  0.750000  0.917981  0.496387  1
  F  F35  1  0.552245  0.742264  0.056374  1
