# generated using pymatgen
data_Pr6HoSiBr12
_symmetry_space_group_name_H-M   'P 1'
_cell_length_a   9.50367149
_cell_length_b   9.50367063
_cell_length_c   9.50367074
_cell_angle_alpha   107.60702415
_cell_angle_beta   107.60702454
_cell_angle_gamma   107.60701701
_symmetry_Int_Tables_number   1
_chemical_formula_structural   Pr6HoSiBr12
_chemical_formula_sum   'Pr6 Ho1 Si1 Br12'
_cell_volume   702.68492397
_cell_formula_units_Z   1
loop_
 _symmetry_equiv_pos_site_id
 _symmetry_equiv_pos_as_xyz
  1  'x, y, z'
loop_
 _atom_site_type_symbol
 _atom_site_label
 _atom_site_symmetry_multiplicity
 _atom_site_fract_x
 _atom_site_fract_y
 _atom_site_fract_z
 _atom_site_occupancy
  Pr  Pr0  1  0.968356  0.891680  0.676480  1
  Pr  Pr1  1  0.031644  0.108320  0.323520  1
  Pr  Pr2  1  0.108320  0.323520  0.031644  1
  Pr  Pr3  1  0.323520  0.031644  0.108320  1
  Pr  Pr4  1  0.891680  0.676480  0.968356  1
  Pr  Pr5  1  0.676480  0.968356  0.891680  1
  Ho  Ho6  1  0.500000  0.500000  0.500000  1
  Si  Si7  1  0.000000  0.000000  0.000000  1
  Br  Br8  1  0.527561  0.605468  0.824587  1
  Br  Br9  1  0.472439  0.394532  0.175413  1
  Br  Br10  1  0.312853  0.925079  0.772007  1
  Br  Br11  1  0.394532  0.175413  0.472439  1
  Br  Br12  1  0.925079  0.772007  0.312853  1
  Br  Br13  1  0.687147  0.074921  0.227993  1
  Br  Br14  1  0.074921  0.227993  0.687147  1
  Br  Br15  1  0.772007  0.312853  0.925079  1
  Br  Br16  1  0.227993  0.687147  0.074921  1
  Br  Br17  1  0.824587  0.527561  0.605468  1
  Br  Br18  1  0.175413  0.472439  0.394532  1
  Br  Br19  1  0.605468  0.824587  0.527561  1
