# generated using pymatgen
data_Ba6Ca2SmUSe12
_symmetry_space_group_name_H-M   'P 1'
_cell_length_a   8.94064193
_cell_length_b   8.94064041
_cell_length_c   8.94064333
_cell_angle_alpha   91.87933628
_cell_angle_beta   91.87934117
_cell_angle_gamma   91.87934336
_symmetry_Int_Tables_number   1
_chemical_formula_structural   Ba6Ca2SmUSe12
_chemical_formula_sum   'Ba6 Ca2 Sm1 U1 Se12'
_cell_volume   713.49178052
_cell_formula_units_Z   1
loop_
 _symmetry_equiv_pos_site_id
 _symmetry_equiv_pos_as_xyz
  1  'x, y, z'
loop_
 _atom_site_type_symbol
 _atom_site_label
 _atom_site_symmetry_multiplicity
 _atom_site_fract_x
 _atom_site_fract_y
 _atom_site_fract_z
 _atom_site_occupancy
  Ba  Ba0  1  0.869040  0.623244  0.256123  1
  Ba  Ba1  1  0.256123  0.869040  0.623244  1
  Ba  Ba2  1  0.623244  0.256123  0.869040  1
  Ba  Ba3  1  0.743877  0.130960  0.376756  1
  Ba  Ba4  1  0.376756  0.743877  0.130960  1
  Ba  Ba5  1  0.130960  0.376756  0.743877  1
  Ca  Ca6  1  0.255131  0.255131  0.255131  1
  Ca  Ca7  1  0.744869  0.744869  0.744869  1
  Sm  Sm8  1  0.500000  0.500000  0.500000  1
  U  U9  1  0.000000  0.000000  0.000000  1
  Se  Se10  1  0.193182  0.549063  0.406351  1
  Se  Se11  1  0.406351  0.193182  0.549063  1
  Se  Se12  1  0.549063  0.406351  0.193182  1
  Se  Se13  1  0.918278  0.044541  0.704330  1
  Se  Se14  1  0.704330  0.918278  0.044541  1
  Se  Se15  1  0.044541  0.704330  0.918278  1
  Se  Se16  1  0.806818  0.450937  0.593649  1
  Se  Se17  1  0.593649  0.806818  0.450937  1
  Se  Se18  1  0.450937  0.593649  0.806818  1
  Se  Se19  1  0.081722  0.955459  0.295670  1
  Se  Se20  1  0.295670  0.081722  0.955459  1
  Se  Se21  1  0.955459  0.295670  0.081722  1
