# generated using pymatgen
data_Ce2Co9Tc3As7
_symmetry_space_group_name_H-M   'P 1'
_cell_length_a   3.89146800
_cell_length_b   9.46006199
_cell_length_c   9.46006300
_cell_angle_alpha   120.00000004
_cell_angle_beta   90.00000000
_cell_angle_gamma   90.00000000
_symmetry_Int_Tables_number   1
_chemical_formula_structural   Ce2Co9Tc3As7
_chemical_formula_sum   'Ce2 Co9 Tc3 As7'
_cell_volume   301.60053382
_cell_formula_units_Z   1
loop_
 _symmetry_equiv_pos_site_id
 _symmetry_equiv_pos_as_xyz
  1  'x, y, z'
loop_
 _atom_site_type_symbol
 _atom_site_label
 _atom_site_symmetry_multiplicity
 _atom_site_fract_x
 _atom_site_fract_y
 _atom_site_fract_z
 _atom_site_occupancy
  Ce  Ce0  1  0.000000  0.666667  0.333333  1
  Ce  Ce1  1  0.500000  0.333333  0.666667  1
  Co  Co2  1  0.000000  0.569304  0.938950  1
  Co  Co3  1  0.000000  0.369646  0.430696  1
  Co  Co4  1  0.000000  0.061050  0.630354  1
  Co  Co5  1  0.000000  0.873565  0.153478  1
  Co  Co6  1  0.000000  0.279910  0.126435  1
  Co  Co7  1  0.000000  0.846522  0.720090  1
  Co  Co8  1  0.500000  0.943484  0.378209  1
  Co  Co9  1  0.500000  0.434725  0.056516  1
  Co  Co10  1  0.500000  0.621791  0.565275  1
  Tc  Tc11  1  0.500000  0.785151  0.898402  1
  Tc  Tc12  1  0.500000  0.113252  0.214849  1
  Tc  Tc13  1  0.500000  0.101598  0.886748  1
  As  As14  1  0.000000  0.000000  0.000000  1
  As  As15  1  0.500000  0.705687  0.110528  1
  As  As16  1  0.500000  0.404843  0.294313  1
  As  As17  1  0.500000  0.889472  0.595157  1
  As  As18  1  0.000000  0.592047  0.700281  1
  As  As19  1  0.000000  0.108234  0.407953  1
  As  As20  1  0.000000  0.299719  0.891766  1
