# generated using pymatgen
data_Tb2Y10InCo4Rh
_symmetry_space_group_name_H-M   'P 1'
_cell_length_a   8.34309192
_cell_length_b   8.35053784
_cell_length_c   8.34309087
_cell_angle_alpha   110.92357160
_cell_angle_beta   110.54705205
_cell_angle_gamma   106.93713653
_symmetry_Int_Tables_number   1
_chemical_formula_structural   Tb2Y10InCo4Rh
_chemical_formula_sum   'Tb2 Y10 In1 Co4 Rh1'
_cell_volume   446.99442939
_cell_formula_units_Z   1
loop_
 _symmetry_equiv_pos_site_id
 _symmetry_equiv_pos_as_xyz
  1  'x, y, z'
loop_
 _atom_site_type_symbol
 _atom_site_label
 _atom_site_symmetry_multiplicity
 _atom_site_fract_x
 _atom_site_fract_y
 _atom_site_fract_z
 _atom_site_occupancy
  Tb  Tb0  1  0.313876  0.008197  0.694320  1
  Tb  Tb1  1  0.686124  0.991803  0.305680  1
  Y  Y2  1  0.406215  0.211623  0.194229  1
  Y  Y3  1  0.593785  0.788377  0.805771  1
  Y  Y4  1  0.017395  0.211623  0.805408  1
  Y  Y5  1  0.982605  0.788377  0.194592  1
  Y  Y6  1  0.186787  0.292586  0.479404  1
  Y  Y7  1  0.813213  0.707414  0.520596  1
  Y  Y8  1  0.186819  0.707414  0.894201  1
  Y  Y9  1  0.813181  0.292586  0.105799  1
  Y  Y10  1  0.314082  0.618068  0.303986  1
  Y  Y11  1  0.685918  0.381932  0.696014  1
  In  In12  1  0.500000  0.500000  0.000000  1
  Co  Co13  1  0.381460  0.000000  0.381460  1
  Co  Co14  1  0.618540  0.000000  0.618540  1
  Co  Co15  1  0.111128  0.611756  0.500628  1
  Co  Co16  1  0.888872  0.388244  0.499372  1
  Rh  Rh17  1  0.000000  0.000000  0.000000  1
