# generated using pymatgen
data_CaYb5(Al3Os)8
_symmetry_space_group_name_H-M   'P 1'
_cell_length_a   8.83622000
_cell_length_b   8.83495354
_cell_length_c   9.63854700
_cell_angle_alpha   90.00000000
_cell_angle_beta   90.00000000
_cell_angle_gamma   120.00474946
_symmetry_Int_Tables_number   1
_chemical_formula_structural   CaYb5(Al3Os)8
_chemical_formula_sum   'Ca1 Yb5 Al24 Os8'
_cell_volume   651.61669776
_cell_formula_units_Z   1
loop_
 _symmetry_equiv_pos_site_id
 _symmetry_equiv_pos_as_xyz
  1  'x, y, z'
loop_
 _atom_site_type_symbol
 _atom_site_label
 _atom_site_symmetry_multiplicity
 _atom_site_fract_x
 _atom_site_fract_y
 _atom_site_fract_z
 _atom_site_occupancy
  Ca  Ca0  1  0.194514  0.389030  0.250000  1
  Yb  Yb1  1  0.805085  0.610169  0.750000  1
  Yb  Yb2  1  0.610479  0.805407  0.250000  1
  Yb  Yb3  1  0.389633  0.194901  0.750000  1
  Yb  Yb4  1  0.194927  0.805407  0.250000  1
  Yb  Yb5  1  0.805270  0.194901  0.750000  1
  Al  Al6  1  0.333353  0.666707  0.000603  1
  Al  Al7  1  0.666699  0.333397  0.999146  1
  Al  Al8  1  0.666699  0.333397  0.500854  1
  Al  Al9  1  0.333353  0.666707  0.499397  1
  Al  Al10  1  0.162038  0.324078  0.573899  1
  Al  Al11  1  0.837938  0.675876  0.426709  1
  Al  Al12  1  0.675963  0.837948  0.573625  1
  Al  Al13  1  0.837938  0.675876  0.073291  1
  Al  Al14  1  0.324271  0.161942  0.426967  1
  Al  Al15  1  0.162038  0.324078  0.926101  1
  Al  Al16  1  0.161983  0.837948  0.573625  1
  Al  Al17  1  0.324271  0.161942  0.073033  1
  Al  Al18  1  0.837672  0.161942  0.426967  1
  Al  Al19  1  0.675963  0.837948  0.926375  1
  Al  Al20  1  0.837672  0.161942  0.073033  1
  Al  Al21  1  0.161983  0.837948  0.926375  1
  Al  Al22  1  0.560942  0.121883  0.250000  1
  Al  Al23  1  0.439062  0.878124  0.750000  1
  Al  Al24  1  0.878056  0.439225  0.250000  1
  Al  Al25  1  0.121916  0.560922  0.750000  1
  Al  Al26  1  0.561169  0.439225  0.250000  1
  Al  Al27  1  0.439006  0.560922  0.750000  1
  Al  Al28  1  0.999745  0.999489  0.250000  1
  Al  Al29  1  0.999964  0.999928  0.750000  1
  Os  Os30  1  0.499999  0.999999  0.000105  1
  Os  Os31  1  0.999699  0.500204  0.999607  1
  Os  Os32  1  0.499999  0.999999  0.499895  1
  Os  Os33  1  0.500505  0.500204  0.999607  1
  Os  Os34  1  0.999699  0.500204  0.500393  1
  Os  Os35  1  0.500505  0.500204  0.500393  1
  Os  Os36  1  0.999994  0.999988  0.000097  1
  Os  Os37  1  0.999994  0.999988  0.499903  1
