# generated using pymatgen
data_Pr8HoThRu4
_symmetry_space_group_name_H-M   'P 1'
_cell_length_a   8.99475724
_cell_length_b   8.99476098
_cell_length_c   7.32267300
_cell_angle_alpha   83.36997107
_cell_angle_beta   83.36998113
_cell_angle_gamma   43.13587901
_symmetry_Int_Tables_number   1
_chemical_formula_structural   Pr8HoThRu4
_chemical_formula_sum   'Pr8 Ho1 Th1 Ru4'
_cell_volume   401.93968011
_cell_formula_units_Z   1
loop_
 _symmetry_equiv_pos_site_id
 _symmetry_equiv_pos_as_xyz
  1  'x, y, z'
loop_
 _atom_site_type_symbol
 _atom_site_label
 _atom_site_symmetry_multiplicity
 _atom_site_fract_x
 _atom_site_fract_y
 _atom_site_fract_z
 _atom_site_occupancy
  Pr  Pr0  1  0.203685  0.979799  0.581970  1
  Pr  Pr1  1  0.020201  0.796315  0.918030  1
  Pr  Pr2  1  0.208819  0.361859  0.313913  1
  Pr  Pr3  1  0.638141  0.791181  0.186087  1
  Pr  Pr4  1  0.789601  0.643074  0.688086  1
  Pr  Pr5  1  0.356926  0.210399  0.811914  1
  Pr  Pr6  1  0.983060  0.200928  0.087596  1
  Pr  Pr7  1  0.799072  0.016940  0.412404  1
  Ho  Ho8  1  0.429685  0.570315  0.250000  1
  Th  Th9  1  0.573237  0.426763  0.750000  1
  Ru  Ru10  1  0.197450  0.594463  0.573177  1
  Ru  Ru11  1  0.405537  0.802550  0.926823  1
  Ru  Ru12  1  0.800707  0.406120  0.439512  1
  Ru  Ru13  1  0.593880  0.199293  0.060488  1
