# generated using pymatgen
data_Tb12Co4BiIr
_symmetry_space_group_name_H-M   'P 1'
_cell_length_a   8.40662068
_cell_length_b   8.40662150
_cell_length_c   8.40662081
_cell_angle_alpha   111.19203642
_cell_angle_beta   110.34663220
_cell_angle_gamma   106.90622859
_symmetry_Int_Tables_number   1
_chemical_formula_structural   Tb12Co4BiIr
_chemical_formula_sum   'Tb12 Co4 Bi1 Ir1'
_cell_volume   456.63383503
_cell_formula_units_Z   1
loop_
 _symmetry_equiv_pos_site_id
 _symmetry_equiv_pos_as_xyz
  1  'x, y, z'
loop_
 _atom_site_type_symbol
 _atom_site_label
 _atom_site_symmetry_multiplicity
 _atom_site_fract_x
 _atom_site_fract_y
 _atom_site_fract_z
 _atom_site_occupancy
  Tb  Tb0  1  0.817861  0.711456  0.529317  1
  Tb  Tb1  1  0.182139  0.288544  0.470683  1
  Tb  Tb2  1  0.182139  0.711456  0.893597  1
  Tb  Tb3  1  0.817861  0.288544  0.106403  1
  Tb  Tb4  1  0.687631  0.378069  0.690438  1
  Tb  Tb5  1  0.312369  0.621931  0.309562  1
  Tb  Tb6  1  0.687631  0.997194  0.309562  1
  Tb  Tb7  1  0.312369  0.002806  0.690438  1
  Tb  Tb8  1  0.594578  0.791280  0.803299  1
  Tb  Tb9  1  0.405422  0.208720  0.196701  1
  Tb  Tb10  1  0.987980  0.791280  0.196701  1
  Tb  Tb11  1  0.012020  0.208720  0.803299  1
  Co  Co12  1  0.621840  0.000000  0.621840  1
  Co  Co13  1  0.378160  0.000000  0.378160  1
  Co  Co14  1  0.110365  0.610365  0.500000  1
  Co  Co15  1  0.889635  0.389635  0.500000  1
  Bi  Bi16  1  0.500000  0.500000  0.000000  1
  Ir  Ir17  1  0.000000  0.000000  0.000000  1
