# generated using pymatgen
data_Y2HoHf(Al3Ir)6
_symmetry_space_group_name_H-M   'P 1'
_cell_length_a   7.53610291
_cell_length_b   7.52759865
_cell_length_c   9.40887900
_cell_angle_alpha   90.00000000
_cell_angle_beta   90.00000000
_cell_angle_gamma   119.57582750
_symmetry_Int_Tables_number   1
_chemical_formula_structural   Y2HoHf(Al3Ir)6
_chemical_formula_sum   'Y2 Ho1 Hf1 Al18 Ir6'
_cell_volume   464.20760164
_cell_formula_units_Z   1
loop_
 _symmetry_equiv_pos_site_id
 _symmetry_equiv_pos_as_xyz
  1  'x, y, z'
loop_
 _atom_site_type_symbol
 _atom_site_label
 _atom_site_symmetry_multiplicity
 _atom_site_fract_x
 _atom_site_fract_y
 _atom_site_fract_z
 _atom_site_occupancy
  Y  Y0  1  0.005570  0.327320  0.750000  1
  Y  Y1  1  0.328949  0.006425  0.750000  1
  Ho  Ho2  1  0.671310  0.995825  0.250000  1
  Hf  Hf3  1  0.997783  0.673461  0.250000  1
  Al  Al4  1  0.126037  0.123609  0.250000  1
  Al  Al5  1  0.870530  0.869264  0.750000  1
  Al  Al6  1  0.000045  0.337948  0.079586  1
  Al  Al7  1  0.999000  0.664871  0.929564  1
  Al  Al8  1  0.999000  0.664871  0.570436  1
  Al  Al9  1  0.332668  0.998200  0.420293  1
  Al  Al10  1  0.000045  0.337948  0.420414  1
  Al  Al11  1  0.664506  0.998004  0.574052  1
  Al  Al12  1  0.664506  0.998004  0.925948  1
  Al  Al13  1  0.332668  0.998200  0.079707  1
  Al  Al14  1  0.333831  0.333973  0.549939  1
  Al  Al15  1  0.669035  0.666959  0.442632  1
  Al  Al16  1  0.669035  0.666959  0.057368  1
  Al  Al17  1  0.333831  0.333973  0.950061  1
  Al  Al18  1  0.336176  0.549497  0.250000  1
  Al  Al19  1  0.660701  0.452270  0.750000  1
  Al  Al20  1  0.555288  0.344457  0.250000  1
  Al  Al21  1  0.450916  0.659434  0.750000  1
  Ir  Ir22  1  0.672677  0.328451  0.001347  1
  Ir  Ir23  1  0.327537  0.672306  0.002100  1
  Ir  Ir24  1  0.327537  0.672306  0.497900  1
  Ir  Ir25  1  0.672677  0.328451  0.498653  1
  Ir  Ir26  1  0.999071  0.998507  0.001652  1
  Ir  Ir27  1  0.999071  0.998507  0.498348  1
