# generated using pymatgen
data_Y2Fe5Co3B8
_symmetry_space_group_name_H-M   'P 1'
_cell_length_a   6.95814347
_cell_length_b   6.94711470
_cell_length_c   3.81035729
_cell_angle_alpha   90.05438643
_cell_angle_beta   90.07705732
_cell_angle_gamma   90.18339091
_symmetry_Int_Tables_number   1
_chemical_formula_structural   Y2Fe5Co3B8
_chemical_formula_sum   'Y2 Fe5 Co3 B8'
_cell_volume   184.18774656
_cell_formula_units_Z   1
loop_
 _symmetry_equiv_pos_site_id
 _symmetry_equiv_pos_as_xyz
  1  'x, y, z'
loop_
 _atom_site_type_symbol
 _atom_site_label
 _atom_site_symmetry_multiplicity
 _atom_site_fract_x
 _atom_site_fract_y
 _atom_site_fract_z
 _atom_site_occupancy
  Y  Y0  1  0.999948  0.000948  0.999280  1
  Y  Y1  1  0.501682  0.498878  0.497538  1
  Fe  Fe2  1  0.115952  0.367806  0.609807  1
  Fe  Fe3  1  0.633848  0.114740  0.392467  1
  Fe  Fe4  1  0.367212  0.884306  0.392648  1
  Fe  Fe5  1  0.615115  0.866573  0.892522  1
  Fe  Fe6  1  0.385248  0.132237  0.893006  1
  Co  Co7  1  0.862505  0.385663  0.109707  1
  Co  Co8  1  0.134918  0.617687  0.109310  1
  Co  Co9  1  0.883980  0.636284  0.609629  1
  B  B10  1  0.333070  0.804487  0.893050  1
  B  B11  1  0.665699  0.198064  0.892567  1
  B  B12  1  0.299478  0.166694  0.395230  1
  B  B13  1  0.697175  0.834430  0.393253  1
  B  B14  1  0.167441  0.697776  0.605214  1
  B  B15  1  0.838700  0.294616  0.604713  1
  B  B16  1  0.201085  0.333192  0.105802  1
  B  B17  1  0.796945  0.665620  0.104254  1
