# generated using pymatgen
data_Sr3ZnNiO6
_symmetry_space_group_name_H-M   'P 1'
_cell_length_a   6.63504524
_cell_length_b   6.63504519
_cell_length_c   6.63504579
_cell_angle_alpha   92.48135610
_cell_angle_beta   92.48136185
_cell_angle_gamma   92.48136349
_symmetry_Int_Tables_number   1
_chemical_formula_structural   Sr3ZnNiO6
_chemical_formula_sum   'Sr6 Zn2 Ni2 O12'
_cell_volume   291.25389483
_cell_formula_units_Z   2
loop_
 _symmetry_equiv_pos_site_id
 _symmetry_equiv_pos_as_xyz
  1  'x, y, z'
loop_
 _atom_site_type_symbol
 _atom_site_label
 _atom_site_symmetry_multiplicity
 _atom_site_fract_x
 _atom_site_fract_y
 _atom_site_fract_z
 _atom_site_occupancy
  Sr  Sr0  1  0.884392  0.615608  0.250000  1
  Sr  Sr1  1  0.250000  0.884392  0.615608  1
  Sr  Sr2  1  0.615608  0.250000  0.884392  1
  Sr  Sr3  1  0.750000  0.115608  0.384392  1
  Sr  Sr4  1  0.384392  0.750000  0.115608  1
  Sr  Sr5  1  0.115608  0.384392  0.750000  1
  Zn  Zn6  1  0.250000  0.250000  0.250000  1
  Zn  Zn7  1  0.750000  0.750000  0.750000  1
  Ni  Ni8  1  0.500000  0.500000  0.500000  1
  Ni  Ni9  1  0.000000  0.000000  0.000000  1
  O  O10  1  0.224732  0.540748  0.414063  1
  O  O11  1  0.414063  0.224732  0.540748  1
  O  O12  1  0.540748  0.414063  0.224732  1
  O  O13  1  0.914063  0.040748  0.724732  1
  O  O14  1  0.724732  0.914063  0.040748  1
  O  O15  1  0.040748  0.724732  0.914063  1
  O  O16  1  0.775268  0.459252  0.585937  1
  O  O17  1  0.585937  0.775268  0.459252  1
  O  O18  1  0.459252  0.585937  0.775268  1
  O  O19  1  0.085937  0.959252  0.275268  1
  O  O20  1  0.275268  0.085937  0.959252  1
  O  O21  1  0.959252  0.275268  0.085937  1
