# generated using pymatgen
data_Pa3Ni4B4C3
_symmetry_space_group_name_H-M   'P 1'
_cell_length_a   3.59082437
_cell_length_b   3.59082465
_cell_length_c   12.93763813
_cell_angle_alpha   97.84803246
_cell_angle_beta   97.84803003
_cell_angle_gamma   89.83446811
_symmetry_Int_Tables_number   1
_chemical_formula_structural   Pa3Ni4B4C3
_chemical_formula_sum   'Pa3 Ni4 B4 C3'
_cell_volume   163.68677671
_cell_formula_units_Z   1
loop_
 _symmetry_equiv_pos_site_id
 _symmetry_equiv_pos_as_xyz
  1  'x, y, z'
loop_
 _atom_site_type_symbol
 _atom_site_label
 _atom_site_symmetry_multiplicity
 _atom_site_fract_x
 _atom_site_fract_y
 _atom_site_fract_z
 _atom_site_occupancy
  Pa  Pa0  1  0.104385  0.104385  0.208923  1
  Pa  Pa1  1  0.804411  0.804411  0.603812  1
  Pa  Pa2  1  0.404628  0.404628  0.813883  1
  Ni  Ni3  1  0.498251  0.998758  0.004750  1
  Ni  Ni4  1  0.998758  0.498251  0.004750  1
  Ni  Ni5  1  0.710527  0.209959  0.413021  1
  Ni  Ni6  1  0.209959  0.710527  0.413021  1
  B  B7  1  0.540633  0.540633  0.090232  1
  B  B8  1  0.668051  0.668051  0.327533  1
  B  B9  1  0.255420  0.255420  0.503291  1
  B  B10  1  0.953472  0.953472  0.914451  1
  C  C11  1  0.604423  0.604423  0.208924  1
  C  C12  1  0.314891  0.314891  0.626690  1
  C  C13  1  0.894381  0.894381  0.791121  1
