# generated using pymatgen
data_Ac3Ga2Ge3
_symmetry_space_group_name_H-M   'P 1'
_cell_length_a   6.54374132
_cell_length_b   6.54374177
_cell_length_c   10.18933200
_cell_angle_alpha   90.00000000
_cell_angle_beta   90.00000000
_cell_angle_gamma   102.39893665
_symmetry_Int_Tables_number   1
_chemical_formula_structural   Ac3Ga2Ge3
_chemical_formula_sum   'Ac6 Ga4 Ge6'
_cell_volume   426.13638975
_cell_formula_units_Z   2
loop_
 _symmetry_equiv_pos_site_id
 _symmetry_equiv_pos_as_xyz
  1  'x, y, z'
loop_
 _atom_site_type_symbol
 _atom_site_label
 _atom_site_symmetry_multiplicity
 _atom_site_fract_x
 _atom_site_fract_y
 _atom_site_fract_z
 _atom_site_occupancy
  Ac  Ac0  1  0.658279  0.658279  0.250000  1
  Ac  Ac1  1  0.341721  0.341721  0.750000  1
  Ac  Ac2  1  0.797392  0.202608  0.000000  1
  Ac  Ac3  1  0.202608  0.797392  0.000000  1
  Ac  Ac4  1  0.202608  0.797392  0.500000  1
  Ac  Ac5  1  0.797392  0.202608  0.500000  1
  Ga  Ga6  1  0.312549  0.312549  0.061103  1
  Ga  Ga7  1  0.687451  0.687451  0.938897  1
  Ga  Ga8  1  0.687451  0.687451  0.561103  1
  Ga  Ga9  1  0.312549  0.312549  0.438897  1
  Ge  Ge10  1  0.098780  0.477602  0.250000  1
  Ge  Ge11  1  0.901220  0.522398  0.750000  1
  Ge  Ge12  1  0.477602  0.098780  0.250000  1
  Ge  Ge13  1  0.522398  0.901220  0.750000  1
  Ge  Ge14  1  0.058069  0.058069  0.250000  1
  Ge  Ge15  1  0.941931  0.941931  0.750000  1
