# generated using pymatgen
data_Ce12Al6Os5Rh
_symmetry_space_group_name_H-M   'P 1'
_cell_length_a   7.82645750
_cell_length_b   7.81963916
_cell_length_c   9.75929800
_cell_angle_alpha   90.12788843
_cell_angle_beta   90.05418111
_cell_angle_gamma   120.17378386
_symmetry_Int_Tables_number   1
_chemical_formula_structural   Ce12Al6Os5Rh
_chemical_formula_sum   'Ce12 Al6 Os5 Rh1'
_cell_volume   516.33985043
_cell_formula_units_Z   1
loop_
 _symmetry_equiv_pos_site_id
 _symmetry_equiv_pos_as_xyz
  1  'x, y, z'
loop_
 _atom_site_type_symbol
 _atom_site_label
 _atom_site_symmetry_multiplicity
 _atom_site_fract_x
 _atom_site_fract_y
 _atom_site_fract_z
 _atom_site_occupancy
  Ce  Ce0  1  0.000343  0.594764  0.504660  1
  Ce  Ce1  1  0.595249  0.000904  0.504032  1
  Ce  Ce2  1  0.404947  0.405475  0.502244  1
  Ce  Ce3  1  0.997472  0.403550  0.004482  1
  Ce  Ce4  1  0.404443  0.997588  0.004640  1
  Ce  Ce5  1  0.597623  0.597594  0.006063  1
  Ce  Ce6  1  0.002103  0.729982  0.172395  1
  Ce  Ce7  1  0.731863  0.002311  0.172811  1
  Ce  Ce8  1  0.263852  0.264344  0.175363  1
  Ce  Ce9  1  0.999642  0.267616  0.672174  1
  Ce  Ce10  1  0.266701  0.999564  0.671969  1
  Ce  Ce11  1  0.732364  0.732329  0.672749  1
  Al  Al12  1  0.665931  0.334003  0.276827  1
  Al  Al13  1  0.334462  0.666797  0.276918  1
  Al  Al14  1  0.334301  0.669583  0.775868  1
  Al  Al15  1  0.669213  0.334041  0.775879  1
  Al  Al16  1  0.997770  0.997472  0.419935  1
  Al  Al17  1  0.997019  0.996841  0.919659  1
  Os  Os18  1  0.000313  0.336100  0.337352  1
  Os  Os19  1  0.335718  0.000451  0.337052  1
  Os  Os20  1  0.663545  0.663746  0.334425  1
  Os  Os21  1  0.001750  0.665105  0.836643  1
  Os  Os22  1  0.665262  0.001697  0.836591  1
  Rh  Rh23  1  0.338117  0.338144  0.838521  1
