# generated using pymatgen
data_Ce4Cd2Pd3Rh
_symmetry_space_group_name_H-M   'P 1'
_cell_length_a   7.79131839
_cell_length_b   7.79131839
_cell_length_c   3.79739700
_cell_angle_alpha   90.00000000
_cell_angle_beta   90.00000000
_cell_angle_gamma   89.60883603
_symmetry_Int_Tables_number   1
_chemical_formula_structural   Ce4Cd2Pd3Rh
_chemical_formula_sum   'Ce4 Cd2 Pd3 Rh1'
_cell_volume   230.51425443
_cell_formula_units_Z   1
loop_
 _symmetry_equiv_pos_site_id
 _symmetry_equiv_pos_as_xyz
  1  'x, y, z'
loop_
 _atom_site_type_symbol
 _atom_site_label
 _atom_site_symmetry_multiplicity
 _atom_site_fract_x
 _atom_site_fract_y
 _atom_site_fract_z
 _atom_site_occupancy
  Ce  Ce0  1  0.328141  0.836066  0.500000  1
  Ce  Ce1  1  0.830185  0.669815  0.500000  1
  Ce  Ce2  1  0.179817  0.320183  0.500000  1
  Ce  Ce3  1  0.663934  0.171859  0.500000  1
  Cd  Cd4  1  0.999771  0.000254  0.000000  1
  Cd  Cd5  1  0.499746  0.500229  0.000000  1
  Pd  Pd6  1  0.869886  0.368981  0.000000  1
  Pd  Pd7  1  0.131019  0.630114  0.000000  1
  Pd  Pd8  1  0.632231  0.867769  0.000000  1
  Rh  Rh9  1  0.365270  0.134730  0.000000  1
