# generated using pymatgen
data_Ce5Y3(Si3Ir)4
_symmetry_space_group_name_H-M   'P 1'
_cell_length_a   8.25628100
_cell_length_b   8.25628017
_cell_length_c   8.30423700
_cell_angle_alpha   90.00000000
_cell_angle_beta   90.00000000
_cell_angle_gamma   119.99999129
_symmetry_Int_Tables_number   1
_chemical_formula_structural   Ce5Y3(Si3Ir)4
_chemical_formula_sum   'Ce5 Y3 Si12 Ir4'
_cell_volume   490.22933202
_cell_formula_units_Z   1
loop_
 _symmetry_equiv_pos_site_id
 _symmetry_equiv_pos_as_xyz
  1  'x, y, z'
loop_
 _atom_site_type_symbol
 _atom_site_label
 _atom_site_symmetry_multiplicity
 _atom_site_fract_x
 _atom_site_fract_y
 _atom_site_fract_z
 _atom_site_occupancy
  Ce  Ce0  1  0.000000  0.000000  0.250000  1
  Ce  Ce1  1  0.000000  0.000000  0.750000  1
  Ce  Ce2  1  0.500026  0.499974  0.250000  1
  Ce  Ce3  1  0.500026  0.000051  0.250000  1
  Ce  Ce4  1  0.999949  0.499974  0.250000  1
  Y  Y5  1  0.500194  0.499806  0.750000  1
  Y  Y6  1  0.500194  0.000386  0.750000  1
  Y  Y7  1  0.999614  0.499806  0.750000  1
  Si  Si8  1  0.166321  0.833679  0.502688  1
  Si  Si9  1  0.166321  0.332643  0.502688  1
  Si  Si10  1  0.667357  0.833679  0.502688  1
  Si  Si11  1  0.833528  0.166472  0.502759  1
  Si  Si12  1  0.833528  0.667054  0.502759  1
  Si  Si13  1  0.332946  0.166472  0.502759  1
  Si  Si14  1  0.833528  0.166472  0.997241  1
  Si  Si15  1  0.833528  0.667054  0.997241  1
  Si  Si16  1  0.332946  0.166472  0.997241  1
  Si  Si17  1  0.166321  0.833679  0.997312  1
  Si  Si18  1  0.166321  0.332643  0.997312  1
  Si  Si19  1  0.667357  0.833679  0.997312  1
  Ir  Ir20  1  0.333333  0.666667  0.503383  1
  Ir  Ir21  1  0.666667  0.333333  0.502445  1
  Ir  Ir22  1  0.666667  0.333333  0.997555  1
  Ir  Ir23  1  0.333333  0.666667  0.996617  1
