# generated using pymatgen
data_Li12NdLu11(TeO6)8
_symmetry_space_group_name_H-M   'P 1'
_cell_length_a   10.62963632
_cell_length_b   10.60378676
_cell_length_c   10.60378742
_cell_angle_alpha   109.50335586
_cell_angle_beta   109.40518993
_cell_angle_gamma   109.40669424
_symmetry_Int_Tables_number   1
_chemical_formula_structural   Li12NdLu11(TeO6)8
_chemical_formula_sum   'Li12 Nd1 Lu11 Te8 O48'
_cell_volume   921.18020990
_cell_formula_units_Z   1
loop_
 _symmetry_equiv_pos_site_id
 _symmetry_equiv_pos_as_xyz
  1  'x, y, z'
loop_
 _atom_site_type_symbol
 _atom_site_label
 _atom_site_symmetry_multiplicity
 _atom_site_fract_x
 _atom_site_fract_y
 _atom_site_fract_z
 _atom_site_occupancy
  Li  Li0  1  0.750000  0.875103  0.125103  1
  Li  Li1  1  0.375334  0.751646  0.125132  1
  Li  Li2  1  0.375291  0.123663  0.250168  1
  Li  Li3  1  0.875376  0.625176  0.250446  1
  Li  Li4  1  0.124667  0.249797  0.376313  1
  Li  Li5  1  0.250000  0.626618  0.376619  1
  Li  Li6  1  0.750000  0.374879  0.624881  1
  Li  Li7  1  0.875360  0.750204  0.624925  1
  Li  Li8  1  0.624625  0.875071  0.749800  1
  Li  Li9  1  0.124709  0.374876  0.748371  1
  Li  Li10  1  0.250001  0.123374  0.873376  1
  Li  Li11  1  0.624641  0.249565  0.874846  1
  Nd  Nd12  1  0.250000  0.375002  0.125003  1
  Lu  Lu13  1  0.872674  0.248828  0.124386  1
  Lu  Lu14  1  0.124936  0.875020  0.250035  1
  Lu  Lu15  1  0.627335  0.375611  0.251194  1
  Lu  Lu16  1  0.749998  0.125007  0.375008  1
  Lu  Lu17  1  0.627326  0.751712  0.376155  1
  Lu  Lu18  1  0.250000  0.874996  0.624996  1
  Lu  Lu19  1  0.375111  0.250013  0.625016  1
  Lu  Lu20  1  0.872666  0.123858  0.748277  1
  Lu  Lu21  1  0.375065  0.625101  0.750087  1
  Lu  Lu22  1  0.124889  0.749904  0.874901  1
  Lu  Lu23  1  0.750001  0.624973  0.874972  1
  Te  Te24  1  0.996100  0.996024  0.997548  1
  Te  Te25  1  0.499939  0.999743  0.999827  1
  Te  Te26  1  0.503899  0.501448  0.999924  1
  Te  Te27  1  0.996109  0.500077  0.998539  1
  Te  Te28  1  0.000044  0.500170  0.500249  1
  Te  Te29  1  0.499957  0.000203  0.500127  1
  Te  Te30  1  0.000059  0.999887  0.499804  1
  Te  Te31  1  0.503892  0.502432  0.503970  1
  O  O32  1  0.623402  0.202386  0.030088  1
  O  O33  1  0.414423  0.325203  0.026057  1
  O  O34  1  0.171666  0.701830  0.079599  1
  O  O35  1  0.906412  0.875427  0.080002  1
  O  O36  1  0.171645  0.969803  0.092035  1
  O  O37  1  0.917796  0.623984  0.091783  1
  O  O38  1  0.702377  0.029631  0.122757  1
  O  O39  1  0.426691  0.598506  0.123026  1
  O  O40  1  0.085565  0.473941  0.174782  1
  O  O41  1  0.073310  0.196335  0.171816  1
  O  O42  1  0.530034  0.122503  0.202840  1
  O  O43  1  0.674410  0.580875  0.203778  1
  O  O44  1  0.876600  0.469907  0.297604  1
  O  O45  1  0.426670  0.328168  0.303665  1
  O  O46  1  0.530052  0.907569  0.327214  1
  O  O47  1  0.797622  0.920379  0.327255  1
  O  O48  1  0.414438  0.589220  0.388379  1
  O  O49  1  0.969948  0.297162  0.377518  1
  O  O50  1  0.376917  0.080094  0.407504  1
  O  O51  1  0.030419  0.826960  0.407321  1
  O  O52  1  0.297416  0.827582  0.420081  1
  O  O53  1  0.123045  0.092554  0.419929  1
  O  O54  1  0.797623  0.377248  0.470394  1
  O  O55  1  0.674442  0.593543  0.470689  1
  O  O56  1  0.202583  0.622665  0.530167  1
  O  O57  1  0.328334  0.407934  0.530164  1
  O  O58  1  0.876598  0.906686  0.578986  1
  O  O59  1  0.702377  0.172773  0.579624  1
  O  O60  1  0.969964  0.172807  0.592469  1
  O  O61  1  0.623401  0.921004  0.593307  1
  O  O62  1  0.030396  0.703462  0.623032  1
  O  O63  1  0.593614  0.419991  0.624577  1
  O  O64  1  0.202592  0.079925  0.672419  1
  O  O65  1  0.469604  0.092634  0.673064  1
  O  O66  1  0.582204  0.673986  0.706188  1
  O  O67  1  0.123082  0.530587  0.703176  1
  O  O68  1  0.328354  0.420389  0.798157  1
  O  O69  1  0.469582  0.876902  0.796542  1
  O  O70  1  0.917866  0.793811  0.826015  1
  O  O71  1  0.906386  0.530961  0.826377  1
  O  O72  1  0.582134  0.408149  0.875945  1
  O  O73  1  0.297409  0.969828  0.877335  1
  O  O74  1  0.825591  0.029369  0.906465  1
  O  O75  1  0.073329  0.376994  0.901498  1
  O  O76  1  0.085577  0.111633  0.910778  1
  O  O77  1  0.825557  0.296247  0.919101  1
  O  O78  1  0.376956  0.796883  0.969509  1
  O  O79  1  0.593589  0.673590  0.969017  1
