# generated using pymatgen
data_Al2ReB4Mo3
_symmetry_space_group_name_H-M   'P 1'
_cell_length_a   5.86359086
_cell_length_b   5.86360779
_cell_length_c   3.15376200
_cell_angle_alpha   90.00000000
_cell_angle_beta   90.00000000
_cell_angle_gamma   90.50353341
_symmetry_Int_Tables_number   1
_chemical_formula_structural   Al2ReB4Mo3
_chemical_formula_sum   'Al2 Re1 B4 Mo3'
_cell_volume   108.42781762
_cell_formula_units_Z   1
loop_
 _symmetry_equiv_pos_site_id
 _symmetry_equiv_pos_as_xyz
  1  'x, y, z'
loop_
 _atom_site_type_symbol
 _atom_site_label
 _atom_site_symmetry_multiplicity
 _atom_site_fract_x
 _atom_site_fract_y
 _atom_site_fract_z
 _atom_site_occupancy
  Al  Al0  1  0.498608  0.501036  0.000000  1
  Al  Al1  1  0.001038  0.998607  0.000000  1
  Re  Re2  1  0.676295  0.176300  0.500000  1
  B  B3  1  0.111720  0.611721  0.000000  1
  B  B4  1  0.887474  0.387472  0.000000  1
  B  B5  1  0.612303  0.887981  0.000000  1
  B  B6  1  0.387983  0.112303  0.000000  1
  Mo  Mo7  1  0.326072  0.826068  0.500000  1
  Mo  Mo8  1  0.175133  0.323378  0.500000  1
  Mo  Mo9  1  0.823377  0.675134  0.500000  1
