# generated using pymatgen
data_TbGd6GeI12
_symmetry_space_group_name_H-M   'P 1'
_cell_length_a   9.87127369
_cell_length_b   9.87127362
_cell_length_c   9.87127400
_cell_angle_alpha   107.80107902
_cell_angle_beta   107.80107889
_cell_angle_gamma   107.80107426
_symmetry_Int_Tables_number   1
_chemical_formula_structural   TbGd6GeI12
_chemical_formula_sum   'Tb1 Gd6 Ge1 I12'
_cell_volume   782.89590890
_cell_formula_units_Z   1
loop_
 _symmetry_equiv_pos_site_id
 _symmetry_equiv_pos_as_xyz
  1  'x, y, z'
loop_
 _atom_site_type_symbol
 _atom_site_label
 _atom_site_symmetry_multiplicity
 _atom_site_fract_x
 _atom_site_fract_y
 _atom_site_fract_z
 _atom_site_occupancy
  Tb  Tb0  1  0.500000  0.500000  0.500000  1
  Gd  Gd1  1  0.895714  0.687278  0.968005  1
  Gd  Gd2  1  0.968005  0.895714  0.687278  1
  Gd  Gd3  1  0.687278  0.968005  0.895714  1
  Gd  Gd4  1  0.104286  0.312722  0.031995  1
  Gd  Gd5  1  0.031995  0.104286  0.312722  1
  Gd  Gd6  1  0.312722  0.031995  0.104286  1
  Ge  Ge7  1  0.000000  0.000000  0.000000  1
  I  I8  1  0.771824  0.315518  0.924478  1
  I  I9  1  0.924478  0.771824  0.315518  1
  I  I10  1  0.315518  0.924478  0.771824  1
  I  I11  1  0.228176  0.684482  0.075522  1
  I  I12  1  0.075522  0.228176  0.684482  1
  I  I13  1  0.684482  0.075522  0.228176  1
  I  I14  1  0.531837  0.612082  0.841194  1
  I  I15  1  0.841194  0.531837  0.612082  1
  I  I16  1  0.612082  0.841194  0.531837  1
  I  I17  1  0.468163  0.387918  0.158806  1
  I  I18  1  0.158806  0.468163  0.387918  1
  I  I19  1  0.387918  0.158806  0.468163  1
