# generated using pymatgen
data_Sc10SnBi3Se2
_symmetry_space_group_name_H-M   'P 1'
_cell_length_a   7.51549200
_cell_length_b   8.65582604
_cell_length_c   11.27941406
_cell_angle_alpha   89.98831720
_cell_angle_beta   90.00000000
_cell_angle_gamma   90.00000000
_symmetry_Int_Tables_number   1
_chemical_formula_structural   Sc10SnBi3Se2
_chemical_formula_sum   'Sc20 Sn2 Bi6 Se4'
_cell_volume   733.75735455
_cell_formula_units_Z   2
loop_
 _symmetry_equiv_pos_site_id
 _symmetry_equiv_pos_as_xyz
  1  'x, y, z'
loop_
 _atom_site_type_symbol
 _atom_site_label
 _atom_site_symmetry_multiplicity
 _atom_site_fract_x
 _atom_site_fract_y
 _atom_site_fract_z
 _atom_site_occupancy
  Sc  Sc0  1  0.184357  0.059608  0.939353  1
  Sc  Sc1  1  0.316877  0.059815  0.439377  1
  Sc  Sc2  1  0.314494  0.441554  0.441370  1
  Sc  Sc3  1  0.344966  0.741619  0.711293  1
  Sc  Sc4  1  0.471952  0.747022  0.998915  1
  Sc  Sc5  1  0.141631  0.249859  0.207947  1
  Sc  Sc6  1  0.816877  0.940185  0.060623  1
  Sc  Sc7  1  0.641631  0.750141  0.292053  1
  Sc  Sc8  1  0.030327  0.746333  0.504067  1
  Sc  Sc9  1  0.684357  0.940392  0.560647  1
  Sc  Sc10  1  0.185795  0.442929  0.935052  1
  Sc  Sc11  1  0.357140  0.257756  0.710219  1
  Sc  Sc12  1  0.152336  0.750143  0.208101  1
  Sc  Sc13  1  0.971952  0.252978  0.501085  1
  Sc  Sc14  1  0.685795  0.557071  0.564948  1
  Sc  Sc15  1  0.652336  0.249857  0.291899  1
  Sc  Sc16  1  0.814494  0.558446  0.058630  1
  Sc  Sc17  1  0.530327  0.253667  0.995933  1
  Sc  Sc18  1  0.844966  0.258381  0.788707  1
  Sc  Sc19  1  0.857140  0.742244  0.789781  1
  Sn  Sn20  1  0.070575  0.491568  0.673075  1
  Sn  Sn21  1  0.570575  0.508432  0.826925  1
  Bi  Bi22  1  0.928831  0.991349  0.327142  1
  Bi  Bi23  1  0.428831  0.008651  0.172858  1
  Bi  Bi24  1  0.571906  0.991329  0.824462  1
  Bi  Bi25  1  0.427714  0.491530  0.175184  1
  Bi  Bi26  1  0.071906  0.008671  0.675538  1
  Bi  Bi27  1  0.927714  0.508470  0.324816  1
  Se  Se28  1  0.411883  0.750265  0.477785  1
  Se  Se29  1  0.089216  0.750535  0.975191  1
  Se  Se30  1  0.589216  0.249465  0.524809  1
  Se  Se31  1  0.911883  0.249735  0.022215  1
