# generated using pymatgen
data_Na3Ga2(SiPt2)2
_symmetry_space_group_name_H-M   'P 1'
_cell_length_a   6.71932326
_cell_length_b   6.71932324
_cell_length_c   6.48683732
_cell_angle_alpha   109.43989320
_cell_angle_beta   109.43989883
_cell_angle_gamma   110.94030166
_symmetry_Int_Tables_number   1
_chemical_formula_structural   Na3Ga2(SiPt2)2
_chemical_formula_sum   'Na3 Ga2 Si2 Pt4'
_cell_volume   221.41861073
_cell_formula_units_Z   1
loop_
 _symmetry_equiv_pos_site_id
 _symmetry_equiv_pos_as_xyz
  1  'x, y, z'
loop_
 _atom_site_type_symbol
 _atom_site_label
 _atom_site_symmetry_multiplicity
 _atom_site_fract_x
 _atom_site_fract_y
 _atom_site_fract_z
 _atom_site_occupancy
  Na  Na0  1  0.498417  0.498417  0.000000  1
  Na  Na1  1  0.496414  0.996414  0.500000  1
  Na  Na2  1  0.996414  0.496414  0.500000  1
  Ga  Ga3  1  0.372708  0.007299  0.000000  1
  Ga  Ga4  1  0.007299  0.372708  0.000000  1
  Si  Si5  1  0.004408  0.004408  0.364715  1
  Si  Si6  1  0.639693  0.639693  0.635285  1
  Pt  Pt7  1  0.725648  0.988054  0.000000  1
  Pt  Pt8  1  0.988054  0.725648  0.000000  1
  Pt  Pt9  1  0.282778  0.282778  0.294611  1
  Pt  Pt10  1  0.988168  0.988168  0.705390  1
