# generated using pymatgen
data_Dy4TlIr
_symmetry_space_group_name_H-M   'P 1'
_cell_length_a   9.68668363
_cell_length_b   9.68668347
_cell_length_c   9.68668300
_cell_angle_alpha   59.99999818
_cell_angle_beta   59.99999875
_cell_angle_gamma   60.00000254
_symmetry_Int_Tables_number   1
_chemical_formula_structural   Dy4TlIr
_chemical_formula_sum   'Dy16 Tl4 Ir4'
_cell_volume   642.70297830
_cell_formula_units_Z   4
loop_
 _symmetry_equiv_pos_site_id
 _symmetry_equiv_pos_as_xyz
  1  'x, y, z'
loop_
 _atom_site_type_symbol
 _atom_site_label
 _atom_site_symmetry_multiplicity
 _atom_site_fract_x
 _atom_site_fract_y
 _atom_site_fract_z
 _atom_site_occupancy
  Dy  Dy0  1  0.599328  0.599328  0.599328  1
  Dy  Dy1  1  0.599328  0.599328  0.202014  1
  Dy  Dy2  1  0.599328  0.202014  0.599328  1
  Dy  Dy3  1  0.202014  0.599328  0.599328  1
  Dy  Dy4  1  0.060392  0.439608  0.439608  1
  Dy  Dy5  1  0.439608  0.060392  0.060392  1
  Dy  Dy6  1  0.439608  0.060392  0.439608  1
  Dy  Dy7  1  0.060392  0.439608  0.060392  1
  Dy  Dy8  1  0.439608  0.439608  0.060392  1
  Dy  Dy9  1  0.060392  0.060392  0.439608  1
  Dy  Dy10  1  0.189938  0.810062  0.810062  1
  Dy  Dy11  1  0.810062  0.189938  0.189938  1
  Dy  Dy12  1  0.810062  0.189938  0.810062  1
  Dy  Dy13  1  0.189938  0.810062  0.189938  1
  Dy  Dy14  1  0.810062  0.810062  0.189938  1
  Dy  Dy15  1  0.189938  0.189938  0.810062  1
  Tl  Tl16  1  0.835900  0.835900  0.835900  1
  Tl  Tl17  1  0.835900  0.835900  0.492300  1
  Tl  Tl18  1  0.835900  0.492300  0.835900  1
  Tl  Tl19  1  0.492300  0.835900  0.835900  1
  Ir  Ir20  1  0.391717  0.391717  0.391717  1
  Ir  Ir21  1  0.391717  0.391717  0.824850  1
  Ir  Ir22  1  0.391717  0.824850  0.391717  1
  Ir  Ir23  1  0.824850  0.391717  0.391717  1
