# generated using pymatgen
data_Pr7Nd8Th(CdIr)4
_symmetry_space_group_name_H-M   'P 1'
_cell_length_a   10.02776101
_cell_length_b   10.02775995
_cell_length_c   10.02218909
_cell_angle_alpha   59.84401406
_cell_angle_beta   59.84401922
_cell_angle_gamma   59.87603873
_symmetry_Int_Tables_number   1
_chemical_formula_structural   Pr7Nd8Th(CdIr)4
_chemical_formula_sum   'Pr7 Nd8 Th1 Cd4 Ir4'
_cell_volume   710.26586709
_cell_formula_units_Z   1
loop_
 _symmetry_equiv_pos_site_id
 _symmetry_equiv_pos_as_xyz
  1  'x, y, z'
loop_
 _atom_site_type_symbol
 _atom_site_label
 _atom_site_symmetry_multiplicity
 _atom_site_fract_x
 _atom_site_fract_y
 _atom_site_fract_z
 _atom_site_occupancy
  Pr  Pr0  1  0.809270  0.809270  0.190523  1
  Pr  Pr1  1  0.940507  0.561357  0.561669  1
  Pr  Pr2  1  0.559907  0.939472  0.938719  1
  Pr  Pr3  1  0.561357  0.940507  0.561669  1
  Pr  Pr4  1  0.939472  0.559907  0.938719  1
  Pr  Pr5  1  0.561683  0.561683  0.940044  1
  Pr  Pr6  1  0.939296  0.939296  0.559955  1
  Nd  Nd7  1  0.348420  0.348420  0.954747  1
  Nd  Nd8  1  0.348256  0.954228  0.348594  1
  Nd  Nd9  1  0.954228  0.348256  0.348594  1
  Nd  Nd10  1  0.810562  0.189665  0.190595  1
  Nd  Nd11  1  0.189988  0.809395  0.809478  1
  Nd  Nd12  1  0.189665  0.810562  0.190595  1
  Nd  Nd13  1  0.809395  0.189988  0.809478  1
  Nd  Nd14  1  0.190025  0.190025  0.810567  1
  Th  Th15  1  0.344793  0.344793  0.344282  1
  Cd  Cd16  1  0.579354  0.579354  0.579609  1
  Cd  Cd17  1  0.578983  0.578983  0.260290  1
  Cd  Cd18  1  0.579089  0.260078  0.579182  1
  Cd  Cd19  1  0.260078  0.579089  0.579182  1
  Ir  Ir20  1  0.142095  0.142095  0.141491  1
  Ir  Ir21  1  0.145992  0.145992  0.571057  1
  Ir  Ir22  1  0.146806  0.570777  0.145479  1
  Ir  Ir23  1  0.570777  0.146806  0.145479  1
