# generated using pymatgen
data_Rb3InPbI6
_symmetry_space_group_name_H-M   'P 1'
_cell_length_a   10.18685573
_cell_length_b   10.18685552
_cell_length_c   10.18685594
_cell_angle_alpha   91.25027602
_cell_angle_beta   91.25027546
_cell_angle_gamma   91.25027792
_symmetry_Int_Tables_number   1
_chemical_formula_structural   Rb3InPbI6
_chemical_formula_sum   'Rb6 In2 Pb2 I12'
_cell_volume   1056.34449988
_cell_formula_units_Z   2
loop_
 _symmetry_equiv_pos_site_id
 _symmetry_equiv_pos_as_xyz
  1  'x, y, z'
loop_
 _atom_site_type_symbol
 _atom_site_label
 _atom_site_symmetry_multiplicity
 _atom_site_fract_x
 _atom_site_fract_y
 _atom_site_fract_z
 _atom_site_occupancy
  Rb  Rb0  1  0.250000  0.631595  0.868405  1
  Rb  Rb1  1  0.868405  0.250000  0.631595  1
  Rb  Rb2  1  0.631595  0.868405  0.250000  1
  Rb  Rb3  1  0.750000  0.368405  0.131595  1
  Rb  Rb4  1  0.131595  0.750000  0.368405  1
  Rb  Rb5  1  0.368405  0.131595  0.750000  1
  In  In6  1  0.250000  0.250000  0.250000  1
  In  In7  1  0.750000  0.750000  0.750000  1
  Pb  Pb8  1  0.000000  0.000000  0.000000  1
  Pb  Pb9  1  0.500000  0.500000  0.500000  1
  I  I10  1  0.551999  0.196013  0.419553  1
  I  I11  1  0.419553  0.551999  0.196013  1
  I  I12  1  0.196013  0.419553  0.551999  1
  I  I13  1  0.948001  0.080447  0.303987  1
  I  I14  1  0.303987  0.948001  0.080447  1
  I  I15  1  0.080447  0.303987  0.948001  1
  I  I16  1  0.448001  0.803987  0.580447  1
  I  I17  1  0.580447  0.448001  0.803987  1
  I  I18  1  0.803987  0.580447  0.448001  1
  I  I19  1  0.051999  0.919553  0.696013  1
  I  I20  1  0.919553  0.696013  0.051999  1
  I  I21  1  0.696013  0.051999  0.919553  1
