# generated using pymatgen
data_Pr4MgScSi4
_symmetry_space_group_name_H-M   'P 1'
_cell_length_a   7.42674800
_cell_length_b   7.42674800
_cell_length_c   4.42508600
_cell_angle_alpha   90.00000000
_cell_angle_beta   90.00000000
_cell_angle_gamma   90.00000000
_symmetry_Int_Tables_number   1
_chemical_formula_structural   Pr4MgScSi4
_chemical_formula_sum   'Pr4 Mg1 Sc1 Si4'
_cell_volume   244.07263588
_cell_formula_units_Z   1
loop_
 _symmetry_equiv_pos_site_id
 _symmetry_equiv_pos_as_xyz
  1  'x, y, z'
loop_
 _atom_site_type_symbol
 _atom_site_label
 _atom_site_symmetry_multiplicity
 _atom_site_fract_x
 _atom_site_fract_y
 _atom_site_fract_z
 _atom_site_occupancy
  Pr  Pr0  1  0.674125  0.183784  0.500000  1
  Pr  Pr1  1  0.325875  0.816216  0.500000  1
  Pr  Pr2  1  0.183784  0.325875  0.500000  1
  Pr  Pr3  1  0.816216  0.674125  0.500000  1
  Mg  Mg4  1  0.500000  0.500000  0.000000  1
  Sc  Sc5  1  0.000000  0.000000  0.000000  1
  Si  Si6  1  0.108439  0.623172  0.000000  1
  Si  Si7  1  0.891561  0.376828  0.000000  1
  Si  Si8  1  0.623172  0.891561  0.000000  1
  Si  Si9  1  0.376828  0.108439  0.000000  1
