# generated using pymatgen
data_NaTmB4Ir5
_symmetry_space_group_name_H-M   'P 1'
_cell_length_a   7.46149256
_cell_length_b   6.29299363
_cell_length_c   5.59442321
_cell_angle_alpha   77.51195114
_cell_angle_beta   55.43087089
_cell_angle_gamma   47.05719223
_symmetry_Int_Tables_number   1
_chemical_formula_structural   NaTmB4Ir5
_chemical_formula_sum   'Na1 Tm1 B4 Ir5'
_cell_volume   151.89245068
_cell_formula_units_Z   1
loop_
 _symmetry_equiv_pos_site_id
 _symmetry_equiv_pos_as_xyz
  1  'x, y, z'
loop_
 _atom_site_type_symbol
 _atom_site_label
 _atom_site_symmetry_multiplicity
 _atom_site_fract_x
 _atom_site_fract_y
 _atom_site_fract_z
 _atom_site_occupancy
  Na  Na0  1  0.647162  0.647163  0.352838  1
  Tm  Tm1  1  0.371221  0.371221  0.628779  1
  B  B2  1  0.287819  0.972112  0.027889  1
  B  B3  1  0.022382  0.707071  0.292930  1
  B  B4  1  0.972111  0.287819  0.712181  1
  B  B5  1  0.707070  0.022383  0.977618  1
  Ir  Ir6  1  0.996376  0.996376  0.003624  1
  Ir  Ir7  1  0.499737  0.499735  0.000264  1
  Ir  Ir8  1  0.248194  0.248192  0.251806  1
  Ir  Ir9  1  0.999736  0.999736  0.500263  1
  Ir  Ir10  1  0.748194  0.748193  0.751806  1
