# generated using pymatgen
data_Ho5RuRh
_symmetry_space_group_name_H-M   'P 1'
_cell_length_a   6.34705893
_cell_length_b   7.26832495
_cell_length_c   8.49080768
_cell_angle_alpha   96.70238214
_cell_angle_beta   111.94772857
_cell_angle_gamma   89.99999748
_symmetry_Int_Tables_number   1
_chemical_formula_structural   Ho5RuRh
_chemical_formula_sum   'Ho10 Ru2 Rh2'
_cell_volume   360.42579649
_cell_formula_units_Z   2
loop_
 _symmetry_equiv_pos_site_id
 _symmetry_equiv_pos_as_xyz
  1  'x, y, z'
loop_
 _atom_site_type_symbol
 _atom_site_label
 _atom_site_symmetry_multiplicity
 _atom_site_fract_x
 _atom_site_fract_y
 _atom_site_fract_z
 _atom_site_occupancy
  Ho  Ho0  1  0.980096  0.917322  0.187661  1
  Ho  Ho1  1  0.792435  0.582678  0.812339  1
  Ho  Ho2  1  0.023445  0.085117  0.813969  1
  Ho  Ho3  1  0.209477  0.414883  0.186031  1
  Ho  Ho4  1  0.641228  0.815321  0.434535  1
  Ho  Ho5  1  0.206692  0.684679  0.565465  1
  Ho  Ho6  1  0.357043  0.186752  0.563524  1
  Ho  Ho7  1  0.793520  0.313248  0.436476  1
  Ho  Ho8  1  0.418464  0.750000  0.000000  1
  Ho  Ho9  1  0.578983  0.250000  0.000000  1
  Ru  Ru10  1  0.177072  0.424813  0.779608  1
  Ru  Ru11  1  0.397463  0.075187  0.220392  1
  Rh  Rh12  1  0.822346  0.576477  0.220612  1
  Rh  Rh13  1  0.601735  0.923523  0.779388  1
