# generated using pymatgen
data_Yb3CeCu3Sb8
_symmetry_space_group_name_H-M   'P 1'
_cell_length_a   10.54720549
_cell_length_b   10.65858372
_cell_length_c   10.62536262
_cell_angle_alpha   146.03136062
_cell_angle_beta   145.84927745
_cell_angle_gamma   48.66823666
_symmetry_Int_Tables_number   1
_chemical_formula_structural   Yb3CeCu3Sb8
_chemical_formula_sum   'Yb3 Ce1 Cu3 Sb8'
_cell_volume   373.38146003
_cell_formula_units_Z   1
loop_
 _symmetry_equiv_pos_site_id
 _symmetry_equiv_pos_as_xyz
  1  'x, y, z'
loop_
 _atom_site_type_symbol
 _atom_site_label
 _atom_site_symmetry_multiplicity
 _atom_site_fract_x
 _atom_site_fract_y
 _atom_site_fract_z
 _atom_site_occupancy
  Yb  Yb0  1  0.638966  0.638252  0.512405  1
  Yb  Yb1  1  0.126560  0.125846  0.487595  1
  Yb  Yb2  1  0.363236  0.867911  0.000000  1
  Ce  Ce3  1  0.866203  0.366447  0.000000  1
  Cu  Cu4  1  0.013822  0.981290  0.000000  1
  Cu  Cu5  1  0.001325  0.516075  0.517665  1
  Cu  Cu6  1  0.483660  0.998411  0.482335  1
  Sb  Sb7  1  0.321853  0.332401  0.504269  1
  Sb  Sb8  1  0.817584  0.828132  0.495731  1
  Sb  Sb9  1  0.679404  0.191497  0.000000  1
  Sb  Sb10  1  0.196045  0.659661  0.000000  1
  Sb  Sb11  1  0.245230  0.252466  0.000000  1
  Sb  Sb12  1  0.749560  0.746178  0.000000  1
  Sb  Sb13  1  0.750469  0.249909  0.504388  1
  Sb  Sb14  1  0.246082  0.745522  0.495612  1
