# generated using pymatgen
data_Lu2Hf4Pb5
_symmetry_space_group_name_H-M   'P 1'
_cell_length_a   6.03422590
_cell_length_b   9.09465497
_cell_length_c   11.28209777
_cell_angle_alpha   113.76942909
_cell_angle_beta   105.51108867
_cell_angle_gamma   89.99999889
_symmetry_Int_Tables_number   1
_chemical_formula_structural   Lu2Hf4Pb5
_chemical_formula_sum   'Lu4 Hf8 Pb10'
_cell_volume   541.90136592
_cell_formula_units_Z   2
loop_
 _symmetry_equiv_pos_site_id
 _symmetry_equiv_pos_as_xyz
  1  'x, y, z'
loop_
 _atom_site_type_symbol
 _atom_site_label
 _atom_site_symmetry_multiplicity
 _atom_site_fract_x
 _atom_site_fract_y
 _atom_site_fract_z
 _atom_site_occupancy
  Lu  Lu0  1  0.144066  0.253770  0.288132  1
  Lu  Lu1  1  0.855934  0.746230  0.711868  1
  Lu  Lu2  1  0.644066  0.034362  0.288132  1
  Lu  Lu3  1  0.355934  0.965638  0.711868  1
  Hf  Hf4  1  0.561985  0.311985  0.623969  1
  Hf  Hf5  1  0.438015  0.688015  0.376031  1
  Hf  Hf6  1  0.938015  0.688015  0.376031  1
  Hf  Hf7  1  0.061985  0.311985  0.623969  1
  Hf  Hf8  1  0.433851  0.671241  0.867702  1
  Hf  Hf9  1  0.566149  0.328759  0.132298  1
  Hf  Hf10  1  0.933851  0.196460  0.867702  1
  Hf  Hf11  1  0.066149  0.803540  0.132298  1
  Pb  Pb12  1  0.288673  0.590684  0.577346  1
  Pb  Pb13  1  0.711327  0.409316  0.422654  1
  Pb  Pb14  1  0.788673  0.986662  0.577346  1
  Pb  Pb15  1  0.211327  0.013338  0.422654  1
  Pb  Pb16  1  0.250000  0.000000  0.000000  1
  Pb  Pb17  1  0.750000  0.000000  0.000000  1
  Pb  Pb18  1  0.067313  0.460816  0.134626  1
  Pb  Pb19  1  0.932687  0.539184  0.865374  1
  Pb  Pb20  1  0.567313  0.673810  0.134626  1
  Pb  Pb21  1  0.432687  0.326190  0.865374  1
