# generated using pymatgen
data_Hf12Ga5Cu4Sb3
_symmetry_space_group_name_H-M   'P 1'
_cell_length_a   5.66829100
_cell_length_b   8.58308392
_cell_length_c   9.25834739
_cell_angle_alpha   89.85326861
_cell_angle_beta   90.00000000
_cell_angle_gamma   90.00000000
_symmetry_Int_Tables_number   1
_chemical_formula_structural   Hf12Ga5Cu4Sb3
_chemical_formula_sum   'Hf12 Ga5 Cu4 Sb3'
_cell_volume   450.43024558
_cell_formula_units_Z   1
loop_
 _symmetry_equiv_pos_site_id
 _symmetry_equiv_pos_as_xyz
  1  'x, y, z'
loop_
 _atom_site_type_symbol
 _atom_site_label
 _atom_site_symmetry_multiplicity
 _atom_site_fract_x
 _atom_site_fract_y
 _atom_site_fract_z
 _atom_site_occupancy
  Hf  Hf0  1  0.002205  0.743879  0.123645  1
  Hf  Hf1  1  0.496947  0.253185  0.879310  1
  Hf  Hf2  1  0.003053  0.253185  0.879310  1
  Hf  Hf3  1  0.497795  0.743879  0.123645  1
  Hf  Hf4  1  0.750000  0.469910  0.609486  1
  Hf  Hf5  1  0.250000  0.526778  0.378825  1
  Hf  Hf6  1  0.750000  0.969157  0.394501  1
  Hf  Hf7  1  0.250000  0.031624  0.608500  1
  Hf  Hf8  1  0.750000  0.374210  0.200630  1
  Hf  Hf9  1  0.250000  0.624486  0.803065  1
  Hf  Hf10  1  0.750000  0.870770  0.798045  1
  Hf  Hf11  1  0.250000  0.137621  0.198925  1
  Ga  Ga12  1  0.250000  0.446518  0.087028  1
  Ga  Ga13  1  0.750000  0.139214  0.642170  1
  Ga  Ga14  1  0.250000  0.865422  0.358800  1
  Ga  Ga15  1  0.750000  0.637521  0.360979  1
  Ga  Ga16  1  0.250000  0.365284  0.637816  1
  Cu  Cu17  1  0.003886  0.748117  0.564034  1
  Cu  Cu18  1  0.500869  0.250527  0.436503  1
  Cu  Cu19  1  0.999131  0.250527  0.436503  1
  Cu  Cu20  1  0.496114  0.748117  0.564034  1
  Sb  Sb21  1  0.750000  0.052650  0.091354  1
  Sb  Sb22  1  0.250000  0.945966  0.910718  1
  Sb  Sb23  1  0.750000  0.551453  0.912171  1
