# generated using pymatgen
data_Y4TmHf3Pt4
_symmetry_space_group_name_H-M   'P 1'
_cell_length_a   4.70904300
_cell_length_b   7.11387562
_cell_length_c   8.31970266
_cell_angle_alpha   90.71274487
_cell_angle_beta   90.00000000
_cell_angle_gamma   90.00000000
_symmetry_Int_Tables_number   1
_chemical_formula_structural   Y4TmHf3Pt4
_chemical_formula_sum   'Y4 Tm1 Hf3 Pt4'
_cell_volume   278.68469950
_cell_formula_units_Z   1
loop_
 _symmetry_equiv_pos_site_id
 _symmetry_equiv_pos_as_xyz
  1  'x, y, z'
loop_
 _atom_site_type_symbol
 _atom_site_label
 _atom_site_symmetry_multiplicity
 _atom_site_fract_x
 _atom_site_fract_y
 _atom_site_fract_z
 _atom_site_occupancy
  Y  Y0  1  0.250000  0.978814  0.328239  1
  Y  Y1  1  0.250000  0.485215  0.173882  1
  Y  Y2  1  0.750000  0.021063  0.679737  1
  Y  Y3  1  0.750000  0.520930  0.818020  1
  Tm  Tm4  1  0.750000  0.143568  0.079461  1
  Hf  Hf5  1  0.250000  0.360970  0.574181  1
  Hf  Hf6  1  0.250000  0.852447  0.924523  1
  Hf  Hf7  1  0.750000  0.647641  0.423633  1
  Pt  Pt8  1  0.250000  0.226777  0.886918  1
  Pt  Pt9  1  0.250000  0.729914  0.598251  1
  Pt  Pt10  1  0.750000  0.755608  0.097305  1
  Pt  Pt11  1  0.750000  0.277052  0.415849  1
