# generated using pymatgen
data_La3Pr5Cd2OsPd
_symmetry_space_group_name_H-M   'P 1'
_cell_length_a   10.07018273
_cell_length_b   10.11158707
_cell_length_c   10.19568641
_cell_angle_alpha   59.45504220
_cell_angle_beta   59.85859274
_cell_angle_gamma   59.93436419
_symmetry_Int_Tables_number   1
_chemical_formula_structural   La3Pr5Cd2OsPd
_chemical_formula_sum   'La6 Pr10 Cd4 Os2 Pd2'
_cell_volume   729.89664669
_cell_formula_units_Z   2
loop_
 _symmetry_equiv_pos_site_id
 _symmetry_equiv_pos_as_xyz
  1  'x, y, z'
loop_
 _atom_site_type_symbol
 _atom_site_label
 _atom_site_symmetry_multiplicity
 _atom_site_fract_x
 _atom_site_fract_y
 _atom_site_fract_z
 _atom_site_occupancy
  La  La0  1  0.346568  0.346559  0.356952  1
  La  La1  1  0.346564  0.346567  0.949920  1
  La  La2  1  0.343449  0.958255  0.347399  1
  La  La3  1  0.958238  0.343455  0.350932  1
  La  La4  1  0.820641  0.187344  0.189573  1
  La  La5  1  0.187351  0.820626  0.802431  1
  Pr  Pr6  1  0.189927  0.813609  0.193143  1
  Pr  Pr7  1  0.813614  0.189906  0.803322  1
  Pr  Pr8  1  0.189674  0.189675  0.810323  1
  Pr  Pr9  1  0.804752  0.804752  0.195247  1
  Pr  Pr10  1  0.935990  0.558340  0.567289  1
  Pr  Pr11  1  0.558326  0.935984  0.938403  1
  Pr  Pr12  1  0.558045  0.936425  0.566206  1
  Pr  Pr13  1  0.936448  0.558047  0.939320  1
  Pr  Pr14  1  0.563327  0.563350  0.936656  1
  Pr  Pr15  1  0.937845  0.937845  0.562158  1
  Cd  Cd16  1  0.580380  0.579195  0.580051  1
  Cd  Cd17  1  0.579197  0.580376  0.260376  1
  Cd  Cd18  1  0.580027  0.258610  0.581372  1
  Cd  Cd19  1  0.258607  0.580028  0.579990  1
  Os  Os20  1  0.139577  0.148053  0.138402  1
  Os  Os21  1  0.148032  0.139575  0.573956  1
  Pd  Pd22  1  0.148451  0.574967  0.136622  1
  Pd  Pd23  1  0.574969  0.148458  0.139957  1
