# generated using pymatgen
data_RbY2CuS4
_symmetry_space_group_name_H-M   'P 1'
_cell_length_a   3.99179200
_cell_length_b   7.17887372
_cell_length_c   13.84839300
_cell_angle_alpha   90.00000000
_cell_angle_beta   90.00000000
_cell_angle_gamma   73.85771199
_symmetry_Int_Tables_number   1
_chemical_formula_structural   RbY2CuS4
_chemical_formula_sum   'Rb2 Y4 Cu2 S8'
_cell_volume   381.20143117
_cell_formula_units_Z   2
loop_
 _symmetry_equiv_pos_site_id
 _symmetry_equiv_pos_as_xyz
  1  'x, y, z'
loop_
 _atom_site_type_symbol
 _atom_site_label
 _atom_site_symmetry_multiplicity
 _atom_site_fract_x
 _atom_site_fract_y
 _atom_site_fract_z
 _atom_site_occupancy
  Rb  Rb0  1  0.892920  0.214161  0.250000  1
  Rb  Rb1  1  0.107080  0.785838  0.750000  1
  Y  Y2  1  0.634324  0.731352  0.061987  1
  Y  Y3  1  0.634324  0.731352  0.438013  1
  Y  Y4  1  0.365675  0.268648  0.561987  1
  Y  Y5  1  0.365675  0.268648  0.938013  1
  Cu  Cu6  1  0.164744  0.670509  0.250000  1
  Cu  Cu7  1  0.835255  0.329492  0.750000  1
  S  S8  1  0.000000  0.000000  0.000000  1
  S  S9  1  0.259673  0.480650  0.108556  1
  S  S10  1  0.575618  0.848764  0.250000  1
  S  S11  1  0.259673  0.480650  0.391444  1
  S  S12  1  0.000000  0.000000  0.500000  1
  S  S13  1  0.740326  0.519350  0.608556  1
  S  S14  1  0.424381  0.151236  0.750000  1
  S  S15  1  0.740326  0.519350  0.891444  1
