# generated using pymatgen
data_Pr4GaBr6
_symmetry_space_group_name_H-M   'P 1'
_cell_length_a   4.24948900
_cell_length_b   13.94162000
_cell_length_c   14.73108700
_cell_angle_alpha   90.00000000
_cell_angle_beta   90.00000000
_cell_angle_gamma   90.00000000
_symmetry_Int_Tables_number   1
_chemical_formula_structural   Pr4GaBr6
_chemical_formula_sum   'Pr8 Ga2 Br12'
_cell_volume   872.73972611
_cell_formula_units_Z   2
loop_
 _symmetry_equiv_pos_site_id
 _symmetry_equiv_pos_as_xyz
  1  'x, y, z'
loop_
 _atom_site_type_symbol
 _atom_site_label
 _atom_site_symmetry_multiplicity
 _atom_site_fract_x
 _atom_site_fract_y
 _atom_site_fract_z
 _atom_site_occupancy
  Pr  Pr0  1  0.500000  0.119750  0.338113  1
  Pr  Pr1  1  0.500000  0.880250  0.661887  1
  Pr  Pr2  1  0.500000  0.619750  0.161887  1
  Pr  Pr3  1  0.500000  0.380250  0.838113  1
  Pr  Pr4  1  0.000000  0.123375  0.581744  1
  Pr  Pr5  1  0.000000  0.876625  0.418256  1
  Pr  Pr6  1  0.000000  0.623375  0.918256  1
  Pr  Pr7  1  0.000000  0.376625  0.081744  1
  Ga  Ga8  1  0.500000  0.000000  0.500000  1
  Ga  Ga9  1  0.500000  0.500000  0.000000  1
  Br  Br10  1  0.500000  0.244772  0.164415  1
  Br  Br11  1  0.500000  0.755228  0.835585  1
  Br  Br12  1  0.500000  0.744772  0.335585  1
  Br  Br13  1  0.500000  0.255228  0.664415  1
  Br  Br14  1  0.000000  0.253747  0.411175  1
  Br  Br15  1  0.000000  0.746253  0.588825  1
  Br  Br16  1  0.000000  0.753747  0.088825  1
  Br  Br17  1  0.000000  0.246253  0.911175  1
  Br  Br18  1  0.000000  0.001797  0.244267  1
  Br  Br19  1  0.000000  0.998203  0.755733  1
  Br  Br20  1  0.000000  0.501797  0.255733  1
  Br  Br21  1  0.000000  0.498203  0.744267  1
