# generated using pymatgen
data_K(Ni5P3)2
_symmetry_space_group_name_H-M   'P 1'
_cell_length_a   8.68596649
_cell_length_b   8.68596653
_cell_length_c   8.71575400
_cell_angle_alpha   90.00000000
_cell_angle_beta   90.00000000
_cell_angle_gamma   43.55320735
_symmetry_Int_Tables_number   1
_chemical_formula_structural   K(Ni5P3)2
_chemical_formula_sum   'K2 Ni20 P12'
_cell_volume   453.08331350
_cell_formula_units_Z   2
loop_
 _symmetry_equiv_pos_site_id
 _symmetry_equiv_pos_as_xyz
  1  'x, y, z'
loop_
 _atom_site_type_symbol
 _atom_site_label
 _atom_site_symmetry_multiplicity
 _atom_site_fract_x
 _atom_site_fract_y
 _atom_site_fract_z
 _atom_site_occupancy
  K  K0  1  0.500000  0.500000  0.000000  1
  K  K1  1  0.000000  0.000000  0.500000  1
  Ni  Ni2  1  0.205964  0.205964  0.291549  1
  Ni  Ni3  1  0.294036  0.294036  0.791549  1
  Ni  Ni4  1  0.794036  0.794036  0.708451  1
  Ni  Ni5  1  0.705963  0.705963  0.208450  1
  Ni  Ni6  1  0.085370  0.585368  0.249999  1
  Ni  Ni7  1  0.414632  0.914629  0.749999  1
  Ni  Ni8  1  0.914629  0.414632  0.749999  1
  Ni  Ni9  1  0.585368  0.085370  0.249999  1
  Ni  Ni10  1  0.373655  0.975172  0.030805  1
  Ni  Ni11  1  0.126345  0.524829  0.530805  1
  Ni  Ni12  1  0.024829  0.626346  0.969195  1
  Ni  Ni13  1  0.475171  0.873655  0.469195  1
  Ni  Ni14  1  0.626346  0.024829  0.969195  1
  Ni  Ni15  1  0.873655  0.475171  0.469195  1
  Ni  Ni16  1  0.975172  0.373655  0.030805  1
  Ni  Ni17  1  0.524829  0.126345  0.530805  1
  Ni  Ni18  1  0.044042  0.044042  0.119468  1
  Ni  Ni19  1  0.455959  0.455959  0.619468  1
  Ni  Ni20  1  0.955958  0.955958  0.880532  1
  Ni  Ni21  1  0.544042  0.544042  0.380533  1
  P  P22  1  0.091298  0.091298  0.872287  1
  P  P23  1  0.408703  0.408703  0.372286  1
  P  P24  1  0.908703  0.908703  0.127714  1
  P  P25  1  0.591297  0.591297  0.627713  1
  P  P26  1  0.356336  0.856334  0.249999  1
  P  P27  1  0.143666  0.643664  0.749999  1
  P  P28  1  0.643664  0.143666  0.749999  1
  P  P29  1  0.856334  0.356336  0.249999  1
  P  P30  1  0.207816  0.207816  0.573136  1
  P  P31  1  0.292184  0.292184  0.073135  1
  P  P32  1  0.792184  0.792184  0.426864  1
  P  P33  1  0.707816  0.707816  0.926864  1
