# generated using pymatgen
data_Er4Cd4PdPt3
_symmetry_space_group_name_H-M   'P 1'
_cell_length_a   4.05580000
_cell_length_b   7.23082172
_cell_length_c   8.86585800
_cell_angle_alpha   89.29986390
_cell_angle_beta   90.00000000
_cell_angle_gamma   90.00000000
_symmetry_Int_Tables_number   1
_chemical_formula_structural   Er4Cd4PdPt3
_chemical_formula_sum   'Er4 Cd4 Pd1 Pt3'
_cell_volume   259.98753772
_cell_formula_units_Z   1
loop_
 _symmetry_equiv_pos_site_id
 _symmetry_equiv_pos_as_xyz
  1  'x, y, z'
loop_
 _atom_site_type_symbol
 _atom_site_label
 _atom_site_symmetry_multiplicity
 _atom_site_fract_x
 _atom_site_fract_y
 _atom_site_fract_z
 _atom_site_occupancy
  Er  Er0  1  0.250000  0.049078  0.316782  1
  Er  Er1  1  0.250000  0.551126  0.180716  1
  Er  Er2  1  0.750000  0.944759  0.677213  1
  Er  Er3  1  0.750000  0.454263  0.827843  1
  Cd  Cd4  1  0.250000  0.134641  0.937048  1
  Cd  Cd5  1  0.250000  0.630156  0.561131  1
  Cd  Cd6  1  0.750000  0.868295  0.059777  1
  Cd  Cd7  1  0.750000  0.362627  0.440832  1
  Pd  Pd8  1  0.250000  0.230279  0.631996  1
  Pt  Pt9  1  0.250000  0.732348  0.866679  1
  Pt  Pt10  1  0.750000  0.770689  0.368122  1
  Pt  Pt11  1  0.750000  0.271740  0.131863  1
