# generated using pymatgen
data_DyTm7In2NiIr
_symmetry_space_group_name_H-M   'P 1'
_cell_length_a   9.51338413
_cell_length_b   9.51339036
_cell_length_c   9.47895804
_cell_angle_alpha   60.11093346
_cell_angle_beta   60.11099168
_cell_angle_gamma   60.31783174
_symmetry_Int_Tables_number   1
_chemical_formula_structural   DyTm7In2NiIr
_chemical_formula_sum   'Dy2 Tm14 In4 Ni2 Ir2'
_cell_volume   609.08535639
_cell_formula_units_Z   2
loop_
 _symmetry_equiv_pos_site_id
 _symmetry_equiv_pos_as_xyz
  1  'x, y, z'
loop_
 _atom_site_type_symbol
 _atom_site_label
 _atom_site_symmetry_multiplicity
 _atom_site_fract_x
 _atom_site_fract_y
 _atom_site_fract_z
 _atom_site_occupancy
  Dy  Dy0  1  0.813859  0.813860  0.186130  1
  Dy  Dy1  1  0.185808  0.185808  0.814178  1
  Tm  Tm2  1  0.597627  0.597627  0.598430  1
  Tm  Tm3  1  0.597657  0.597657  0.206295  1
  Tm  Tm4  1  0.596539  0.202660  0.600454  1
  Tm  Tm5  1  0.202660  0.596539  0.600454  1
  Tm  Tm6  1  0.061973  0.440428  0.437767  1
  Tm  Tm7  1  0.440389  0.062067  0.059818  1
  Tm  Tm8  1  0.440428  0.061973  0.437768  1
  Tm  Tm9  1  0.062067  0.440389  0.059818  1
  Tm  Tm10  1  0.439024  0.439024  0.060933  1
  Tm  Tm11  1  0.059708  0.059708  0.440302  1
  Tm  Tm12  1  0.190641  0.812578  0.806251  1
  Tm  Tm13  1  0.812572  0.190660  0.190553  1
  Tm  Tm14  1  0.812578  0.190641  0.806251  1
  Tm  Tm15  1  0.190660  0.812572  0.190553  1
  In  In16  1  0.833276  0.833276  0.832112  1
  In  In17  1  0.833296  0.833296  0.501309  1
  In  In18  1  0.832143  0.501291  0.833265  1
  In  In19  1  0.501291  0.832143  0.833265  1
  Ni  Ni20  1  0.391474  0.391474  0.392412  1
  Ni  Ni21  1  0.391459  0.391460  0.824563  1
  Ir  Ir22  1  0.388237  0.824634  0.393559  1
  Ir  Ir23  1  0.824633  0.388237  0.393558  1
