# generated using pymatgen
data_YLu2Mg3Pb2Au
_symmetry_space_group_name_H-M   'P 1'
_cell_length_a   7.49808801
_cell_length_b   7.49808685
_cell_length_c   4.51421700
_cell_angle_alpha   90.00000000
_cell_angle_beta   90.00000000
_cell_angle_gamma   120.27762147
_symmetry_Int_Tables_number   1
_chemical_formula_structural   YLu2Mg3Pb2Au
_chemical_formula_sum   'Y1 Lu2 Mg3 Pb2 Au1'
_cell_volume   219.17565599
_cell_formula_units_Z   1
loop_
 _symmetry_equiv_pos_site_id
 _symmetry_equiv_pos_as_xyz
  1  'x, y, z'
loop_
 _atom_site_type_symbol
 _atom_site_label
 _atom_site_symmetry_multiplicity
 _atom_site_fract_x
 _atom_site_fract_y
 _atom_site_fract_z
 _atom_site_occupancy
  Y  Y0  1  0.407832  0.407832  0.000000  1
  Lu  Lu1  1  0.597405  0.000689  0.000000  1
  Lu  Lu2  1  0.000689  0.597405  0.000000  1
  Mg  Mg3  1  0.232499  0.999719  0.500000  1
  Mg  Mg4  1  0.999719  0.232499  0.500000  1
  Mg  Mg5  1  0.766569  0.766569  0.500000  1
  Pb  Pb6  1  0.331628  0.668754  0.500000  1
  Pb  Pb7  1  0.668754  0.331628  0.500000  1
  Au  Au8  1  0.994906  0.994906  0.000000  1
