# generated using pymatgen
data_La2Pr4Cd23P
_symmetry_space_group_name_H-M   'P 1'
_cell_length_a   10.09025185
_cell_length_b   10.11916552
_cell_length_c   10.11916482
_cell_angle_alpha   59.99321095
_cell_angle_beta   60.09424166
_cell_angle_gamma   60.09423917
_symmetry_Int_Tables_number   1
_chemical_formula_structural   La2Pr4Cd23P
_chemical_formula_sum   'La2 Pr4 Cd23 P1'
_cell_volume   731.59577468
_cell_formula_units_Z   1
loop_
 _symmetry_equiv_pos_site_id
 _symmetry_equiv_pos_as_xyz
  1  'x, y, z'
loop_
 _atom_site_type_symbol
 _atom_site_label
 _atom_site_symmetry_multiplicity
 _atom_site_fract_x
 _atom_site_fract_y
 _atom_site_fract_z
 _atom_site_occupancy
  La  La0  1  0.795902  0.796490  0.203506  1
  La  La1  1  0.204098  0.796494  0.203510  1
  Pr  Pr2  1  0.796825  0.203672  0.202672  1
  Pr  Pr3  1  0.203397  0.203704  0.796295  1
  Pr  Pr4  1  0.796603  0.203705  0.796296  1
  Pr  Pr5  1  0.203175  0.797328  0.796328  1
  Cd  Cd6  1  0.832094  0.832374  0.503436  1
  Cd  Cd7  1  0.833131  0.501321  0.832418  1
  Cd  Cd8  1  0.501578  0.833131  0.832063  1
  Cd  Cd9  1  0.833227  0.833129  0.832065  1
  Cd  Cd10  1  0.166869  0.167582  0.498679  1
  Cd  Cd11  1  0.167906  0.496564  0.167626  1
  Cd  Cd12  1  0.498422  0.167937  0.166869  1
  Cd  Cd13  1  0.166773  0.167935  0.166871  1
  Cd  Cd14  1  0.621985  0.620637  0.135392  1
  Cd  Cd15  1  0.621305  0.135820  0.621570  1
  Cd  Cd16  1  0.135593  0.621022  0.622606  1
  Cd  Cd17  1  0.620779  0.621021  0.622606  1
  Cd  Cd18  1  0.378695  0.378430  0.864180  1
  Cd  Cd19  1  0.378015  0.864608  0.379363  1
  Cd  Cd20  1  0.864407  0.377394  0.378978  1
  Cd  Cd21  1  0.379221  0.377394  0.378979  1
  Cd  Cd22  1  0.999824  0.000462  0.499962  1
  Cd  Cd23  1  0.499750  0.000466  0.499962  1
  Cd  Cd24  1  0.000000  0.499811  0.500189  1
  Cd  Cd25  1  0.500250  0.500038  0.999534  1
  Cd  Cd26  1  0.000176  0.500038  0.999538  1
  Cd  Cd27  1  0.500000  0.000612  0.999388  1
  Cd  Cd28  1  0.500000  0.500035  0.499965  1
  P  P29  1  0.000000  0.000847  0.999153  1
