# generated using pymatgen
data_Nb16ZnCr3Te16
_symmetry_space_group_name_H-M   'P 1'
_cell_length_a   4.86484200
_cell_length_b   10.87885639
_cell_length_c   18.92317300
_cell_angle_alpha   90.02893530
_cell_angle_beta   90.00000000
_cell_angle_gamma   90.00000000
_symmetry_Int_Tables_number   1
_chemical_formula_structural   Nb16ZnCr3Te16
_chemical_formula_sum   'Nb16 Zn1 Cr3 Te16'
_cell_volume   1001.48831831
_cell_formula_units_Z   1
loop_
 _symmetry_equiv_pos_site_id
 _symmetry_equiv_pos_as_xyz
  1  'x, y, z'
loop_
 _atom_site_type_symbol
 _atom_site_label
 _atom_site_symmetry_multiplicity
 _atom_site_fract_x
 _atom_site_fract_y
 _atom_site_fract_z
 _atom_site_occupancy
  Nb  Nb0  1  0.499145  0.565719  0.380530  1
  Nb  Nb1  1  0.499145  0.434281  0.619470  1
  Nb  Nb2  1  0.500029  0.065846  0.119586  1
  Nb  Nb3  1  0.500029  0.934154  0.880414  1
  Nb  Nb4  1  0.498607  0.708755  0.537501  1
  Nb  Nb5  1  0.498607  0.291245  0.462499  1
  Nb  Nb6  1  0.499923  0.208991  0.962400  1
  Nb  Nb7  1  0.499923  0.791009  0.037600  1
  Nb  Nb8  1  0.001509  0.694080  0.441716  1
  Nb  Nb9  1  0.001509  0.305920  0.558284  1
  Nb  Nb10  1  0.000156  0.194227  0.058483  1
  Nb  Nb11  1  0.000156  0.805773  0.941517  1
  Nb  Nb12  1  0.000560  0.399005  0.388895  1
  Nb  Nb13  1  0.000560  0.600995  0.611105  1
  Nb  Nb14  1  0.000052  0.899058  0.111128  1
  Nb  Nb15  1  0.000052  0.100942  0.888872  1
  Zn  Zn16  1  0.249222  0.500000  0.500000  1
  Cr  Cr17  1  0.750213  0.000000  0.000000  1
  Cr  Cr18  1  0.749644  0.500000  0.500000  1
  Cr  Cr19  1  0.250221  0.000000  0.000000  1
  Te  Te20  1  0.998145  0.850021  0.563453  1
  Te  Te21  1  0.998145  0.149979  0.436547  1
  Te  Te22  1  0.000057  0.349660  0.936794  1
  Te  Te23  1  0.000057  0.650340  0.063206  1
  Te  Te24  1  0.501345  0.330863  0.313651  1
  Te  Te25  1  0.501345  0.669137  0.686349  1
  Te  Te26  1  0.499948  0.831039  0.186193  1
  Te  Te27  1  0.499948  0.168961  0.813807  1
  Te  Te28  1  0.501989  0.825962  0.402402  1
  Te  Te29  1  0.501989  0.174038  0.597598  1
  Te  Te30  1  0.500043  0.325747  0.097551  1
  Te  Te31  1  0.500043  0.674253  0.902449  1
  Te  Te32  1  0.998704  0.609362  0.298982  1
  Te  Te33  1  0.998704  0.390638  0.701018  1
  Te  Te34  1  0.000137  0.109458  0.200914  1
  Te  Te35  1  0.000137  0.890542  0.799086  1
