# generated using pymatgen
data_MnGa3Ir4
_symmetry_space_group_name_H-M   'P 1'
_cell_length_a   4.28612700
_cell_length_b   5.27975113
_cell_length_c   10.55543900
_cell_angle_alpha   109.44340219
_cell_angle_beta   90.00000000
_cell_angle_gamma   90.00000000
_symmetry_Int_Tables_number   1
_chemical_formula_structural   MnGa3Ir4
_chemical_formula_sum   'Mn2 Ga6 Ir8'
_cell_volume   225.24389004
_cell_formula_units_Z   2
loop_
 _symmetry_equiv_pos_site_id
 _symmetry_equiv_pos_as_xyz
  1  'x, y, z'
loop_
 _atom_site_type_symbol
 _atom_site_label
 _atom_site_symmetry_multiplicity
 _atom_site_fract_x
 _atom_site_fract_y
 _atom_site_fract_z
 _atom_site_occupancy
  Mn  Mn0  1  0.000000  0.500091  0.250001  1
  Mn  Mn1  1  0.000000  0.499808  0.749963  1
  Ga  Ga2  1  0.500000  0.259930  0.370058  1
  Ga  Ga3  1  0.500000  0.259755  0.870083  1
  Ga  Ga4  1  0.500000  0.740338  0.129973  1
  Ga  Ga5  1  0.500000  0.739813  0.629965  1
  Ga  Ga6  1  0.000000  0.000193  0.999995  1
  Ga  Ga7  1  0.000000  0.999993  0.499954  1
  Ir  Ir8  1  0.500000  0.758413  0.379196  1
  Ir  Ir9  1  0.500000  0.758322  0.879286  1
  Ir  Ir10  1  0.500000  0.241796  0.120766  1
  Ir  Ir11  1  0.500000  0.241356  0.620821  1
  Ir  Ir12  1  0.000000  0.000209  0.249964  1
  Ir  Ir13  1  0.000000  0.999849  0.749989  1
  Ir  Ir14  1  0.000000  0.500171  0.999978  1
  Ir  Ir15  1  0.000000  0.499963  0.500005  1
