# generated using pymatgen
data_Tb5Sc15(Bi2Te)4
_symmetry_space_group_name_H-M   'P 1'
_cell_length_a   7.83671307
_cell_length_b   9.06601066
_cell_length_c   11.47376991
_cell_angle_alpha   89.92435895
_cell_angle_beta   90.12211291
_cell_angle_gamma   90.04392577
_symmetry_Int_Tables_number   1
_chemical_formula_structural   Tb5Sc15(Bi2Te)4
_chemical_formula_sum   'Tb5 Sc15 Bi8 Te4'
_cell_volume   815.18244132
_cell_formula_units_Z   1
loop_
 _symmetry_equiv_pos_site_id
 _symmetry_equiv_pos_as_xyz
  1  'x, y, z'
loop_
 _atom_site_type_symbol
 _atom_site_label
 _atom_site_symmetry_multiplicity
 _atom_site_fract_x
 _atom_site_fract_y
 _atom_site_fract_z
 _atom_site_occupancy
  Tb  Tb0  1  0.187635  0.559626  0.439237  1
  Tb  Tb1  1  0.322768  0.248939  0.217770  1
  Tb  Tb2  1  0.823790  0.250814  0.280965  1
  Tb  Tb3  1  0.677835  0.751390  0.783195  1
  Tb  Tb4  1  0.177681  0.750870  0.719992  1
  Sc  Sc5  1  0.353039  0.752436  0.217135  1
  Sc  Sc6  1  0.849227  0.750058  0.280325  1
  Sc  Sc7  1  0.650760  0.250391  0.781580  1
  Sc  Sc8  1  0.150695  0.251626  0.720039  1
  Sc  Sc9  1  0.688875  0.564782  0.059134  1
  Sc  Sc10  1  0.189750  0.934159  0.439672  1
  Sc  Sc11  1  0.311175  0.064241  0.940147  1
  Sc  Sc12  1  0.809762  0.435485  0.560422  1
  Sc  Sc13  1  0.311562  0.435616  0.939621  1
  Sc  Sc14  1  0.807299  0.064116  0.561564  1
  Sc  Sc15  1  0.689010  0.936064  0.060068  1
  Sc  Sc16  1  0.482641  0.249631  0.488456  1
  Sc  Sc17  1  0.983344  0.249935  0.010539  1
  Sc  Sc18  1  0.518927  0.752197  0.512415  1
  Sc  Sc19  1  0.016444  0.750617  0.987446  1
  Bi  Bi20  1  0.568047  0.990256  0.328467  1
  Bi  Bi21  1  0.066957  0.510636  0.167551  1
  Bi  Bi22  1  0.434758  0.489651  0.673317  1
  Bi  Bi23  1  0.932455  0.012053  0.828754  1
  Bi  Bi24  1  0.432436  0.011687  0.672415  1
  Bi  Bi25  1  0.932185  0.489521  0.828079  1
  Bi  Bi26  1  0.571099  0.511049  0.327277  1
  Bi  Bi27  1  0.067423  0.988931  0.170738  1
  Te  Te28  1  0.400281  0.749899  0.966727  1
  Te  Te29  1  0.897534  0.753897  0.534657  1
  Te  Te30  1  0.599427  0.250296  0.032801  1
  Te  Te31  1  0.095179  0.239129  0.469495  1
