# generated using pymatgen
data_K2LiPO4
_symmetry_space_group_name_H-M   'P 1'
_cell_length_a   6.27699852
_cell_length_b   6.27699806
_cell_length_c   7.59662800
_cell_angle_alpha   90.00000000
_cell_angle_beta   90.00000000
_cell_angle_gamma   126.93781760
_symmetry_Int_Tables_number   1
_chemical_formula_structural   K2LiPO4
_chemical_formula_sum   'K4 Li2 P2 O8'
_cell_volume   239.23695843
_cell_formula_units_Z   2
loop_
 _symmetry_equiv_pos_site_id
 _symmetry_equiv_pos_as_xyz
  1  'x, y, z'
loop_
 _atom_site_type_symbol
 _atom_site_label
 _atom_site_symmetry_multiplicity
 _atom_site_fract_x
 _atom_site_fract_y
 _atom_site_fract_z
 _atom_site_occupancy
  K  K0  1  0.933553  0.066447  0.852830  1
  K  K1  1  0.066447  0.933553  0.352830  1
  K  K2  1  0.396491  0.603509  0.497156  1
  K  K3  1  0.603509  0.396491  0.997156  1
  Li  Li4  1  0.202372  0.797628  0.768041  1
  Li  Li5  1  0.797628  0.202372  0.268041  1
  P  P6  1  0.311347  0.688653  0.052669  1
  P  P7  1  0.688653  0.311347  0.552669  1
  O  O8  1  0.126730  0.420474  0.153449  1
  O  O9  1  0.873270  0.579526  0.653449  1
  O  O10  1  0.367519  0.632481  0.863634  1
  O  O11  1  0.632481  0.367519  0.363634  1
  O  O12  1  0.579526  0.873270  0.153449  1
  O  O13  1  0.420474  0.126730  0.653449  1
  O  O14  1  0.827509  0.172491  0.527274  1
  O  O15  1  0.172491  0.827509  0.027274  1
