# generated using pymatgen
data_TaFe21B6W
_symmetry_space_group_name_H-M   'P 1'
_cell_length_a   7.53200728
_cell_length_b   7.53180777
_cell_length_c   7.53190200
_cell_angle_alpha   59.99758304
_cell_angle_beta   59.99869710
_cell_angle_gamma   59.99872751
_symmetry_Int_Tables_number   1
_chemical_formula_structural   TaFe21B6W
_chemical_formula_sum   'Ta1 Fe21 B6 W1'
_cell_volume   302.12261504
_cell_formula_units_Z   1
loop_
 _symmetry_equiv_pos_site_id
 _symmetry_equiv_pos_as_xyz
  1  'x, y, z'
loop_
 _atom_site_type_symbol
 _atom_site_label
 _atom_site_symmetry_multiplicity
 _atom_site_fract_x
 _atom_site_fract_y
 _atom_site_fract_z
 _atom_site_occupancy
  Ta  Ta0  1  0.750021  0.749910  0.750048  1
  Fe  Fe1  1  0.999985  0.000039  0.999981  1
  Fe  Fe2  1  0.614983  0.615034  0.154979  1
  Fe  Fe3  1  0.615031  0.154959  0.614986  1
  Fe  Fe4  1  0.154995  0.615051  0.614954  1
  Fe  Fe5  1  0.614997  0.615038  0.614970  1
  Fe  Fe6  1  0.381596  0.381590  0.855235  1
  Fe  Fe7  1  0.381572  0.855237  0.381612  1
  Fe  Fe8  1  0.855211  0.381578  0.381623  1
  Fe  Fe9  1  0.381591  0.381589  0.381609  1
  Fe  Fe10  1  0.000264  0.000259  0.341687  1
  Fe  Fe11  1  0.657794  0.000258  0.341689  1
  Fe  Fe12  1  0.000239  0.657819  0.341706  1
  Fe  Fe13  1  0.657822  0.341679  0.000269  1
  Fe  Fe14  1  0.000232  0.341683  0.000265  1
  Fe  Fe15  1  0.000255  0.341681  0.657814  1
  Fe  Fe16  1  0.341704  0.657817  0.000257  1
  Fe  Fe17  1  0.341687  0.000263  0.657781  1
  Fe  Fe18  1  0.341688  0.000243  0.000283  1
  Fe  Fe19  1  0.000265  0.000254  0.657788  1
  Fe  Fe20  1  0.000218  0.657821  0.000248  1
  Fe  Fe21  1  0.657792  0.000235  0.000277  1
  B  B22  1  0.725299  0.725401  0.274643  1
  B  B23  1  0.274657  0.725393  0.274641  1
  B  B24  1  0.725385  0.274628  0.274580  1
  B  B25  1  0.274605  0.274635  0.725370  1
  B  B26  1  0.725396  0.274621  0.725397  1
  B  B27  1  0.274664  0.725387  0.725286  1
  W  W28  1  0.250051  0.249899  0.250022  1
