# generated using pymatgen
data_Th2Fe12P7
_symmetry_space_group_name_H-M   'P 1'
_cell_length_a   9.01273200
_cell_length_b   9.01273161
_cell_length_c   3.69031300
_cell_angle_alpha   90.00000000
_cell_angle_beta   90.00000000
_cell_angle_gamma   119.99999408
_symmetry_Int_Tables_number   1
_chemical_formula_structural   Th2Fe12P7
_chemical_formula_sum   'Th2 Fe12 P7'
_cell_volume   259.60123637
_cell_formula_units_Z   1
loop_
 _symmetry_equiv_pos_site_id
 _symmetry_equiv_pos_as_xyz
  1  'x, y, z'
loop_
 _atom_site_type_symbol
 _atom_site_label
 _atom_site_symmetry_multiplicity
 _atom_site_fract_x
 _atom_site_fract_y
 _atom_site_fract_z
 _atom_site_occupancy
  Th  Th0  1  0.333333  0.666667  0.000000  1
  Th  Th1  1  0.666667  0.333333  0.500000  1
  Fe  Fe2  1  0.426973  0.365979  0.000000  1
  Fe  Fe3  1  0.634021  0.060993  0.000000  1
  Fe  Fe4  1  0.939007  0.573027  0.000000  1
  Fe  Fe5  1  0.149967  0.878978  0.000000  1
  Fe  Fe6  1  0.121022  0.270988  0.000000  1
  Fe  Fe7  1  0.729012  0.850033  0.000000  1
  Fe  Fe8  1  0.381574  0.947814  0.500000  1
  Fe  Fe9  1  0.052186  0.433760  0.500000  1
  Fe  Fe10  1  0.566240  0.618426  0.500000  1
  Fe  Fe11  1  0.212255  0.115106  0.500000  1
  Fe  Fe12  1  0.884894  0.097150  0.500000  1
  Fe  Fe13  1  0.902850  0.787745  0.500000  1
  P  P14  1  0.403814  0.102182  0.000000  1
  P  P15  1  0.897818  0.301632  0.000000  1
  P  P16  1  0.698368  0.596186  0.000000  1
  P  P17  1  0.102300  0.709447  0.500000  1
  P  P18  1  0.290553  0.392853  0.500000  1
  P  P19  1  0.607147  0.897700  0.500000  1
  P  P20  1  0.000000  0.000000  0.000000  1
