# generated using pymatgen
data_Ta6Zn4Cu2N
_symmetry_space_group_name_H-M   'P 1'
_cell_length_a   8.10776076
_cell_length_b   8.10776146
_cell_length_c   8.10776000
_cell_angle_alpha   60.00000594
_cell_angle_beta   60.00000308
_cell_angle_gamma   60.00000492
_symmetry_Int_Tables_number   1
_chemical_formula_structural   Ta6Zn4Cu2N
_chemical_formula_sum   'Ta12 Zn8 Cu4 N2'
_cell_volume   376.86674791
_cell_formula_units_Z   2
loop_
 _symmetry_equiv_pos_site_id
 _symmetry_equiv_pos_as_xyz
  1  'x, y, z'
loop_
 _atom_site_type_symbol
 _atom_site_label
 _atom_site_symmetry_multiplicity
 _atom_site_fract_x
 _atom_site_fract_y
 _atom_site_fract_z
 _atom_site_occupancy
  Ta  Ta0  1  0.191861  0.808139  0.191861  1
  Ta  Ta1  1  0.441861  0.058139  0.441861  1
  Ta  Ta2  1  0.441861  0.058139  0.058139  1
  Ta  Ta3  1  0.441861  0.441861  0.058139  1
  Ta  Ta4  1  0.191861  0.808139  0.808139  1
  Ta  Ta5  1  0.058139  0.441861  0.058139  1
  Ta  Ta6  1  0.808139  0.808139  0.191861  1
  Ta  Ta7  1  0.058139  0.441861  0.441861  1
  Ta  Ta8  1  0.191861  0.191861  0.808139  1
  Ta  Ta9  1  0.808139  0.191861  0.191861  1
  Ta  Ta10  1  0.808139  0.191861  0.808139  1
  Ta  Ta11  1  0.058139  0.058139  0.441861  1
  Zn  Zn12  1  0.832842  0.501477  0.832842  1
  Zn  Zn13  1  0.417158  0.417158  0.748523  1
  Zn  Zn14  1  0.748523  0.417158  0.417158  1
  Zn  Zn15  1  0.417158  0.417158  0.417158  1
  Zn  Zn16  1  0.832842  0.832842  0.501477  1
  Zn  Zn17  1  0.417158  0.748523  0.417158  1
  Zn  Zn18  1  0.832842  0.832842  0.832842  1
  Zn  Zn19  1  0.501477  0.832842  0.832842  1
  Cu  Cu20  1  0.625000  0.125000  0.625000  1
  Cu  Cu21  1  0.625000  0.625000  0.125000  1
  Cu  Cu22  1  0.125000  0.625000  0.625000  1
  Cu  Cu23  1  0.625000  0.625000  0.625000  1
  N  N24  1  0.000000  0.000000  0.000000  1
  N  N25  1  0.250000  0.250000  0.250000  1
