# generated using pymatgen
data_Na5PaO5
_symmetry_space_group_name_H-M   'P 1'
_cell_length_a   6.06806763
_cell_length_b   6.06806693
_cell_length_c   6.70218045
_cell_angle_alpha   72.76136811
_cell_angle_beta   72.76137263
_cell_angle_gamma   44.97272600
_symmetry_Int_Tables_number   1
_chemical_formula_structural   Na5PaO5
_chemical_formula_sum   'Na5 Pa1 O5'
_cell_volume   165.20459825
_cell_formula_units_Z   1
loop_
 _symmetry_equiv_pos_site_id
 _symmetry_equiv_pos_as_xyz
  1  'x, y, z'
loop_
 _atom_site_type_symbol
 _atom_site_label
 _atom_site_symmetry_multiplicity
 _atom_site_fract_x
 _atom_site_fract_y
 _atom_site_fract_z
 _atom_site_occupancy
  Na  Na0  1  0.318118  0.318118  0.857187  1
  Na  Na1  1  0.297378  0.297378  0.333881  1
  Na  Na2  1  0.702622  0.702622  0.666119  1
  Na  Na3  1  0.681882  0.681882  0.142813  1
  Na  Na4  1  0.000000  0.000000  0.500000  1
  Pa  Pa5  1  0.000000  0.000000  0.000000  1
  O  O6  1  0.861936  0.861936  0.836184  1
  O  O7  1  0.500000  0.500000  0.000000  1
  O  O8  1  0.850500  0.850500  0.303480  1
  O  O9  1  0.149500  0.149500  0.696520  1
  O  O10  1  0.138064  0.138064  0.163816  1
