# generated using pymatgen
data_YbEr4Tm2Co6Sn23
_symmetry_space_group_name_H-M   'P 1'
_cell_length_a   9.68133702
_cell_length_b   9.68133769
_cell_length_c   9.92209805
_cell_angle_alpha   90.00522272
_cell_angle_beta   89.99477807
_cell_angle_gamma   120.01307636
_symmetry_Int_Tables_number   1
_chemical_formula_structural   YbEr4Tm2Co6Sn23
_chemical_formula_sum   'Yb1 Er4 Tm2 Co6 Sn23'
_cell_volume   805.28129359
_cell_formula_units_Z   1
loop_
 _symmetry_equiv_pos_site_id
 _symmetry_equiv_pos_as_xyz
  1  'x, y, z'
loop_
 _atom_site_type_symbol
 _atom_site_label
 _atom_site_symmetry_multiplicity
 _atom_site_fract_x
 _atom_site_fract_y
 _atom_site_fract_z
 _atom_site_occupancy
  Yb  Yb0  1  0.000000  0.000000  0.000000  1
  Er  Er1  1  0.479800  0.959650  0.305976  1
  Er  Er2  1  0.520200  0.040350  0.694024  1
  Er  Er3  1  0.040350  0.520200  0.305976  1
  Er  Er4  1  0.959650  0.479800  0.694024  1
  Tm  Tm5  1  0.480225  0.519775  0.305710  1
  Tm  Tm6  1  0.519775  0.480225  0.694290  1
  Co  Co7  1  0.831252  0.168748  0.198766  1
  Co  Co8  1  0.168748  0.831252  0.801234  1
  Co  Co9  1  0.830752  0.662052  0.198904  1
  Co  Co10  1  0.169248  0.337948  0.801096  1
  Co  Co11  1  0.337948  0.169248  0.198904  1
  Co  Co12  1  0.662052  0.830752  0.801096  1
  Sn  Sn13  1  0.117411  0.882589  0.273736  1
  Sn  Sn14  1  0.882589  0.117411  0.726264  1
  Sn  Sn15  1  0.118123  0.235540  0.274008  1
  Sn  Sn16  1  0.881877  0.764460  0.725992  1
  Sn  Sn17  1  0.764460  0.881877  0.274008  1
  Sn  Sn18  1  0.235540  0.118123  0.725992  1
  Sn  Sn19  1  0.780655  0.219345  0.453017  1
  Sn  Sn20  1  0.219345  0.780655  0.546983  1
  Sn  Sn21  1  0.780349  0.561607  0.453140  1
  Sn  Sn22  1  0.219651  0.438393  0.546860  1
  Sn  Sn23  1  0.438393  0.219651  0.453140  1
  Sn  Sn24  1  0.561607  0.780349  0.546860  1
  Sn  Sn25  1  0.346334  0.000169  0.999946  1
  Sn  Sn26  1  0.653666  0.999831  0.000054  1
  Sn  Sn27  1  0.000169  0.346334  0.000054  1
  Sn  Sn28  1  0.999831  0.653666  0.999946  1
  Sn  Sn29  1  0.654123  0.654123  0.000000  1
  Sn  Sn30  1  0.345877  0.345877  0.000000  1
  Sn  Sn31  1  0.333781  0.666219  0.121868  1
  Sn  Sn32  1  0.666219  0.333781  0.878132  1
  Sn  Sn33  1  0.333344  0.666656  0.816707  1
  Sn  Sn34  1  0.666656  0.333344  0.183293  1
  Sn  Sn35  1  0.000000  0.000000  0.500000  1
