# generated using pymatgen
data_Nd6Er10MgAg3Rh4
_symmetry_space_group_name_H-M   'P 1'
_cell_length_a   9.62323991
_cell_length_b   9.61472972
_cell_length_c   9.61457400
_cell_angle_alpha   59.99895305
_cell_angle_beta   60.02891766
_cell_angle_gamma   60.03032085
_symmetry_Int_Tables_number   1
_chemical_formula_structural   Nd6Er10MgAg3Rh4
_chemical_formula_sum   'Nd6 Er10 Mg1 Ag3 Rh4'
_cell_volume   629.30950114
_cell_formula_units_Z   1
loop_
 _symmetry_equiv_pos_site_id
 _symmetry_equiv_pos_as_xyz
  1  'x, y, z'
loop_
 _atom_site_type_symbol
 _atom_site_label
 _atom_site_symmetry_multiplicity
 _atom_site_fract_x
 _atom_site_fract_y
 _atom_site_fract_z
 _atom_site_occupancy
  Nd  Nd0  1  0.187818  0.812575  0.812544  1
  Nd  Nd1  1  0.810721  0.188380  0.188424  1
  Nd  Nd2  1  0.810725  0.188380  0.812490  1
  Nd  Nd3  1  0.187838  0.812555  0.187059  1
  Nd  Nd4  1  0.810711  0.812500  0.188397  1
  Nd  Nd5  1  0.187803  0.187073  0.812552  1
  Er  Er6  1  0.598495  0.598588  0.598642  1
  Er  Er7  1  0.598504  0.598615  0.204264  1
  Er  Er8  1  0.598496  0.204272  0.598643  1
  Er  Er9  1  0.192659  0.602432  0.602478  1
  Er  Er10  1  0.063845  0.435733  0.435736  1
  Er  Er11  1  0.433395  0.065996  0.065959  1
  Er  Er12  1  0.433394  0.065983  0.434643  1
  Er  Er13  1  0.063853  0.435734  0.064672  1
  Er  Er14  1  0.433395  0.434649  0.065958  1
  Er  Er15  1  0.063836  0.064690  0.435740  1
  Mg  Mg16  1  0.537121  0.820961  0.820964  1
  Ag  Ag17  1  0.830814  0.832040  0.832041  1
  Ag  Ag18  1  0.830825  0.832043  0.505085  1
  Ag  Ag19  1  0.830812  0.505112  0.832040  1
  Rh  Rh20  1  0.390979  0.393652  0.393643  1
  Rh  Rh21  1  0.390981  0.393648  0.821722  1
  Rh  Rh22  1  0.390982  0.821724  0.393641  1
  Rh  Rh23  1  0.821994  0.392664  0.392665  1
