# generated using pymatgen
data_Ce2Sn(PRh2)6
_symmetry_space_group_name_H-M   'P 1'
_cell_length_a   9.80327200
_cell_length_b   9.80327149
_cell_length_c   3.89916500
_cell_angle_alpha   90.00000000
_cell_angle_beta   90.00000000
_cell_angle_gamma   119.99999589
_symmetry_Int_Tables_number   1
_chemical_formula_structural   Ce2Sn(PRh2)6
_chemical_formula_sum   'Ce2 Sn1 P6 Rh12'
_cell_volume   324.52215094
_cell_formula_units_Z   1
loop_
 _symmetry_equiv_pos_site_id
 _symmetry_equiv_pos_as_xyz
  1  'x, y, z'
loop_
 _atom_site_type_symbol
 _atom_site_label
 _atom_site_symmetry_multiplicity
 _atom_site_fract_x
 _atom_site_fract_y
 _atom_site_fract_z
 _atom_site_occupancy
  Ce  Ce0  1  0.333333  0.666667  0.752689  1
  Ce  Ce1  1  0.666667  0.333333  0.247311  1
  Sn  Sn2  1  0.000000  0.000000  0.500000  1
  P  P3  1  0.402983  0.288156  0.745227  1
  P  P4  1  0.711844  0.114828  0.745227  1
  P  P5  1  0.885172  0.597017  0.745227  1
  P  P6  1  0.597017  0.711844  0.254773  1
  P  P7  1  0.288156  0.885172  0.254773  1
  P  P8  1  0.114828  0.402983  0.254773  1
  Rh  Rh9  1  0.452607  0.067904  0.746144  1
  Rh  Rh10  1  0.932096  0.384702  0.746144  1
  Rh  Rh11  1  0.615298  0.547393  0.746144  1
  Rh  Rh12  1  0.547393  0.932096  0.253856  1
  Rh  Rh13  1  0.067904  0.615298  0.253856  1
  Rh  Rh14  1  0.384702  0.452607  0.253856  1
  Rh  Rh15  1  0.160926  0.286863  0.762965  1
  Rh  Rh16  1  0.713137  0.874063  0.762965  1
  Rh  Rh17  1  0.125937  0.839074  0.762965  1
  Rh  Rh18  1  0.839074  0.713137  0.237035  1
  Rh  Rh19  1  0.286863  0.125937  0.237035  1
  Rh  Rh20  1  0.874063  0.160926  0.237035  1
