# generated using pymatgen
data_Mn3Al3(Ni3Pt2)2
_symmetry_space_group_name_H-M   'P 1'
_cell_length_a   3.86782800
_cell_length_b   5.20515267
_cell_length_c   10.40139888
_cell_angle_alpha   93.72203611
_cell_angle_beta   90.00000000
_cell_angle_gamma   90.00000000
_symmetry_Int_Tables_number   1
_chemical_formula_structural   Mn3Al3(Ni3Pt2)2
_chemical_formula_sum   'Mn3 Al3 Ni6 Pt4'
_cell_volume   208.96587134
_cell_formula_units_Z   1
loop_
 _symmetry_equiv_pos_site_id
 _symmetry_equiv_pos_as_xyz
  1  'x, y, z'
loop_
 _atom_site_type_symbol
 _atom_site_label
 _atom_site_symmetry_multiplicity
 _atom_site_fract_x
 _atom_site_fract_y
 _atom_site_fract_z
 _atom_site_occupancy
  Mn  Mn0  1  0.500000  0.280804  0.361983  1
  Mn  Mn1  1  0.500000  0.270344  0.862438  1
  Mn  Mn2  1  0.500000  0.724915  0.137946  1
  Al  Al3  1  0.500000  0.715657  0.641785  1
  Al  Al4  1  0.000000  0.999845  0.998163  1
  Al  Al5  1  0.000000  0.011581  0.495974  1
  Ni  Ni6  1  0.500000  0.776347  0.386891  1
  Ni  Ni7  1  0.500000  0.768384  0.885787  1
  Ni  Ni8  1  0.500000  0.229619  0.114206  1
  Ni  Ni9  1  0.500000  0.225336  0.613095  1
  Ni  Ni10  1  0.000000  0.501209  0.251295  1
  Ni  Ni11  1  0.000000  0.491229  0.752738  1
  Pt  Pt12  1  0.000000  0.001060  0.249015  1
  Pt  Pt13  1  0.000000  0.991535  0.744589  1
  Pt  Pt14  1  0.000000  0.499874  0.000519  1
  Pt  Pt15  1  0.000000  0.512256  0.503574  1
