# generated using pymatgen
data_Th3(Al3Fe)4
_symmetry_space_group_name_H-M   'P 1'
_cell_length_a   8.83600400
_cell_length_b   8.83600369
_cell_length_c   9.37663200
_cell_angle_alpha   90.00000000
_cell_angle_beta   90.00000000
_cell_angle_gamma   120.00000864
_symmetry_Int_Tables_number   1
_chemical_formula_structural   Th3(Al3Fe)4
_chemical_formula_sum   'Th6 Al24 Fe8'
_cell_volume   634.00000048
_cell_formula_units_Z   2
loop_
 _symmetry_equiv_pos_site_id
 _symmetry_equiv_pos_as_xyz
  1  'x, y, z'
loop_
 _atom_site_type_symbol
 _atom_site_label
 _atom_site_symmetry_multiplicity
 _atom_site_fract_x
 _atom_site_fract_y
 _atom_site_fract_z
 _atom_site_occupancy
  Th  Th0  1  0.804085  0.195915  0.750000  1
  Th  Th1  1  0.195915  0.804085  0.250000  1
  Th  Th2  1  0.391830  0.195915  0.750000  1
  Th  Th3  1  0.608170  0.804085  0.250000  1
  Th  Th4  1  0.804085  0.608170  0.750000  1
  Th  Th5  1  0.195915  0.391830  0.250000  1
  Al  Al6  1  0.666667  0.333333  0.997650  1
  Al  Al7  1  0.333333  0.666667  0.002350  1
  Al  Al8  1  0.333333  0.666667  0.497650  1
  Al  Al9  1  0.666667  0.333333  0.502350  1
  Al  Al10  1  0.839571  0.160429  0.423120  1
  Al  Al11  1  0.160429  0.839571  0.576880  1
  Al  Al12  1  0.320858  0.160429  0.423120  1
  Al  Al13  1  0.160429  0.839571  0.923120  1
  Al  Al14  1  0.679142  0.839571  0.576880  1
  Al  Al15  1  0.839571  0.160429  0.076880  1
  Al  Al16  1  0.839571  0.679142  0.423120  1
  Al  Al17  1  0.679142  0.839571  0.923120  1
  Al  Al18  1  0.160429  0.320858  0.576880  1
  Al  Al19  1  0.320858  0.160429  0.076880  1
  Al  Al20  1  0.160429  0.320858  0.923120  1
  Al  Al21  1  0.839571  0.679142  0.076880  1
  Al  Al22  1  0.438108  0.561892  0.750000  1
  Al  Al23  1  0.561892  0.438108  0.250000  1
  Al  Al24  1  0.123784  0.561892  0.750000  1
  Al  Al25  1  0.876216  0.438108  0.250000  1
  Al  Al26  1  0.438108  0.876216  0.750000  1
  Al  Al27  1  0.561892  0.123784  0.250000  1
  Al  Al28  1  0.000000  0.000000  0.750000  1
  Al  Al29  1  0.000000  0.000000  0.250000  1
  Fe  Fe30  1  0.500000  0.500000  0.000000  1
  Fe  Fe31  1  0.000000  0.500000  0.000000  1
  Fe  Fe32  1  0.500000  0.500000  0.500000  1
  Fe  Fe33  1  0.500000  0.000000  0.000000  1
  Fe  Fe34  1  0.000000  0.500000  0.500000  1
  Fe  Fe35  1  0.500000  0.000000  0.500000  1
  Fe  Fe36  1  0.000000  0.000000  0.000000  1
  Fe  Fe37  1  0.000000  0.000000  0.500000  1
