# generated using pymatgen
data_Cs2Sc2GaAgTe6
_symmetry_space_group_name_H-M   'P 1'
_cell_length_a   8.95551175
_cell_length_b   8.95551212
_cell_length_c   11.41711500
_cell_angle_alpha   90.00000000
_cell_angle_beta   90.00000000
_cell_angle_gamma   151.76873160
_symmetry_Int_Tables_number   1
_chemical_formula_structural   Cs2Sc2GaAgTe6
_chemical_formula_sum   'Cs2 Sc2 Ga1 Ag1 Te6'
_cell_volume   433.13912304
_cell_formula_units_Z   1
loop_
 _symmetry_equiv_pos_site_id
 _symmetry_equiv_pos_as_xyz
  1  'x, y, z'
loop_
 _atom_site_type_symbol
 _atom_site_label
 _atom_site_symmetry_multiplicity
 _atom_site_fract_x
 _atom_site_fract_y
 _atom_site_fract_z
 _atom_site_occupancy
  Cs  Cs0  1  0.245050  0.754948  0.250000  1
  Cs  Cs1  1  0.744425  0.255573  0.750000  1
  Sc  Sc2  1  0.005761  0.994239  0.022936  1
  Sc  Sc3  1  0.005761  0.994239  0.477064  1
  Ga  Ga4  1  0.459672  0.540326  0.750000  1
  Ag  Ag5  1  0.537781  0.462217  0.250000  1
  Te  Te6  1  0.617479  0.382518  0.038586  1
  Te  Te7  1  0.933060  0.066938  0.250000  1
  Te  Te8  1  0.617479  0.382518  0.461414  1
  Te  Te9  1  0.390047  0.609950  0.547744  1
  Te  Te10  1  0.053426  0.946572  0.750000  1
  Te  Te11  1  0.390047  0.609950  0.952257  1
