# generated using pymatgen
data_Fe2AgBr9
_symmetry_space_group_name_H-M   'P 1'
_cell_length_a   7.76857560
_cell_length_b   7.89915953
_cell_length_c   16.54877641
_cell_angle_alpha   86.04904382
_cell_angle_beta   86.06710714
_cell_angle_gamma   77.89463708
_symmetry_Int_Tables_number   1
_chemical_formula_structural   Fe2AgBr9
_chemical_formula_sum   'Fe4 Ag2 Br18'
_cell_volume   989.05109131
_cell_formula_units_Z   2
loop_
 _symmetry_equiv_pos_site_id
 _symmetry_equiv_pos_as_xyz
  1  'x, y, z'
loop_
 _atom_site_type_symbol
 _atom_site_label
 _atom_site_symmetry_multiplicity
 _atom_site_fract_x
 _atom_site_fract_y
 _atom_site_fract_z
 _atom_site_occupancy
  Fe  Fe0  1  0.137665  0.713885  0.577347  1
  Fe  Fe1  1  0.862335  0.286115  0.422653  1
  Fe  Fe2  1  0.715905  0.303560  0.872017  1
  Fe  Fe3  1  0.284095  0.696440  0.127983  1
  Ag  Ag4  1  0.051016  0.218964  0.603925  1
  Ag  Ag5  1  0.948984  0.781036  0.396075  1
  Br  Br6  1  0.547483  0.858941  0.844495  1
  Br  Br7  1  0.452517  0.141059  0.155505  1
  Br  Br8  1  0.203772  0.457262  0.662724  1
  Br  Br9  1  0.796228  0.542738  0.337276  1
  Br  Br10  1  0.632406  0.562111  0.782383  1
  Br  Br11  1  0.367594  0.437889  0.217617  1
  Br  Br12  1  0.266307  0.914023  0.640731  1
  Br  Br13  1  0.733693  0.085977  0.359269  1
  Br  Br14  1  0.927538  0.129089  0.793387  1
  Br  Br15  1  0.072462  0.870911  0.206613  1
  Br  Br16  1  0.189997  0.638269  0.006756  1
  Br  Br17  1  0.810003  0.361731  0.993244  1
  Br  Br18  1  0.722497  0.326871  0.554998  1
  Br  Br19  1  0.277503  0.673129  0.445002  1
  Br  Br20  1  0.831537  0.802070  0.569507  1
  Br  Br21  1  0.168463  0.197930  0.430493  1
  Br  Br22  1  0.457386  0.169137  0.895225  1
  Br  Br23  1  0.542614  0.830863  0.104775  1
