# generated using pymatgen
data_Sm8Zr11Si16W
_symmetry_space_group_name_H-M   'P 1'
_cell_length_a   7.18176424
_cell_length_b   7.35963291
_cell_length_c   14.01421755
_cell_angle_alpha   90.18396537
_cell_angle_beta   89.64469413
_cell_angle_gamma   89.72407745
_symmetry_Int_Tables_number   1
_chemical_formula_structural   Sm8Zr11Si16W
_chemical_formula_sum   'Sm8 Zr11 Si16 W1'
_cell_volume   740.69682799
_cell_formula_units_Z   1
loop_
 _symmetry_equiv_pos_site_id
 _symmetry_equiv_pos_as_xyz
  1  'x, y, z'
loop_
 _atom_site_type_symbol
 _atom_site_label
 _atom_site_symmetry_multiplicity
 _atom_site_fract_x
 _atom_site_fract_y
 _atom_site_fract_z
 _atom_site_occupancy
  Sm  Sm0  1  0.013293  0.174669  0.097229  1
  Sm  Sm1  1  0.987740  0.827009  0.899424  1
  Sm  Sm2  1  0.485163  0.675157  0.898809  1
  Sm  Sm3  1  0.989699  0.827584  0.596073  1
  Sm  Sm4  1  0.514017  0.326334  0.097063  1
  Sm  Sm5  1  0.012308  0.175617  0.402607  1
  Sm  Sm6  1  0.508960  0.325173  0.407958  1
  Sm  Sm7  1  0.488048  0.670262  0.597203  1
  Zr  Zr8  1  0.161359  0.492198  0.745669  1
  Zr  Zr9  1  0.842292  0.504305  0.251041  1
  Zr  Zr10  1  0.340975  0.998162  0.251440  1
  Zr  Zr11  1  0.655344  0.004783  0.747114  1
  Zr  Zr12  1  0.665752  0.828411  0.378350  1
  Zr  Zr13  1  0.169055  0.678554  0.377796  1
  Zr  Zr14  1  0.670366  0.821701  0.125193  1
  Zr  Zr15  1  0.832321  0.322087  0.622960  1
  Zr  Zr16  1  0.329244  0.176842  0.874694  1
  Zr  Zr17  1  0.830730  0.321140  0.872256  1
  Zr  Zr18  1  0.170965  0.676560  0.125350  1
  Si  Si19  1  0.041548  0.122628  0.745536  1
  Si  Si20  1  0.965253  0.878794  0.251255  1
  Si  Si21  1  0.465962  0.622758  0.251751  1
  Si  Si22  1  0.531594  0.371804  0.745986  1
  Si  Si23  1  0.286135  0.883921  0.745821  1
  Si  Si24  1  0.714730  0.124079  0.251174  1
  Si  Si25  1  0.216897  0.378127  0.251134  1
  Si  Si26  1  0.785478  0.619814  0.747581  1
  Si  Si27  1  0.167026  0.454451  0.542704  1
  Si  Si28  1  0.844740  0.533139  0.458676  1
  Si  Si29  1  0.338222  0.969682  0.468904  1
  Si  Si30  1  0.846583  0.533749  0.038735  1
  Si  Si31  1  0.641170  0.035967  0.546161  1
  Si  Si32  1  0.152134  0.467463  0.958416  1
  Si  Si33  1  0.654660  0.033231  0.958811  1
  Si  Si34  1  0.348308  0.966176  0.040676  1
  W  W35  1  0.331929  0.177668  0.628451  1
