# generated using pymatgen
data_Ho4Ru2Pb5
_symmetry_space_group_name_H-M   'P 1'
_cell_length_a   8.08547861
_cell_length_b   3.55853200
_cell_length_c   9.90164200
_cell_angle_alpha   90.00000000
_cell_angle_beta   93.70179942
_cell_angle_gamma   90.00000000
_symmetry_Int_Tables_number   1
_chemical_formula_structural   Ho4Ru2Pb5
_chemical_formula_sum   'Ho4 Ru2 Pb5'
_cell_volume   284.29993865
_cell_formula_units_Z   1
loop_
 _symmetry_equiv_pos_site_id
 _symmetry_equiv_pos_as_xyz
  1  'x, y, z'
loop_
 _atom_site_type_symbol
 _atom_site_label
 _atom_site_symmetry_multiplicity
 _atom_site_fract_x
 _atom_site_fract_y
 _atom_site_fract_z
 _atom_site_occupancy
  Ho  Ho0  1  0.805286  0.499999  0.062885  1
  Ho  Ho1  1  0.196269  0.499999  0.339521  1
  Ho  Ho2  1  0.803731  0.499999  0.660480  1
  Ho  Ho3  1  0.194714  0.499999  0.937115  1
  Ru  Ru4  1  0.079807  0.000000  0.142558  1
  Ru  Ru5  1  0.920193  0.000000  0.857443  1
  Pb  Pb6  1  0.454924  0.000000  0.161199  1
  Pb  Pb7  1  0.855289  0.000000  0.361562  1
  Pb  Pb8  1  0.500001  0.000000  0.500000  1
  Pb  Pb9  1  0.144711  0.000000  0.638438  1
  Pb  Pb10  1  0.545076  0.000000  0.838801  1
