# generated using pymatgen
data_Cs3Ag(SnPb)2
_symmetry_space_group_name_H-M   'P 1'
_cell_length_a   6.97440400
_cell_length_b   7.34140000
_cell_length_c   14.53361300
_cell_angle_alpha   90.00000000
_cell_angle_beta   90.00000000
_cell_angle_gamma   90.00000000
_symmetry_Int_Tables_number   1
_chemical_formula_structural   Cs3Ag(SnPb)2
_chemical_formula_sum   'Cs6 Ag2 Sn4 Pb4'
_cell_volume   744.14844723
_cell_formula_units_Z   2
loop_
 _symmetry_equiv_pos_site_id
 _symmetry_equiv_pos_as_xyz
  1  'x, y, z'
loop_
 _atom_site_type_symbol
 _atom_site_label
 _atom_site_symmetry_multiplicity
 _atom_site_fract_x
 _atom_site_fract_y
 _atom_site_fract_z
 _atom_site_occupancy
  Cs  Cs0  1  0.536274  0.000000  0.000000  1
  Cs  Cs1  1  0.463726  0.500000  0.500000  1
  Cs  Cs2  1  0.812157  0.500000  0.750783  1
  Cs  Cs3  1  0.812157  0.500000  0.249217  1
  Cs  Cs4  1  0.187843  0.000000  0.749217  1
  Cs  Cs5  1  0.187843  0.000000  0.250783  1
  Ag  Ag6  1  0.668609  0.500000  0.000000  1
  Ag  Ag7  1  0.331391  0.000000  0.500000  1
  Sn  Sn8  1  0.316061  0.500000  0.893508  1
  Sn  Sn9  1  0.316061  0.500000  0.106492  1
  Sn  Sn10  1  0.683939  0.000000  0.393508  1
  Sn  Sn11  1  0.683939  0.000000  0.606492  1
  Pb  Pb12  1  0.028491  0.270627  0.000000  1
  Pb  Pb13  1  0.028491  0.729373  0.000000  1
  Pb  Pb14  1  0.971509  0.770627  0.500000  1
  Pb  Pb15  1  0.971509  0.229373  0.500000  1
