# generated using pymatgen
data_NaPrCd2(BPt3)2
_symmetry_space_group_name_H-M   'P 1'
_cell_length_a   5.65056300
_cell_length_b   5.65056353
_cell_length_c   7.63870800
_cell_angle_alpha   90.00000000
_cell_angle_beta   90.00000000
_cell_angle_gamma   119.99999107
_symmetry_Int_Tables_number   1
_chemical_formula_structural   NaPrCd2(BPt3)2
_chemical_formula_sum   'Na1 Pr1 Cd2 B2 Pt6'
_cell_volume   211.21952559
_cell_formula_units_Z   1
loop_
 _symmetry_equiv_pos_site_id
 _symmetry_equiv_pos_as_xyz
  1  'x, y, z'
loop_
 _atom_site_type_symbol
 _atom_site_label
 _atom_site_symmetry_multiplicity
 _atom_site_fract_x
 _atom_site_fract_y
 _atom_site_fract_z
 _atom_site_occupancy
  Na  Na0  1  0.000000  0.000000  0.000000  1
  Pr  Pr1  1  0.000000  0.000000  0.500000  1
  Cd  Cd2  1  0.666667  0.333333  0.000000  1
  Cd  Cd3  1  0.333333  0.666667  0.000000  1
  B  B4  1  0.666667  0.333333  0.500000  1
  B  B5  1  0.333333  0.666667  0.500000  1
  Pt  Pt6  1  0.500000  0.500000  0.307625  1
  Pt  Pt7  1  0.500000  0.000000  0.307625  1
  Pt  Pt8  1  0.500000  0.000000  0.692375  1
  Pt  Pt9  1  0.500000  0.500000  0.692375  1
  Pt  Pt10  1  0.000000  0.500000  0.692375  1
  Pt  Pt11  1  0.000000  0.500000  0.307625  1
