# generated using pymatgen
data_Nd2Ho2ReB12Ru
_symmetry_space_group_name_H-M   'P 1'
_cell_length_a   3.71617800
_cell_length_b   9.21876843
_cell_length_c   11.66403460
_cell_angle_alpha   89.81221204
_cell_angle_beta   90.00000000
_cell_angle_gamma   90.00000000
_symmetry_Int_Tables_number   1
_chemical_formula_structural   Nd2Ho2ReB12Ru
_chemical_formula_sum   'Nd4 Ho4 Re2 B24 Ru2'
_cell_volume   399.59116776
_cell_formula_units_Z   2
loop_
 _symmetry_equiv_pos_site_id
 _symmetry_equiv_pos_as_xyz
  1  'x, y, z'
loop_
 _atom_site_type_symbol
 _atom_site_label
 _atom_site_symmetry_multiplicity
 _atom_site_fract_x
 _atom_site_fract_y
 _atom_site_fract_z
 _atom_site_occupancy
  Nd  Nd0  1  0.000000  0.324150  0.415316  1
  Nd  Nd1  1  0.000000  0.675850  0.584684  1
  Nd  Nd2  1  0.000000  0.821731  0.086586  1
  Nd  Nd3  1  0.000000  0.178269  0.913414  1
  Ho  Ho4  1  0.000000  0.942628  0.370209  1
  Ho  Ho5  1  0.000000  0.057372  0.629791  1
  Ho  Ho6  1  0.000000  0.443075  0.130188  1
  Ho  Ho7  1  0.000000  0.556925  0.869812  1
  Re  Re8  1  0.000000  0.639656  0.318666  1
  Re  Re9  1  0.000000  0.360344  0.681334  1
  B  B10  1  0.500000  0.555088  0.430557  1
  B  B11  1  0.500000  0.444912  0.569443  1
  B  B12  1  0.500000  0.056122  0.069849  1
  B  B13  1  0.500000  0.943878  0.930151  1
  B  B14  1  0.500000  0.749767  0.416087  1
  B  B15  1  0.500000  0.250233  0.583913  1
  B  B16  1  0.500000  0.249503  0.083956  1
  B  B17  1  0.500000  0.750497  0.916044  1
  B  B18  1  0.500000  0.791062  0.265685  1
  B  B19  1  0.500000  0.208938  0.734315  1
  B  B20  1  0.500000  0.290058  0.233686  1
  B  B21  1  0.500000  0.709942  0.766314  1
  B  B22  1  0.500000  0.630245  0.185424  1
  B  B23  1  0.500000  0.369755  0.814576  1
  B  B24  1  0.500000  0.129791  0.313720  1
  B  B25  1  0.500000  0.870209  0.686280  1
  B  B26  1  0.500000  0.985064  0.213044  1
  B  B27  1  0.500000  0.014936  0.786956  1
  B  B28  1  0.500000  0.484792  0.286357  1
  B  B29  1  0.500000  0.515208  0.713643  1
  B  B30  1  0.500000  0.599460  0.027033  1
  B  B31  1  0.500000  0.400540  0.972967  1
  B  B32  1  0.500000  0.098670  0.472922  1
  B  B33  1  0.500000  0.901330  0.527078  1
  Ru  Ru34  1  0.000000  0.139396  0.180247  1
  Ru  Ru35  1  0.000000  0.860604  0.819753  1
