# generated using pymatgen
data_Ce4TmLu11(CdIr)4
_symmetry_space_group_name_H-M   'P 1'
_cell_length_a   9.53696822
_cell_length_b   9.53696846
_cell_length_c   9.54202900
_cell_angle_alpha   59.98245596
_cell_angle_beta   59.98245515
_cell_angle_gamma   59.96835835
_symmetry_Int_Tables_number   1
_chemical_formula_structural   Ce4TmLu11(CdIr)4
_chemical_formula_sum   'Ce4 Tm1 Lu11 Cd4 Ir4'
_cell_volume   613.37672324
_cell_formula_units_Z   1
loop_
 _symmetry_equiv_pos_site_id
 _symmetry_equiv_pos_as_xyz
  1  'x, y, z'
loop_
 _atom_site_type_symbol
 _atom_site_label
 _atom_site_symmetry_multiplicity
 _atom_site_fract_x
 _atom_site_fract_y
 _atom_site_fract_z
 _atom_site_occupancy
  Ce  Ce0  1  0.600556  0.600556  0.600131  1
  Ce  Ce1  1  0.600556  0.600556  0.198758  1
  Ce  Ce2  1  0.600910  0.198330  0.600380  1
  Ce  Ce3  1  0.198330  0.600910  0.600380  1
  Tm  Tm4  1  0.186426  0.186426  0.813574  1
  Lu  Lu5  1  0.061974  0.437864  0.437841  1
  Lu  Lu6  1  0.437864  0.061974  0.062320  1
  Lu  Lu7  1  0.437864  0.061974  0.437841  1
  Lu  Lu8  1  0.061974  0.437864  0.062320  1
  Lu  Lu9  1  0.437943  0.437943  0.062057  1
  Lu  Lu10  1  0.062219  0.062219  0.437781  1
  Lu  Lu11  1  0.186520  0.813612  0.813473  1
  Lu  Lu12  1  0.813612  0.186520  0.186395  1
  Lu  Lu13  1  0.813612  0.186520  0.813473  1
  Lu  Lu14  1  0.186520  0.813612  0.186395  1
  Lu  Lu15  1  0.813641  0.813641  0.186359  1
  Cd  Cd16  1  0.832620  0.832620  0.832840  1
  Cd  Cd17  1  0.832620  0.832620  0.501918  1
  Cd  Cd18  1  0.832461  0.501898  0.832819  1
  Cd  Cd19  1  0.501898  0.832461  0.832819  1
  Ir  Ir20  1  0.392285  0.392285  0.392144  1
  Ir  Ir21  1  0.392285  0.392285  0.823285  1
  Ir  Ir22  1  0.392318  0.822990  0.392346  1
  Ir  Ir23  1  0.822990  0.392318  0.392346  1
