# generated using pymatgen
data_Ba11Na15SrLi8N6
_symmetry_space_group_name_H-M   'P 1'
_cell_length_a   12.33101722
_cell_length_b   12.29007273
_cell_length_c   13.08029559
_cell_angle_alpha   61.97911370
_cell_angle_beta   61.84144507
_cell_angle_gamma   60.10978001
_symmetry_Int_Tables_number   1
_chemical_formula_structural   Ba11Na15SrLi8N6
_chemical_formula_sum   'Ba11 Na15 Sr1 Li8 N6'
_cell_volume   1442.07235490
_cell_formula_units_Z   1
loop_
 _symmetry_equiv_pos_site_id
 _symmetry_equiv_pos_as_xyz
  1  'x, y, z'
loop_
 _atom_site_type_symbol
 _atom_site_label
 _atom_site_symmetry_multiplicity
 _atom_site_fract_x
 _atom_site_fract_y
 _atom_site_fract_z
 _atom_site_occupancy
  Ba  Ba0  1  0.273896  0.637806  0.814610  1
  Ba  Ba1  1  0.638592  0.273418  0.814572  1
  Ba  Ba2  1  0.979728  0.979683  0.717548  1
  Ba  Ba3  1  0.018606  0.678089  0.283692  1
  Ba  Ba4  1  0.273896  0.273688  0.814610  1
  Ba  Ba5  1  0.723826  0.728904  0.187586  1
  Ba  Ba6  1  0.723826  0.359685  0.187586  1
  Ba  Ba7  1  0.979728  0.323042  0.717548  1
  Ba  Ba8  1  0.018606  0.019613  0.283692  1
  Ba  Ba9  1  0.323109  0.980504  0.715883  1
  Ba  Ba10  1  0.361032  0.726745  0.185479  1
  Na  Na11  1  0.646519  0.144284  0.561646  1
  Na  Na12  1  0.914954  0.602531  0.879985  1
  Na  Na13  1  0.398105  0.084590  0.120330  1
  Na  Na14  1  0.144750  0.646515  0.562220  1
  Na  Na15  1  0.398105  0.396975  0.120330  1
  Na  Na16  1  0.797339  0.798270  0.606121  1
  Na  Na17  1  0.646519  0.647551  0.561646  1
  Na  Na18  1  0.500009  0.499917  0.500157  1
  Na  Na19  1  0.602404  0.602252  0.879992  1
  Na  Na20  1  0.354027  0.352770  0.437330  1
  Na  Na21  1  0.602404  0.915352  0.879992  1
  Na  Na22  1  0.084760  0.397495  0.120250  1
  Na  Na23  1  0.354027  0.855873  0.437330  1
  Na  Na24  1  0.855222  0.353523  0.437733  1
  Na  Na25  1  0.203131  0.202081  0.392706  1
  Sr  Sr26  1  0.691128  0.018067  0.272738  1
  Li  Li27  1  0.962560  0.961301  0.114838  1
  Li  Li28  1  0.038435  0.038351  0.884862  1
  Li  Li29  1  0.998734  0.201384  0.001026  1
  Li  Li30  1  0.796378  0.000917  0.000734  1
  Li  Li31  1  0.202431  0.000218  0.999956  1
  Li  Li32  1  0.202431  0.797395  0.999956  1
  Li  Li33  1  0.796378  0.201970  0.000734  1
  Li  Li34  1  0.998734  0.798856  0.001026  1
  N  N35  1  0.144942  0.854832  0.855212  1
  N  N36  1  0.853050  0.142839  0.146580  1
  N  N37  1  0.144942  0.145015  0.855212  1
  N  N38  1  0.144357  0.855196  0.145250  1
  N  N39  1  0.853050  0.857531  0.146580  1
  N  N40  1  0.855329  0.144973  0.854726  1
