# generated using pymatgen
data_Hf3Ta2TiGa6
_symmetry_space_group_name_H-M   'P 1'
_cell_length_a   5.48987000
_cell_length_b   8.35688849
_cell_length_c   9.13830270
_cell_angle_alpha   89.53145672
_cell_angle_beta   90.00000000
_cell_angle_gamma   90.00000000
_symmetry_Int_Tables_number   1
_chemical_formula_structural   Hf3Ta2TiGa6
_chemical_formula_sum   'Hf6 Ta4 Ti2 Ga12'
_cell_volume   419.23514772
_cell_formula_units_Z   2
loop_
 _symmetry_equiv_pos_site_id
 _symmetry_equiv_pos_as_xyz
  1  'x, y, z'
loop_
 _atom_site_type_symbol
 _atom_site_label
 _atom_site_symmetry_multiplicity
 _atom_site_fract_x
 _atom_site_fract_y
 _atom_site_fract_z
 _atom_site_occupancy
  Hf  Hf0  1  0.750000  0.971425  0.380107  1
  Hf  Hf1  1  0.250000  0.028575  0.619893  1
  Hf  Hf2  1  0.750000  0.364828  0.175013  1
  Hf  Hf3  1  0.250000  0.635172  0.824987  1
  Hf  Hf4  1  0.750000  0.868653  0.816534  1
  Hf  Hf5  1  0.250000  0.131347  0.183466  1
  Ta  Ta6  1  0.999586  0.747916  0.112147  1
  Ta  Ta7  1  0.499586  0.252084  0.887853  1
  Ta  Ta8  1  0.000414  0.252084  0.887853  1
  Ta  Ta9  1  0.500414  0.747916  0.112147  1
  Ti  Ti10  1  0.750000  0.469076  0.623059  1
  Ti  Ti11  1  0.250000  0.530924  0.376941  1
  Ga  Ga12  1  0.000280  0.740350  0.572835  1
  Ga  Ga13  1  0.500280  0.259650  0.427165  1
  Ga  Ga14  1  0.999720  0.259650  0.427165  1
  Ga  Ga15  1  0.499720  0.740350  0.572835  1
  Ga  Ga16  1  0.750000  0.043747  0.080157  1
  Ga  Ga17  1  0.250000  0.956253  0.919843  1
  Ga  Ga18  1  0.750000  0.546578  0.912401  1
  Ga  Ga19  1  0.250000  0.453422  0.087599  1
  Ga  Ga20  1  0.750000  0.138955  0.650420  1
  Ga  Ga21  1  0.250000  0.861045  0.349580  1
  Ga  Ga22  1  0.750000  0.624444  0.350976  1
  Ga  Ga23  1  0.250000  0.375556  0.649024  1
