# generated using pymatgen
data_Be12PdRu5Au6
_symmetry_space_group_name_H-M   'P 1'
_cell_length_a   4.03997800
_cell_length_b   5.72763600
_cell_length_c   12.10199300
_cell_angle_alpha   90.00000000
_cell_angle_beta   89.99937550
_cell_angle_gamma   90.00000000
_symmetry_Int_Tables_number   1
_chemical_formula_structural   Be12PdRu5Au6
_chemical_formula_sum   'Be12 Pd1 Ru5 Au6'
_cell_volume   280.03435059
_cell_formula_units_Z   1
loop_
 _symmetry_equiv_pos_site_id
 _symmetry_equiv_pos_as_xyz
  1  'x, y, z'
loop_
 _atom_site_type_symbol
 _atom_site_label
 _atom_site_symmetry_multiplicity
 _atom_site_fract_x
 _atom_site_fract_y
 _atom_site_fract_z
 _atom_site_occupancy
  Be  Be0  1  0.500000  0.265442  0.000000  1
  Be  Be1  1  0.500000  0.734558  0.000000  1
  Be  Be2  1  0.000316  0.257033  0.171196  1
  Be  Be3  1  0.000316  0.742965  0.171196  1
  Be  Be4  1  0.500324  0.249772  0.334481  1
  Be  Be5  1  0.500324  0.750229  0.334481  1
  Be  Be6  1  0.000000  0.248968  0.500000  1
  Be  Be7  1  0.000000  0.751032  0.500000  1
  Be  Be8  1  0.499675  0.249772  0.665519  1
  Be  Be9  1  0.499675  0.750229  0.665519  1
  Be  Be10  1  0.999682  0.257033  0.828804  1
  Be  Be11  1  0.999682  0.742965  0.828804  1
  Pd  Pd12  1  0.000000  0.000000  0.000000  1
  Ru  Ru13  1  0.500270  0.500000  0.165293  1
  Ru  Ru14  1  0.000257  0.000000  0.332062  1
  Ru  Ru15  1  0.500000  0.500000  0.500000  1
  Ru  Ru16  1  0.999744  0.000000  0.667938  1
  Ru  Ru17  1  0.499731  0.500000  0.834707  1
  Au  Au18  1  0.000000  0.500000  0.000000  1
  Au  Au19  1  0.500252  0.000000  0.165042  1
  Au  Au20  1  0.000242  0.500000  0.334110  1
  Au  Au21  1  0.500000  0.000000  0.500000  1
  Au  Au22  1  0.999759  0.500000  0.665890  1
  Au  Au23  1  0.499749  0.000000  0.834958  1
