# generated using pymatgen
data_Tb3Er2Bi2Os
_symmetry_space_group_name_H-M   'P 1'
_cell_length_a   7.95827900
_cell_length_b   9.03525300
_cell_length_c   12.54044800
_cell_angle_alpha   90.00000000
_cell_angle_beta   90.00000000
_cell_angle_gamma   90.00000000
_symmetry_Int_Tables_number   1
_chemical_formula_structural   Tb3Er2Bi2Os
_chemical_formula_sum   'Tb12 Er8 Bi8 Os4'
_cell_volume   901.72171866
_cell_formula_units_Z   4
loop_
 _symmetry_equiv_pos_site_id
 _symmetry_equiv_pos_as_xyz
  1  'x, y, z'
loop_
 _atom_site_type_symbol
 _atom_site_label
 _atom_site_symmetry_multiplicity
 _atom_site_fract_x
 _atom_site_fract_y
 _atom_site_fract_z
 _atom_site_occupancy
  Tb  Tb0  1  0.843062  0.750000  0.792286  1
  Tb  Tb1  1  0.156938  0.250000  0.207714  1
  Tb  Tb2  1  0.343062  0.250000  0.707714  1
  Tb  Tb3  1  0.656938  0.750000  0.292286  1
  Tb  Tb4  1  0.375588  0.750000  0.690723  1
  Tb  Tb5  1  0.624412  0.250000  0.309277  1
  Tb  Tb6  1  0.875588  0.250000  0.809277  1
  Tb  Tb7  1  0.124412  0.750000  0.190723  1
  Tb  Tb8  1  0.943069  0.750000  0.505009  1
  Tb  Tb9  1  0.056931  0.250000  0.494991  1
  Tb  Tb10  1  0.443069  0.250000  0.994991  1
  Tb  Tb11  1  0.556931  0.750000  0.005009  1
  Er  Er12  1  0.673014  0.041898  0.564270  1
  Er  Er13  1  0.326986  0.958102  0.435730  1
  Er  Er14  1  0.173014  0.958102  0.935730  1
  Er  Er15  1  0.326986  0.541898  0.435730  1
  Er  Er16  1  0.826986  0.041898  0.064270  1
  Er  Er17  1  0.673014  0.458102  0.564270  1
  Er  Er18  1  0.826986  0.458102  0.064270  1
  Er  Er19  1  0.173014  0.541898  0.935730  1
  Bi  Bi20  1  0.567412  0.494512  0.827671  1
  Bi  Bi21  1  0.432588  0.505488  0.172329  1
  Bi  Bi22  1  0.067412  0.505488  0.672329  1
  Bi  Bi23  1  0.432588  0.994512  0.172329  1
  Bi  Bi24  1  0.932588  0.494512  0.327671  1
  Bi  Bi25  1  0.567412  0.005488  0.827671  1
  Bi  Bi26  1  0.932588  0.005488  0.327671  1
  Bi  Bi27  1  0.067412  0.994512  0.672329  1
  Os  Os28  1  0.574656  0.750000  0.509755  1
  Os  Os29  1  0.425344  0.250000  0.490245  1
  Os  Os30  1  0.074656  0.250000  0.990245  1
  Os  Os31  1  0.925344  0.750000  0.009755  1
