# generated using pymatgen
data_K6Mn(SeO4)4
_symmetry_space_group_name_H-M   'P 1'
_cell_length_a   9.26332636
_cell_length_b   10.34020800
_cell_length_c   11.01232000
_cell_angle_alpha   90.00000000
_cell_angle_beta   113.69649805
_cell_angle_gamma   90.00000000
_symmetry_Int_Tables_number   1
_chemical_formula_structural   K6Mn(SeO4)4
_chemical_formula_sum   'K12 Mn2 Se8 O32'
_cell_volume   965.87780608
_cell_formula_units_Z   2
loop_
 _symmetry_equiv_pos_site_id
 _symmetry_equiv_pos_as_xyz
  1  'x, y, z'
loop_
 _atom_site_type_symbol
 _atom_site_label
 _atom_site_symmetry_multiplicity
 _atom_site_fract_x
 _atom_site_fract_y
 _atom_site_fract_z
 _atom_site_occupancy
  K  K0  1  0.897731  0.844073  0.557064  1
  K  K1  1  0.102269  0.155927  0.442936  1
  K  K2  1  0.602269  0.344073  0.442936  1
  K  K3  1  0.397731  0.655927  0.557064  1
  K  K4  1  0.537110  0.987281  0.693920  1
  K  K5  1  0.462890  0.012719  0.306080  1
  K  K6  1  0.962890  0.487281  0.306080  1
  K  K7  1  0.037110  0.512719  0.693920  1
  K  K8  1  0.814168  0.358033  0.891910  1
  K  K9  1  0.185832  0.641967  0.108090  1
  K  K10  1  0.685832  0.858033  0.108090  1
  K  K11  1  0.314168  0.141967  0.891910  1
  Mn  Mn12  1  0.000000  0.000000  0.000000  1
  Mn  Mn13  1  0.500000  0.500000  0.000000  1
  Se  Se14  1  0.780719  0.699265  0.862230  1
  Se  Se15  1  0.219281  0.300735  0.137770  1
  Se  Se16  1  0.719281  0.199265  0.137770  1
  Se  Se17  1  0.280719  0.800735  0.862230  1
  Se  Se18  1  0.636582  0.639815  0.328324  1
  Se  Se19  1  0.363418  0.360185  0.671676  1
  Se  Se20  1  0.863418  0.139815  0.671676  1
  Se  Se21  1  0.136582  0.860185  0.328324  1
  O  O22  1  0.855489  0.826285  0.966304  1
  O  O23  1  0.144511  0.173715  0.033696  1
  O  O24  1  0.644511  0.326285  0.033696  1
  O  O25  1  0.355489  0.673715  0.966304  1
  O  O26  1  0.928072  0.602251  0.869864  1
  O  O27  1  0.071928  0.397749  0.130136  1
  O  O28  1  0.571928  0.102251  0.130136  1
  O  O29  1  0.428072  0.897749  0.869864  1
  O  O30  1  0.975593  0.917906  0.340805  1
  O  O31  1  0.024407  0.082094  0.659195  1
  O  O32  1  0.524407  0.417906  0.659195  1
  O  O33  1  0.475593  0.582094  0.340805  1
  O  O34  1  0.684853  0.755626  0.708367  1
  O  O35  1  0.315147  0.244374  0.291633  1
  O  O36  1  0.815147  0.255626  0.291633  1
  O  O37  1  0.184853  0.744374  0.708367  1
  O  O38  1  0.661479  0.617331  0.916202  1
  O  O39  1  0.338520  0.382669  0.083798  1
  O  O40  1  0.838521  0.117331  0.083798  1
  O  O41  1  0.161480  0.882669  0.916202  1
  O  O42  1  0.799479  0.586942  0.454337  1
  O  O43  1  0.200521  0.413058  0.545663  1
  O  O44  1  0.700521  0.086942  0.545663  1
  O  O45  1  0.299479  0.913058  0.454337  1
  O  O46  1  0.348071  0.412457  0.812297  1
  O  O47  1  0.651929  0.587543  0.187703  1
  O  O48  1  0.151929  0.912457  0.187703  1
  O  O49  1  0.848071  0.087543  0.812297  1
  O  O50  1  0.865064  0.301210  0.672397  1
  O  O51  1  0.134936  0.698790  0.327603  1
  O  O52  1  0.634936  0.801210  0.327603  1
  O  O53  1  0.365064  0.198790  0.672397  1
