# generated using pymatgen
data_Hf3AlTc2
_symmetry_space_group_name_H-M   'P 1'
_cell_length_a   8.05045500
_cell_length_b   8.05045651
_cell_length_c   5.74214600
_cell_angle_alpha   90.00000000
_cell_angle_beta   90.00000000
_cell_angle_gamma   119.99999789
_symmetry_Int_Tables_number   1
_chemical_formula_structural   Hf3AlTc2
_chemical_formula_sum   'Hf9 Al3 Tc6'
_cell_volume   322.28924028
_cell_formula_units_Z   3
loop_
 _symmetry_equiv_pos_site_id
 _symmetry_equiv_pos_as_xyz
  1  'x, y, z'
loop_
 _atom_site_type_symbol
 _atom_site_label
 _atom_site_symmetry_multiplicity
 _atom_site_fract_x
 _atom_site_fract_y
 _atom_site_fract_z
 _atom_site_occupancy
  Hf  Hf0  1  0.666756  0.000000  0.225399  1
  Hf  Hf1  1  0.333243  0.333244  0.225399  1
  Hf  Hf2  1  0.000000  0.666756  0.225399  1
  Hf  Hf3  1  0.000000  0.000000  0.545363  1
  Hf  Hf4  1  0.666666  0.333333  0.545551  1
  Hf  Hf5  1  0.333334  0.666667  0.545551  1
  Hf  Hf6  1  0.333476  0.000000  0.905280  1
  Hf  Hf7  1  0.000000  0.333476  0.905280  1
  Hf  Hf8  1  0.666524  0.666524  0.905280  1
  Al  Al9  1  0.666891  0.000000  0.725465  1
  Al  Al10  1  0.333110  0.333110  0.725465  1
  Al  Al11  1  0.000000  0.666890  0.725465  1
  Tc  Tc12  1  0.000000  0.000000  0.047357  1
  Tc  Tc13  1  0.666666  0.333333  0.047627  1
  Tc  Tc14  1  0.333334  0.666667  0.047627  1
  Tc  Tc15  1  0.333350  0.000000  0.403450  1
  Tc  Tc16  1  0.000000  0.333350  0.403450  1
  Tc  Tc17  1  0.666651  0.666650  0.403450  1
