# generated using pymatgen
data_Zr5SiSn2Sb
_symmetry_space_group_name_H-M   'P 1'
_cell_length_a   8.67939232
_cell_length_b   8.67530430
_cell_length_c   5.87889700
_cell_angle_alpha   90.00000000
_cell_angle_beta   90.00000000
_cell_angle_gamma   119.98441964
_symmetry_Int_Tables_number   1
_chemical_formula_structural   Zr5SiSn2Sb
_chemical_formula_sum   'Zr10 Si2 Sn4 Sb2'
_cell_volume   383.41463150
_cell_formula_units_Z   2
loop_
 _symmetry_equiv_pos_site_id
 _symmetry_equiv_pos_as_xyz
  1  'x, y, z'
loop_
 _atom_site_type_symbol
 _atom_site_label
 _atom_site_symmetry_multiplicity
 _atom_site_fract_x
 _atom_site_fract_y
 _atom_site_fract_z
 _atom_site_occupancy
  Zr  Zr0  1  0.259204  0.999962  0.250000  1
  Zr  Zr1  1  0.259204  0.259243  0.750000  1
  Zr  Zr2  1  0.000009  0.741205  0.750000  1
  Zr  Zr3  1  0.000009  0.258803  0.250000  1
  Zr  Zr4  1  0.740567  0.740614  0.250000  1
  Zr  Zr5  1  0.740567  0.999953  0.750000  1
  Zr  Zr6  1  0.333789  0.666895  0.000000  1
  Zr  Zr7  1  0.665925  0.332962  0.500000  1
  Zr  Zr8  1  0.665925  0.332962  0.000000  1
  Zr  Zr9  1  0.333789  0.666895  0.500000  1
  Si  Si10  1  0.999215  0.999607  0.000000  1
  Si  Si11  1  0.999215  0.999607  0.500000  1
  Sn  Sn12  1  0.606322  0.999918  0.250000  1
  Sn  Sn13  1  0.606322  0.606404  0.750000  1
  Sn  Sn14  1  0.999657  0.394471  0.750000  1
  Sn  Sn15  1  0.999657  0.605186  0.250000  1
  Sb  Sb16  1  0.395313  0.395590  0.250000  1
  Sb  Sb17  1  0.395313  0.999723  0.750000  1
