# generated using pymatgen
data_Y2Er2Tc3PtF28
_symmetry_space_group_name_H-M   'P 1'
_cell_length_a   5.57442037
_cell_length_b   8.89511936
_cell_length_c   11.99946043
_cell_angle_alpha   62.51561677
_cell_angle_beta   90.09442434
_cell_angle_gamma   90.05964008
_symmetry_Int_Tables_number   1
_chemical_formula_structural   Y2Er2Tc3PtF28
_chemical_formula_sum   'Y2 Er2 Tc3 Pt1 F28'
_cell_volume   527.84100765
_cell_formula_units_Z   1
loop_
 _symmetry_equiv_pos_site_id
 _symmetry_equiv_pos_as_xyz
  1  'x, y, z'
loop_
 _atom_site_type_symbol
 _atom_site_label
 _atom_site_symmetry_multiplicity
 _atom_site_fract_x
 _atom_site_fract_y
 _atom_site_fract_z
 _atom_site_occupancy
  Y  Y0  1  0.759598  0.184880  0.235475  1
  Y  Y1  1  0.239594  0.815664  0.762916  1
  Er  Er2  1  0.259638  0.813644  0.264944  1
  Er  Er3  1  0.740979  0.187107  0.734898  1
  Tc  Tc4  1  0.757901  0.727686  0.043330  1
  Tc  Tc5  1  0.242449  0.273123  0.955933  1
  Tc  Tc6  1  0.258232  0.274817  0.456994  1
  Pt  Pt7  1  0.740373  0.726450  0.542745  1
  F  F8  1  0.935870  0.703088  0.415115  1
  F  F9  1  0.053289  0.292434  0.582579  1
  F  F10  1  0.445567  0.293320  0.081498  1
  F  F11  1  0.553317  0.707138  0.918559  1
  F  F12  1  0.475725  0.730386  0.140366  1
  F  F13  1  0.525402  0.269927  0.859869  1
  F  F14  1  0.975741  0.271293  0.360614  1
  F  F15  1  0.032092  0.725619  0.635313  1
  F  F16  1  0.960073  0.746303  0.171809  1
  F  F17  1  0.042251  0.253916  0.827292  1
  F  F18  1  0.456181  0.255948  0.327937  1
  F  F19  1  0.552366  0.743329  0.675688  1
  F  F20  1  0.772175  0.479952  0.140788  1
  F  F21  1  0.227759  0.520926  0.858272  1
  F  F22  1  0.270981  0.523069  0.358943  1
  F  F23  1  0.728316  0.477839  0.642294  1
  F  F24  1  0.949188  0.279365  0.045443  1
  F  F25  1  0.050417  0.721332  0.953372  1
  F  F26  1  0.440502  0.720225  0.456695  1
  F  F27  1  0.552827  0.279282  0.546907  1
  F  F28  1  0.742224  0.975122  0.450311  1
  F  F29  1  0.258624  0.027641  0.551895  1
  F  F30  1  0.242354  0.026107  0.054005  1
  F  F31  1  0.758444  0.974737  0.945959  1
  F  F32  1  0.580430  0.967698  0.233192  1
  F  F33  1  0.419663  0.031148  0.767814  1
  F  F34  1  0.084802  0.026368  0.269409  1
  F  F35  1  0.914658  0.973119  0.730828  1
