# generated using pymatgen
data_Ta15Nb(CoTe4)4
_symmetry_space_group_name_H-M   'P 1'
_cell_length_a   4.80890600
_cell_length_b   10.83729203
_cell_length_c   18.99516307
_cell_angle_alpha   89.99095345
_cell_angle_beta   90.00000000
_cell_angle_gamma   90.00000000
_symmetry_Int_Tables_number   1
_chemical_formula_structural   Ta15Nb(CoTe4)4
_chemical_formula_sum   'Ta15 Nb1 Co4 Te16'
_cell_volume   989.94276303
_cell_formula_units_Z   1
loop_
 _symmetry_equiv_pos_site_id
 _symmetry_equiv_pos_as_xyz
  1  'x, y, z'
loop_
 _atom_site_type_symbol
 _atom_site_label
 _atom_site_symmetry_multiplicity
 _atom_site_fract_x
 _atom_site_fract_y
 _atom_site_fract_z
 _atom_site_occupancy
  Ta  Ta0  1  0.500000  0.565710  0.384790  1
  Ta  Ta1  1  0.500000  0.436020  0.615960  1
  Ta  Ta2  1  0.500000  0.064590  0.115825  1
  Ta  Ta3  1  0.500000  0.935706  0.884234  1
  Ta  Ta4  1  0.500000  0.703959  0.534925  1
  Ta  Ta5  1  0.500000  0.296314  0.463454  1
  Ta  Ta6  1  0.500000  0.203381  0.964044  1
  Ta  Ta7  1  0.500000  0.796567  0.036109  1
  Ta  Ta8  1  0.000000  0.310912  0.556705  1
  Ta  Ta9  1  0.000000  0.189006  0.056836  1
  Ta  Ta10  1  0.000000  0.810894  0.943479  1
  Ta  Ta11  1  0.000000  0.401245  0.392774  1
  Ta  Ta12  1  0.000000  0.597794  0.607223  1
  Ta  Ta13  1  0.000000  0.901994  0.107425  1
  Ta  Ta14  1  0.000000  0.097814  0.892441  1
  Nb  Nb15  1  0.000000  0.691999  0.442767  1
  Co  Co16  1  0.250040  0.498043  0.500433  1
  Co  Co17  1  0.750150  0.000025  0.999945  1
  Co  Co18  1  0.749960  0.498043  0.500433  1
  Co  Co19  1  0.249850  0.000025  0.999945  1
  Te  Te20  1  0.000000  0.850390  0.564342  1
  Te  Te21  1  0.000000  0.148365  0.437128  1
  Te  Te22  1  0.000000  0.350226  0.936877  1
  Te  Te23  1  0.000000  0.649396  0.063259  1
  Te  Te24  1  0.500000  0.331833  0.314525  1
  Te  Te25  1  0.500000  0.670050  0.684597  1
  Te  Te26  1  0.500000  0.830928  0.185455  1
  Te  Te27  1  0.500000  0.169292  0.814573  1
  Te  Te28  1  0.500000  0.828758  0.401786  1
  Te  Te29  1  0.500000  0.173140  0.597342  1
  Te  Te30  1  0.500000  0.327199  0.097576  1
  Te  Te31  1  0.500000  0.673143  0.902423  1
  Te  Te32  1  0.000000  0.607756  0.299474  1
  Te  Te33  1  0.000000  0.390101  0.700670  1
  Te  Te34  1  0.000000  0.109614  0.200645  1
  Te  Te35  1  0.000000  0.889765  0.799579  1
