# generated using pymatgen
data_Tb6Ga5Co2Sn7
_symmetry_space_group_name_H-M   'P 1'
_cell_length_a   8.19469639
_cell_length_b   8.19469741
_cell_length_c   12.85059406
_cell_angle_alpha   89.81625627
_cell_angle_beta   90.18374286
_cell_angle_gamma   148.48687946
_symmetry_Int_Tables_number   1
_chemical_formula_structural   Tb6Ga5Co2Sn7
_chemical_formula_sum   'Tb6 Ga5 Co2 Sn7'
_cell_volume   451.05960385
_cell_formula_units_Z   1
loop_
 _symmetry_equiv_pos_site_id
 _symmetry_equiv_pos_as_xyz
  1  'x, y, z'
loop_
 _atom_site_type_symbol
 _atom_site_label
 _atom_site_symmetry_multiplicity
 _atom_site_fract_x
 _atom_site_fract_y
 _atom_site_fract_z
 _atom_site_occupancy
  Tb  Tb0  1  0.900265  0.099735  0.101715  1
  Tb  Tb1  1  0.098217  0.901783  0.601794  1
  Tb  Tb2  1  0.899464  0.100536  0.748056  1
  Tb  Tb3  1  0.101168  0.898832  0.897509  1
  Tb  Tb4  1  0.099895  0.900105  0.252692  1
  Tb  Tb5  1  0.899749  0.100251  0.400057  1
  Ga  Ga6  1  0.754787  0.245213  0.572686  1
  Ga  Ga7  1  0.739464  0.260536  0.253690  1
  Ga  Ga8  1  0.260763  0.739237  0.737171  1
  Ga  Ga9  1  0.453306  0.546694  0.251358  1
  Ga  Ga10  1  0.546938  0.453062  0.749526  1
  Co  Co11  1  0.299866  0.700134  0.253062  1
  Co  Co12  1  0.700907  0.299093  0.743480  1
  Sn  Sn13  1  0.428690  0.571310  0.579858  1
  Sn  Sn14  1  0.568975  0.431025  0.422599  1
  Sn  Sn15  1  0.241703  0.758297  0.073509  1
  Sn  Sn16  1  0.247024  0.752976  0.436418  1
  Sn  Sn17  1  0.568454  0.431546  0.080402  1
  Sn  Sn18  1  0.758245  0.241755  0.924752  1
  Sn  Sn19  1  0.432120  0.567880  0.919667  1
