# generated using pymatgen
data_TcP3WO12
_symmetry_space_group_name_H-M   'P 1'
_cell_length_a   8.72692864
_cell_length_b   8.72612846
_cell_length_c   9.04451400
_cell_angle_alpha   90.11461621
_cell_angle_beta   118.69227435
_cell_angle_gamma   119.99316718
_symmetry_Int_Tables_number   1
_chemical_formula_structural   TcP3WO12
_chemical_formula_sum   'Tc2 P6 W2 O24'
_cell_volume   496.02143129
_cell_formula_units_Z   2
loop_
 _symmetry_equiv_pos_site_id
 _symmetry_equiv_pos_as_xyz
  1  'x, y, z'
loop_
 _atom_site_type_symbol
 _atom_site_label
 _atom_site_symmetry_multiplicity
 _atom_site_fract_x
 _atom_site_fract_y
 _atom_site_fract_z
 _atom_site_occupancy
  Tc  Tc0  1  0.211644  0.857552  0.068563  1
  Tc  Tc1  1  0.790033  0.643414  0.434472  1
  P  P2  1  0.997258  0.958512  0.248212  1
  P  P3  1  0.289696  0.539621  0.250773  1
  P  P4  1  0.281409  0.751629  0.748055  1
  P  P5  1  0.710170  0.249510  0.251840  1
  P  P6  1  0.720144  0.468912  0.749107  1
  P  P7  1  0.000658  0.031526  0.751348  1
  W  W8  1  0.208065  0.355326  0.562800  1
  W  W9  1  0.790157  0.143742  0.934424  1
  O  O10  1  0.296214  0.714896  0.226009  1
  O  O11  1  0.862893  0.988319  0.075455  1
  O  O12  1  0.844499  0.852356  0.592027  1
  O  O13  1  0.839706  0.794981  0.274337  1
  O  O14  1  0.148233  0.929644  0.232551  1
  O  O15  1  0.480312  0.547078  0.277988  1
  O  O16  1  0.101224  0.743670  0.581849  1
  O  O17  1  0.903379  0.641153  0.914964  1
  O  O18  1  0.277728  0.771285  0.914248  1
  O  O19  1  0.493009  0.919291  0.780115  1
  O  O20  1  0.736221  0.483253  0.587076  1
  O  O21  1  0.723432  0.430724  0.270847  1
  O  O22  1  0.278818  0.574632  0.717152  1
  O  O23  1  0.277327  0.511626  0.415869  1
  O  O24  1  0.513639  0.080805  0.232698  1
  O  O25  1  0.711652  0.211814  0.084435  1
  O  O26  1  0.087589  0.368260  0.082941  1
  O  O27  1  0.907237  0.274572  0.420451  1
  O  O28  1  0.510404  0.437236  0.708735  1
  O  O29  1  0.862945  0.076586  0.778464  1
  O  O30  1  0.142059  0.200738  0.712945  1
  O  O31  1  0.139280  0.137241  0.410135  1
  O  O32  1  0.152373  0.018231  0.922870  1
  O  O33  1  0.710594  0.291863  0.786246  1
