# generated using pymatgen
data_Lu10Sc9Si16Mo
_symmetry_space_group_name_H-M   'P 1'
_cell_length_a   6.99577129
_cell_length_b   7.33693788
_cell_length_c   13.85709159
_cell_angle_alpha   90.18701886
_cell_angle_beta   90.04750536
_cell_angle_gamma   89.59781240
_symmetry_Int_Tables_number   1
_chemical_formula_structural   Lu10Sc9Si16Mo
_chemical_formula_sum   'Lu10 Sc9 Si16 Mo1'
_cell_volume   711.22887160
_cell_formula_units_Z   1
loop_
 _symmetry_equiv_pos_site_id
 _symmetry_equiv_pos_as_xyz
  1  'x, y, z'
loop_
 _atom_site_type_symbol
 _atom_site_label
 _atom_site_symmetry_multiplicity
 _atom_site_fract_x
 _atom_site_fract_y
 _atom_site_fract_z
 _atom_site_occupancy
  Lu  Lu0  1  0.990355  0.683019  0.599996  1
  Lu  Lu1  1  0.014802  0.320464  0.405583  1
  Lu  Lu2  1  0.514202  0.180085  0.402907  1
  Lu  Lu3  1  0.013457  0.320795  0.092215  1
  Lu  Lu4  1  0.483116  0.822712  0.599285  1
  Lu  Lu5  1  0.990819  0.683068  0.902027  1
  Lu  Lu6  1  0.484619  0.823546  0.903886  1
  Lu  Lu7  1  0.513060  0.179065  0.093789  1
  Lu  Lu8  1  0.326221  0.320518  0.627592  1
  Lu  Lu9  1  0.673753  0.677722  0.374808  1
  Sc  Sc10  1  0.844504  0.006493  0.248268  1
  Sc  Sc11  1  0.343096  0.494698  0.248370  1
  Sc  Sc12  1  0.656851  0.508892  0.751581  1
  Sc  Sc13  1  0.175489  0.828323  0.374535  1
  Sc  Sc14  1  0.673267  0.677330  0.124665  1
  Sc  Sc15  1  0.825691  0.168129  0.630892  1
  Sc  Sc16  1  0.325219  0.319569  0.873657  1
  Sc  Sc17  1  0.824264  0.168663  0.872873  1
  Sc  Sc18  1  0.174975  0.827088  0.122238  1
  Si  Si19  1  0.024499  0.383934  0.753998  1
  Si  Si20  1  0.977278  0.610805  0.246302  1
  Si  Si21  1  0.471097  0.894366  0.247267  1
  Si  Si22  1  0.518658  0.094815  0.752904  1
  Si  Si23  1  0.280267  0.643768  0.751520  1
  Si  Si24  1  0.720543  0.366131  0.247753  1
  Si  Si25  1  0.216303  0.134378  0.248304  1
  Si  Si26  1  0.790578  0.866684  0.751474  1
  Si  Si27  1  0.151951  0.027422  0.546442  1
  Si  Si28  1  0.846224  0.970984  0.462997  1
  Si  Si29  1  0.339512  0.536341  0.461143  1
  Si  Si30  1  0.842349  0.965870  0.037407  1
  Si  Si31  1  0.665179  0.463056  0.540938  1
  Si  Si32  1  0.155089  0.031736  0.952530  1
  Si  Si33  1  0.658845  0.466218  0.960555  1
  Si  Si34  1  0.344888  0.533681  0.037358  1
  Mo  Mo35  1  0.148983  0.999627  0.751942  1
