# generated using pymatgen
data_CsNa7Zn2O6
_symmetry_space_group_name_H-M   'P 1'
_cell_length_a   6.00673450
_cell_length_b   6.00673370
_cell_length_c   11.07682363
_cell_angle_alpha   89.92880703
_cell_angle_beta   89.92880730
_cell_angle_gamma   42.64697895
_symmetry_Int_Tables_number   1
_chemical_formula_structural   CsNa7Zn2O6
_chemical_formula_sum   'Cs1 Na7 Zn2 O6'
_cell_volume   270.76198956
_cell_formula_units_Z   1
loop_
 _symmetry_equiv_pos_site_id
 _symmetry_equiv_pos_as_xyz
  1  'x, y, z'
loop_
 _atom_site_type_symbol
 _atom_site_label
 _atom_site_symmetry_multiplicity
 _atom_site_fract_x
 _atom_site_fract_y
 _atom_site_fract_z
 _atom_site_occupancy
  Cs  Cs0  1  0.000000  0.000000  0.500000  1
  Na  Na1  1  0.846855  0.846855  0.223325  1
  Na  Na2  1  0.722991  0.722991  0.601242  1
  Na  Na3  1  0.240808  0.240808  0.089627  1
  Na  Na4  1  0.277009  0.277009  0.398758  1
  Na  Na5  1  0.153145  0.153145  0.776675  1
  Na  Na6  1  0.759192  0.759192  0.910373  1
  Na  Na7  1  0.500000  0.500000  0.000000  1
  Zn  Zn8  1  0.585398  0.585398  0.251875  1
  Zn  Zn9  1  0.414602  0.414602  0.748125  1
  O  O10  1  0.584591  0.584591  0.767076  1
  O  O11  1  0.675823  0.675823  0.100968  1
  O  O12  1  0.324177  0.324177  0.899032  1
  O  O13  1  0.687361  0.687361  0.390714  1
  O  O14  1  0.415409  0.415409  0.232924  1
  O  O15  1  0.312639  0.312639  0.609286  1
