# generated using pymatgen
data_Nd20Ir3RuPt8
_symmetry_space_group_name_H-M   'P 1'
_cell_length_a   11.43746400
_cell_length_b   11.43746400
_cell_length_c   6.54618900
_cell_angle_alpha   90.00000000
_cell_angle_beta   90.00000000
_cell_angle_gamma   90.00000000
_symmetry_Int_Tables_number   1
_chemical_formula_structural   Nd20Ir3RuPt8
_chemical_formula_sum   'Nd20 Ir3 Ru1 Pt8'
_cell_volume   856.34352884
_cell_formula_units_Z   1
loop_
 _symmetry_equiv_pos_site_id
 _symmetry_equiv_pos_as_xyz
  1  'x, y, z'
loop_
 _atom_site_type_symbol
 _atom_site_label
 _atom_site_symmetry_multiplicity
 _atom_site_fract_x
 _atom_site_fract_y
 _atom_site_fract_z
 _atom_site_occupancy
  Nd  Nd0  1  0.089039  0.296909  0.125568  1
  Nd  Nd1  1  0.796909  0.410961  0.125568  1
  Nd  Nd2  1  0.203091  0.589039  0.125568  1
  Nd  Nd3  1  0.910961  0.703091  0.125568  1
  Nd  Nd4  1  0.409814  0.795267  0.376297  1
  Nd  Nd5  1  0.590186  0.204733  0.376297  1
  Nd  Nd6  1  0.295267  0.090186  0.376297  1
  Nd  Nd7  1  0.704733  0.909814  0.376297  1
  Nd  Nd8  1  0.410019  0.204900  0.876353  1
  Nd  Nd9  1  0.704900  0.089981  0.876353  1
  Nd  Nd10  1  0.295100  0.910019  0.876353  1
  Nd  Nd11  1  0.589981  0.795100  0.876353  1
  Nd  Nd12  1  0.088912  0.702999  0.623074  1
  Nd  Nd13  1  0.911088  0.297001  0.623074  1
  Nd  Nd14  1  0.202999  0.411088  0.623074  1
  Nd  Nd15  1  0.797001  0.588912  0.623074  1
  Nd  Nd16  1  0.000000  0.000000  0.000179  1
  Nd  Nd17  1  0.500000  0.500000  0.000179  1
  Nd  Nd18  1  0.500000  0.500000  0.499866  1
  Nd  Nd19  1  0.000000  0.000000  0.499866  1
  Ir  Ir20  1  0.500000  0.000000  0.117669  1
  Ir  Ir21  1  0.500000  0.000000  0.616852  1
  Ir  Ir22  1  0.000000  0.500000  0.881322  1
  Ru  Ru23  1  0.000000  0.500000  0.381353  1
  Pt  Pt24  1  0.153601  0.846280  0.249385  1
  Pt  Pt25  1  0.346280  0.346399  0.249385  1
  Pt  Pt26  1  0.653720  0.653601  0.249385  1
  Pt  Pt27  1  0.846399  0.153720  0.249385  1
  Pt  Pt28  1  0.347013  0.653909  0.750002  1
  Pt  Pt29  1  0.153909  0.152987  0.750002  1
  Pt  Pt30  1  0.846091  0.847013  0.750002  1
  Pt  Pt31  1  0.652987  0.346091  0.750002  1
