# generated using pymatgen
data_TbFe3CoSb12
_symmetry_space_group_name_H-M   'P 1'
_cell_length_a   7.91242887
_cell_length_b   7.93082362
_cell_length_c   7.91242900
_cell_angle_alpha   109.51831815
_cell_angle_beta   109.42407748
_cell_angle_gamma   109.51832486
_symmetry_Int_Tables_number   1
_chemical_formula_structural   TbFe3CoSb12
_chemical_formula_sum   'Tb1 Fe3 Co1 Sb12'
_cell_volume   381.99992024
_cell_formula_units_Z   1
loop_
 _symmetry_equiv_pos_site_id
 _symmetry_equiv_pos_as_xyz
  1  'x, y, z'
loop_
 _atom_site_type_symbol
 _atom_site_label
 _atom_site_symmetry_multiplicity
 _atom_site_fract_x
 _atom_site_fract_y
 _atom_site_fract_z
 _atom_site_occupancy
  Tb  Tb0  1  0.000000  0.000000  0.000000  1
  Fe  Fe1  1  0.000000  0.000000  0.500000  1
  Fe  Fe2  1  0.500000  0.000000  0.000000  1
  Fe  Fe3  1  0.500000  0.500000  0.500000  1
  Co  Co4  1  0.000000  0.500000  0.000000  1
  Sb  Sb5  1  0.162315  0.829322  0.666615  1
  Sb  Sb6  1  0.837685  0.170678  0.333385  1
  Sb  Sb7  1  0.664982  0.160516  0.827430  1
  Sb  Sb8  1  0.504300  0.667006  0.837685  1
  Sb  Sb9  1  0.666615  0.837293  0.504300  1
  Sb  Sb10  1  0.495700  0.332994  0.162315  1
  Sb  Sb11  1  0.335018  0.839484  0.172570  1
  Sb  Sb12  1  0.172570  0.333087  0.837552  1
  Sb  Sb13  1  0.827430  0.666913  0.162448  1
  Sb  Sb14  1  0.333385  0.162707  0.495700  1
  Sb  Sb15  1  0.837552  0.504465  0.664982  1
  Sb  Sb16  1  0.162448  0.495535  0.335018  1
