# generated using pymatgen
data_PrYGe2(Ru2C)2
_symmetry_space_group_name_H-M   'P 1'
_cell_length_a   5.93002872
_cell_length_b   5.93002829
_cell_length_c   7.34703000
_cell_angle_alpha   90.00000000
_cell_angle_beta   90.00000000
_cell_angle_gamma   140.98343672
_symmetry_Int_Tables_number   1
_chemical_formula_structural   PrYGe2(Ru2C)2
_chemical_formula_sum   'Pr1 Y1 Ge2 Ru4 C2'
_cell_volume   162.64928987
_cell_formula_units_Z   1
loop_
 _symmetry_equiv_pos_site_id
 _symmetry_equiv_pos_as_xyz
  1  'x, y, z'
loop_
 _atom_site_type_symbol
 _atom_site_label
 _atom_site_symmetry_multiplicity
 _atom_site_fract_x
 _atom_site_fract_y
 _atom_site_fract_z
 _atom_site_occupancy
  Pr  Pr0  1  0.548113  0.451887  0.250000  1
  Y  Y1  1  0.453139  0.546861  0.750000  1
  Ge  Ge2  1  0.269152  0.730848  0.250000  1
  Ge  Ge3  1  0.732101  0.267899  0.750000  1
  Ru  Ru4  1  0.837100  0.162900  0.053874  1
  Ru  Ru5  1  0.162505  0.837495  0.940395  1
  Ru  Ru6  1  0.162505  0.837495  0.559605  1
  Ru  Ru7  1  0.837100  0.162900  0.446126  1
  C  C8  1  0.999143  0.000857  0.992915  1
  C  C9  1  0.999143  0.000857  0.507085  1
