# generated using pymatgen
data_Sb12Ir2RuPt
_symmetry_space_group_name_H-M   'P 1'
_cell_length_a   8.15315753
_cell_length_b   8.15074895
_cell_length_c   8.14648592
_cell_angle_alpha   109.46205930
_cell_angle_beta   109.46862511
_cell_angle_gamma   109.52462748
_symmetry_Int_Tables_number   1
_chemical_formula_structural   Sb12Ir2RuPt
_chemical_formula_sum   'Sb12 Ir2 Ru1 Pt1'
_cell_volume   416.53185246
_cell_formula_units_Z   1
loop_
 _symmetry_equiv_pos_site_id
 _symmetry_equiv_pos_as_xyz
  1  'x, y, z'
loop_
 _atom_site_type_symbol
 _atom_site_label
 _atom_site_symmetry_multiplicity
 _atom_site_fract_x
 _atom_site_fract_y
 _atom_site_fract_z
 _atom_site_occupancy
  Sb  Sb0  1  0.841153  0.654113  0.504506  1
  Sb  Sb1  1  0.846316  0.339318  0.185247  1
  Sb  Sb2  1  0.153684  0.660682  0.814753  1
  Sb  Sb3  1  0.338660  0.492467  0.157539  1
  Sb  Sb4  1  0.158847  0.345887  0.495494  1
  Sb  Sb5  1  0.653856  0.809199  0.149718  1
  Sb  Sb6  1  0.190721  0.844895  0.340694  1
  Sb  Sb7  1  0.661340  0.507533  0.842461  1
  Sb  Sb8  1  0.809279  0.155105  0.659306  1
  Sb  Sb9  1  0.346144  0.190801  0.850282  1
  Sb  Sb10  1  0.507528  0.842677  0.661478  1
  Sb  Sb11  1  0.492472  0.157323  0.338522  1
  Ir  Ir12  1  0.000000  0.500000  0.000000  1
  Ir  Ir13  1  0.500000  0.000000  0.000000  1
  Ru  Ru14  1  0.500000  0.500000  0.500000  1
  Pt  Pt15  1  0.000000  0.000000  0.500000  1
