# generated using pymatgen
data_VTcP2
_symmetry_space_group_name_H-M   'P 1'
_cell_length_a   3.15196300
_cell_length_b   5.51980200
_cell_length_c   6.22729900
_cell_angle_alpha   90.00000000
_cell_angle_beta   90.00000000
_cell_angle_gamma   90.00000000
_symmetry_Int_Tables_number   1
_chemical_formula_structural   VTcP2
_chemical_formula_sum   'V2 Tc2 P4'
_cell_volume   108.34386614
_cell_formula_units_Z   2
loop_
 _symmetry_equiv_pos_site_id
 _symmetry_equiv_pos_as_xyz
  1  'x, y, z'
loop_
 _atom_site_type_symbol
 _atom_site_label
 _atom_site_symmetry_multiplicity
 _atom_site_fract_x
 _atom_site_fract_y
 _atom_site_fract_z
 _atom_site_occupancy
  V  V0  1  0.000000  0.508036  0.451741  1
  V  V1  1  0.000000  0.008036  0.548259  1
  Tc  Tc2  1  0.500000  0.489945  0.066221  1
  Tc  Tc3  1  0.500000  0.989945  0.933779  1
  P  P4  1  0.500000  0.316808  0.684412  1
  P  P5  1  0.500000  0.816808  0.315588  1
  P  P6  1  0.000000  0.685210  0.811331  1
  P  P7  1  0.000000  0.185210  0.188669  1
