# generated using pymatgen
data_Ho17(MgIr4)3
_symmetry_space_group_name_H-M   'P 1'
_cell_length_a   10.69429500
_cell_length_b   10.69429500
_cell_length_c   6.26423500
_cell_angle_alpha   90.00000000
_cell_angle_beta   90.00000000
_cell_angle_gamma   90.00000000
_symmetry_Int_Tables_number   1
_chemical_formula_structural   Ho17(MgIr4)3
_chemical_formula_sum   'Ho17 Mg3 Ir12'
_cell_volume   716.42768737
_cell_formula_units_Z   1
loop_
 _symmetry_equiv_pos_site_id
 _symmetry_equiv_pos_as_xyz
  1  'x, y, z'
loop_
 _atom_site_type_symbol
 _atom_site_label
 _atom_site_symmetry_multiplicity
 _atom_site_fract_x
 _atom_site_fract_y
 _atom_site_fract_z
 _atom_site_occupancy
  Ho  Ho0  1  0.284053  0.086830  0.381215  1
  Ho  Ho1  1  0.284293  0.914666  0.879412  1
  Ho  Ho2  1  0.715707  0.085334  0.879412  1
  Ho  Ho3  1  0.715947  0.913170  0.381215  1
  Ho  Ho4  1  0.586778  0.785952  0.877869  1
  Ho  Ho5  1  0.590198  0.206869  0.378678  1
  Ho  Ho6  1  0.409802  0.793131  0.378678  1
  Ho  Ho7  1  0.413222  0.214048  0.877869  1
  Ho  Ho8  1  0.206869  0.409802  0.621322  1
  Ho  Ho9  1  0.214048  0.586778  0.122131  1
  Ho  Ho10  1  0.785952  0.413222  0.122131  1
  Ho  Ho11  1  0.793131  0.590198  0.621322  1
  Ho  Ho12  1  0.914666  0.715707  0.120588  1
  Ho  Ho13  1  0.913170  0.284053  0.618785  1
  Ho  Ho14  1  0.086830  0.715947  0.618785  1
  Ho  Ho15  1  0.085334  0.284293  0.120588  1
  Ho  Ho16  1  0.500000  0.500000  0.500000  1
  Mg  Mg17  1  0.000000  0.000000  0.500000  1
  Mg  Mg18  1  0.000000  0.000000  0.000000  1
  Mg  Mg19  1  0.500000  0.500000  0.000000  1
  Ir  Ir20  1  0.847895  0.152450  0.247775  1
  Ir  Ir21  1  0.847550  0.847895  0.752225  1
  Ir  Ir22  1  0.152450  0.152105  0.752225  1
  Ir  Ir23  1  0.152105  0.847550  0.247775  1
  Ir  Ir24  1  0.655590  0.345997  0.747163  1
  Ir  Ir25  1  0.654003  0.655590  0.252837  1
  Ir  Ir26  1  0.345997  0.344410  0.252837  1
  Ir  Ir27  1  0.344410  0.654003  0.747163  1
  Ir  Ir28  1  0.500000  0.000000  0.120156  1
  Ir  Ir29  1  0.500000  0.000000  0.625523  1
  Ir  Ir30  1  0.000000  0.500000  0.879844  1
  Ir  Ir31  1  0.000000  0.500000  0.374477  1
