# generated using pymatgen
data_HfNb5(AlRu2)6
_symmetry_space_group_name_H-M   'P 1'
_cell_length_a   4.39567000
_cell_length_b   6.23042500
_cell_length_c   13.16782900
_cell_angle_alpha   90.00000000
_cell_angle_beta   90.00033478
_cell_angle_gamma   90.00000000
_symmetry_Int_Tables_number   1
_chemical_formula_structural   HfNb5(AlRu2)6
_chemical_formula_sum   'Hf1 Nb5 Al6 Ru12'
_cell_volume   360.62591411
_cell_formula_units_Z   1
loop_
 _symmetry_equiv_pos_site_id
 _symmetry_equiv_pos_as_xyz
  1  'x, y, z'
loop_
 _atom_site_type_symbol
 _atom_site_label
 _atom_site_symmetry_multiplicity
 _atom_site_fract_x
 _atom_site_fract_y
 _atom_site_fract_z
 _atom_site_occupancy
  Hf  Hf0  1  0.500102  0.500000  0.833339  1
  Nb  Nb1  1  0.000006  0.000000  0.999503  1
  Nb  Nb2  1  0.499901  0.500000  0.166384  1
  Nb  Nb3  1  0.999893  0.000000  0.333338  1
  Nb  Nb4  1  0.500005  0.500000  0.500297  1
  Nb  Nb5  1  0.000097  0.000000  0.667168  1
  Al  Al6  1  0.000006  0.500000  0.000011  1
  Al  Al7  1  0.499874  0.000000  0.166666  1
  Al  Al8  1  0.999884  0.500000  0.333342  1
  Al  Al9  1  0.500002  0.000000  0.499989  1
  Al  Al10  1  0.000119  0.500000  0.666660  1
  Al  Al11  1  0.500118  0.000000  0.833342  1
  Ru  Ru12  1  0.500004  0.247784  0.002404  1
  Ru  Ru13  1  0.500004  0.752217  0.002404  1
  Ru  Ru14  1  0.999884  0.250450  0.167375  1
  Ru  Ru15  1  0.999884  0.749551  0.167375  1
  Ru  Ru16  1  0.499891  0.249699  0.333365  1
  Ru  Ru17  1  0.499891  0.750302  0.333365  1
  Ru  Ru18  1  0.000000  0.250425  0.499272  1
  Ru  Ru19  1  0.000000  0.749575  0.499272  1
  Ru  Ru20  1  0.500107  0.247737  0.664282  1
  Ru  Ru21  1  0.500107  0.752264  0.664282  1
  Ru  Ru22  1  0.000108  0.245369  0.833283  1
  Ru  Ru23  1  0.000108  0.754632  0.833283  1
