# generated using pymatgen
data_Pr17Nd3Si15S
_symmetry_space_group_name_H-M   'P 1'
_cell_length_a   7.95925250
_cell_length_b   7.86757751
_cell_length_c   15.28327600
_cell_angle_alpha   89.51014998
_cell_angle_beta   89.18434514
_cell_angle_gamma   91.02522303
_symmetry_Int_Tables_number   1
_chemical_formula_structural   Pr17Nd3Si15S
_chemical_formula_sum   'Pr17 Nd3 Si15 S1'
_cell_volume   956.75202421
_cell_formula_units_Z   1
loop_
 _symmetry_equiv_pos_site_id
 _symmetry_equiv_pos_as_xyz
  1  'x, y, z'
loop_
 _atom_site_type_symbol
 _atom_site_label
 _atom_site_symmetry_multiplicity
 _atom_site_fract_x
 _atom_site_fract_y
 _atom_site_fract_z
 _atom_site_occupancy
  Pr  Pr0  1  0.687313  0.686159  0.498110  1
  Pr  Pr1  1  0.380563  0.003002  0.442380  1
  Pr  Pr2  1  0.495327  0.863638  0.700973  1
  Pr  Pr3  1  0.512070  0.122368  0.196967  1
  Pr  Pr4  1  0.873470  0.482751  0.299938  1
  Pr  Pr5  1  0.124487  0.513824  0.799423  1
  Pr  Pr6  1  0.634726  0.986785  0.951703  1
  Pr  Pr7  1  0.997832  0.379964  0.549918  1
  Pr  Pr8  1  0.994680  0.623920  0.051858  1
  Pr  Pr9  1  0.141191  0.993896  0.869864  1
  Pr  Pr10  1  0.519472  0.630837  0.124944  1
  Pr  Pr11  1  0.466083  0.356566  0.632233  1
  Pr  Pr12  1  0.635608  0.521014  0.875995  1
  Pr  Pr13  1  0.366171  0.478002  0.375837  1
  Pr  Pr14  1  0.871724  0.019096  0.377550  1
  Pr  Pr15  1  0.985243  0.125126  0.122929  1
  Pr  Pr16  1  0.021565  0.881123  0.622376  1
  Nd  Nd17  1  0.313104  0.310985  0.999248  1
  Nd  Nd18  1  0.187858  0.806456  0.249275  1
  Nd  Nd19  1  0.801575  0.190202  0.752127  1
  Si  Si20  1  0.334609  0.700283  0.947832  1
  Si  Si21  1  0.659527  0.302299  0.454537  1
  Si  Si22  1  0.703822  0.335606  0.050960  1
  Si  Si23  1  0.301572  0.664784  0.552076  1
  Si  Si24  1  0.805491  0.830990  0.203428  1
  Si  Si25  1  0.168608  0.192111  0.295546  1
  Si  Si26  1  0.843906  0.804554  0.797045  1
  Si  Si27  1  0.289529  0.922832  0.057575  1
  Si  Si28  1  0.575511  0.784458  0.308405  1
  Si  Si29  1  0.452582  0.208337  0.823850  1
  Si  Si30  1  0.788018  0.580504  0.688092  1
  Si  Si31  1  0.212614  0.423702  0.190031  1
  Si  Si32  1  0.701875  0.073923  0.562023  1
  Si  Si33  1  0.928881  0.291832  0.939925  1
  Si  Si34  1  0.077110  0.712312  0.440956  1
  S  S35  1  0.146285  0.195757  0.694073  1
