# generated using pymatgen
data_Er4GaPd10Pt
_symmetry_space_group_name_H-M   'P 1'
_cell_length_a   4.19535400
_cell_length_b   5.81699312
_cell_length_c   11.62293900
_cell_angle_alpha   86.73725905
_cell_angle_beta   90.00000000
_cell_angle_gamma   90.00000000
_symmetry_Int_Tables_number   1
_chemical_formula_structural   Er4GaPd10Pt
_chemical_formula_sum   'Er4 Ga1 Pd10 Pt1'
_cell_volume   283.19043139
_cell_formula_units_Z   1
loop_
 _symmetry_equiv_pos_site_id
 _symmetry_equiv_pos_as_xyz
  1  'x, y, z'
loop_
 _atom_site_type_symbol
 _atom_site_label
 _atom_site_symmetry_multiplicity
 _atom_site_fract_x
 _atom_site_fract_y
 _atom_site_fract_z
 _atom_site_occupancy
  Er  Er0  1  0.500000  0.760526  0.375937  1
  Er  Er1  1  0.500000  0.711928  0.863011  1
  Er  Er2  1  0.500000  0.288072  0.136989  1
  Er  Er3  1  0.500000  0.239474  0.624063  1
  Ga  Ga4  1  0.000000  0.000000  0.000000  1
  Pd  Pd5  1  0.000000  0.020446  0.247362  1
  Pd  Pd6  1  0.000000  0.979554  0.752638  1
  Pd  Pd7  1  0.000000  0.500000  0.500000  1
  Pd  Pd8  1  0.000000  0.526099  0.249403  1
  Pd  Pd9  1  0.000000  0.473901  0.750597  1
  Pd  Pd10  1  0.500000  0.259609  0.377237  1
  Pd  Pd11  1  0.500000  0.210554  0.887923  1
  Pd  Pd12  1  0.500000  0.789446  0.112077  1
  Pd  Pd13  1  0.500000  0.740391  0.622763  1
  Pd  Pd14  1  0.000000  0.000000  0.500000  1
  Pt  Pt15  1  0.000000  0.500000  0.000000  1
