# generated using pymatgen
data_HoTm3(Fe2O7)2
_symmetry_space_group_name_H-M   'P 1'
_cell_length_a   7.11606649
_cell_length_b   7.11606721
_cell_length_c   7.11606625
_cell_angle_alpha   59.91060480
_cell_angle_beta   59.91060030
_cell_angle_gamma   59.91060502
_symmetry_Int_Tables_number   1
_chemical_formula_structural   HoTm3(Fe2O7)2
_chemical_formula_sum   'Ho1 Tm3 Fe4 O14'
_cell_volume   254.28654877
_cell_formula_units_Z   1
loop_
 _symmetry_equiv_pos_site_id
 _symmetry_equiv_pos_as_xyz
  1  'x, y, z'
loop_
 _atom_site_type_symbol
 _atom_site_label
 _atom_site_symmetry_multiplicity
 _atom_site_fract_x
 _atom_site_fract_y
 _atom_site_fract_z
 _atom_site_occupancy
  Ho  Ho0  1  0.125000  0.125000  0.125000  1
  Tm  Tm1  1  0.125000  0.125000  0.625000  1
  Tm  Tm2  1  0.625000  0.125000  0.125000  1
  Tm  Tm3  1  0.125000  0.625000  0.125000  1
  Fe  Fe4  1  0.625000  0.625000  0.625000  1
  Fe  Fe5  1  0.125000  0.625000  0.625000  1
  Fe  Fe6  1  0.625000  0.125000  0.625000  1
  Fe  Fe7  1  0.625000  0.625000  0.125000  1
  O  O8  1  0.539615  0.539615  0.960341  1
  O  O9  1  0.959992  0.540774  0.959992  1
  O  O10  1  0.290008  0.290008  0.709226  1
  O  O11  1  0.999018  0.999018  0.999018  1
  O  O12  1  0.289659  0.710385  0.710385  1
  O  O13  1  0.710385  0.710385  0.289659  1
  O  O14  1  0.709226  0.290008  0.290008  1
  O  O15  1  0.539615  0.960341  0.539615  1
  O  O16  1  0.710385  0.289659  0.710385  1
  O  O17  1  0.540774  0.959992  0.959992  1
  O  O18  1  0.959992  0.959992  0.540774  1
  O  O19  1  0.250982  0.250982  0.250982  1
  O  O20  1  0.290008  0.709226  0.290008  1
  O  O21  1  0.960341  0.539615  0.539615  1
