# generated using pymatgen
data_Ca5CdPt2
_symmetry_space_group_name_H-M   'P 1'
_cell_length_a   9.17876933
_cell_length_b   9.17876897
_cell_length_c   9.17876840
_cell_angle_alpha   128.95229118
_cell_angle_beta   128.95228919
_cell_angle_gamma   75.08735394
_symmetry_Int_Tables_number   1
_chemical_formula_structural   Ca5CdPt2
_chemical_formula_sum   'Ca10 Cd2 Pt4'
_cell_volume   455.35718362
_cell_formula_units_Z   2
loop_
 _symmetry_equiv_pos_site_id
 _symmetry_equiv_pos_as_xyz
  1  'x, y, z'
loop_
 _atom_site_type_symbol
 _atom_site_label
 _atom_site_symmetry_multiplicity
 _atom_site_fract_x
 _atom_site_fract_y
 _atom_site_fract_z
 _atom_site_occupancy
  Ca  Ca0  1  0.535411  0.035411  0.833347  1
  Ca  Ca1  1  0.202064  0.702064  0.166653  1
  Ca  Ca2  1  0.035411  0.202064  0.500000  1
  Ca  Ca3  1  0.702064  0.535411  0.500000  1
  Ca  Ca4  1  0.464589  0.964589  0.166653  1
  Ca  Ca5  1  0.797936  0.297936  0.833347  1
  Ca  Ca6  1  0.964589  0.797936  0.500000  1
  Ca  Ca7  1  0.297936  0.464589  0.500000  1
  Ca  Ca8  1  0.500000  0.500000  0.000000  1
  Ca  Ca9  1  0.000000  0.000000  0.000000  1
  Cd  Cd10  1  0.250000  0.250000  0.000000  1
  Cd  Cd11  1  0.750000  0.750000  0.000000  1
  Pt  Pt12  1  0.630350  0.869650  0.500000  1
  Pt  Pt13  1  0.369650  0.130350  0.500000  1
  Pt  Pt14  1  0.130350  0.630350  0.760699  1
  Pt  Pt15  1  0.869650  0.369650  0.239301  1
