# generated using pymatgen
data_Li12AsOsN8
_symmetry_space_group_name_H-M   'P 1'
_cell_length_a   6.62938200
_cell_length_b   6.62938200
_cell_length_c   4.90056000
_cell_angle_alpha   90.00000000
_cell_angle_beta   90.00000000
_cell_angle_gamma   90.00000000
_symmetry_Int_Tables_number   1
_chemical_formula_structural   Li12AsOsN8
_chemical_formula_sum   'Li12 As1 Os1 N8'
_cell_volume   215.37326921
_cell_formula_units_Z   1
loop_
 _symmetry_equiv_pos_site_id
 _symmetry_equiv_pos_as_xyz
  1  'x, y, z'
loop_
 _atom_site_type_symbol
 _atom_site_label
 _atom_site_symmetry_multiplicity
 _atom_site_fract_x
 _atom_site_fract_y
 _atom_site_fract_z
 _atom_site_occupancy
  Li  Li0  1  0.500000  0.000000  0.590458  1
  Li  Li1  1  0.000000  0.500000  0.885429  1
  Li  Li2  1  0.000000  0.500000  0.409542  1
  Li  Li3  1  0.500000  0.000000  0.114571  1
  Li  Li4  1  0.220912  0.220912  0.500000  1
  Li  Li5  1  0.779088  0.779088  0.500000  1
  Li  Li6  1  0.705598  0.705598  0.000000  1
  Li  Li7  1  0.294402  0.294402  0.000000  1
  Li  Li8  1  0.220912  0.779088  0.500000  1
  Li  Li9  1  0.779088  0.220912  0.500000  1
  Li  Li10  1  0.705598  0.294402  0.000000  1
  Li  Li11  1  0.294402  0.705598  0.000000  1
  As  As12  1  0.500000  0.500000  0.500000  1
  Os  Os13  1  0.000000  0.000000  0.000000  1
  N  N14  1  0.500000  0.258404  0.309281  1
  N  N15  1  0.500000  0.741596  0.309281  1
  N  N16  1  0.000000  0.757326  0.187445  1
  N  N17  1  0.000000  0.242674  0.187445  1
  N  N18  1  0.258404  0.500000  0.690719  1
  N  N19  1  0.741596  0.500000  0.690719  1
  N  N20  1  0.757326  0.000000  0.812555  1
  N  N21  1  0.242674  0.000000  0.812555  1
