# generated using pymatgen
data_Ho5Tm3Re3B24Ir
_symmetry_space_group_name_H-M   'P 1'
_cell_length_a   3.65332700
_cell_length_b   9.12802058
_cell_length_c   11.50936400
_cell_angle_alpha   90.13056961
_cell_angle_beta   90.00000000
_cell_angle_gamma   90.00000000
_symmetry_Int_Tables_number   1
_chemical_formula_structural   Ho5Tm3Re3B24Ir
_chemical_formula_sum   'Ho5 Tm3 Re3 B24 Ir1'
_cell_volume   383.80917741
_cell_formula_units_Z   1
loop_
 _symmetry_equiv_pos_site_id
 _symmetry_equiv_pos_as_xyz
  1  'x, y, z'
loop_
 _atom_site_type_symbol
 _atom_site_label
 _atom_site_symmetry_multiplicity
 _atom_site_fract_x
 _atom_site_fract_y
 _atom_site_fract_z
 _atom_site_occupancy
  Ho  Ho0  1  0.000000  0.318000  0.415679  1
  Ho  Ho1  1  0.000000  0.678709  0.591547  1
  Ho  Ho2  1  0.000000  0.826843  0.081230  1
  Ho  Ho3  1  0.000000  0.177789  0.912538  1
  Ho  Ho4  1  0.000000  0.944094  0.370666  1
  Tm  Tm5  1  0.000000  0.056062  0.629293  1
  Tm  Tm6  1  0.000000  0.440987  0.127890  1
  Tm  Tm7  1  0.000000  0.556699  0.871647  1
  Re  Re8  1  0.000000  0.362499  0.678025  1
  Re  Re9  1  0.000000  0.139087  0.179899  1
  Re  Re10  1  0.000000  0.861443  0.820716  1
  B  B11  1  0.500000  0.553567  0.433795  1
  B  B12  1  0.500000  0.446644  0.566699  1
  B  B13  1  0.500000  0.053524  0.066453  1
  B  B14  1  0.500000  0.947061  0.932635  1
  B  B15  1  0.500000  0.748988  0.420141  1
  B  B16  1  0.500000  0.249904  0.581055  1
  B  B17  1  0.500000  0.249907  0.081096  1
  B  B18  1  0.500000  0.750954  0.918951  1
  B  B19  1  0.500000  0.791039  0.264944  1
  B  B20  1  0.500000  0.208051  0.734192  1
  B  B21  1  0.500000  0.292469  0.234951  1
  B  B22  1  0.500000  0.707702  0.765930  1
  B  B23  1  0.500000  0.631085  0.183841  1
  B  B24  1  0.500000  0.369778  0.814585  1
  B  B25  1  0.500000  0.131012  0.314942  1
  B  B26  1  0.500000  0.868848  0.685185  1
  B  B27  1  0.500000  0.982856  0.211929  1
  B  B28  1  0.500000  0.017824  0.786703  1
  B  B29  1  0.500000  0.482333  0.287470  1
  B  B30  1  0.500000  0.518593  0.712758  1
  B  B31  1  0.500000  0.602591  0.028976  1
  B  B32  1  0.500000  0.398397  0.972142  1
  B  B33  1  0.500000  0.101736  0.471892  1
  B  B34  1  0.500000  0.895899  0.528758  1
  Ir  Ir35  1  0.000000  0.637028  0.320847  1
