# generated using pymatgen
data_La10YbPr5(CdPt)4
_symmetry_space_group_name_H-M   'P 1'
_cell_length_a   10.16425968
_cell_length_b   10.16369384
_cell_length_c   10.16369391
_cell_angle_alpha   60.10486054
_cell_angle_beta   59.99816024
_cell_angle_gamma   59.99815823
_symmetry_Int_Tables_number   1
_chemical_formula_structural   La10YbPr5(CdPt)4
_chemical_formula_sum   'La10 Yb1 Pr5 Cd4 Pt4'
_cell_volume   743.01022809
_cell_formula_units_Z   1
loop_
 _symmetry_equiv_pos_site_id
 _symmetry_equiv_pos_as_xyz
  1  'x, y, z'
loop_
 _atom_site_type_symbol
 _atom_site_label
 _atom_site_symmetry_multiplicity
 _atom_site_fract_x
 _atom_site_fract_y
 _atom_site_fract_z
 _atom_site_occupancy
  La  La0  1  0.349718  0.349195  0.349195  1
  La  La1  1  0.349872  0.350498  0.949758  1
  La  La2  1  0.349872  0.949758  0.350498  1
  La  La3  1  0.951892  0.349195  0.349195  1
  La  La4  1  0.805937  0.194063  0.194063  1
  La  La5  1  0.192048  0.807952  0.807952  1
  La  La6  1  0.193281  0.806981  0.194453  1
  La  La7  1  0.805285  0.194453  0.806981  1
  La  La8  1  0.193281  0.194453  0.806981  1
  La  La9  1  0.805285  0.806981  0.194453  1
  Yb  Yb10  1  0.937008  0.562992  0.562992  1
  Pr  Pr11  1  0.565791  0.934209  0.934209  1
  Pr  Pr12  1  0.567738  0.934162  0.564687  1
  Pr  Pr13  1  0.933414  0.564687  0.934162  1
  Pr  Pr14  1  0.567738  0.564687  0.934162  1
  Pr  Pr15  1  0.933414  0.934162  0.564687  1
  Cd  Cd16  1  0.579533  0.581632  0.581632  1
  Cd  Cd17  1  0.580673  0.580017  0.258637  1
  Cd  Cd18  1  0.580673  0.258637  0.580017  1
  Cd  Cd19  1  0.257204  0.581632  0.581632  1
  Pt  Pt20  1  0.144194  0.141753  0.141753  1
  Pt  Pt21  1  0.141926  0.143183  0.572967  1
  Pt  Pt22  1  0.141926  0.572967  0.143183  1
  Pt  Pt23  1  0.572301  0.141753  0.141753  1
