# generated using pymatgen
data_TiNb9Si6BH
_symmetry_space_group_name_H-M   'P 1'
_cell_length_a   7.59872000
_cell_length_b   7.59872002
_cell_length_c   5.27045300
_cell_angle_alpha   90.00000000
_cell_angle_beta   90.00000000
_cell_angle_gamma   120.00000863
_symmetry_Int_Tables_number   1
_chemical_formula_structural   TiNb9Si6BH
_chemical_formula_sum   'Ti1 Nb9 Si6 B1 H1'
_cell_volume   263.54781707
_cell_formula_units_Z   1
loop_
 _symmetry_equiv_pos_site_id
 _symmetry_equiv_pos_as_xyz
  1  'x, y, z'
loop_
 _atom_site_type_symbol
 _atom_site_label
 _atom_site_symmetry_multiplicity
 _atom_site_fract_x
 _atom_site_fract_y
 _atom_site_fract_z
 _atom_site_occupancy
  Ti  Ti0  1  0.666667  0.333333  0.500000  1
  Nb  Nb1  1  0.333333  0.666667  0.500000  1
  Nb  Nb2  1  0.333333  0.666667  0.000000  1
  Nb  Nb3  1  0.666667  0.333333  0.000000  1
  Nb  Nb4  1  0.754498  0.754313  0.252534  1
  Nb  Nb5  1  0.245687  0.000185  0.252534  1
  Nb  Nb6  1  0.999815  0.245502  0.252534  1
  Nb  Nb7  1  0.245687  0.245502  0.747466  1
  Nb  Nb8  1  0.754498  0.000185  0.747466  1
  Nb  Nb9  1  0.999815  0.754313  0.747466  1
  Si  Si10  1  0.400757  0.398167  0.255455  1
  Si  Si11  1  0.601833  0.002590  0.255455  1
  Si  Si12  1  0.997410  0.599243  0.255455  1
  Si  Si13  1  0.601833  0.599243  0.744545  1
  Si  Si14  1  0.400757  0.002590  0.744545  1
  Si  Si15  1  0.997410  0.398167  0.744545  1
  B  B16  1  0.000000  0.000000  0.000000  1
  H  H17  1  0.000000  0.000000  0.500000  1
