# generated using pymatgen
data_Tb2Tm6Sc12Ga7Si9
_symmetry_space_group_name_H-M   'P 1'
_cell_length_a   7.13192306
_cell_length_b   7.38724016
_cell_length_c   14.19820865
_cell_angle_alpha   90.08567650
_cell_angle_beta   89.95217489
_cell_angle_gamma   90.10205414
_symmetry_Int_Tables_number   1
_chemical_formula_structural   Tb2Tm6Sc12Ga7Si9
_chemical_formula_sum   'Tb2 Tm6 Sc12 Ga7 Si9'
_cell_volume   748.03358402
_cell_formula_units_Z   1
loop_
 _symmetry_equiv_pos_site_id
 _symmetry_equiv_pos_as_xyz
  1  'x, y, z'
loop_
 _atom_site_type_symbol
 _atom_site_label
 _atom_site_symmetry_multiplicity
 _atom_site_fract_x
 _atom_site_fract_y
 _atom_site_fract_z
 _atom_site_occupancy
  Tb  Tb0  1  0.012443  0.174365  0.098497  1
  Tb  Tb1  1  0.989754  0.823155  0.901940  1
  Tm  Tm2  1  0.488778  0.677070  0.901833  1
  Tm  Tm3  1  0.989561  0.823087  0.599591  1
  Tm  Tm4  1  0.510031  0.322251  0.098909  1
  Tm  Tm5  1  0.010185  0.176466  0.400140  1
  Tm  Tm6  1  0.510467  0.322954  0.400324  1
  Tm  Tm7  1  0.489683  0.676767  0.599199  1
  Sc  Sc8  1  0.164522  0.502744  0.749689  1
  Sc  Sc9  1  0.836295  0.498305  0.250097  1
  Sc  Sc10  1  0.336181  0.002421  0.249216  1
  Sc  Sc11  1  0.663130  0.997815  0.749499  1
  Sc  Sc12  1  0.330484  0.173450  0.625831  1
  Sc  Sc13  1  0.668990  0.826819  0.373814  1
  Sc  Sc14  1  0.169164  0.673685  0.373794  1
  Sc  Sc15  1  0.667414  0.825052  0.126431  1
  Sc  Sc16  1  0.830457  0.326592  0.626017  1
  Sc  Sc17  1  0.330382  0.174263  0.874769  1
  Sc  Sc18  1  0.828919  0.327129  0.874199  1
  Sc  Sc19  1  0.172363  0.675216  0.125297  1
  Ga  Ga20  1  0.161933  0.463943  0.539465  1
  Ga  Ga21  1  0.838035  0.536018  0.460208  1
  Ga  Ga22  1  0.337866  0.963696  0.460295  1
  Ga  Ga23  1  0.837654  0.537516  0.040324  1
  Ga  Ga24  1  0.662043  0.036077  0.539353  1
  Ga  Ga25  1  0.161875  0.462813  0.960712  1
  Ga  Ga26  1  0.659040  0.037554  0.961186  1
  Si  Si27  1  0.031925  0.112632  0.750455  1
  Si  Si28  1  0.967751  0.886234  0.249911  1
  Si  Si29  1  0.467562  0.611835  0.249596  1
  Si  Si30  1  0.532105  0.387647  0.750180  1
  Si  Si31  1  0.285128  0.872846  0.750176  1
  Si  Si32  1  0.715125  0.127668  0.249583  1
  Si  Si33  1  0.215724  0.372407  0.249939  1
  Si  Si34  1  0.783597  0.627335  0.750033  1
  Si  Si35  1  0.343433  0.964173  0.039501  1
