# generated using pymatgen
data_HoSi2Ni9
_symmetry_space_group_name_H-M   'P 1'
_cell_length_a   7.55652131
_cell_length_b   7.55652124
_cell_length_c   7.55652163
_cell_angle_alpha   99.55507573
_cell_angle_beta   99.55507861
_cell_angle_gamma   131.91356774
_symmetry_Int_Tables_number   1
_chemical_formula_structural   HoSi2Ni9
_chemical_formula_sum   'Ho2 Si4 Ni18'
_cell_volume   293.23267880
_cell_formula_units_Z   2
loop_
 _symmetry_equiv_pos_site_id
 _symmetry_equiv_pos_as_xyz
  1  'x, y, z'
loop_
 _atom_site_type_symbol
 _atom_site_label
 _atom_site_symmetry_multiplicity
 _atom_site_fract_x
 _atom_site_fract_y
 _atom_site_fract_z
 _atom_site_occupancy
  Ho  Ho0  1  0.500000  0.500000  0.000000  1
  Ho  Ho1  1  0.750000  0.250000  0.500000  1
  Si  Si2  1  0.625000  0.875000  0.750000  1
  Si  Si3  1  0.125000  0.375000  0.250000  1
  Si  Si4  1  0.125000  0.875000  0.750000  1
  Si  Si5  1  0.125000  0.875000  0.250000  1
  Ni  Ni6  1  0.250000  0.750000  0.500000  1
  Ni  Ni7  1  0.000000  0.000000  0.000000  1
  Ni  Ni8  1  0.687134  0.013758  0.078899  1
  Ni  Ni9  1  0.687134  0.608236  0.673376  1
  Ni  Ni10  1  0.263758  0.437134  0.578899  1
  Ni  Ni11  1  0.263758  0.684859  0.826624  1
  Ni  Ni12  1  0.934859  0.013758  0.326624  1
  Ni  Ni13  1  0.934859  0.608236  0.921101  1
  Ni  Ni14  1  0.858236  0.437134  0.173376  1
  Ni  Ni15  1  0.858236  0.684859  0.421101  1
  Ni  Ni16  1  0.562866  0.736242  0.421101  1
  Ni  Ni17  1  0.562866  0.141764  0.826624  1
  Ni  Ni18  1  0.986242  0.312866  0.921101  1
  Ni  Ni19  1  0.986242  0.065141  0.673376  1
  Ni  Ni20  1  0.315141  0.736242  0.173376  1
  Ni  Ni21  1  0.315141  0.141764  0.578899  1
  Ni  Ni22  1  0.391764  0.312866  0.326624  1
  Ni  Ni23  1  0.391764  0.065141  0.078899  1
