# generated using pymatgen
data_Nd4Eu2Cd23Sb
_symmetry_space_group_name_H-M   'P 1'
_cell_length_a   10.20841772
_cell_length_b   10.17494807
_cell_length_c   10.17494839
_cell_angle_alpha   60.20634168
_cell_angle_beta   59.89112604
_cell_angle_gamma   59.89112944
_symmetry_Int_Tables_number   1
_chemical_formula_structural   Nd4Eu2Cd23Sb
_chemical_formula_sum   'Nd4 Eu2 Cd23 Sb1'
_cell_volume   747.24262967
_cell_formula_units_Z   1
loop_
 _symmetry_equiv_pos_site_id
 _symmetry_equiv_pos_as_xyz
  1  'x, y, z'
loop_
 _atom_site_type_symbol
 _atom_site_label
 _atom_site_symmetry_multiplicity
 _atom_site_fract_x
 _atom_site_fract_y
 _atom_site_fract_z
 _atom_site_occupancy
  Nd  Nd0  1  0.783117  0.216728  0.217038  1
  Nd  Nd1  1  0.217118  0.218051  0.781949  1
  Nd  Nd2  1  0.782882  0.218051  0.781949  1
  Nd  Nd3  1  0.216883  0.782962  0.783272  1
  Eu  Eu4  1  0.782654  0.782220  0.217780  1
  Eu  Eu5  1  0.217346  0.782220  0.217780  1
  Cd  Cd6  1  0.834396  0.834927  0.496281  1
  Cd  Cd7  1  0.835183  0.494873  0.834760  1
  Cd  Cd8  1  0.495281  0.834806  0.834173  1
  Cd  Cd9  1  0.835740  0.834806  0.834173  1
  Cd  Cd10  1  0.164817  0.165240  0.505127  1
  Cd  Cd11  1  0.165604  0.503719  0.165073  1
  Cd  Cd12  1  0.504719  0.165827  0.165194  1
  Cd  Cd13  1  0.164260  0.165827  0.165194  1
  Cd  Cd14  1  0.623355  0.623015  0.130275  1
  Cd  Cd15  1  0.622748  0.130492  0.624014  1
  Cd  Cd16  1  0.131464  0.622623  0.623556  1
  Cd  Cd17  1  0.622359  0.622623  0.623556  1
  Cd  Cd18  1  0.377252  0.375986  0.869508  1
  Cd  Cd19  1  0.376645  0.869725  0.376985  1
  Cd  Cd20  1  0.868536  0.376444  0.377377  1
  Cd  Cd21  1  0.377641  0.376444  0.377377  1
  Cd  Cd22  1  0.999561  0.000473  0.500354  1
  Cd  Cd23  1  0.499612  0.000473  0.500354  1
  Cd  Cd24  1  0.000000  0.498733  0.501267  1
  Cd  Cd25  1  0.500388  0.499646  0.999527  1
  Cd  Cd26  1  0.000439  0.499646  0.999527  1
  Cd  Cd27  1  0.500000  0.001556  0.998444  1
  Cd  Cd28  1  0.500000  0.499833  0.500167  1
  Sb  Sb29  1  0.000000  0.002032  0.997968  1
