# generated using pymatgen
data_LuSc(Co3Si2)2
_symmetry_space_group_name_H-M   'P 1'
_cell_length_a   6.18330047
_cell_length_b   6.18330084
_cell_length_c   6.18312222
_cell_angle_alpha   130.62568405
_cell_angle_beta   112.33070993
_cell_angle_gamma   88.22143324
_symmetry_Int_Tables_number   1
_chemical_formula_structural   LuSc(Co3Si2)2
_chemical_formula_sum   'Lu1 Sc1 Co6 Si4'
_cell_volume   157.89004870
_cell_formula_units_Z   1
loop_
 _symmetry_equiv_pos_site_id
 _symmetry_equiv_pos_as_xyz
  1  'x, y, z'
loop_
 _atom_site_type_symbol
 _atom_site_label
 _atom_site_symmetry_multiplicity
 _atom_site_fract_x
 _atom_site_fract_y
 _atom_site_fract_z
 _atom_site_occupancy
  Lu  Lu0  1  0.750026  0.469499  0.719525  1
  Sc  Sc1  1  0.250009  0.542650  0.292659  1
  Co  Co2  1  0.994414  0.997825  0.492238  1
  Co  Co3  1  0.505594  0.997752  0.003345  1
  Co  Co4  1  0.719892  0.995924  0.719813  1
  Co  Co5  1  0.223890  0.499922  0.719813  1
  Co  Co6  1  0.276069  0.995970  0.276083  1
  Co  Co7  1  0.780112  0.500013  0.276083  1
  Si  Si8  1  0.086474  0.883307  0.796804  1
  Si  Si9  1  0.923962  0.127354  0.203416  1
  Si  Si10  1  0.576061  0.779456  0.203416  1
  Si  Si11  1  0.413497  0.210329  0.796804  1
