# generated using pymatgen
data_Ti2AlCo5B2
_symmetry_space_group_name_H-M   'P 1'
_cell_length_a   8.42233400
_cell_length_b   8.42233400
_cell_length_c   2.99401600
_cell_angle_alpha   90.00000000
_cell_angle_beta   90.00000000
_cell_angle_gamma   90.00000000
_symmetry_Int_Tables_number   1
_chemical_formula_structural   Ti2AlCo5B2
_chemical_formula_sum   'Ti4 Al2 Co10 B4'
_cell_volume   212.38265073
_cell_formula_units_Z   2
loop_
 _symmetry_equiv_pos_site_id
 _symmetry_equiv_pos_as_xyz
  1  'x, y, z'
loop_
 _atom_site_type_symbol
 _atom_site_label
 _atom_site_symmetry_multiplicity
 _atom_site_fract_x
 _atom_site_fract_y
 _atom_site_fract_z
 _atom_site_occupancy
  Ti  Ti0  1  0.824209  0.324209  0.000000  1
  Ti  Ti1  1  0.324209  0.175791  0.000000  1
  Ti  Ti2  1  0.675791  0.824209  0.000000  1
  Ti  Ti3  1  0.175791  0.675791  0.000000  1
  Al  Al4  1  0.000000  0.000000  0.000000  1
  Al  Al5  1  0.500000  0.500000  0.000000  1
  Co  Co6  1  0.500000  0.000000  0.500000  1
  Co  Co7  1  0.000000  0.500000  0.500000  1
  Co  Co8  1  0.070436  0.220437  0.500000  1
  Co  Co9  1  0.220437  0.929564  0.500000  1
  Co  Co10  1  0.779563  0.070436  0.500000  1
  Co  Co11  1  0.929564  0.779563  0.500000  1
  Co  Co12  1  0.429564  0.720437  0.500000  1
  Co  Co13  1  0.570436  0.279563  0.500000  1
  Co  Co14  1  0.720437  0.570436  0.500000  1
  Co  Co15  1  0.279563  0.429564  0.500000  1
  B  B16  1  0.621331  0.121331  0.000000  1
  B  B17  1  0.121331  0.378669  0.000000  1
  B  B18  1  0.878669  0.621331  0.000000  1
  B  B19  1  0.378669  0.878669  0.000000  1
