# generated using pymatgen
data_Zr4CuSn2Rh9
_symmetry_space_group_name_H-M   'P 1'
_cell_length_a   5.66784700
_cell_length_b   5.66784652
_cell_length_c   8.33677300
_cell_angle_alpha   90.00000000
_cell_angle_beta   90.00000000
_cell_angle_gamma   97.37373463
_symmetry_Int_Tables_number   1
_chemical_formula_structural   Zr4CuSn2Rh9
_chemical_formula_sum   'Zr4 Cu1 Sn2 Rh9'
_cell_volume   265.59975558
_cell_formula_units_Z   1
loop_
 _symmetry_equiv_pos_site_id
 _symmetry_equiv_pos_as_xyz
  1  'x, y, z'
loop_
 _atom_site_type_symbol
 _atom_site_label
 _atom_site_symmetry_multiplicity
 _atom_site_fract_x
 _atom_site_fract_y
 _atom_site_fract_z
 _atom_site_occupancy
  Zr  Zr0  1  0.781989  0.217997  0.504116  1
  Zr  Zr1  1  0.217997  0.781989  0.995884  1
  Zr  Zr2  1  0.217997  0.781989  0.504116  1
  Zr  Zr3  1  0.781989  0.217997  0.995884  1
  Cu  Cu4  1  0.000043  0.000043  0.250000  1
  Sn  Sn5  1  0.500457  0.500457  0.750000  1
  Sn  Sn6  1  0.499624  0.499624  0.250000  1
  Rh  Rh7  1  0.731800  0.731800  0.001268  1
  Rh  Rh8  1  0.731800  0.731800  0.498732  1
  Rh  Rh9  1  0.268238  0.268238  0.001201  1
  Rh  Rh10  1  0.268238  0.268238  0.498799  1
  Rh  Rh11  1  0.500078  0.000006  0.750000  1
  Rh  Rh12  1  0.499903  0.000012  0.250000  1
  Rh  Rh13  1  0.999828  0.999828  0.750000  1
  Rh  Rh14  1  0.000006  0.500078  0.750000  1
  Rh  Rh15  1  0.000012  0.499903  0.250000  1
