# generated using pymatgen
data_Li2Nb12Ga9CoN4
_symmetry_space_group_name_H-M   'P 1'
_cell_length_a   8.30150203
_cell_length_b   8.27610725
_cell_length_c   8.27610590
_cell_angle_alpha   59.55075426
_cell_angle_beta   59.69790453
_cell_angle_gamma   59.69790316
_symmetry_Int_Tables_number   1
_chemical_formula_structural   Li2Nb12Ga9CoN4
_chemical_formula_sum   'Li2 Nb12 Ga9 Co1 N4'
_cell_volume   398.85301163
_cell_formula_units_Z   1
loop_
 _symmetry_equiv_pos_site_id
 _symmetry_equiv_pos_as_xyz
  1  'x, y, z'
loop_
 _atom_site_type_symbol
 _atom_site_label
 _atom_site_symmetry_multiplicity
 _atom_site_fract_x
 _atom_site_fract_y
 _atom_site_fract_z
 _atom_site_occupancy
  Li  Li0  1  0.625000  0.125000  0.625000  1
  Li  Li1  1  0.625000  0.625000  0.125000  1
  Nb  Nb2  1  0.814462  0.811796  0.184573  1
  Nb  Nb3  1  0.189653  0.195246  0.808388  1
  Nb  Nb4  1  0.814462  0.184573  0.811796  1
  Nb  Nb5  1  0.189653  0.808388  0.195246  1
  Nb  Nb6  1  0.183787  0.810742  0.810742  1
  Nb  Nb7  1  0.813098  0.189528  0.189528  1
  Nb  Nb8  1  0.435538  0.438204  0.065427  1
  Nb  Nb9  1  0.060347  0.054754  0.441612  1
  Nb  Nb10  1  0.435538  0.065427  0.438204  1
  Nb  Nb11  1  0.060347  0.441612  0.054754  1
  Nb  Nb12  1  0.066213  0.439258  0.439258  1
  Nb  Nb13  1  0.436902  0.060472  0.060472  1
  Ga  Ga14  1  0.125000  0.625000  0.625000  1
  Ga  Ga15  1  0.761151  0.414517  0.414517  1
  Ga  Ga16  1  0.430171  0.756661  0.408772  1
  Ga  Ga17  1  0.430171  0.408772  0.756661  1
  Ga  Ga18  1  0.428984  0.408255  0.408255  1
  Ga  Ga19  1  0.488849  0.835483  0.835483  1
  Ga  Ga20  1  0.819829  0.493339  0.841228  1
  Ga  Ga21  1  0.819829  0.841228  0.493339  1
  Ga  Ga22  1  0.821016  0.841745  0.841745  1
  Co  Co23  1  0.625000  0.625000  0.625000  1
  N  N24  1  0.625000  0.125000  0.125000  1
  N  N25  1  0.125000  0.625000  0.125000  1
  N  N26  1  0.125000  0.125000  0.625000  1
  N  N27  1  0.125000  0.125000  0.125000  1
