# generated using pymatgen
data_Y4GeBr6
_symmetry_space_group_name_H-M   'P 1'
_cell_length_a   4.08883500
_cell_length_b   13.31346800
_cell_length_c   14.10840800
_cell_angle_alpha   90.00000000
_cell_angle_beta   90.00000000
_cell_angle_gamma   90.00000000
_symmetry_Int_Tables_number   1
_chemical_formula_structural   Y4GeBr6
_chemical_formula_sum   'Y8 Ge2 Br12'
_cell_volume   768.01339512
_cell_formula_units_Z   2
loop_
 _symmetry_equiv_pos_site_id
 _symmetry_equiv_pos_as_xyz
  1  'x, y, z'
loop_
 _atom_site_type_symbol
 _atom_site_label
 _atom_site_symmetry_multiplicity
 _atom_site_fract_x
 _atom_site_fract_y
 _atom_site_fract_z
 _atom_site_occupancy
  Y  Y0  1  0.500000  0.118698  0.340382  1
  Y  Y1  1  0.500000  0.881302  0.659618  1
  Y  Y2  1  0.500000  0.618698  0.159618  1
  Y  Y3  1  0.500000  0.381302  0.840382  1
  Y  Y4  1  0.000000  0.118607  0.578647  1
  Y  Y5  1  0.000000  0.881393  0.421353  1
  Y  Y6  1  0.000000  0.618607  0.921353  1
  Y  Y7  1  0.000000  0.381393  0.078647  1
  Ge  Ge8  1  0.500000  0.000000  0.500000  1
  Ge  Ge9  1  0.500000  0.500000  0.000000  1
  Br  Br10  1  0.500000  0.243973  0.162395  1
  Br  Br11  1  0.500000  0.756027  0.837605  1
  Br  Br12  1  0.500000  0.743973  0.337605  1
  Br  Br13  1  0.500000  0.256027  0.662395  1
  Br  Br14  1  0.000000  0.254924  0.411412  1
  Br  Br15  1  0.000000  0.745076  0.588588  1
  Br  Br16  1  0.000000  0.754924  0.088588  1
  Br  Br17  1  0.000000  0.245076  0.911412  1
  Br  Br18  1  0.000000  0.001639  0.243595  1
  Br  Br19  1  0.000000  0.998361  0.756405  1
  Br  Br20  1  0.000000  0.501639  0.256405  1
  Br  Br21  1  0.000000  0.498361  0.743595  1
