# generated using pymatgen
data_Ti(S4I)4
_symmetry_space_group_name_H-M   'P 1'
_cell_length_a   12.36932304
_cell_length_b   13.09738651
_cell_length_c   13.43965881
_cell_angle_alpha   102.55047925
_cell_angle_beta   62.60127891
_cell_angle_gamma   118.17757909
_symmetry_Int_Tables_number   1
_chemical_formula_structural   Ti(S4I)4
_chemical_formula_sum   'Ti2 S32 I8'
_cell_volume   1703.97439279
_cell_formula_units_Z   2
loop_
 _symmetry_equiv_pos_site_id
 _symmetry_equiv_pos_as_xyz
  1  'x, y, z'
loop_
 _atom_site_type_symbol
 _atom_site_label
 _atom_site_symmetry_multiplicity
 _atom_site_fract_x
 _atom_site_fract_y
 _atom_site_fract_z
 _atom_site_occupancy
  Ti  Ti0  1  0.001083  0.000000  0.000000  1
  Ti  Ti1  1  0.251082  0.500000  0.500001  1
  S  S2  1  0.475295  0.222432  0.003267  1
  S  S3  1  0.398581  0.333037  0.004867  1
  S  S4  1  0.657394  0.317072  0.015920  1
  S  S5  1  0.322712  0.651571  0.142179  1
  S  S6  1  0.924288  0.638058  0.157798  1
  S  S7  1  0.542217  0.010129  0.198467  1
  S  S8  1  0.164660  0.490430  0.196114  1
  S  S9  1  0.879642  0.481763  0.213186  1
  S  S10  1  0.342829  0.981763  0.286814  1
  S  S11  1  0.610774  0.990430  0.303886  1
  S  S12  1  0.990686  0.510130  0.301533  1
  S  S13  1  0.332085  0.138057  0.342202  1
  S  S14  1  0.714893  0.151572  0.357821  1
  S  S15  1  0.923315  0.817073  0.484080  1
  S  S16  1  0.653447  0.833036  0.495134  1
  S  S17  1  0.728561  0.722432  0.496733  1
  S  S18  1  0.502864  0.277568  0.503267  1
  S  S19  1  0.315544  0.166963  0.504866  1
  S  S20  1  0.590322  0.182927  0.515920  1
  S  S21  1  0.921142  0.848429  0.642179  1
  S  S22  1  0.536230  0.861942  0.657797  1
  S  S23  1  0.782089  0.489871  0.698467  1
  S  S24  1  0.924232  0.009570  0.696113  1
  S  S25  1  0.647879  0.018236  0.713187  1
  S  S26  1  0.611066  0.518237  0.786814  1
  S  S27  1  0.870345  0.509570  0.803886  1
  S  S28  1  0.730555  0.989871  0.801533  1
  S  S29  1  0.444028  0.361943  0.842202  1
  S  S30  1  0.813322  0.348428  0.857821  1
  S  S31  1  0.356242  0.682927  0.984080  1
  S  S32  1  0.070411  0.666963  0.995134  1
  S  S33  1  0.256129  0.777568  0.996733  1
  I  I34  1  0.792032  0.816088  0.003559  1
  I  I35  1  0.033745  0.003909  0.175514  1
  I  I36  1  0.459258  0.503909  0.324487  1
  I  I37  1  0.045590  0.316088  0.496442  1
  I  I38  1  0.225943  0.683912  0.503559  1
  I  I39  1  0.279836  0.496091  0.675513  1
  I  I40  1  0.205350  0.996091  0.824487  1
  I  I41  1  0.979502  0.183912  0.996441  1
