# generated using pymatgen
data_NbSe6Br7
_symmetry_space_group_name_H-M   'P 1'
_cell_length_a   7.01154773
_cell_length_b   8.69221422
_cell_length_c   8.38728907
_cell_angle_alpha   92.46149873
_cell_angle_beta   100.27314417
_cell_angle_gamma   96.48997312
_symmetry_Int_Tables_number   1
_chemical_formula_structural   NbSe6Br7
_chemical_formula_sum   'Nb1 Se6 Br7'
_cell_volume   498.71054395
_cell_formula_units_Z   1
loop_
 _symmetry_equiv_pos_site_id
 _symmetry_equiv_pos_as_xyz
  1  'x, y, z'
loop_
 _atom_site_type_symbol
 _atom_site_label
 _atom_site_symmetry_multiplicity
 _atom_site_fract_x
 _atom_site_fract_y
 _atom_site_fract_z
 _atom_site_occupancy
  Nb  Nb0  1  0.500000  0.500000  0.500000  1
  Se  Se1  1  0.947297  0.958118  0.737863  1
  Se  Se2  1  0.017848  0.794801  0.138510  1
  Se  Se3  1  0.823696  0.186403  0.096877  1
  Se  Se4  1  0.982152  0.205199  0.861490  1
  Se  Se5  1  0.176304  0.813597  0.903123  1
  Se  Se6  1  0.052703  0.041882  0.262137  1
  Br  Br7  1  0.500000  0.000000  0.000000  1
  Br  Br8  1  0.375856  0.759349  0.549677  1
  Br  Br9  1  0.360156  0.500012  0.198249  1
  Br  Br10  1  0.624144  0.240651  0.450323  1
  Br  Br11  1  0.821013  0.646133  0.454057  1
  Br  Br12  1  0.178987  0.353867  0.545943  1
  Br  Br13  1  0.639844  0.499988  0.801751  1
