# generated using pymatgen
data_Sc12Si12RuPt2Au
_symmetry_space_group_name_H-M   'P 1'
_cell_length_a   4.04495800
_cell_length_b   10.30877207
_cell_length_c   11.72512042
_cell_angle_alpha   90.05617800
_cell_angle_beta   90.00000000
_cell_angle_gamma   90.00000000
_symmetry_Int_Tables_number   1
_chemical_formula_structural   Sc12Si12RuPt2Au
_chemical_formula_sum   'Sc12 Si12 Ru1 Pt2 Au1'
_cell_volume   488.92028535
_cell_formula_units_Z   1
loop_
 _symmetry_equiv_pos_site_id
 _symmetry_equiv_pos_as_xyz
  1  'x, y, z'
loop_
 _atom_site_type_symbol
 _atom_site_label
 _atom_site_symmetry_multiplicity
 _atom_site_fract_x
 _atom_site_fract_y
 _atom_site_fract_z
 _atom_site_occupancy
  Sc  Sc0  1  0.250000  0.875784  0.018824  1
  Sc  Sc1  1  0.250000  0.626604  0.520443  1
  Sc  Sc2  1  0.750000  0.122201  0.978880  1
  Sc  Sc3  1  0.750000  0.374440  0.478411  1
  Sc  Sc4  1  0.250000  0.920445  0.599304  1
  Sc  Sc5  1  0.250000  0.578902  0.099847  1
  Sc  Sc6  1  0.750000  0.079311  0.398879  1
  Sc  Sc7  1  0.750000  0.420579  0.901101  1
  Sc  Sc8  1  0.250000  0.664836  0.800738  1
  Sc  Sc9  1  0.250000  0.841222  0.300379  1
  Sc  Sc10  1  0.750000  0.341541  0.200115  1
  Sc  Sc11  1  0.750000  0.154463  0.701816  1
  Si  Si12  1  0.250000  0.011438  0.821761  1
  Si  Si13  1  0.250000  0.481744  0.326649  1
  Si  Si14  1  0.750000  0.981372  0.177307  1
  Si  Si15  1  0.750000  0.526548  0.673265  1
  Si  Si16  1  0.250000  0.244196  0.849532  1
  Si  Si17  1  0.250000  0.251549  0.343811  1
  Si  Si18  1  0.750000  0.751890  0.155216  1
  Si  Si19  1  0.750000  0.754936  0.659051  1
  Si  Si20  1  0.250000  0.180352  0.540085  1
  Si  Si21  1  0.250000  0.312026  0.044567  1
  Si  Si22  1  0.750000  0.809343  0.456611  1
  Si  Si23  1  0.750000  0.694442  0.954823  1
  Ru  Ru24  1  0.750000  0.890829  0.823797  1
  Pt  Pt25  1  0.250000  0.111045  0.176961  1
  Pt  Pt26  1  0.750000  0.611752  0.320047  1
  Au  Au27  1  0.250000  0.386212  0.677781  1
