# generated using pymatgen
data_PbF18
_symmetry_space_group_name_H-M   'P 1'
_cell_length_a   6.98257821
_cell_length_b   10.43237253
_cell_length_c   10.65533210
_cell_angle_alpha   94.08688373
_cell_angle_beta   97.84350823
_cell_angle_gamma   73.17514221
_symmetry_Int_Tables_number   1
_chemical_formula_structural   PbF18
_chemical_formula_sum   'Pb2 F36'
_cell_volume   735.59677318
_cell_formula_units_Z   2
loop_
 _symmetry_equiv_pos_site_id
 _symmetry_equiv_pos_as_xyz
  1  'x, y, z'
loop_
 _atom_site_type_symbol
 _atom_site_label
 _atom_site_symmetry_multiplicity
 _atom_site_fract_x
 _atom_site_fract_y
 _atom_site_fract_z
 _atom_site_occupancy
  Pb  Pb0  1  0.677091  0.857616  0.853072  1
  Pb  Pb1  1  0.322909  0.142384  0.146928  1
  F  F2  1  0.369143  0.367184  0.894282  1
  F  F3  1  0.630857  0.632816  0.105718  1
  F  F4  1  0.307376  0.272927  0.565543  1
  F  F5  1  0.692624  0.727073  0.434457  1
  F  F6  1  0.899488  0.223721  0.812540  1
  F  F7  1  0.100512  0.776279  0.187460  1
  F  F8  1  0.631246  0.871024  0.038694  1
  F  F9  1  0.368754  0.128976  0.961306  1
  F  F10  1  0.794193  0.641622  0.875674  1
  F  F11  1  0.205807  0.358378  0.124326  1
  F  F12  1  0.433768  0.453850  0.822529  1
  F  F13  1  0.566232  0.546150  0.177471  1
  F  F14  1  0.784511  0.714509  0.699401  1
  F  F15  1  0.215489  0.285491  0.300599  1
  F  F16  1  0.753269  0.989143  0.533711  1
  F  F17  1  0.246731  0.010857  0.466289  1
  F  F18  1  0.287831  0.195877  0.665907  1
  F  F19  1  0.712169  0.804123  0.334093  1
  F  F20  1  0.811349  0.097049  0.602628  1
  F  F21  1  0.188651  0.902951  0.397372  1
  F  F22  1  0.873074  0.965297  0.849473  1
  F  F23  1  0.126926  0.034703  0.150527  1
  F  F24  1  0.894223  0.361720  0.814693  1
  F  F25  1  0.105777  0.638280  0.185307  1
  F  F26  1  0.210004  0.708729  0.930130  1
  F  F27  1  0.789996  0.291271  0.069870  1
  F  F28  1  0.415767  0.926088  0.739172  1
  F  F29  1  0.584233  0.073912  0.260828  1
  F  F30  1  0.125110  0.743308  0.571133  1
  F  F31  1  0.874890  0.256692  0.428867  1
  F  F32  1  0.187861  0.622205  0.638976  1
  F  F33  1  0.812139  0.377795  0.361024  1
  F  F34  1  0.280394  0.791099  0.854900  1
  F  F35  1  0.719606  0.208901  0.145100  1
  F  F36  1  0.515114  0.441136  0.534557  1
  F  F37  1  0.484886  0.558864  0.465443  1
