# generated using pymatgen
data_Y3In3Ir2Pt
_symmetry_space_group_name_H-M   'P 1'
_cell_length_a   7.65365100
_cell_length_b   7.65365108
_cell_length_c   3.87957800
_cell_angle_alpha   90.00000000
_cell_angle_beta   90.00000000
_cell_angle_gamma   120.00000398
_symmetry_Int_Tables_number   1
_chemical_formula_structural   Y3In3Ir2Pt
_chemical_formula_sum   'Y3 In3 Ir2 Pt1'
_cell_volume   196.81238146
_cell_formula_units_Z   1
loop_
 _symmetry_equiv_pos_site_id
 _symmetry_equiv_pos_as_xyz
  1  'x, y, z'
loop_
 _atom_site_type_symbol
 _atom_site_label
 _atom_site_symmetry_multiplicity
 _atom_site_fract_x
 _atom_site_fract_y
 _atom_site_fract_z
 _atom_site_occupancy
  Y  Y0  1  0.407498  0.009136  0.500000  1
  Y  Y1  1  0.990864  0.398362  0.500000  1
  Y  Y2  1  0.601638  0.592502  0.500000  1
  In  In3  1  0.742031  0.001889  0.000000  1
  In  In4  1  0.259858  0.257969  0.000000  1
  In  In5  1  0.998111  0.740142  0.000000  1
  Ir  Ir6  1  0.000000  0.000000  0.500000  1
  Ir  Ir7  1  0.666667  0.333333  0.000000  1
  Pt  Pt8  1  0.333333  0.666667  0.000000  1
