# generated using pymatgen
data_K3CrH6
_symmetry_space_group_name_H-M   'P 1'
_cell_length_a   6.05971824
_cell_length_b   6.05971800
_cell_length_c   6.05971800
_cell_angle_alpha   60.00000002
_cell_angle_beta   60.00000129
_cell_angle_gamma   59.99999959
_symmetry_Int_Tables_number   1
_chemical_formula_structural   K3CrH6
_chemical_formula_sum   'K3 Cr1 H6'
_cell_volume   157.34112970
_cell_formula_units_Z   1
loop_
 _symmetry_equiv_pos_site_id
 _symmetry_equiv_pos_as_xyz
  1  'x, y, z'
loop_
 _atom_site_type_symbol
 _atom_site_label
 _atom_site_symmetry_multiplicity
 _atom_site_fract_x
 _atom_site_fract_y
 _atom_site_fract_z
 _atom_site_occupancy
  K  K0  1  0.750000  0.750000  0.750000  1
  K  K1  1  0.250000  0.250000  0.250000  1
  K  K2  1  0.500000  0.500000  0.500000  1
  Cr  Cr3  1  0.000000  0.000000  0.000000  1
  H  H4  1  0.797126  0.797126  0.202874  1
  H  H5  1  0.202874  0.797126  0.202874  1
  H  H6  1  0.797126  0.202874  0.202874  1
  H  H7  1  0.202874  0.202874  0.797126  1
  H  H8  1  0.797126  0.202874  0.797126  1
  H  H9  1  0.202874  0.797126  0.797126  1
