# generated using pymatgen
data_YHo4Bi2Ru
_symmetry_space_group_name_H-M   'P 1'
_cell_length_a   7.95493600
_cell_length_b   8.99828700
_cell_length_c   12.46672000
_cell_angle_alpha   90.00000000
_cell_angle_beta   90.00000000
_cell_angle_gamma   90.00000000
_symmetry_Int_Tables_number   1
_chemical_formula_structural   YHo4Bi2Ru
_chemical_formula_sum   'Y4 Ho16 Bi8 Ru4'
_cell_volume   892.37775600
_cell_formula_units_Z   4
loop_
 _symmetry_equiv_pos_site_id
 _symmetry_equiv_pos_as_xyz
  1  'x, y, z'
loop_
 _atom_site_type_symbol
 _atom_site_label
 _atom_site_symmetry_multiplicity
 _atom_site_fract_x
 _atom_site_fract_y
 _atom_site_fract_z
 _atom_site_occupancy
  Y  Y0  1  0.839890  0.750000  0.791811  1
  Y  Y1  1  0.160110  0.250000  0.208189  1
  Y  Y2  1  0.339890  0.250000  0.708189  1
  Y  Y3  1  0.660110  0.750000  0.291811  1
  Ho  Ho4  1  0.375532  0.750000  0.690173  1
  Ho  Ho5  1  0.624468  0.250000  0.309827  1
  Ho  Ho6  1  0.875532  0.250000  0.809827  1
  Ho  Ho7  1  0.124468  0.750000  0.190173  1
  Ho  Ho8  1  0.945678  0.750000  0.504180  1
  Ho  Ho9  1  0.054322  0.250000  0.495820  1
  Ho  Ho10  1  0.445678  0.250000  0.995820  1
  Ho  Ho11  1  0.554322  0.750000  0.004180  1
  Ho  Ho12  1  0.674315  0.041682  0.564542  1
  Ho  Ho13  1  0.325685  0.958318  0.435458  1
  Ho  Ho14  1  0.174315  0.958318  0.935458  1
  Ho  Ho15  1  0.325685  0.541682  0.435458  1
  Ho  Ho16  1  0.825685  0.041682  0.064542  1
  Ho  Ho17  1  0.674315  0.458318  0.564542  1
  Ho  Ho18  1  0.825685  0.458318  0.064542  1
  Ho  Ho19  1  0.174315  0.541682  0.935458  1
  Bi  Bi20  1  0.567216  0.493230  0.827690  1
  Bi  Bi21  1  0.432784  0.506770  0.172310  1
  Bi  Bi22  1  0.067216  0.506770  0.672310  1
  Bi  Bi23  1  0.432784  0.993230  0.172310  1
  Bi  Bi24  1  0.932784  0.493230  0.327690  1
  Bi  Bi25  1  0.567216  0.006770  0.827690  1
  Bi  Bi26  1  0.932784  0.006770  0.327690  1
  Bi  Bi27  1  0.067216  0.993230  0.672310  1
  Ru  Ru28  1  0.573704  0.750000  0.511047  1
  Ru  Ru29  1  0.426296  0.250000  0.488953  1
  Ru  Ru30  1  0.073704  0.250000  0.988953  1
  Ru  Ru31  1  0.926296  0.750000  0.011047  1
