# generated using pymatgen
data_CsAlPd7O16
_symmetry_space_group_name_H-M   'P 1'
_cell_length_a   6.16272005
_cell_length_b   7.48050027
_cell_length_c   7.58078300
_cell_angle_alpha   88.41332343
_cell_angle_beta   78.23051419
_cell_angle_gamma   77.89760554
_symmetry_Int_Tables_number   1
_chemical_formula_structural   CsAlPd7O16
_chemical_formula_sum   'Cs1 Al1 Pd7 O16'
_cell_volume   334.48302920
_cell_formula_units_Z   1
loop_
 _symmetry_equiv_pos_site_id
 _symmetry_equiv_pos_as_xyz
  1  'x, y, z'
loop_
 _atom_site_type_symbol
 _atom_site_label
 _atom_site_symmetry_multiplicity
 _atom_site_fract_x
 _atom_site_fract_y
 _atom_site_fract_z
 _atom_site_occupancy
  Cs  Cs0  1  0.002119  0.995039  0.995895  1
  Al  Al1  1  0.579677  0.513919  0.184989  1
  Pd  Pd2  1  0.081469  0.507935  0.184524  1
  Pd  Pd3  1  0.175002  0.813893  0.512367  1
  Pd  Pd4  1  0.670526  0.813661  0.514757  1
  Pd  Pd5  1  0.339244  0.186876  0.475084  1
  Pd  Pd6  1  0.838122  0.185217  0.476907  1
  Pd  Pd7  1  0.430451  0.486793  0.818947  1
  Pd  Pd8  1  0.925277  0.488845  0.819293  1
  O  O9  1  0.824289  0.633057  0.058753  1
  O  O10  1  0.337886  0.632778  0.058573  1
  O  O11  1  0.983351  0.713173  0.369817  1
  O  O12  1  0.488230  0.690685  0.380476  1
  O  O13  1  0.857345  0.954653  0.635295  1
  O  O14  1  0.355107  0.956731  0.635231  1
  O  O15  1  0.352798  0.382698  0.287740  1
  O  O16  1  0.822951  0.379016  0.285639  1
  O  O17  1  0.164112  0.639714  0.723808  1
  O  O18  1  0.661251  0.640676  0.727396  1
  O  O19  1  0.156321  0.045985  0.351892  1
  O  O20  1  0.654124  0.043703  0.354211  1
  O  O21  1  0.026359  0.288361  0.621686  1
  O  O22  1  0.526593  0.283914  0.625196  1
  O  O23  1  0.178580  0.357314  0.948183  1
  O  O24  1  0.675916  0.365358  0.953341  1
