# generated using pymatgen
data_CeYTh2(Al3Ir)6
_symmetry_space_group_name_H-M   'P 1'
_cell_length_a   7.62345403
_cell_length_b   7.62282222
_cell_length_c   9.47508200
_cell_angle_alpha   90.00000000
_cell_angle_beta   90.00000000
_cell_angle_gamma   119.50635655
_symmetry_Int_Tables_number   1
_chemical_formula_structural   CeYTh2(Al3Ir)6
_chemical_formula_sum   'Ce1 Y1 Th2 Al18 Ir6'
_cell_volume   479.20359365
_cell_formula_units_Z   1
loop_
 _symmetry_equiv_pos_site_id
 _symmetry_equiv_pos_as_xyz
  1  'x, y, z'
loop_
 _atom_site_type_symbol
 _atom_site_label
 _atom_site_symmetry_multiplicity
 _atom_site_fract_x
 _atom_site_fract_y
 _atom_site_fract_z
 _atom_site_occupancy
  Ce  Ce0  1  0.002573  0.328182  0.750000  1
  Y  Y1  1  0.328359  0.005402  0.750000  1
  Th  Th2  1  0.994841  0.671368  0.250000  1
  Th  Th3  1  0.670809  0.994550  0.250000  1
  Al  Al4  1  0.135330  0.133884  0.250000  1
  Al  Al5  1  0.871323  0.871646  0.750000  1
  Al  Al6  1  0.005745  0.335724  0.070966  1
  Al  Al7  1  0.000472  0.666390  0.920312  1
  Al  Al8  1  0.000472  0.666390  0.579688  1
  Al  Al9  1  0.335480  0.004994  0.430642  1
  Al  Al10  1  0.005745  0.335724  0.429034  1
  Al  Al11  1  0.662321  0.998056  0.579573  1
  Al  Al12  1  0.662321  0.998056  0.920427  1
  Al  Al13  1  0.335480  0.004994  0.069358  1
  Al  Al14  1  0.333819  0.332536  0.555028  1
  Al  Al15  1  0.663227  0.663133  0.456374  1
  Al  Al16  1  0.663227  0.663133  0.043626  1
  Al  Al17  1  0.333819  0.332536  0.944972  1
  Al  Al18  1  0.341496  0.544225  0.250000  1
  Al  Al19  1  0.658389  0.449827  0.750000  1
  Al  Al20  1  0.544080  0.339719  0.250000  1
  Al  Al21  1  0.449311  0.658801  0.750000  1
  Ir  Ir22  1  0.673557  0.328502  0.000314  1
  Ir  Ir23  1  0.328348  0.672761  0.000707  1
  Ir  Ir24  1  0.328348  0.672761  0.499293  1
  Ir  Ir25  1  0.673557  0.328502  0.499686  1
  Ir  Ir26  1  0.998777  0.999103  0.000803  1
  Ir  Ir27  1  0.998777  0.999103  0.499197  1
