# generated using pymatgen
data_Er5Lu2P12Ir17
_symmetry_space_group_name_H-M   'P 1'
_cell_length_a   12.90288600
_cell_length_b   12.90288660
_cell_length_c   3.98289300
_cell_angle_alpha   90.00000000
_cell_angle_beta   90.00000000
_cell_angle_gamma   121.24803911
_symmetry_Int_Tables_number   1
_chemical_formula_structural   Er5Lu2P12Ir17
_chemical_formula_sum   'Er5 Lu2 P12 Ir17'
_cell_volume   566.89515631
_cell_formula_units_Z   1
loop_
 _symmetry_equiv_pos_site_id
 _symmetry_equiv_pos_as_xyz
  1  'x, y, z'
loop_
 _atom_site_type_symbol
 _atom_site_label
 _atom_site_symmetry_multiplicity
 _atom_site_fract_x
 _atom_site_fract_y
 _atom_site_fract_z
 _atom_site_occupancy
  Er  Er0  1  0.331327  0.669636  0.000000  1
  Er  Er1  1  0.669636  0.331327  0.000000  1
  Er  Er2  1  0.814473  0.998300  0.500000  1
  Er  Er3  1  0.998300  0.814473  0.500000  1
  Er  Er4  1  0.188158  0.188158  0.500000  1
  Lu  Lu5  1  0.448320  0.003463  0.000000  1
  Lu  Lu6  1  0.003463  0.448320  0.000000  1
  P  P7  1  0.175450  0.001094  0.000000  1
  P  P8  1  0.001094  0.175450  0.000000  1
  P  P9  1  0.819145  0.819145  0.000000  1
  P  P10  1  0.173625  0.485154  0.500000  1
  P  P11  1  0.514800  0.690407  0.500000  1
  P  P12  1  0.314812  0.833573  0.500000  1
  P  P13  1  0.690407  0.514800  0.500000  1
  P  P14  1  0.833573  0.314812  0.500000  1
  P  P15  1  0.485154  0.173625  0.500000  1
  P  P16  1  0.648805  0.991302  0.000000  1
  P  P17  1  0.991302  0.648805  0.000000  1
  P  P18  1  0.355278  0.355278  0.000000  1
  Ir  Ir19  1  0.534926  0.534926  0.000000  1
  Ir  Ir20  1  0.360825  0.495146  0.500000  1
  Ir  Ir21  1  0.519178  0.874813  0.500000  1
  Ir  Ir22  1  0.142010  0.643562  0.500000  1
  Ir  Ir23  1  0.874813  0.519178  0.500000  1
  Ir  Ir24  1  0.643562  0.142010  0.500000  1
  Ir  Ir25  1  0.495146  0.360825  0.500000  1
  Ir  Ir26  1  0.185879  0.375175  0.000000  1
  Ir  Ir27  1  0.621543  0.793719  0.000000  1
  Ir  Ir28  1  0.184699  0.820627  0.000000  1
  Ir  Ir29  1  0.793719  0.621543  0.000000  1
  Ir  Ir30  1  0.820627  0.184699  0.000000  1
  Ir  Ir31  1  0.375175  0.185879  0.000000  1
  Ir  Ir32  1  0.277536  0.004017  0.500000  1
  Ir  Ir33  1  0.004017  0.277536  0.500000  1
  Ir  Ir34  1  0.712209  0.712209  0.500000  1
  Ir  Ir35  1  0.997009  0.997009  0.000000  1
