# generated using pymatgen
data_Na3Ca(PuS3)2
_symmetry_space_group_name_H-M   'P 1'
_cell_length_a   6.98483799
_cell_length_b   6.98483753
_cell_length_c   7.00532800
_cell_angle_alpha   80.34558353
_cell_angle_beta   80.34557585
_cell_angle_gamma   119.97977801
_symmetry_Int_Tables_number   1
_chemical_formula_structural   Na3Ca(PuS3)2
_chemical_formula_sum   'Na3 Ca1 Pu2 S6'
_cell_volume   278.90813571
_cell_formula_units_Z   1
loop_
 _symmetry_equiv_pos_site_id
 _symmetry_equiv_pos_as_xyz
  1  'x, y, z'
loop_
 _atom_site_type_symbol
 _atom_site_label
 _atom_site_symmetry_multiplicity
 _atom_site_fract_x
 _atom_site_fract_y
 _atom_site_fract_z
 _atom_site_occupancy
  Na  Na0  1  0.500000  0.500000  0.500000  1
  Na  Na1  1  0.837152  0.162848  0.500000  1
  Na  Na2  1  0.162848  0.837152  0.500000  1
  Ca  Ca3  1  0.000000  0.000000  0.000000  1
  Pu  Pu4  1  0.333094  0.666906  0.000000  1
  Pu  Pu5  1  0.666906  0.333094  0.000000  1
  S  S6  1  0.578413  0.923926  0.225685  1
  S  S7  1  0.731060  0.731060  0.772594  1
  S  S8  1  0.421587  0.076074  0.774315  1
  S  S9  1  0.076074  0.421587  0.774315  1
  S  S10  1  0.923926  0.578413  0.225685  1
  S  S11  1  0.268940  0.268940  0.227406  1
