# generated using pymatgen
data_Tb4Y12Cd4Ir3Rh
_symmetry_space_group_name_H-M   'P 1'
_cell_length_a   9.67927984
_cell_length_b   9.67927973
_cell_length_c   9.67928004
_cell_angle_alpha   60.06071824
_cell_angle_beta   60.06071722
_cell_angle_gamma   60.06072009
_symmetry_Int_Tables_number   1
_chemical_formula_structural   Tb4Y12Cd4Ir3Rh
_chemical_formula_sum   'Tb4 Y12 Cd4 Ir3 Rh1'
_cell_volume   642.11286563
_cell_formula_units_Z   1
loop_
 _symmetry_equiv_pos_site_id
 _symmetry_equiv_pos_as_xyz
  1  'x, y, z'
loop_
 _atom_site_type_symbol
 _atom_site_label
 _atom_site_symmetry_multiplicity
 _atom_site_fract_x
 _atom_site_fract_y
 _atom_site_fract_z
 _atom_site_occupancy
  Tb  Tb0  1  0.348508  0.348508  0.348508  1
  Tb  Tb1  1  0.349896  0.349896  0.952322  1
  Tb  Tb2  1  0.349896  0.952322  0.349896  1
  Tb  Tb3  1  0.952322  0.349896  0.349896  1
  Y  Y4  1  0.808946  0.189603  0.189603  1
  Y  Y5  1  0.188598  0.810377  0.810377  1
  Y  Y6  1  0.189603  0.808946  0.189603  1
  Y  Y7  1  0.810377  0.188598  0.810377  1
  Y  Y8  1  0.189603  0.189603  0.808946  1
  Y  Y9  1  0.810377  0.810377  0.188598  1
  Y  Y10  1  0.938919  0.562043  0.562043  1
  Y  Y11  1  0.563114  0.937436  0.937436  1
  Y  Y12  1  0.562043  0.938919  0.562043  1
  Y  Y13  1  0.937436  0.563114  0.937436  1
  Y  Y14  1  0.562043  0.562043  0.938919  1
  Y  Y15  1  0.937436  0.937436  0.563114  1
  Cd  Cd16  1  0.580496  0.580496  0.580496  1
  Cd  Cd17  1  0.580876  0.580876  0.256985  1
  Cd  Cd18  1  0.580876  0.256985  0.580876  1
  Cd  Cd19  1  0.256985  0.580876  0.580876  1
  Ir  Ir20  1  0.142875  0.142875  0.573641  1
  Ir  Ir21  1  0.142875  0.573641  0.142875  1
  Ir  Ir22  1  0.573641  0.142875  0.142875  1
  Rh  Rh23  1  0.142258  0.142258  0.142258  1
