# generated using pymatgen
data_Er10In8PtRhAu2
_symmetry_space_group_name_H-M   'P 1'
_cell_length_a   3.60523900
_cell_length_b   8.14813456
_cell_length_c   18.25021964
_cell_angle_alpha   89.78432839
_cell_angle_beta   90.00000000
_cell_angle_gamma   90.00000000
_symmetry_Int_Tables_number   1
_chemical_formula_structural   Er10In8PtRhAu2
_chemical_formula_sum   'Er10 In8 Pt1 Rh1 Au2'
_cell_volume   536.11415209
_cell_formula_units_Z   1
loop_
 _symmetry_equiv_pos_site_id
 _symmetry_equiv_pos_as_xyz
  1  'x, y, z'
loop_
 _atom_site_type_symbol
 _atom_site_label
 _atom_site_symmetry_multiplicity
 _atom_site_fract_x
 _atom_site_fract_y
 _atom_site_fract_z
 _atom_site_occupancy
  Er  Er0  1  0.000000  0.119947  0.419995  1
  Er  Er1  1  0.000000  0.880016  0.581230  1
  Er  Er2  1  0.000000  0.385035  0.914101  1
  Er  Er3  1  0.000000  0.617298  0.083167  1
  Er  Er4  1  0.000000  0.252191  0.216352  1
  Er  Er5  1  0.000000  0.738167  0.783342  1
  Er  Er6  1  0.000000  0.275449  0.723254  1
  Er  Er7  1  0.000000  0.730716  0.278591  1
  Er  Er8  1  0.000000  0.998989  0.999189  1
  Er  Er9  1  0.000000  0.499698  0.500573  1
  In  In10  1  0.500000  0.420965  0.352338  1
  In  In11  1  0.500000  0.577225  0.649001  1
  In  In12  1  0.500000  0.079791  0.851909  1
  In  In13  1  0.500000  0.921842  0.147301  1
  In  In14  1  0.500000  0.292486  0.064617  1
  In  In15  1  0.500000  0.706635  0.932650  1
  In  In16  1  0.500000  0.209657  0.567970  1
  In  In17  1  0.500000  0.790214  0.432862  1
  Pt  Pt18  1  0.500000  0.527349  0.195776  1
  Rh  Rh19  1  0.500000  0.474477  0.804874  1
  Au  Au20  1  0.500000  0.028688  0.302369  1
  Au  Au21  1  0.500000  0.973165  0.698540  1
