# generated using pymatgen
data_Tm3In3IrAu
_symmetry_space_group_name_H-M   'P 1'
_cell_length_a   7.78101700
_cell_length_b   7.78101678
_cell_length_c   3.54676000
_cell_angle_alpha   90.00000000
_cell_angle_beta   90.00000000
_cell_angle_gamma   119.99999555
_symmetry_Int_Tables_number   1
_chemical_formula_structural   Tm3In3IrAu
_chemical_formula_sum   'Tm3 In3 Ir1 Au1'
_cell_volume   185.96669337
_cell_formula_units_Z   1
loop_
 _symmetry_equiv_pos_site_id
 _symmetry_equiv_pos_as_xyz
  1  'x, y, z'
loop_
 _atom_site_type_symbol
 _atom_site_label
 _atom_site_symmetry_multiplicity
 _atom_site_fract_x
 _atom_site_fract_y
 _atom_site_fract_z
 _atom_site_occupancy
  Tm  Tm0  1  0.570083  0.982219  0.499999  1
  Tm  Tm1  1  0.412135  0.429917  0.499999  1
  Tm  Tm2  1  0.017781  0.587865  0.499999  1
  In  In3  1  0.228398  0.998487  0.000000  1
  In  In4  1  0.001513  0.229912  0.000000  1
  In  In5  1  0.770088  0.771601  0.000000  1
  Ir  Ir6  1  0.333333  0.666666  0.000000  1
  Au  Au7  1  0.666666  0.333334  0.000000  1
