# generated using pymatgen
data_Tb3InSn2Pt3
_symmetry_space_group_name_H-M   'P 1'
_cell_length_a   7.68294016
_cell_length_b   7.68293952
_cell_length_c   3.89257000
_cell_angle_alpha   90.00000000
_cell_angle_beta   90.00000000
_cell_angle_gamma   120.06287149
_symmetry_Int_Tables_number   1
_chemical_formula_structural   Tb3InSn2Pt3
_chemical_formula_sum   'Tb3 In1 Sn2 Pt3'
_cell_volume   198.85954365
_cell_formula_units_Z   1
loop_
 _symmetry_equiv_pos_site_id
 _symmetry_equiv_pos_as_xyz
  1  'x, y, z'
loop_
 _atom_site_type_symbol
 _atom_site_label
 _atom_site_symmetry_multiplicity
 _atom_site_fract_x
 _atom_site_fract_y
 _atom_site_fract_z
 _atom_site_occupancy
  Tb  Tb0  1  0.407664  0.407664  0.500000  1
  Tb  Tb1  1  0.595262  0.997743  0.500000  1
  Tb  Tb2  1  0.997743  0.595262  0.500000  1
  In  In3  1  0.738380  0.738380  0.000000  1
  Sn  Sn4  1  0.259255  0.998474  0.000000  1
  Sn  Sn5  1  0.998474  0.259255  0.000000  1
  Pt  Pt6  1  0.666587  0.331849  0.000000  1
  Pt  Pt7  1  0.331849  0.666587  0.000000  1
  Pt  Pt8  1  0.004785  0.004785  0.500000  1
