# generated using pymatgen
data_Tb8Dy4Co6Sn
_symmetry_space_group_name_H-M   'P 1'
_cell_length_a   8.39228418
_cell_length_b   8.39228458
_cell_length_c   8.39228500
_cell_angle_alpha   109.58237906
_cell_angle_beta   109.48519342
_cell_angle_gamma   109.34617812
_symmetry_Int_Tables_number   1
_chemical_formula_structural   Tb8Dy4Co6Sn
_chemical_formula_sum   'Tb8 Dy4 Co6 Sn1'
_cell_volume   455.00570671
_cell_formula_units_Z   1
loop_
 _symmetry_equiv_pos_site_id
 _symmetry_equiv_pos_as_xyz
  1  'x, y, z'
loop_
 _atom_site_type_symbol
 _atom_site_label
 _atom_site_symmetry_multiplicity
 _atom_site_fract_x
 _atom_site_fract_y
 _atom_site_fract_z
 _atom_site_occupancy
  Tb  Tb0  1  0.696393  0.501993  0.805599  1
  Tb  Tb1  1  0.303607  0.498007  0.194401  1
  Tb  Tb2  1  0.696393  0.890795  0.194401  1
  Tb  Tb3  1  0.303607  0.109205  0.805599  1
  Tb  Tb4  1  0.503100  0.805901  0.697198  1
  Tb  Tb5  1  0.496900  0.194099  0.302802  1
  Tb  Tb6  1  0.108703  0.805901  0.302802  1
  Tb  Tb7  1  0.891297  0.194099  0.697198  1
  Dy  Dy8  1  0.805748  0.696113  0.501862  1
  Dy  Dy9  1  0.194252  0.303887  0.498138  1
  Dy  Dy10  1  0.194252  0.696113  0.890366  1
  Dy  Dy11  1  0.805748  0.303887  0.109634  1
  Co  Co12  1  0.887211  0.387211  0.500000  1
  Co  Co13  1  0.112789  0.612789  0.500000  1
  Co  Co14  1  0.387003  0.500000  0.887003  1
  Co  Co15  1  0.612997  0.500000  0.112997  1
  Co  Co16  1  0.500000  0.887047  0.387047  1
  Co  Co17  1  0.500000  0.112953  0.612953  1
  Sn  Sn18  1  0.000000  0.000000  0.000000  1
