# generated using pymatgen
data_Lu4Al18IrRu2Pt3
_symmetry_space_group_name_H-M   'P 1'
_cell_length_a   7.56118629
_cell_length_b   7.56118775
_cell_length_c   9.39574463
_cell_angle_alpha   89.92740241
_cell_angle_beta   89.92740821
_cell_angle_gamma   119.56895205
_symmetry_Int_Tables_number   1
_chemical_formula_structural   Lu4Al18IrRu2Pt3
_chemical_formula_sum   'Lu4 Al18 Ir1 Ru2 Pt3'
_cell_volume   467.20819189
_cell_formula_units_Z   1
loop_
 _symmetry_equiv_pos_site_id
 _symmetry_equiv_pos_as_xyz
  1  'x, y, z'
loop_
 _atom_site_type_symbol
 _atom_site_label
 _atom_site_symmetry_multiplicity
 _atom_site_fract_x
 _atom_site_fract_y
 _atom_site_fract_z
 _atom_site_occupancy
  Lu  Lu0  1  0.995204  0.671549  0.250896  1
  Lu  Lu1  1  0.004922  0.328654  0.749395  1
  Lu  Lu2  1  0.671346  0.995078  0.250605  1
  Lu  Lu3  1  0.328451  0.004796  0.749104  1
  Al  Al4  1  0.124666  0.125783  0.248831  1
  Al  Al5  1  0.874217  0.875334  0.751169  1
  Al  Al6  1  0.999499  0.330476  0.076667  1
  Al  Al7  1  0.999287  0.670415  0.922425  1
  Al  Al8  1  0.995032  0.662281  0.576146  1
  Al  Al9  1  0.337719  0.004968  0.423854  1
  Al  Al10  1  0.994781  0.331547  0.423750  1
  Al  Al11  1  0.668453  0.005219  0.576250  1
  Al  Al12  1  0.669524  0.000501  0.923333  1
  Al  Al13  1  0.329585  0.000713  0.077575  1
  Al  Al14  1  0.334520  0.328821  0.553769  1
  Al  Al15  1  0.671179  0.665480  0.446231  1
  Al  Al16  1  0.671741  0.672202  0.057807  1
  Al  Al17  1  0.327798  0.328259  0.942193  1
  Al  Al18  1  0.340485  0.546164  0.250236  1
  Al  Al19  1  0.658961  0.449825  0.746329  1
  Al  Al20  1  0.550175  0.341039  0.253671  1
  Al  Al21  1  0.453836  0.659515  0.749764  1
  Ir  Ir22  1  0.000327  0.999673  0.500000  1
  Ru  Ru23  1  0.672189  0.327811  0.500000  1
  Ru  Ru24  1  0.999584  0.000416  0.000000  1
  Pt  Pt25  1  0.672311  0.327689  0.000000  1
  Pt  Pt26  1  0.327068  0.672932  0.000000  1
  Pt  Pt27  1  0.327137  0.672863  0.500000  1
