# generated using pymatgen
data_Zr3HgO
_symmetry_space_group_name_H-M   'P 1'
_cell_length_a   6.05346133
_cell_length_b   6.05346084
_cell_length_c   9.26937700
_cell_angle_alpha   90.00000000
_cell_angle_beta   90.00000000
_cell_angle_gamma   147.05355771
_symmetry_Int_Tables_number   1
_chemical_formula_structural   Zr3HgO
_chemical_formula_sum   'Zr6 Hg2 O2'
_cell_volume   184.73154222
_cell_formula_units_Z   2
loop_
 _symmetry_equiv_pos_site_id
 _symmetry_equiv_pos_as_xyz
  1  'x, y, z'
loop_
 _atom_site_type_symbol
 _atom_site_label
 _atom_site_symmetry_multiplicity
 _atom_site_fract_x
 _atom_site_fract_y
 _atom_site_fract_z
 _atom_site_occupancy
  Zr  Zr0  1  0.626193  0.373807  0.963980  1
  Zr  Zr1  1  0.373807  0.626193  0.463980  1
  Zr  Zr2  1  0.373807  0.626193  0.036020  1
  Zr  Zr3  1  0.626193  0.373807  0.536020  1
  Zr  Zr4  1  0.963617  0.036383  0.750000  1
  Zr  Zr5  1  0.036383  0.963617  0.250000  1
  Hg  Hg6  1  0.248628  0.751372  0.750000  1
  Hg  Hg7  1  0.751372  0.248628  0.250000  1
  O  O8  1  0.000000  0.000000  0.000000  1
  O  O9  1  0.000000  0.000000  0.500000  1
