# generated using pymatgen
data_Pa2Fe3Co
_symmetry_space_group_name_H-M   'P 1'
_cell_length_a   4.91899780
_cell_length_b   5.07074635
_cell_length_c   4.91899800
_cell_angle_alpha   60.98511111
_cell_angle_beta   59.99999867
_cell_angle_gamma   60.98511527
_symmetry_Int_Tables_number   1
_chemical_formula_structural   Pa2Fe3Co
_chemical_formula_sum   'Pa2 Fe3 Co1'
_cell_volume   88.02758763
_cell_formula_units_Z   1
loop_
 _symmetry_equiv_pos_site_id
 _symmetry_equiv_pos_as_xyz
  1  'x, y, z'
loop_
 _atom_site_type_symbol
 _atom_site_label
 _atom_site_symmetry_multiplicity
 _atom_site_fract_x
 _atom_site_fract_y
 _atom_site_fract_z
 _atom_site_occupancy
  Pa  Pa0  1  0.500271  0.499186  0.500271  1
  Pa  Pa1  1  0.749729  0.750814  0.749729  1
  Fe  Fe2  1  0.625000  0.125000  0.125000  1
  Fe  Fe3  1  0.125000  0.125000  0.625000  1
  Fe  Fe4  1  0.125000  0.125000  0.125000  1
  Co  Co5  1  0.125000  0.625000  0.125000  1
