# generated using pymatgen
data_K16TiSnAs8
_symmetry_space_group_name_H-M   'P 1'
_cell_length_a   11.00871178
_cell_length_b   11.00871130
_cell_length_c   11.00871200
_cell_angle_alpha   59.99999790
_cell_angle_beta   59.99999934
_cell_angle_gamma   59.99999986
_symmetry_Int_Tables_number   1
_chemical_formula_structural   K16TiSnAs8
_chemical_formula_sum   'K16 Ti1 Sn1 As8'
_cell_volume   943.39699180
_cell_formula_units_Z   1
loop_
 _symmetry_equiv_pos_site_id
 _symmetry_equiv_pos_as_xyz
  1  'x, y, z'
loop_
 _atom_site_type_symbol
 _atom_site_label
 _atom_site_symmetry_multiplicity
 _atom_site_fract_x
 _atom_site_fract_y
 _atom_site_fract_z
 _atom_site_occupancy
  K  K0  1  0.624949  0.125152  0.624949  1
  K  K1  1  0.624949  0.624949  0.125152  1
  K  K2  1  0.125152  0.624949  0.624949  1
  K  K3  1  0.624949  0.624949  0.624949  1
  K  K4  1  0.022643  0.022643  0.477357  1
  K  K5  1  0.777007  0.222993  0.222993  1
  K  K6  1  0.222993  0.777007  0.777007  1
  K  K7  1  0.777007  0.777007  0.222993  1
  K  K8  1  0.777007  0.222993  0.777007  1
  K  K9  1  0.222993  0.777007  0.222993  1
  K  K10  1  0.477357  0.022643  0.477357  1
  K  K11  1  0.477357  0.022643  0.022643  1
  K  K12  1  0.022643  0.477357  0.477357  1
  K  K13  1  0.022643  0.477357  0.022643  1
  K  K14  1  0.222993  0.222993  0.777007  1
  K  K15  1  0.477357  0.477357  0.022643  1
  Ti  Ti16  1  0.750000  0.750000  0.750000  1
  Sn  Sn17  1  0.500000  0.500000  0.500000  1
  As  As18  1  0.397802  0.806592  0.397802  1
  As  As19  1  0.845534  0.845534  0.463398  1
  As  As20  1  0.463398  0.845534  0.845534  1
  As  As21  1  0.845534  0.845534  0.845534  1
  As  As22  1  0.806592  0.397802  0.397802  1
  As  As23  1  0.397802  0.397802  0.397802  1
  As  As24  1  0.397802  0.397802  0.806592  1
  As  As25  1  0.845534  0.463398  0.845534  1
