# generated using pymatgen
data_Er6TaCo22
_symmetry_space_group_name_H-M   'P 1'
_cell_length_a   8.35207824
_cell_length_b   8.35207730
_cell_length_c   8.35207700
_cell_angle_alpha   59.99999721
_cell_angle_beta   60.00000095
_cell_angle_gamma   59.99999232
_symmetry_Int_Tables_number   1
_chemical_formula_structural   Er6TaCo22
_chemical_formula_sum   'Er6 Ta1 Co22'
_cell_volume   411.97277749
_cell_formula_units_Z   1
loop_
 _symmetry_equiv_pos_site_id
 _symmetry_equiv_pos_as_xyz
  1  'x, y, z'
loop_
 _atom_site_type_symbol
 _atom_site_label
 _atom_site_symmetry_multiplicity
 _atom_site_fract_x
 _atom_site_fract_y
 _atom_site_fract_z
 _atom_site_occupancy
  Er  Er0  1  0.787184  0.212816  0.787184  1
  Er  Er1  1  0.212816  0.212816  0.787184  1
  Er  Er2  1  0.787184  0.787184  0.212816  1
  Er  Er3  1  0.787184  0.212816  0.212816  1
  Er  Er4  1  0.212816  0.787184  0.787184  1
  Er  Er5  1  0.212816  0.787184  0.212816  1
  Ta  Ta6  1  0.500000  0.500000  0.500000  1
  Co  Co7  1  0.823079  0.823079  0.823079  1
  Co  Co8  1  0.469237  0.176921  0.176921  1
  Co  Co9  1  0.176921  0.176921  0.469237  1
  Co  Co10  1  0.176921  0.469237  0.176921  1
  Co  Co11  1  0.823079  0.823079  0.530763  1
  Co  Co12  1  0.823079  0.530763  0.823079  1
  Co  Co13  1  0.000000  0.500000  0.000000  1
  Co  Co14  1  0.500000  0.000000  0.000000  1
  Co  Co15  1  0.000000  0.500000  0.500000  1
  Co  Co16  1  0.500000  0.000000  0.500000  1
  Co  Co17  1  0.000000  0.000000  0.500000  1
  Co  Co18  1  0.500000  0.500000  0.000000  1
  Co  Co19  1  0.374697  0.374697  0.374697  1
  Co  Co20  1  0.124092  0.625303  0.625302  1
  Co  Co21  1  0.625302  0.124092  0.625302  1
  Co  Co22  1  0.625303  0.625303  0.124092  1
  Co  Co23  1  0.374698  0.875908  0.374697  1
  Co  Co24  1  0.374698  0.374697  0.875907  1
  Co  Co25  1  0.875907  0.374698  0.374697  1
  Co  Co26  1  0.625303  0.625303  0.625302  1
  Co  Co27  1  0.176921  0.176921  0.176921  1
  Co  Co28  1  0.530763  0.823079  0.823079  1
