# generated using pymatgen
data_Tm6CrFe(Co4P3)4
_symmetry_space_group_name_H-M   'P 1'
_cell_length_a   3.66568700
_cell_length_b   10.49375900
_cell_length_c   12.13688000
_cell_angle_alpha   90.00000000
_cell_angle_beta   90.00000000
_cell_angle_gamma   90.00000000
_symmetry_Int_Tables_number   1
_chemical_formula_structural   Tm6CrFe(Co4P3)4
_chemical_formula_sum   'Tm6 Cr1 Fe1 Co16 P12'
_cell_volume   466.86737187
_cell_formula_units_Z   1
loop_
 _symmetry_equiv_pos_site_id
 _symmetry_equiv_pos_as_xyz
  1  'x, y, z'
loop_
 _atom_site_type_symbol
 _atom_site_label
 _atom_site_symmetry_multiplicity
 _atom_site_fract_x
 _atom_site_fract_y
 _atom_site_fract_z
 _atom_site_occupancy
  Tm  Tm0  1  0.000000  0.500000  0.522624  1
  Tm  Tm1  1  0.500000  0.000000  0.476820  1
  Tm  Tm2  1  0.500000  0.818211  0.204852  1
  Tm  Tm3  1  0.500000  0.181789  0.204852  1
  Tm  Tm4  1  0.000000  0.682095  0.794254  1
  Tm  Tm5  1  0.000000  0.317905  0.794254  1
  Cr  Cr6  1  0.000000  0.000000  0.843926  1
  Fe  Fe7  1  0.500000  0.500000  0.157921  1
  Co  Co8  1  0.500000  0.500000  0.702621  1
  Co  Co9  1  0.000000  0.000000  0.297838  1
  Co  Co10  1  0.000000  0.500000  0.986155  1
  Co  Co11  1  0.500000  0.000000  0.013005  1
  Co  Co12  1  0.500000  0.332498  0.993782  1
  Co  Co13  1  0.500000  0.667502  0.993782  1
  Co  Co14  1  0.000000  0.167114  0.006770  1
  Co  Co15  1  0.000000  0.832886  0.006770  1
  Co  Co16  1  0.500000  0.296989  0.431374  1
  Co  Co17  1  0.500000  0.703011  0.431374  1
  Co  Co18  1  0.000000  0.203108  0.569412  1
  Co  Co19  1  0.000000  0.796892  0.569412  1
  Co  Co20  1  0.500000  0.878954  0.708609  1
  Co  Co21  1  0.500000  0.121046  0.708609  1
  Co  Co22  1  0.000000  0.621906  0.291503  1
  Co  Co23  1  0.000000  0.378094  0.291503  1
  P  P24  1  0.500000  0.500000  0.881648  1
  P  P25  1  0.000000  0.000000  0.118949  1
  P  P26  1  0.500000  0.500000  0.344615  1
  P  P27  1  0.000000  0.000000  0.651828  1
  P  P28  1  0.500000  0.312352  0.616423  1
  P  P29  1  0.500000  0.687648  0.616423  1
  P  P30  1  0.000000  0.188120  0.383453  1
  P  P31  1  0.000000  0.811880  0.383453  1
  P  P32  1  0.500000  0.845938  0.892007  1
  P  P33  1  0.500000  0.154062  0.892007  1
  P  P34  1  0.000000  0.652396  0.108586  1
  P  P35  1  0.000000  0.347604  0.108586  1
