# generated using pymatgen
data_Lu8Ta4Ti5Si16Mo3
_symmetry_space_group_name_H-M   'P 1'
_cell_length_a   6.75620629
_cell_length_b   6.94341061
_cell_length_c   13.16306845
_cell_angle_alpha   89.99754086
_cell_angle_beta   90.03583819
_cell_angle_gamma   90.01439001
_symmetry_Int_Tables_number   1
_chemical_formula_structural   Lu8Ta4Ti5Si16Mo3
_chemical_formula_sum   'Lu8 Ta4 Ti5 Si16 Mo3'
_cell_volume   617.49406913
_cell_formula_units_Z   1
loop_
 _symmetry_equiv_pos_site_id
 _symmetry_equiv_pos_as_xyz
  1  'x, y, z'
loop_
 _atom_site_type_symbol
 _atom_site_label
 _atom_site_symmetry_multiplicity
 _atom_site_fract_x
 _atom_site_fract_y
 _atom_site_fract_z
 _atom_site_occupancy
  Lu  Lu0  1  0.500967  0.328317  0.095508  1
  Lu  Lu1  1  0.002671  0.172769  0.403856  1
  Lu  Lu2  1  0.497631  0.671199  0.595593  1
  Lu  Lu3  1  0.998801  0.827894  0.905368  1
  Lu  Lu4  1  0.496791  0.672027  0.904772  1
  Lu  Lu5  1  0.996483  0.827068  0.595538  1
  Lu  Lu6  1  0.502937  0.328204  0.404148  1
  Lu  Lu7  1  0.003030  0.172122  0.096234  1
  Ta  Ta8  1  0.833500  0.327540  0.626577  1
  Ta  Ta9  1  0.334386  0.174215  0.874012  1
  Ta  Ta10  1  0.165700  0.672642  0.127008  1
  Ta  Ta11  1  0.661353  0.009443  0.749895  1
  Ti  Ti12  1  0.665758  0.828449  0.372169  1
  Ti  Ti13  1  0.167923  0.671669  0.373353  1
  Ti  Ti14  1  0.667136  0.826092  0.127072  1
  Ti  Ti15  1  0.833030  0.326774  0.874237  1
  Ti  Ti16  1  0.331605  0.174068  0.625047  1
  Si  Si17  1  0.660851  0.035497  0.540793  1
  Si  Si18  1  0.162047  0.462288  0.958384  1
  Si  Si19  1  0.337919  0.962314  0.042751  1
  Si  Si20  1  0.838505  0.541146  0.455966  1
  Si  Si21  1  0.337639  0.961978  0.456577  1
  Si  Si22  1  0.835470  0.536316  0.041782  1
  Si  Si23  1  0.664978  0.035839  0.959545  1
  Si  Si24  1  0.163748  0.462719  0.541327  1
  Si  Si25  1  0.534269  0.380884  0.749525  1
  Si  Si26  1  0.038696  0.120425  0.750423  1
  Si  Si27  1  0.465814  0.621831  0.251035  1
  Si  Si28  1  0.963524  0.879441  0.251655  1
  Si  Si29  1  0.796557  0.629963  0.751486  1
  Si  Si30  1  0.293718  0.867159  0.748984  1
  Si  Si31  1  0.204275  0.368677  0.250673  1
  Si  Si32  1  0.703198  0.130863  0.249519  1
  Mo  Mo33  1  0.160043  0.491199  0.749575  1
  Mo  Mo34  1  0.339527  0.991198  0.250035  1
  Mo  Mo35  1  0.839521  0.509770  0.249579  1
