# generated using pymatgen
data_PrBeOs2C
_symmetry_space_group_name_H-M   'P 1'
_cell_length_a   5.65240980
_cell_length_b   5.65240909
_cell_length_c   7.17345700
_cell_angle_alpha   90.00000000
_cell_angle_beta   90.00000000
_cell_angle_gamma   138.83879377
_symmetry_Int_Tables_number   1
_chemical_formula_structural   PrBeOs2C
_chemical_formula_sum   'Pr2 Be2 Os4 C2'
_cell_volume   150.84826476
_cell_formula_units_Z   2
loop_
 _symmetry_equiv_pos_site_id
 _symmetry_equiv_pos_as_xyz
  1  'x, y, z'
loop_
 _atom_site_type_symbol
 _atom_site_label
 _atom_site_symmetry_multiplicity
 _atom_site_fract_x
 _atom_site_fract_y
 _atom_site_fract_z
 _atom_site_occupancy
  Pr  Pr0  1  0.543678  0.456322  0.250000  1
  Pr  Pr1  1  0.456322  0.543678  0.750000  1
  Be  Be2  1  0.269002  0.730998  0.250000  1
  Be  Be3  1  0.730998  0.269002  0.750000  1
  Os  Os4  1  0.822186  0.177814  0.059054  1
  Os  Os5  1  0.177814  0.822186  0.940946  1
  Os  Os6  1  0.177814  0.822186  0.559054  1
  Os  Os7  1  0.822186  0.177814  0.440946  1
  C  C8  1  0.000000  0.000000  0.000000  1
  C  C9  1  0.000000  0.000000  0.500000  1
