# generated using pymatgen
data_Tm3LuAl17GeIr6
_symmetry_space_group_name_H-M   'P 1'
_cell_length_a   7.53167201
_cell_length_b   7.53158740
_cell_length_c   9.41558700
_cell_angle_alpha   90.00000000
_cell_angle_beta   90.00000000
_cell_angle_gamma   119.58294570
_symmetry_Int_Tables_number   1
_chemical_formula_structural   Tm3LuAl17GeIr6
_chemical_formula_sum   'Tm3 Lu1 Al17 Ge1 Ir6'
_cell_volume   464.47867907
_cell_formula_units_Z   1
loop_
 _symmetry_equiv_pos_site_id
 _symmetry_equiv_pos_as_xyz
  1  'x, y, z'
loop_
 _atom_site_type_symbol
 _atom_site_label
 _atom_site_symmetry_multiplicity
 _atom_site_fract_x
 _atom_site_fract_y
 _atom_site_fract_z
 _atom_site_occupancy
  Tm  Tm0  1  0.994710  0.677300  0.250000  1
  Tm  Tm1  1  0.677277  0.994724  0.250000  1
  Tm  Tm2  1  0.328158  0.003331  0.750000  1
  Lu  Lu3  1  0.003342  0.328184  0.750000  1
  Al  Al4  1  0.871875  0.871941  0.750000  1
  Al  Al5  1  0.999899  0.337976  0.074254  1
  Al  Al6  1  0.998464  0.664403  0.924195  1
  Al  Al7  1  0.998464  0.664403  0.575805  1
  Al  Al8  1  0.337994  0.999906  0.425645  1
  Al  Al9  1  0.999899  0.337976  0.425746  1
  Al  Al10  1  0.664606  0.998560  0.575791  1
  Al  Al11  1  0.664606  0.998560  0.924209  1
  Al  Al12  1  0.337994  0.999906  0.074355  1
  Al  Al13  1  0.332131  0.332231  0.560503  1
  Al  Al14  1  0.663978  0.663981  0.447309  1
  Al  Al15  1  0.663978  0.663981  0.052691  1
  Al  Al16  1  0.332131  0.332231  0.939497  1
  Al  Al17  1  0.337424  0.554553  0.250000  1
  Al  Al18  1  0.661245  0.450547  0.750000  1
  Al  Al19  1  0.554547  0.337412  0.250000  1
  Al  Al20  1  0.450475  0.661111  0.750000  1
  Ge  Ge21  1  0.136285  0.136298  0.250000  1
  Ir  Ir22  1  0.669827  0.326205  0.000144  1
  Ir  Ir23  1  0.326151  0.669714  0.000147  1
  Ir  Ir24  1  0.326151  0.669714  0.499853  1
  Ir  Ir25  1  0.669827  0.326205  0.499856  1
  Ir  Ir26  1  0.999283  0.999323  0.001175  1
  Ir  Ir27  1  0.999283  0.999323  0.498825  1
