# generated using pymatgen
data_Lu5In4HgRh
_symmetry_space_group_name_H-M   'P 1'
_cell_length_a   3.58501800
_cell_length_b   8.13643814
_cell_length_c   18.16129866
_cell_angle_alpha   89.51989650
_cell_angle_beta   90.00000000
_cell_angle_gamma   90.00000000
_symmetry_Int_Tables_number   1
_chemical_formula_structural   Lu5In4HgRh
_chemical_formula_sum   'Lu10 In8 Hg2 Rh2'
_cell_volume   529.73335688
_cell_formula_units_Z   2
loop_
 _symmetry_equiv_pos_site_id
 _symmetry_equiv_pos_as_xyz
  1  'x, y, z'
loop_
 _atom_site_type_symbol
 _atom_site_label
 _atom_site_symmetry_multiplicity
 _atom_site_fract_x
 _atom_site_fract_y
 _atom_site_fract_z
 _atom_site_occupancy
  Lu  Lu0  1  0.000000  0.122618  0.422956  1
  Lu  Lu1  1  0.000000  0.877382  0.577044  1
  Lu  Lu2  1  0.000000  0.385591  0.916145  1
  Lu  Lu3  1  0.000000  0.614409  0.083855  1
  Lu  Lu4  1  0.000000  0.266127  0.214137  1
  Lu  Lu5  1  0.000000  0.733873  0.785863  1
  Lu  Lu6  1  0.000000  0.288160  0.725139  1
  Lu  Lu7  1  0.000000  0.711840  0.274861  1
  Lu  Lu8  1  0.000000  0.000000  0.000000  1
  Lu  Lu9  1  0.000000  0.500000  0.500000  1
  In  In10  1  0.500000  0.420912  0.351550  1
  In  In11  1  0.500000  0.579088  0.648450  1
  In  In12  1  0.500000  0.086374  0.855230  1
  In  In13  1  0.500000  0.913626  0.144770  1
  In  In14  1  0.500000  0.293743  0.064930  1
  In  In15  1  0.500000  0.706257  0.935070  1
  In  In16  1  0.500000  0.213304  0.568028  1
  In  In17  1  0.500000  0.786696  0.431972  1
  Hg  Hg18  1  0.500000  0.023146  0.300050  1
  Hg  Hg19  1  0.500000  0.976854  0.699950  1
  Rh  Rh20  1  0.500000  0.476607  0.806879  1
  Rh  Rh21  1  0.500000  0.523393  0.193121  1
