# generated using pymatgen
data_Zr18Re8PtRh
_symmetry_space_group_name_H-M   'P 1'
_cell_length_a   8.73427200
_cell_length_b   8.73427162
_cell_length_c   8.65127600
_cell_angle_alpha   90.00000000
_cell_angle_beta   90.00000000
_cell_angle_gamma   120.00000143
_symmetry_Int_Tables_number   1
_chemical_formula_structural   Zr18Re8PtRh
_chemical_formula_sum   'Zr18 Re8 Pt1 Rh1'
_cell_volume   571.56312106
_cell_formula_units_Z   1
loop_
 _symmetry_equiv_pos_site_id
 _symmetry_equiv_pos_as_xyz
  1  'x, y, z'
loop_
 _atom_site_type_symbol
 _atom_site_label
 _atom_site_symmetry_multiplicity
 _atom_site_fract_x
 _atom_site_fract_y
 _atom_site_fract_z
 _atom_site_occupancy
  Zr  Zr0  1  0.193252  0.806748  0.446252  1
  Zr  Zr1  1  0.193252  0.386502  0.446252  1
  Zr  Zr2  1  0.613498  0.806748  0.446252  1
  Zr  Zr3  1  0.804063  0.195937  0.555136  1
  Zr  Zr4  1  0.804063  0.608128  0.555136  1
  Zr  Zr5  1  0.391872  0.195937  0.555136  1
  Zr  Zr6  1  0.804063  0.195937  0.944864  1
  Zr  Zr7  1  0.804063  0.608128  0.944864  1
  Zr  Zr8  1  0.391872  0.195937  0.944864  1
  Zr  Zr9  1  0.193252  0.806748  0.053748  1
  Zr  Zr10  1  0.193252  0.386502  0.053748  1
  Zr  Zr11  1  0.613498  0.806748  0.053748  1
  Zr  Zr12  1  0.543285  0.456715  0.250000  1
  Zr  Zr13  1  0.543285  0.086569  0.250000  1
  Zr  Zr14  1  0.913431  0.456715  0.250000  1
  Zr  Zr15  1  0.456680  0.543320  0.750000  1
  Zr  Zr16  1  0.456680  0.913362  0.750000  1
  Zr  Zr17  1  0.086638  0.543320  0.750000  1
  Re  Re18  1  0.892268  0.107732  0.250000  1
  Re  Re19  1  0.892268  0.784536  0.250000  1
  Re  Re20  1  0.215464  0.107732  0.250000  1
  Re  Re21  1  0.107378  0.892622  0.750000  1
  Re  Re22  1  0.107378  0.214756  0.750000  1
  Re  Re23  1  0.785244  0.892622  0.750000  1
  Re  Re24  1  0.000000  0.000000  0.500205  1
  Re  Re25  1  0.000000  0.000000  0.999795  1
  Pt  Pt26  1  0.333333  0.666667  0.250000  1
  Rh  Rh27  1  0.666667  0.333333  0.750000  1
