# generated using pymatgen
data_Zr8Be(Nb4Si5)3
_symmetry_space_group_name_H-M   'P 1'
_cell_length_a   6.88839247
_cell_length_b   6.88351991
_cell_length_c   12.76239309
_cell_angle_alpha   90.00801116
_cell_angle_beta   90.04675828
_cell_angle_gamma   89.94151237
_symmetry_Int_Tables_number   1
_chemical_formula_structural   Zr8Be(Nb4Si5)3
_chemical_formula_sum   'Zr8 Be1 Nb12 Si15'
_cell_volume   605.14604403
_cell_formula_units_Z   1
loop_
 _symmetry_equiv_pos_site_id
 _symmetry_equiv_pos_as_xyz
  1  'x, y, z'
loop_
 _atom_site_type_symbol
 _atom_site_label
 _atom_site_symmetry_multiplicity
 _atom_site_fract_x
 _atom_site_fract_y
 _atom_site_fract_z
 _atom_site_occupancy
  Zr  Zr0  1  0.999875  0.658525  0.032231  1
  Zr  Zr1  1  0.998152  0.345090  0.531091  1
  Zr  Zr2  1  0.658266  0.999954  0.968217  1
  Zr  Zr3  1  0.158725  0.498005  0.782010  1
  Zr  Zr4  1  0.844579  0.503951  0.284380  1
  Zr  Zr5  1  0.498217  0.157566  0.218493  1
  Zr  Zr6  1  0.499072  0.840565  0.716785  1
  Zr  Zr7  1  0.342269  0.997514  0.467526  1
  Be  Be8  1  0.049645  0.702369  0.438916  1
  Nb  Nb9  1  0.347245  0.504959  0.376355  1
  Nb  Nb10  1  0.850660  0.990528  0.375138  1
  Nb  Nb11  1  0.004247  0.152743  0.126735  1
  Nb  Nb12  1  0.993885  0.846686  0.625292  1
  Nb  Nb13  1  0.652934  0.495585  0.876547  1
  Nb  Nb14  1  0.502583  0.349968  0.623038  1
  Nb  Nb15  1  0.495354  0.652366  0.123670  1
  Nb  Nb16  1  0.153431  0.004165  0.873319  1
  Nb  Nb17  1  0.672145  0.671140  0.500244  1
  Nb  Nb18  1  0.829675  0.170405  0.749392  1
  Nb  Nb19  1  0.170288  0.829199  0.252034  1
  Nb  Nb20  1  0.329677  0.329278  0.000470  1
  Si  Si21  1  0.954715  0.297295  0.936945  1
  Si  Si22  1  0.703065  0.046313  0.562255  1
  Si  Si23  1  0.201782  0.454671  0.188455  1
  Si  Si24  1  0.798077  0.545447  0.686502  1
  Si  Si25  1  0.454511  0.202522  0.812277  1
  Si  Si26  1  0.545921  0.796686  0.313610  1
  Si  Si27  1  0.296743  0.953974  0.063789  1
  Si  Si28  1  0.864615  0.792559  0.821741  1
  Si  Si29  1  0.134832  0.207692  0.324031  1
  Si  Si30  1  0.793270  0.863588  0.178636  1
  Si  Si31  1  0.285611  0.637885  0.566431  1
  Si  Si32  1  0.707542  0.364462  0.073232  1
  Si  Si33  1  0.637429  0.293066  0.426817  1
  Si  Si34  1  0.364515  0.707448  0.927208  1
  Si  Si35  1  0.206447  0.135834  0.676185  1
