# generated using pymatgen
data_La3Tb2Nd3(CdIr)2
_symmetry_space_group_name_H-M   'P 1'
_cell_length_a   9.94299639
_cell_length_b   9.97017571
_cell_length_c   9.97017494
_cell_angle_alpha   59.81972638
_cell_angle_beta   60.09012739
_cell_angle_gamma   60.09013422
_symmetry_Int_Tables_number   1
_chemical_formula_structural   La3Tb2Nd3(CdIr)2
_chemical_formula_sum   'La6 Tb4 Nd6 Cd4 Ir4'
_cell_volume   698.87804618
_cell_formula_units_Z   2
loop_
 _symmetry_equiv_pos_site_id
 _symmetry_equiv_pos_as_xyz
  1  'x, y, z'
loop_
 _atom_site_type_symbol
 _atom_site_label
 _atom_site_symmetry_multiplicity
 _atom_site_fract_x
 _atom_site_fract_y
 _atom_site_fract_z
 _atom_site_occupancy
  La  La0  1  0.344898  0.350952  0.350952  1
  La  La1  1  0.350952  0.344898  0.953199  1
  La  La2  1  0.350952  0.953199  0.344898  1
  La  La3  1  0.953199  0.350952  0.350952  1
  La  La4  1  0.815614  0.184386  0.184386  1
  La  La5  1  0.184386  0.815614  0.815614  1
  Tb  Tb6  1  0.189700  0.810300  0.189700  1
  Tb  Tb7  1  0.810300  0.189700  0.810300  1
  Tb  Tb8  1  0.189700  0.189700  0.810300  1
  Tb  Tb9  1  0.810300  0.810300  0.189700  1
  Nd  Nd10  1  0.937001  0.562999  0.562999  1
  Nd  Nd11  1  0.562999  0.937001  0.937001  1
  Nd  Nd12  1  0.561645  0.938355  0.561645  1
  Nd  Nd13  1  0.938355  0.561645  0.938355  1
  Nd  Nd14  1  0.561645  0.561645  0.938355  1
  Nd  Nd15  1  0.938355  0.938355  0.561645  1
  Cd  Cd16  1  0.583455  0.578876  0.578876  1
  Cd  Cd17  1  0.578876  0.583455  0.258793  1
  Cd  Cd18  1  0.578876  0.258793  0.583455  1
  Cd  Cd19  1  0.258793  0.578876  0.578876  1
  Ir  Ir20  1  0.140125  0.140111  0.140111  1
  Ir  Ir21  1  0.140111  0.140125  0.579652  1
  Ir  Ir22  1  0.140111  0.579652  0.140125  1
  Ir  Ir23  1  0.579652  0.140111  0.140111  1
