# generated using pymatgen
data_ZrSc(VP)2
_symmetry_space_group_name_H-M   'P 1'
_cell_length_a   3.49058800
_cell_length_b   6.65829695
_cell_length_c   7.90951745
_cell_angle_alpha   90.17707954
_cell_angle_beta   90.00000000
_cell_angle_gamma   90.00000000
_symmetry_Int_Tables_number   1
_chemical_formula_structural   ZrSc(VP)2
_chemical_formula_sum   'Zr2 Sc2 V4 P4'
_cell_volume   183.82715482
_cell_formula_units_Z   2
loop_
 _symmetry_equiv_pos_site_id
 _symmetry_equiv_pos_as_xyz
  1  'x, y, z'
loop_
 _atom_site_type_symbol
 _atom_site_label
 _atom_site_symmetry_multiplicity
 _atom_site_fract_x
 _atom_site_fract_y
 _atom_site_fract_z
 _atom_site_occupancy
  Zr  Zr0  1  0.250000  0.539269  0.668330  1
  Zr  Zr1  1  0.750000  0.460731  0.331670  1
  Sc  Sc2  1  0.250000  0.040186  0.832955  1
  Sc  Sc3  1  0.750000  0.959814  0.167045  1
  V  V4  1  0.750000  0.374287  0.942633  1
  V  V5  1  0.250000  0.625713  0.057367  1
  V  V6  1  0.750000  0.870708  0.556906  1
  V  V7  1  0.250000  0.129292  0.443094  1
  P  P8  1  0.250000  0.765386  0.361532  1
  P  P9  1  0.750000  0.234614  0.638468  1
  P  P10  1  0.250000  0.260143  0.134778  1
  P  P11  1  0.750000  0.739857  0.865222  1
