# generated using pymatgen
data_Ce4Be(Rh2Au)4
_symmetry_space_group_name_H-M   'P 1'
_cell_length_a   7.29797817
_cell_length_b   7.27745756
_cell_length_c   7.29797733
_cell_angle_alpha   108.63655702
_cell_angle_beta   111.26420430
_cell_angle_gamma   108.63655784
_symmetry_Int_Tables_number   1
_chemical_formula_structural   Ce4Be(Rh2Au)4
_chemical_formula_sum   'Ce4 Be1 Rh8 Au4'
_cell_volume   297.76137373
_cell_formula_units_Z   1
loop_
 _symmetry_equiv_pos_site_id
 _symmetry_equiv_pos_as_xyz
  1  'x, y, z'
loop_
 _atom_site_type_symbol
 _atom_site_label
 _atom_site_symmetry_multiplicity
 _atom_site_fract_x
 _atom_site_fract_y
 _atom_site_fract_z
 _atom_site_occupancy
  Ce  Ce0  1  0.991957  0.983914  0.491957  1
  Ce  Ce1  1  0.028999  0.521219  0.028999  1
  Ce  Ce2  1  0.491957  0.983914  0.991957  1
  Ce  Ce3  1  0.492220  0.521219  0.492220  1
  Be  Be4  1  0.000810  0.001619  0.000810  1
  Rh  Rh5  1  0.247655  0.752520  0.504865  1
  Rh  Rh6  1  0.504865  0.752520  0.247655  1
  Rh  Rh7  1  0.740047  0.736901  0.996854  1
  Rh  Rh8  1  0.266415  0.003423  0.266415  1
  Rh  Rh9  1  0.995687  0.256922  0.261235  1
  Rh  Rh10  1  0.261235  0.256922  0.995687  1
  Rh  Rh11  1  0.737008  0.003423  0.737008  1
  Rh  Rh12  1  0.996854  0.736901  0.740047  1
  Au  Au13  1  0.748136  0.252544  0.504407  1
  Au  Au14  1  0.745875  0.491749  0.245875  1
  Au  Au15  1  0.504407  0.252544  0.748136  1
  Au  Au16  1  0.245875  0.491749  0.745875  1
