# generated using pymatgen
data_DyZr2Sc(Al3Rh)6
_symmetry_space_group_name_H-M   'P 1'
_cell_length_a   7.48424852
_cell_length_b   7.47358891
_cell_length_c   9.30886200
_cell_angle_alpha   90.00000000
_cell_angle_beta   90.00000000
_cell_angle_gamma   119.69079109
_symmetry_Int_Tables_number   1
_chemical_formula_structural   DyZr2Sc(Al3Rh)6
_chemical_formula_sum   'Dy1 Zr2 Sc1 Al18 Rh6'
_cell_volume   452.32374468
_cell_formula_units_Z   1
loop_
 _symmetry_equiv_pos_site_id
 _symmetry_equiv_pos_as_xyz
  1  'x, y, z'
loop_
 _atom_site_type_symbol
 _atom_site_label
 _atom_site_symmetry_multiplicity
 _atom_site_fract_x
 _atom_site_fract_y
 _atom_site_fract_z
 _atom_site_occupancy
  Dy  Dy0  1  0.329712  0.006429  0.250000  1
  Zr  Zr1  1  0.994566  0.671339  0.750000  1
  Zr  Zr2  1  0.004988  0.328288  0.250000  1
  Sc  Sc3  1  0.671233  0.994193  0.750000  1
  Al  Al4  1  0.120589  0.121152  0.750000  1
  Al  Al5  1  0.873575  0.876181  0.250000  1
  Al  Al6  1  0.995924  0.334174  0.578417  1
  Al  Al7  1  0.000333  0.662539  0.425966  1
  Al  Al8  1  0.000333  0.662539  0.074034  1
  Al  Al9  1  0.335558  0.997784  0.917849  1
  Al  Al10  1  0.995924  0.334174  0.921583  1
  Al  Al11  1  0.667938  0.001821  0.074608  1
  Al  Al12  1  0.667938  0.001821  0.425392  1
  Al  Al13  1  0.335558  0.997784  0.582151  1
  Al  Al14  1  0.331152  0.333683  0.053632  1
  Al  Al15  1  0.669197  0.669497  0.941209  1
  Al  Al16  1  0.669197  0.669497  0.558791  1
  Al  Al17  1  0.331152  0.333683  0.446368  1
  Al  Al18  1  0.337166  0.553964  0.750000  1
  Al  Al19  1  0.665953  0.451497  0.250000  1
  Al  Al20  1  0.557397  0.342352  0.750000  1
  Al  Al21  1  0.444897  0.656037  0.250000  1
  Rh  Rh22  1  0.672478  0.327738  0.499732  1
  Rh  Rh23  1  0.327363  0.672406  0.501053  1
  Rh  Rh24  1  0.327363  0.672406  0.998947  1
  Rh  Rh25  1  0.672478  0.327738  0.000268  1
  Rh  Rh26  1  0.000019  0.999642  0.500298  1
  Rh  Rh27  1  0.000019  0.999642  0.999702  1
