# generated using pymatgen
data_Ge2PClO4
_symmetry_space_group_name_H-M   'P 1'
_cell_length_a   4.94329319
_cell_length_b   4.94329393
_cell_length_c   12.96607400
_cell_angle_alpha   90.00000000
_cell_angle_beta   90.00000000
_cell_angle_gamma   123.31786870
_symmetry_Int_Tables_number   1
_chemical_formula_structural   Ge2PClO4
_chemical_formula_sum   'Ge4 P2 Cl2 O8'
_cell_volume   264.76373126
_cell_formula_units_Z   2
loop_
 _symmetry_equiv_pos_site_id
 _symmetry_equiv_pos_as_xyz
  1  'x, y, z'
loop_
 _atom_site_type_symbol
 _atom_site_label
 _atom_site_symmetry_multiplicity
 _atom_site_fract_x
 _atom_site_fract_y
 _atom_site_fract_z
 _atom_site_occupancy
  Ge  Ge0  1  0.848266  0.254010  0.884781  1
  Ge  Ge1  1  0.254010  0.848266  0.384781  1
  Ge  Ge2  1  0.254010  0.848266  0.115219  1
  Ge  Ge3  1  0.848266  0.254010  0.615219  1
  P  P4  1  0.188245  0.917127  0.750000  1
  P  P5  1  0.917127  0.188245  0.250000  1
  Cl  Cl6  1  0.425765  0.425765  0.000000  1
  Cl  Cl7  1  0.425765  0.425765  0.500000  1
  O  O8  1  0.117837  0.712535  0.848622  1
  O  O9  1  0.197780  0.555988  0.250000  1
  O  O10  1  0.993725  0.080312  0.750000  1
  O  O11  1  0.712535  0.117837  0.151378  1
  O  O12  1  0.117837  0.712535  0.651378  1
  O  O13  1  0.712535  0.117837  0.348622  1
  O  O14  1  0.555988  0.197780  0.750000  1
  O  O15  1  0.080312  0.993725  0.250000  1
