# generated using pymatgen
data_Pr2Ga5Pt2Rh
_symmetry_space_group_name_H-M   'P 1'
_cell_length_a   8.69529717
_cell_length_b   8.69529793
_cell_length_c   8.69529816
_cell_angle_alpha   140.24750508
_cell_angle_beta   107.38802522
_cell_angle_gamma   86.12067366
_symmetry_Int_Tables_number   1
_chemical_formula_structural   Pr2Ga5Pt2Rh
_chemical_formula_sum   'Pr4 Ga10 Pt4 Rh2'
_cell_volume   386.78785347
_cell_formula_units_Z   2
loop_
 _symmetry_equiv_pos_site_id
 _symmetry_equiv_pos_as_xyz
  1  'x, y, z'
loop_
 _atom_site_type_symbol
 _atom_site_label
 _atom_site_symmetry_multiplicity
 _atom_site_fract_x
 _atom_site_fract_y
 _atom_site_fract_z
 _atom_site_occupancy
  Pr  Pr0  1  0.862335  0.635824  0.226511  1
  Pr  Pr1  1  0.137665  0.364176  0.773489  1
  Pr  Pr2  1  0.409313  0.135824  0.273489  1
  Pr  Pr3  1  0.590687  0.864176  0.726511  1
  Ga  Ga4  1  0.500000  0.750000  0.250000  1
  Ga  Ga5  1  0.500000  0.250000  0.750000  1
  Ga  Ga6  1  0.210346  0.960346  0.750000  1
  Ga  Ga7  1  0.789654  0.539654  0.750000  1
  Ga  Ga8  1  0.789654  0.039654  0.250000  1
  Ga  Ga9  1  0.210346  0.460346  0.250000  1
  Ga  Ga10  1  0.065055  0.904785  0.160271  1
  Ga  Ga11  1  0.934945  0.095215  0.839729  1
  Ga  Ga12  1  0.744515  0.404785  0.339729  1
  Ga  Ga13  1  0.255485  0.595215  0.660271  1
  Pt  Pt14  1  0.253882  0.855298  0.398585  1
  Pt  Pt15  1  0.746118  0.144702  0.601415  1
  Pt  Pt16  1  0.456712  0.355298  0.101415  1
  Pt  Pt17  1  0.543288  0.644702  0.898585  1
  Rh  Rh18  1  0.000000  0.750000  0.750000  1
  Rh  Rh19  1  0.000000  0.250000  0.250000  1
