# generated using pymatgen
data_SrNd6IrBr12
_symmetry_space_group_name_H-M   'P 1'
_cell_length_a   9.61703948
_cell_length_b   9.52336389
_cell_length_c   9.63696493
_cell_angle_alpha   106.29711307
_cell_angle_beta   106.28441766
_cell_angle_gamma   106.37846131
_symmetry_Int_Tables_number   1
_chemical_formula_structural   SrNd6IrBr12
_chemical_formula_sum   'Sr1 Nd6 Ir1 Br12'
_cell_volume   748.26748667
_cell_formula_units_Z   1
loop_
 _symmetry_equiv_pos_site_id
 _symmetry_equiv_pos_as_xyz
  1  'x, y, z'
loop_
 _atom_site_type_symbol
 _atom_site_label
 _atom_site_symmetry_multiplicity
 _atom_site_fract_x
 _atom_site_fract_y
 _atom_site_fract_z
 _atom_site_occupancy
  Sr  Sr0  1  0.500000  0.500000  0.500000  1
  Nd  Nd1  1  0.100293  0.305151  0.019394  1
  Nd  Nd2  1  0.315612  0.019748  0.104492  1
  Nd  Nd3  1  0.019830  0.104428  0.314769  1
  Nd  Nd4  1  0.980169  0.895572  0.685231  1
  Nd  Nd5  1  0.684388  0.980251  0.895507  1
  Nd  Nd6  1  0.899707  0.694849  0.980606  1
  Ir  Ir7  1  0.000000  0.000000  0.000000  1
  Br  Br8  1  0.217957  0.678878  0.070651  1
  Br  Br9  1  0.447539  0.367211  0.150922  1
  Br  Br10  1  0.680100  0.071001  0.217930  1
  Br  Br11  1  0.928128  0.780149  0.319358  1
  Br  Br12  1  0.151298  0.449116  0.366221  1
  Br  Br13  1  0.365746  0.149229  0.447848  1
  Br  Br14  1  0.634254  0.850771  0.552152  1
  Br  Br15  1  0.848701  0.550884  0.633779  1
  Br  Br16  1  0.071873  0.219852  0.680643  1
  Br  Br17  1  0.319901  0.929000  0.782070  1
  Br  Br18  1  0.552460  0.632788  0.849078  1
  Br  Br19  1  0.782043  0.321123  0.929349  1
