# generated using pymatgen
data_HoEr15(In3Rh)2
_symmetry_space_group_name_H-M   'P 1'
_cell_length_a   10.34668200
_cell_length_b   10.34723450
_cell_length_c   6.96680200
_cell_angle_alpha   90.00318304
_cell_angle_beta   90.00000000
_cell_angle_gamma   119.99822729
_symmetry_Int_Tables_number   1
_chemical_formula_structural   HoEr15(In3Rh)2
_chemical_formula_sum   'Ho1 Er15 In6 Rh2'
_cell_volume   645.94754155
_cell_formula_units_Z   1
loop_
 _symmetry_equiv_pos_site_id
 _symmetry_equiv_pos_as_xyz
  1  'x, y, z'
loop_
 _atom_site_type_symbol
 _atom_site_label
 _atom_site_symmetry_multiplicity
 _atom_site_fract_x
 _atom_site_fract_y
 _atom_site_fract_z
 _atom_site_occupancy
  Ho  Ho0  1  0.532377  0.064754  0.793898  1
  Er  Er1  1  0.935061  0.467545  0.794056  1
  Er  Er2  1  0.532484  0.467545  0.794056  1
  Er  Er3  1  0.467404  0.934808  0.293959  1
  Er  Er4  1  0.065071  0.532532  0.293971  1
  Er  Er5  1  0.467460  0.532532  0.293971  1
  Er  Er6  1  0.823607  0.647214  0.499697  1
  Er  Er7  1  0.352666  0.176420  0.499555  1
  Er  Er8  1  0.823754  0.176420  0.499555  1
  Er  Er9  1  0.176410  0.352819  0.999698  1
  Er  Er10  1  0.647260  0.823500  0.999838  1
  Er  Er11  1  0.176240  0.823500  0.999838  1
  Er  Er12  1  0.666748  0.333495  0.173516  1
  Er  Er13  1  0.333253  0.666508  0.673437  1
  Er  Er14  1  0.000009  0.000018  0.778885  1
  Er  Er15  1  0.000019  0.000039  0.278863  1
  In  In16  1  0.837242  0.674486  0.038829  1
  In  In17  1  0.325356  0.162784  0.038970  1
  In  In18  1  0.837428  0.162784  0.038970  1
  In  In19  1  0.162733  0.325465  0.538874  1
  In  In20  1  0.674517  0.837239  0.538752  1
  In  In21  1  0.162723  0.837239  0.538752  1
  Rh  Rh22  1  0.666855  0.333709  0.567880  1
  Rh  Rh23  1  0.333323  0.666648  0.068088  1
