# generated using pymatgen
data_Dy3Ho(PS)2
_symmetry_space_group_name_H-M   'P 1'
_cell_length_a   6.80522090
_cell_length_b   6.80522030
_cell_length_c   6.80522000
_cell_angle_alpha   131.79124443
_cell_angle_beta   131.72082509
_cell_angle_gamma   70.61462866
_symmetry_Int_Tables_number   1
_chemical_formula_structural   Dy3Ho(PS)2
_chemical_formula_sum   'Dy3 Ho1 P2 S2'
_cell_volume   171.82193964
_cell_formula_units_Z   1
loop_
 _symmetry_equiv_pos_site_id
 _symmetry_equiv_pos_as_xyz
  1  'x, y, z'
loop_
 _atom_site_type_symbol
 _atom_site_label
 _atom_site_symmetry_multiplicity
 _atom_site_fract_x
 _atom_site_fract_y
 _atom_site_fract_z
 _atom_site_occupancy
  Dy  Dy0  1  0.746000  0.746000  0.000000  1
  Dy  Dy1  1  0.254072  0.254072  0.000000  1
  Dy  Dy2  1  0.004148  0.504148  0.500000  1
  Ho  Ho3  1  0.495933  0.995933  0.500000  1
  P  P4  1  0.500064  0.500064  0.000000  1
  P  P5  1  0.250470  0.750470  0.500000  1
  S  S6  1  0.000028  0.000028  0.000000  1
  S  S7  1  0.749286  0.249286  0.500000  1
