# generated using pymatgen
data_Tm4SiNi13
_symmetry_space_group_name_H-M   'P 1'
_cell_length_a   4.96486881
_cell_length_b   4.85187781
_cell_length_c   12.33883068
_cell_angle_alpha   78.79334890
_cell_angle_beta   78.39353286
_cell_angle_gamma   59.22660005
_symmetry_Int_Tables_number   1
_chemical_formula_structural   Tm4SiNi13
_chemical_formula_sum   'Tm4 Si1 Ni13'
_cell_volume   248.67696222
_cell_formula_units_Z   1
loop_
 _symmetry_equiv_pos_site_id
 _symmetry_equiv_pos_as_xyz
  1  'x, y, z'
loop_
 _atom_site_type_symbol
 _atom_site_label
 _atom_site_symmetry_multiplicity
 _atom_site_fract_x
 _atom_site_fract_y
 _atom_site_fract_z
 _atom_site_occupancy
  Tm  Tm0  1  0.947819  0.948853  0.155508  1
  Tm  Tm1  1  0.052181  0.051147  0.844492  1
  Tm  Tm2  1  0.851815  0.854579  0.441791  1
  Tm  Tm3  1  0.148185  0.145421  0.558209  1
  Si  Si4  1  0.500000  0.000000  0.000000  1
  Ni  Ni5  1  0.500000  0.500000  0.500000  1
  Ni  Ni6  1  0.715669  0.733332  0.835329  1
  Ni  Ni7  1  0.284331  0.266668  0.164671  1
  Ni  Ni8  1  0.604507  0.626342  0.164644  1
  Ni  Ni9  1  0.395493  0.373658  0.835356  1
  Ni  Ni10  1  0.000000  0.500000  0.000000  1
  Ni  Ni11  1  0.500000  0.500000  0.000000  1
  Ni  Ni12  1  0.389496  0.392433  0.327881  1
  Ni  Ni13  1  0.890191  0.392433  0.327881  1
  Ni  Ni14  1  0.386764  0.893768  0.332703  1
  Ni  Ni15  1  0.610504  0.607567  0.672119  1
  Ni  Ni16  1  0.109809  0.607567  0.672119  1
  Ni  Ni17  1  0.613236  0.106232  0.667297  1
