# generated using pymatgen
data_SrLa(Sn2Pd)2
_symmetry_space_group_name_H-M   'P 1'
_cell_length_a   9.23141973
_cell_length_b   9.23141859
_cell_length_c   9.67398700
_cell_angle_alpha   90.00000000
_cell_angle_beta   90.00000000
_cell_angle_gamma   150.06935826
_symmetry_Int_Tables_number   1
_chemical_formula_structural   SrLa(Sn2Pd)2
_chemical_formula_sum   'Sr2 La2 Sn8 Pd4'
_cell_volume   411.33966081
_cell_formula_units_Z   2
loop_
 _symmetry_equiv_pos_site_id
 _symmetry_equiv_pos_as_xyz
  1  'x, y, z'
loop_
 _atom_site_type_symbol
 _atom_site_label
 _atom_site_symmetry_multiplicity
 _atom_site_fract_x
 _atom_site_fract_y
 _atom_site_fract_z
 _atom_site_occupancy
  Sr  Sr0  1  0.500000  0.500000  0.500000  1
  Sr  Sr1  1  0.500000  0.500000  0.000000  1
  La  La2  1  0.297513  0.702487  0.250000  1
  La  La3  1  0.702487  0.297513  0.750000  1
  Sn  Sn4  1  0.910159  0.089841  0.750000  1
  Sn  Sn5  1  0.926622  0.073378  0.250000  1
  Sn  Sn6  1  0.089841  0.910159  0.250000  1
  Sn  Sn7  1  0.073378  0.926622  0.750000  1
  Sn  Sn8  1  0.696333  0.303667  0.406050  1
  Sn  Sn9  1  0.303667  0.696333  0.593950  1
  Sn  Sn10  1  0.303667  0.696333  0.906050  1
  Sn  Sn11  1  0.696333  0.303667  0.093950  1
  Pd  Pd12  1  0.151687  0.848313  0.507088  1
  Pd  Pd13  1  0.848313  0.151687  0.007088  1
  Pd  Pd14  1  0.151687  0.848313  0.992912  1
  Pd  Pd15  1  0.848313  0.151687  0.492912  1
