# generated using pymatgen
data_Zr10AsPb6Au
_symmetry_space_group_name_H-M   'P 1'
_cell_length_a   8.86766400
_cell_length_b   8.86766288
_cell_length_c   5.98873200
_cell_angle_alpha   90.00000000
_cell_angle_beta   90.00000000
_cell_angle_gamma   120.00000419
_symmetry_Int_Tables_number   1
_chemical_formula_structural   Zr10AsPb6Au
_chemical_formula_sum   'Zr10 As1 Pb6 Au1'
_cell_volume   407.83443789
_cell_formula_units_Z   1
loop_
 _symmetry_equiv_pos_site_id
 _symmetry_equiv_pos_as_xyz
  1  'x, y, z'
loop_
 _atom_site_type_symbol
 _atom_site_label
 _atom_site_symmetry_multiplicity
 _atom_site_fract_x
 _atom_site_fract_y
 _atom_site_fract_z
 _atom_site_occupancy
  Zr  Zr0  1  0.666667  0.333333  0.500000  1
  Zr  Zr1  1  0.333333  0.666667  0.500000  1
  Zr  Zr2  1  0.333333  0.666667  0.000000  1
  Zr  Zr3  1  0.666667  0.333333  0.000000  1
  Zr  Zr4  1  0.734144  0.734144  0.237200  1
  Zr  Zr5  1  0.265856  0.000000  0.237200  1
  Zr  Zr6  1  0.000000  0.265856  0.237200  1
  Zr  Zr7  1  0.265856  0.265856  0.762800  1
  Zr  Zr8  1  0.734144  0.000000  0.762800  1
  Zr  Zr9  1  0.000000  0.734144  0.762800  1
  As  As10  1  0.000000  0.000000  0.000000  1
  Pb  Pb11  1  0.388055  0.388055  0.257523  1
  Pb  Pb12  1  0.611945  0.000000  0.257523  1
  Pb  Pb13  1  0.000000  0.611945  0.257523  1
  Pb  Pb14  1  0.611945  0.611945  0.742477  1
  Pb  Pb15  1  0.388055  0.000000  0.742477  1
  Pb  Pb16  1  0.000000  0.388055  0.742477  1
  Au  Au17  1  0.000000  0.000000  0.500000  1
