# generated using pymatgen
data_Tm6TcB14Ru
_symmetry_space_group_name_H-M   'P 1'
_cell_length_a   7.95715102
_cell_length_b   7.95715099
_cell_length_c   9.25505300
_cell_angle_alpha   90.00000000
_cell_angle_beta   90.00000000
_cell_angle_gamma   154.62094808
_symmetry_Int_Tables_number   1
_chemical_formula_structural   Tm6TcB14Ru
_chemical_formula_sum   'Tm6 Tc1 B14 Ru1'
_cell_volume   251.16040474
_cell_formula_units_Z   1
loop_
 _symmetry_equiv_pos_site_id
 _symmetry_equiv_pos_as_xyz
  1  'x, y, z'
loop_
 _atom_site_type_symbol
 _atom_site_label
 _atom_site_symmetry_multiplicity
 _atom_site_fract_x
 _atom_site_fract_y
 _atom_site_fract_z
 _atom_site_occupancy
  Tm  Tm0  1  0.894354  0.105646  0.059007  1
  Tm  Tm1  1  0.105627  0.894373  0.560521  1
  Tm  Tm2  1  0.105627  0.894373  0.939479  1
  Tm  Tm3  1  0.894354  0.105646  0.440993  1
  Tm  Tm4  1  0.243635  0.756365  0.250000  1
  Tm  Tm5  1  0.756758  0.243242  0.750000  1
  Tc  Tc6  1  0.947493  0.052507  0.750000  1
  B  B7  1  0.454627  0.545373  0.250000  1
  B  B8  1  0.546110  0.453890  0.750000  1
  B  B9  1  0.727160  0.272840  0.034741  1
  B  B10  1  0.272240  0.727760  0.533520  1
  B  B11  1  0.272240  0.727760  0.966480  1
  B  B12  1  0.727160  0.272840  0.465259  1
  B  B13  1  0.631794  0.368206  0.348936  1
  B  B14  1  0.367672  0.632328  0.849210  1
  B  B15  1  0.367672  0.632328  0.650790  1
  B  B16  1  0.631794  0.368206  0.151064  1
  B  B17  1  0.519802  0.480198  0.404309  1
  B  B18  1  0.480321  0.519679  0.905099  1
  B  B19  1  0.480321  0.519679  0.594901  1
  B  B20  1  0.519802  0.480198  0.095691  1
  Ru  Ru21  1  0.053441  0.946559  0.250000  1
