# generated using pymatgen
data_HoTm3Ni13Ge
_symmetry_space_group_name_H-M   'P 1'
_cell_length_a   4.90062558
_cell_length_b   4.96981191
_cell_length_c   12.41518709
_cell_angle_alpha   78.45424903
_cell_angle_beta   78.72590931
_cell_angle_gamma   59.53187882
_symmetry_Int_Tables_number   1
_chemical_formula_structural   HoTm3Ni13Ge
_chemical_formula_sum   'Ho1 Tm3 Ni13 Ge1'
_cell_volume   253.75883888
_cell_formula_units_Z   1
loop_
 _symmetry_equiv_pos_site_id
 _symmetry_equiv_pos_as_xyz
  1  'x, y, z'
loop_
 _atom_site_type_symbol
 _atom_site_label
 _atom_site_symmetry_multiplicity
 _atom_site_fract_x
 _atom_site_fract_y
 _atom_site_fract_z
 _atom_site_occupancy
  Ho  Ho0  1  0.146612  0.148024  0.557339  1
  Tm  Tm1  1  0.947325  0.947256  0.158161  1
  Tm  Tm2  1  0.052493  0.052578  0.842353  1
  Tm  Tm3  1  0.853920  0.852168  0.441743  1
  Ni  Ni4  1  0.499949  0.500177  0.499697  1
  Ni  Ni5  1  0.724087  0.721430  0.833053  1
  Ni  Ni6  1  0.275822  0.278550  0.167078  1
  Ni  Ni7  1  0.613901  0.609637  0.166824  1
  Ni  Ni8  1  0.386171  0.390355  0.833119  1
  Ni  Ni9  1  0.499984  0.999930  0.000024  1
  Ni  Ni10  1  0.499984  0.500062  0.000024  1
  Ni  Ni11  1  0.390467  0.389332  0.329991  1
  Ni  Ni12  1  0.892096  0.387868  0.332168  1
  Ni  Ni13  1  0.390467  0.890212  0.329991  1
  Ni  Ni14  1  0.609618  0.610782  0.670256  1
  Ni  Ni15  1  0.107427  0.612305  0.667962  1
  Ni  Ni16  1  0.609618  0.109342  0.670256  1
  Ge  Ge17  1  0.000057  0.499990  0.999962  1
