# generated using pymatgen
data_Tm2MnFe8Ni3P7
_symmetry_space_group_name_H-M   'P 1'
_cell_length_a   9.01906809
_cell_length_b   9.01499465
_cell_length_c   3.61730100
_cell_angle_alpha   90.00000000
_cell_angle_beta   90.00000000
_cell_angle_gamma   119.62861113
_symmetry_Int_Tables_number   1
_chemical_formula_structural   Tm2MnFe8Ni3P7
_chemical_formula_sum   'Tm2 Mn1 Fe8 Ni3 P7'
_cell_volume   255.65575354
_cell_formula_units_Z   1
loop_
 _symmetry_equiv_pos_site_id
 _symmetry_equiv_pos_as_xyz
  1  'x, y, z'
loop_
 _atom_site_type_symbol
 _atom_site_label
 _atom_site_symmetry_multiplicity
 _atom_site_fract_x
 _atom_site_fract_y
 _atom_site_fract_z
 _atom_site_occupancy
  Tm  Tm0  1  0.997884  0.997423  0.000000  1
  Tm  Tm1  1  0.670084  0.334731  0.500000  1
  Mn  Mn2  1  0.112753  0.547756  0.500000  1
  Fe  Fe3  1  0.903360  0.297783  0.000000  1
  Fe  Fe4  1  0.213364  0.390666  0.000000  1
  Fe  Fe5  1  0.606358  0.822315  0.000000  1
  Fe  Fe6  1  0.179045  0.785723  0.000000  1
  Fe  Fe7  1  0.766199  0.051917  0.500000  1
  Fe  Fe8  1  0.945146  0.716613  0.500000  1
  Fe  Fe9  1  0.463011  0.567761  0.500000  1
  Fe  Fe10  1  0.431062  0.884536  0.500000  1
  Ni  Ni11  1  0.704684  0.606605  0.000000  1
  Ni  Ni12  1  0.395870  0.101668  0.000000  1
  Ni  Ni13  1  0.280538  0.227645  0.500000  1
  P  P14  1  0.446941  0.374402  0.000000  1
  P  P15  1  0.635673  0.078045  0.000000  1
  P  P16  1  0.925867  0.555959  0.000000  1
  P  P17  1  0.037156  0.259449  0.500000  1
  P  P18  1  0.737131  0.788151  0.500000  1
  P  P19  1  0.212441  0.944877  0.500000  1
  P  P20  1  0.335431  0.665973  0.000000  1
