# generated using pymatgen
data_Er20Fe3NiSb8
_symmetry_space_group_name_H-M   'P 1'
_cell_length_a   7.77755985
_cell_length_b   8.73609300
_cell_length_c   12.04541902
_cell_angle_alpha   90.00000000
_cell_angle_beta   90.24357011
_cell_angle_gamma   90.00000000
_symmetry_Int_Tables_number   1
_chemical_formula_structural   Er20Fe3NiSb8
_chemical_formula_sum   'Er20 Fe3 Ni1 Sb8'
_cell_volume   818.42445667
_cell_formula_units_Z   1
loop_
 _symmetry_equiv_pos_site_id
 _symmetry_equiv_pos_as_xyz
  1  'x, y, z'
loop_
 _atom_site_type_symbol
 _atom_site_label
 _atom_site_symmetry_multiplicity
 _atom_site_fract_x
 _atom_site_fract_y
 _atom_site_fract_z
 _atom_site_occupancy
  Er  Er0  1  0.160162  0.750000  0.208865  1
  Er  Er1  1  0.655523  0.250000  0.294254  1
  Er  Er2  1  0.843315  0.250000  0.795918  1
  Er  Er3  1  0.345424  0.750000  0.703165  1
  Er  Er4  1  0.454467  0.750000  0.997242  1
  Er  Er5  1  0.947046  0.250000  0.504297  1
  Er  Er6  1  0.547769  0.250000  0.002646  1
  Er  Er7  1  0.047803  0.750000  0.497325  1
  Er  Er8  1  0.623581  0.750000  0.305371  1
  Er  Er9  1  0.122793  0.250000  0.192188  1
  Er  Er10  1  0.378986  0.250000  0.693258  1
  Er  Er11  1  0.873957  0.750000  0.805489  1
  Er  Er12  1  0.823203  0.967212  0.065245  1
  Er  Er13  1  0.324277  0.033840  0.436915  1
  Er  Er14  1  0.178448  0.457825  0.934751  1
  Er  Er15  1  0.676941  0.538009  0.563799  1
  Er  Er16  1  0.178448  0.042175  0.934751  1
  Er  Er17  1  0.676941  0.961991  0.563799  1
  Er  Er18  1  0.823203  0.532788  0.065245  1
  Er  Er19  1  0.324277  0.466160  0.436915  1
  Fe  Fe20  1  0.424475  0.750000  0.486113  1
  Fe  Fe21  1  0.928516  0.250000  0.011014  1
  Fe  Fe22  1  0.571552  0.250000  0.510291  1
  Ni  Ni23  1  0.070296  0.750000  0.989830  1
  Sb  Sb24  1  0.929974  0.993093  0.327954  1
  Sb  Sb25  1  0.428765  0.007717  0.171798  1
  Sb  Sb26  1  0.070468  0.492350  0.673103  1
  Sb  Sb27  1  0.570092  0.508030  0.827802  1
  Sb  Sb28  1  0.070468  0.007650  0.673103  1
  Sb  Sb29  1  0.570092  0.991970  0.827802  1
  Sb  Sb30  1  0.929974  0.506907  0.327954  1
  Sb  Sb31  1  0.428765  0.492283  0.171798  1
