# generated using pymatgen
data_Lu8Bi4IrOs
_symmetry_space_group_name_H-M   'P 1'
_cell_length_a   8.66373092
_cell_length_b   8.66377645
_cell_length_c   8.66373021
_cell_angle_alpha   96.56793344
_cell_angle_beta   96.57241459
_cell_angle_gamma   140.45775402
_symmetry_Int_Tables_number   1
_chemical_formula_structural   Lu8Bi4IrOs
_chemical_formula_sum   'Lu8 Bi4 Ir1 Os1'
_cell_volume   389.61014664
_cell_formula_units_Z   1
loop_
 _symmetry_equiv_pos_site_id
 _symmetry_equiv_pos_as_xyz
  1  'x, y, z'
loop_
 _atom_site_type_symbol
 _atom_site_label
 _atom_site_symmetry_multiplicity
 _atom_site_fract_x
 _atom_site_fract_y
 _atom_site_fract_z
 _atom_site_occupancy
  Lu  Lu0  1  0.694362  0.578807  0.276425  1
  Lu  Lu1  1  0.302348  0.417926  0.723560  1
  Lu  Lu2  1  0.578765  0.302335  0.884441  1
  Lu  Lu3  1  0.082106  0.197665  0.276432  1
  Lu  Lu4  1  0.805634  0.082074  0.884420  1
  Lu  Lu5  1  0.417933  0.694379  0.115547  1
  Lu  Lu6  1  0.921167  0.805621  0.723552  1
  Lu  Lu7  1  0.197618  0.921193  0.115557  1
  Bi  Bi8  1  0.140807  0.640828  0.781621  1
  Bi  Bi9  1  0.359183  0.140828  0.500001  1
  Bi  Bi10  1  0.859172  0.359172  0.218354  1
  Bi  Bi11  1  0.640792  0.859172  0.499978  1
  Ir  Ir12  1  0.750234  0.750000  0.000234  1
  Os  Os13  1  0.249879  0.250000  0.999879  1
