# generated using pymatgen
data_Yb6Al14Si2Ir7
_symmetry_space_group_name_H-M   'P 1'
_cell_length_a   8.91285501
_cell_length_b   8.91285521
_cell_length_c   8.92054800
_cell_angle_alpha   59.97145181
_cell_angle_beta   59.97145108
_cell_angle_gamma   59.87042443
_symmetry_Int_Tables_number   1
_chemical_formula_structural   Yb6Al14Si2Ir7
_chemical_formula_sum   'Yb6 Al14 Si2 Ir7'
_cell_volume   500.37541454
_cell_formula_units_Z   1
loop_
 _symmetry_equiv_pos_site_id
 _symmetry_equiv_pos_as_xyz
  1  'x, y, z'
loop_
 _atom_site_type_symbol
 _atom_site_label
 _atom_site_symmetry_multiplicity
 _atom_site_fract_x
 _atom_site_fract_y
 _atom_site_fract_z
 _atom_site_occupancy
  Yb  Yb0  1  0.202818  0.794521  0.793630  1
  Yb  Yb1  1  0.794521  0.202818  0.209031  1
  Yb  Yb2  1  0.794521  0.202818  0.793630  1
  Yb  Yb3  1  0.794458  0.794458  0.205542  1
  Yb  Yb4  1  0.202818  0.794521  0.209031  1
  Yb  Yb5  1  0.206712  0.206712  0.793288  1
  Al  Al6  1  0.520803  0.827142  0.826028  1
  Al  Al7  1  0.827142  0.520803  0.826028  1
  Al  Al8  1  0.172529  0.172529  0.173281  1
  Al  Al9  1  0.172529  0.172529  0.481660  1
  Al  Al10  1  0.172937  0.479483  0.173790  1
  Al  Al11  1  0.479483  0.172937  0.173790  1
  Al  Al12  1  0.617806  0.617806  0.620035  1
  Al  Al13  1  0.617806  0.617806  0.144353  1
  Al  Al14  1  0.145507  0.616874  0.618809  1
  Al  Al15  1  0.616874  0.145507  0.618809  1
  Al  Al16  1  0.381448  0.381448  0.380139  1
  Al  Al17  1  0.381448  0.381448  0.856964  1
  Al  Al18  1  0.381868  0.857061  0.380536  1
  Al  Al19  1  0.857061  0.381868  0.380536  1
  Si  Si20  1  0.826612  0.826612  0.825738  1
  Si  Si21  1  0.826612  0.826612  0.521039  1
  Ir  Ir22  1  0.500157  0.500157  0.499843  1
  Ir  Ir23  1  0.996978  0.507611  0.499993  1
  Ir  Ir24  1  0.507611  0.996978  0.995418  1
  Ir  Ir25  1  0.507611  0.996978  0.499993  1
  Ir  Ir26  1  0.501864  0.501864  0.998136  1
  Ir  Ir27  1  0.996978  0.507611  0.995418  1
  Ir  Ir28  1  0.994488  0.994488  0.505512  1
