# generated using pymatgen
data_Nd2Dy3Lu3(Si3Rh)4
_symmetry_space_group_name_H-M   'P 1'
_cell_length_a   8.18240200
_cell_length_b   8.18242079
_cell_length_c   7.96723000
_cell_angle_alpha   90.00000000
_cell_angle_beta   90.00000000
_cell_angle_gamma   119.99986369
_symmetry_Int_Tables_number   1
_chemical_formula_structural   Nd2Dy3Lu3(Si3Rh)4
_chemical_formula_sum   'Nd2 Dy3 Lu3 Si12 Rh4'
_cell_volume   461.95663064
_cell_formula_units_Z   1
loop_
 _symmetry_equiv_pos_site_id
 _symmetry_equiv_pos_as_xyz
  1  'x, y, z'
loop_
 _atom_site_type_symbol
 _atom_site_label
 _atom_site_symmetry_multiplicity
 _atom_site_fract_x
 _atom_site_fract_y
 _atom_site_fract_z
 _atom_site_occupancy
  Nd  Nd0  1  0.000002  0.000001  0.250000  1
  Nd  Nd1  1  0.000000  0.000000  0.750000  1
  Dy  Dy2  1  0.491700  0.508299  0.750000  1
  Dy  Dy3  1  0.491701  0.983401  0.750000  1
  Dy  Dy4  1  0.016600  0.508299  0.750000  1
  Lu  Lu5  1  0.508855  0.491141  0.250000  1
  Lu  Lu6  1  0.508855  0.017713  0.250000  1
  Lu  Lu7  1  0.982286  0.491141  0.250000  1
  Si  Si8  1  0.168837  0.831164  0.499138  1
  Si  Si9  1  0.168836  0.337673  0.499138  1
  Si  Si10  1  0.662327  0.831164  0.499138  1
  Si  Si11  1  0.831717  0.168284  0.495844  1
  Si  Si12  1  0.831717  0.663433  0.495844  1
  Si  Si13  1  0.336568  0.168284  0.495844  1
  Si  Si14  1  0.831717  0.168284  0.004156  1
  Si  Si15  1  0.831717  0.663433  0.004156  1
  Si  Si16  1  0.336568  0.168284  0.004156  1
  Si  Si17  1  0.168837  0.831164  0.000862  1
  Si  Si18  1  0.168836  0.337673  0.000862  1
  Si  Si19  1  0.662327  0.831164  0.000862  1
  Rh  Rh20  1  0.333334  0.666669  0.456262  1
  Rh  Rh21  1  0.666665  0.333333  0.527353  1
  Rh  Rh22  1  0.666665  0.333333  0.972647  1
  Rh  Rh23  1  0.333334  0.666669  0.043738  1
