# generated using pymatgen
data_Ba2GdFeO5
_symmetry_space_group_name_H-M   'P 1'
_cell_length_a   6.13538600
_cell_length_b   6.26023700
_cell_length_c   16.22276000
_cell_angle_alpha   90.00000000
_cell_angle_beta   90.00000000
_cell_angle_gamma   90.00000000
_symmetry_Int_Tables_number   1
_chemical_formula_structural   Ba2GdFeO5
_chemical_formula_sum   'Ba8 Gd4 Fe4 O20'
_cell_volume   623.09950940
_cell_formula_units_Z   4
loop_
 _symmetry_equiv_pos_site_id
 _symmetry_equiv_pos_as_xyz
  1  'x, y, z'
loop_
 _atom_site_type_symbol
 _atom_site_label
 _atom_site_symmetry_multiplicity
 _atom_site_fract_x
 _atom_site_fract_y
 _atom_site_fract_z
 _atom_site_occupancy
  Ba  Ba0  1  0.002334  0.500794  0.121193  1
  Ba  Ba1  1  0.002334  0.500794  0.378807  1
  Ba  Ba2  1  0.502334  0.999206  0.121193  1
  Ba  Ba3  1  0.502334  0.999206  0.378807  1
  Ba  Ba4  1  0.497666  0.000794  0.621193  1
  Ba  Ba5  1  0.497666  0.000794  0.878807  1
  Ba  Ba6  1  0.997666  0.499206  0.621193  1
  Ba  Ba7  1  0.997666  0.499206  0.878807  1
  Gd  Gd8  1  0.500000  0.500000  0.000000  1
  Gd  Gd9  1  0.500000  0.500000  0.500000  1
  Gd  Gd10  1  0.000000  0.000000  0.500000  1
  Gd  Gd11  1  0.000000  0.000000  0.000000  1
  Fe  Fe12  1  0.490283  0.561018  0.750000  1
  Fe  Fe13  1  0.990283  0.938982  0.750000  1
  Fe  Fe14  1  0.009717  0.061018  0.250000  1
  Fe  Fe15  1  0.509717  0.438982  0.250000  1
  O  O16  1  0.490867  0.578132  0.147974  1
  O  O17  1  0.490867  0.578132  0.352026  1
  O  O18  1  0.217335  0.720257  0.750000  1
  O  O19  1  0.253471  0.753261  0.520868  1
  O  O20  1  0.253471  0.753261  0.979132  1
  O  O21  1  0.753471  0.746739  0.520868  1
  O  O22  1  0.753471  0.746739  0.979132  1
  O  O23  1  0.717335  0.779743  0.750000  1
  O  O24  1  0.990867  0.921868  0.147974  1
  O  O25  1  0.990867  0.921868  0.352026  1
  O  O26  1  0.009133  0.078132  0.647974  1
  O  O27  1  0.009133  0.078132  0.852026  1
  O  O28  1  0.282665  0.220257  0.250000  1
  O  O29  1  0.246529  0.253261  0.020868  1
  O  O30  1  0.246529  0.253261  0.479132  1
  O  O31  1  0.746529  0.246739  0.020868  1
  O  O32  1  0.746529  0.246739  0.479132  1
  O  O33  1  0.782665  0.279743  0.250000  1
  O  O34  1  0.509133  0.421868  0.647974  1
  O  O35  1  0.509133  0.421868  0.852026  1
