# generated using pymatgen
data_S6I
_symmetry_space_group_name_H-M   'P 1'
_cell_length_a   15.45595532
_cell_length_b   15.45595466
_cell_length_c   15.45595553
_cell_angle_alpha   118.78070798
_cell_angle_beta   118.78070944
_cell_angle_gamma   118.78070575
_symmetry_Int_Tables_number   1
_chemical_formula_structural   S6I
_chemical_formula_sum   'S24 I4'
_cell_volume   1053.32775930
_cell_formula_units_Z   4
loop_
 _symmetry_equiv_pos_site_id
 _symmetry_equiv_pos_as_xyz
  1  'x, y, z'
loop_
 _atom_site_type_symbol
 _atom_site_label
 _atom_site_symmetry_multiplicity
 _atom_site_fract_x
 _atom_site_fract_y
 _atom_site_fract_z
 _atom_site_occupancy
  S  S0  1  0.030065  0.626010  0.626010  1
  S  S1  1  0.626010  0.626010  0.030065  1
  S  S2  1  0.626010  0.030065  0.626010  1
  S  S3  1  0.241161  0.850855  0.723827  1
  S  S4  1  0.850855  0.723827  0.241161  1
  S  S5  1  0.723827  0.241161  0.850855  1
  S  S6  1  0.850855  0.241161  0.723827  1
  S  S7  1  0.241161  0.723827  0.850855  1
  S  S8  1  0.723827  0.850855  0.241161  1
  S  S9  1  0.103169  0.632570  0.454779  1
  S  S10  1  0.632570  0.454779  0.103169  1
  S  S11  1  0.454779  0.103169  0.632570  1
  S  S12  1  0.632570  0.103169  0.454779  1
  S  S13  1  0.103169  0.454779  0.632570  1
  S  S14  1  0.454779  0.632570  0.103169  1
  S  S15  1  0.352949  0.744247  0.617869  1
  S  S16  1  0.744247  0.617869  0.352949  1
  S  S17  1  0.617869  0.352949  0.744247  1
  S  S18  1  0.744247  0.352949  0.617869  1
  S  S19  1  0.352949  0.617869  0.744247  1
  S  S20  1  0.617869  0.744247  0.352949  1
  S  S21  1  0.188040  0.473259  0.473259  1
  S  S22  1  0.473259  0.473259  0.188040  1
  S  S23  1  0.473259  0.188040  0.473259  1
  I  I24  1  0.065017  0.065017  0.065017  1
  I  I25  1  0.166037  0.978276  0.978276  1
  I  I26  1  0.978276  0.978276  0.166037  1
  I  I27  1  0.978276  0.166037  0.978276  1
