# generated using pymatgen
data_CePrNdP3
_symmetry_space_group_name_H-M   'P 1'
_cell_length_a   7.20418012
_cell_length_b   7.20417991
_cell_length_c   7.20418116
_cell_angle_alpha   146.38258041
_cell_angle_beta   131.85389305
_cell_angle_gamma   60.00091174
_symmetry_Int_Tables_number   1
_chemical_formula_structural   CePrNdP3
_chemical_formula_sum   'Ce1 Pr1 Nd1 P3'
_cell_volume   152.77823041
_cell_formula_units_Z   1
loop_
 _symmetry_equiv_pos_site_id
 _symmetry_equiv_pos_as_xyz
  1  'x, y, z'
loop_
 _atom_site_type_symbol
 _atom_site_label
 _atom_site_symmetry_multiplicity
 _atom_site_fract_x
 _atom_site_fract_y
 _atom_site_fract_z
 _atom_site_occupancy
  Ce  Ce0  1  0.999881  0.999881  0.000000  1
  Pr  Pr1  1  0.332867  0.332867  0.000000  1
  Nd  Nd2  1  0.667162  0.667162  0.000000  1
  P  P3  1  0.501183  0.001183  0.500000  1
  P  P4  1  0.159893  0.659893  0.500000  1
  P  P5  1  0.839013  0.339013  0.500000  1
