# generated using pymatgen
data_Hf18GaMo7WSe
_symmetry_space_group_name_H-M   'P 1'
_cell_length_a   8.72161100
_cell_length_b   8.72160965
_cell_length_c   8.66688500
_cell_angle_alpha   90.00000000
_cell_angle_beta   90.00000000
_cell_angle_gamma   119.99999373
_symmetry_Int_Tables_number   1
_chemical_formula_structural   Hf18GaMo7WSe
_chemical_formula_sum   'Hf18 Ga1 Mo7 W1 Se1'
_cell_volume   570.93550435
_cell_formula_units_Z   1
loop_
 _symmetry_equiv_pos_site_id
 _symmetry_equiv_pos_as_xyz
  1  'x, y, z'
loop_
 _atom_site_type_symbol
 _atom_site_label
 _atom_site_symmetry_multiplicity
 _atom_site_fract_x
 _atom_site_fract_y
 _atom_site_fract_z
 _atom_site_occupancy
  Hf  Hf0  1  0.195704  0.804296  0.453597  1
  Hf  Hf1  1  0.195704  0.391408  0.453597  1
  Hf  Hf2  1  0.608592  0.804296  0.453597  1
  Hf  Hf3  1  0.805128  0.194872  0.545198  1
  Hf  Hf4  1  0.805128  0.610259  0.545198  1
  Hf  Hf5  1  0.389741  0.194872  0.545198  1
  Hf  Hf6  1  0.805293  0.194707  0.954894  1
  Hf  Hf7  1  0.805293  0.610587  0.954894  1
  Hf  Hf8  1  0.389413  0.194707  0.954894  1
  Hf  Hf9  1  0.195485  0.804515  0.046286  1
  Hf  Hf10  1  0.195485  0.390970  0.046286  1
  Hf  Hf11  1  0.609030  0.804515  0.046286  1
  Hf  Hf12  1  0.539714  0.460286  0.250227  1
  Hf  Hf13  1  0.539714  0.079428  0.250227  1
  Hf  Hf14  1  0.920572  0.460286  0.250227  1
  Hf  Hf15  1  0.456802  0.543198  0.749671  1
  Hf  Hf16  1  0.456802  0.913603  0.749671  1
  Hf  Hf17  1  0.086397  0.543198  0.749671  1
  Ga  Ga18  1  0.333333  0.666667  0.249625  1
  Mo  Mo19  1  0.889524  0.110476  0.250067  1
  Mo  Mo20  1  0.889524  0.779049  0.250067  1
  Mo  Mo21  1  0.220951  0.110476  0.250067  1
  Mo  Mo22  1  0.110408  0.889592  0.750068  1
  Mo  Mo23  1  0.110408  0.220816  0.750068  1
  Mo  Mo24  1  0.779184  0.889592  0.750068  1
  Mo  Mo25  1  0.000000  0.000000  0.499963  1
  W  W26  1  0.000000  0.000000  0.000229  1
  Se  Se27  1  0.666667  0.333333  0.750160  1
