# generated using pymatgen
data_Ta8BeNiTe8
_symmetry_space_group_name_H-M   'P 1'
_cell_length_a   4.82914100
_cell_length_b   10.85607200
_cell_length_c   18.82027500
_cell_angle_alpha   90.00000000
_cell_angle_beta   90.00000000
_cell_angle_gamma   90.00000000
_symmetry_Int_Tables_number   1
_chemical_formula_structural   Ta8BeNiTe8
_chemical_formula_sum   'Ta16 Be2 Ni2 Te16'
_cell_volume   986.66237207
_cell_formula_units_Z   2
loop_
 _symmetry_equiv_pos_site_id
 _symmetry_equiv_pos_as_xyz
  1  'x, y, z'
loop_
 _atom_site_type_symbol
 _atom_site_label
 _atom_site_symmetry_multiplicity
 _atom_site_fract_x
 _atom_site_fract_y
 _atom_site_fract_z
 _atom_site_occupancy
  Ta  Ta0  1  0.495155  0.563277  0.384743  1
  Ta  Ta1  1  0.495155  0.436723  0.615257  1
  Ta  Ta2  1  0.504845  0.063277  0.115257  1
  Ta  Ta3  1  0.504845  0.936723  0.884743  1
  Ta  Ta4  1  0.488223  0.701360  0.535970  1
  Ta  Ta5  1  0.488223  0.298640  0.464030  1
  Ta  Ta6  1  0.511777  0.201360  0.964030  1
  Ta  Ta7  1  0.511777  0.798640  0.035970  1
  Ta  Ta8  1  0.009523  0.687160  0.443786  1
  Ta  Ta9  1  0.009523  0.312840  0.556214  1
  Ta  Ta10  1  0.990477  0.187160  0.056214  1
  Ta  Ta11  1  0.990477  0.812840  0.943786  1
  Ta  Ta12  1  0.006454  0.402065  0.393077  1
  Ta  Ta13  1  0.006454  0.597935  0.606923  1
  Ta  Ta14  1  0.993546  0.902065  0.106923  1
  Ta  Ta15  1  0.993546  0.097935  0.893077  1
  Be  Be16  1  0.249665  0.500000  0.500000  1
  Be  Be17  1  0.750335  0.000000  0.000000  1
  Ni  Ni18  1  0.750844  0.500000  0.500000  1
  Ni  Ni19  1  0.249156  0.000000  0.000000  1
  Te  Te20  1  0.988701  0.848724  0.563183  1
  Te  Te21  1  0.988701  0.151276  0.436817  1
  Te  Te22  1  0.011299  0.348724  0.936817  1
  Te  Te23  1  0.011299  0.651276  0.063183  1
  Te  Te24  1  0.509111  0.332208  0.314161  1
  Te  Te25  1  0.509111  0.667792  0.685839  1
  Te  Te26  1  0.490889  0.832208  0.185839  1
  Te  Te27  1  0.490889  0.167792  0.814161  1
  Te  Te28  1  0.510383  0.823971  0.402068  1
  Te  Te29  1  0.510383  0.176029  0.597932  1
  Te  Te30  1  0.489617  0.323971  0.097932  1
  Te  Te31  1  0.489617  0.676029  0.902068  1
  Te  Te32  1  0.992067  0.607805  0.299681  1
  Te  Te33  1  0.992067  0.392195  0.700319  1
  Te  Te34  1  0.007933  0.107805  0.200319  1
  Te  Te35  1  0.007933  0.892195  0.799681  1
