# generated using pymatgen
data_ErTmSe6
_symmetry_space_group_name_H-M   'P 1'
_cell_length_a   12.28453700
_cell_length_b   12.28453779
_cell_length_c   3.96215300
_cell_angle_alpha   90.00000000
_cell_angle_beta   90.00000000
_cell_angle_gamma   161.51744421
_symmetry_Int_Tables_number   1
_chemical_formula_structural   ErTmSe6
_chemical_formula_sum   'Er1 Tm1 Se6'
_cell_volume   189.55267696
_cell_formula_units_Z   1
loop_
 _symmetry_equiv_pos_site_id
 _symmetry_equiv_pos_as_xyz
  1  'x, y, z'
loop_
 _atom_site_type_symbol
 _atom_site_label
 _atom_site_symmetry_multiplicity
 _atom_site_fract_x
 _atom_site_fract_y
 _atom_site_fract_z
 _atom_site_occupancy
  Er  Er0  1  0.828789  0.171211  0.000000  1
  Tm  Tm1  1  0.171127  0.828873  0.500000  1
  Se  Se2  1  0.423978  0.576022  0.000000  1
  Se  Se3  1  0.576145  0.423855  0.500000  1
  Se  Se4  1  0.705961  0.294039  0.000000  1
  Se  Se5  1  0.293867  0.706133  0.500000  1
  Se  Se6  1  0.076643  0.923357  0.000000  1
  Se  Se7  1  0.923489  0.076511  0.500000  1
