# generated using pymatgen
data_SrLa(Cu4Pt)2
_symmetry_space_group_name_H-M   'P 1'
_cell_length_a   4.09966000
_cell_length_b   5.37697644
_cell_length_c   8.90516018
_cell_angle_alpha   93.52910952
_cell_angle_beta   90.00000000
_cell_angle_gamma   90.00000000
_symmetry_Int_Tables_number   1
_chemical_formula_structural   SrLa(Cu4Pt)2
_chemical_formula_sum   'Sr1 La1 Cu8 Pt2'
_cell_volume   195.93109025
_cell_formula_units_Z   1
loop_
 _symmetry_equiv_pos_site_id
 _symmetry_equiv_pos_as_xyz
  1  'x, y, z'
loop_
 _atom_site_type_symbol
 _atom_site_label
 _atom_site_symmetry_multiplicity
 _atom_site_fract_x
 _atom_site_fract_y
 _atom_site_fract_z
 _atom_site_occupancy
  Sr  Sr0  1  0.000000  0.500000  0.500000  1
  La  La1  1  0.000000  0.000000  0.000000  1
  Cu  Cu2  1  0.000000  0.978689  0.337049  1
  Cu  Cu3  1  0.000000  0.484917  0.839286  1
  Cu  Cu4  1  0.000000  0.515083  0.160714  1
  Cu  Cu5  1  0.000000  0.021311  0.662951  1
  Cu  Cu6  1  0.500000  0.500000  0.000000  1
  Cu  Cu7  1  0.500000  0.000000  0.500000  1
  Cu  Cu8  1  0.500000  0.743353  0.249436  1
  Cu  Cu9  1  0.500000  0.256647  0.750564  1
  Pt  Pt10  1  0.500000  0.237533  0.241537  1
  Pt  Pt11  1  0.500000  0.762467  0.758463  1
