# generated using pymatgen
data_Fe5Tc6MoI24
_symmetry_space_group_name_H-M   'P 1'
_cell_length_a   10.55494626
_cell_length_b   10.55609310
_cell_length_c   12.67992800
_cell_angle_alpha   89.80441626
_cell_angle_beta   89.81969757
_cell_angle_gamma   105.55058365
_symmetry_Int_Tables_number   1
_chemical_formula_structural   Fe5Tc6MoI24
_chemical_formula_sum   'Fe5 Tc6 Mo1 I24'
_cell_volume   1361.04861533
_cell_formula_units_Z   1
loop_
 _symmetry_equiv_pos_site_id
 _symmetry_equiv_pos_as_xyz
  1  'x, y, z'
loop_
 _atom_site_type_symbol
 _atom_site_label
 _atom_site_symmetry_multiplicity
 _atom_site_fract_x
 _atom_site_fract_y
 _atom_site_fract_z
 _atom_site_occupancy
  Fe  Fe0  1  0.622719  0.621854  0.436085  1
  Fe  Fe1  1  0.384769  0.383936  0.575838  1
  Fe  Fe2  1  0.873996  0.873449  0.928819  1
  Fe  Fe3  1  0.121663  0.123093  0.069458  1
  Fe  Fe4  1  0.575947  0.575162  0.631055  1
  Tc  Tc5  1  0.429408  0.428905  0.374887  1
  Tc  Tc6  1  0.927775  0.926821  0.131704  1
  Tc  Tc7  1  0.073322  0.071241  0.867467  1
  Tc  Tc8  1  0.615243  0.384009  0.500100  1
  Tc  Tc9  1  0.883156  0.117596  0.000993  1
  Tc  Tc10  1  0.384721  0.614168  0.500110  1
  Mo  Mo11  1  0.111150  0.887851  0.999685  1
  I  I12  1  0.826070  0.585722  0.554984  1
  I  I13  1  0.410829  0.176393  0.436803  1
  I  I14  1  0.678766  0.913927  0.066601  1
  I  I15  1  0.088696  0.320824  0.936007  1
  I  I16  1  0.176665  0.409997  0.436835  1
  I  I17  1  0.586372  0.825313  0.554794  1
  I  I18  1  0.324385  0.093322  0.936670  1
  I  I19  1  0.909519  0.674779  0.066650  1
  I  I20  1  0.669094  0.435343  0.290028  1
  I  I21  1  0.560229  0.320024  0.707191  1
  I  I22  1  0.829897  0.064167  0.792973  1
  I  I23  1  0.937432  0.171383  0.209126  1
  I  I24  1  0.320629  0.558962  0.707137  1
  I  I25  1  0.436399  0.668753  0.290092  1
  I  I26  1  0.172401  0.941126  0.210882  1
  I  I27  1  0.061447  0.826732  0.788719  1
  I  I28  1  0.671009  0.671712  0.834192  1
  I  I29  1  0.331968  0.332182  0.167939  1
  I  I30  1  0.834354  0.831762  0.333371  1
  I  I31  1  0.168915  0.165979  0.666564  1
  I  I32  1  0.781153  0.219829  0.498305  1
  I  I33  1  0.719495  0.282274  0.999869  1
  I  I34  1  0.220313  0.780058  0.498391  1
  I  I35  1  0.280093  0.721352  0.999679  1
