# generated using pymatgen
data_LiEu2CdP3
_symmetry_space_group_name_H-M   'P 1'
_cell_length_a   8.03114263
_cell_length_b   8.03114215
_cell_length_c   11.84917838
_cell_angle_alpha   54.88772217
_cell_angle_beta   54.88772540
_cell_angle_gamma   30.32368457
_symmetry_Int_Tables_number   1
_chemical_formula_structural   LiEu2CdP3
_chemical_formula_sum   'Li2 Eu4 Cd2 P6'
_cell_volume   309.86498034
_cell_formula_units_Z   2
loop_
 _symmetry_equiv_pos_site_id
 _symmetry_equiv_pos_as_xyz
  1  'x, y, z'
loop_
 _atom_site_type_symbol
 _atom_site_label
 _atom_site_symmetry_multiplicity
 _atom_site_fract_x
 _atom_site_fract_y
 _atom_site_fract_z
 _atom_site_occupancy
  Li  Li0  1  0.041499  0.041499  0.674531  1
  Li  Li1  1  0.958501  0.958501  0.325469  1
  Eu  Eu2  1  0.268898  0.268898  0.332116  1
  Eu  Eu3  1  0.731102  0.731102  0.667884  1
  Eu  Eu4  1  0.393295  0.393295  0.949124  1
  Eu  Eu5  1  0.606705  0.606705  0.050876  1
  Cd  Cd6  1  0.412263  0.412263  0.655397  1
  Cd  Cd7  1  0.587737  0.587737  0.344603  1
  P  P8  1  0.067883  0.067883  0.886346  1
  P  P9  1  0.932117  0.932117  0.113654  1
  P  P10  1  0.164386  0.164386  0.180996  1
  P  P11  1  0.835614  0.835614  0.819004  1
  P  P12  1  0.372645  0.372645  0.469192  1
  P  P13  1  0.627355  0.627355  0.530808  1
