# generated using pymatgen
data_CeDy2Th(ReC2)2
_symmetry_space_group_name_H-M   'P 1'
_cell_length_a   5.24710800
_cell_length_b   6.59229300
_cell_length_c   9.88305300
_cell_angle_alpha   90.00000000
_cell_angle_beta   90.00000000
_cell_angle_gamma   90.00000000
_symmetry_Int_Tables_number   1
_chemical_formula_structural   CeDy2Th(ReC2)2
_chemical_formula_sum   'Ce2 Dy4 Th2 Re4 C8'
_cell_volume   341.85948130
_cell_formula_units_Z   2
loop_
 _symmetry_equiv_pos_site_id
 _symmetry_equiv_pos_as_xyz
  1  'x, y, z'
loop_
 _atom_site_type_symbol
 _atom_site_label
 _atom_site_symmetry_multiplicity
 _atom_site_fract_x
 _atom_site_fract_y
 _atom_site_fract_z
 _atom_site_occupancy
  Ce  Ce0  1  0.250000  0.470746  0.783609  1
  Ce  Ce1  1  0.750000  0.029254  0.283609  1
  Dy  Dy2  1  0.250000  0.821916  0.051579  1
  Dy  Dy3  1  0.750000  0.678084  0.551579  1
  Dy  Dy4  1  0.250000  0.319827  0.448693  1
  Dy  Dy5  1  0.750000  0.180173  0.948693  1
  Th  Th6  1  0.250000  0.971512  0.716683  1
  Th  Th7  1  0.750000  0.528488  0.216683  1
  Re  Re8  1  0.250000  0.274565  0.135609  1
  Re  Re9  1  0.750000  0.225435  0.635609  1
  Re  Re10  1  0.250000  0.775077  0.364421  1
  Re  Re11  1  0.750000  0.724923  0.864421  1
  C  C12  1  0.250000  0.174341  0.947840  1
  C  C13  1  0.750000  0.827895  0.051903  1
  C  C14  1  0.250000  0.672105  0.551903  1
  C  C15  1  0.750000  0.325659  0.447840  1
  C  C16  1  0.250000  0.041835  0.259963  1
  C  C17  1  0.750000  0.458165  0.759963  1
  C  C18  1  0.250000  0.542098  0.239701  1
  C  C19  1  0.750000  0.957902  0.739701  1
