# generated using pymatgen
data_Dy4Ho7(Lu3Bi4)3
_symmetry_space_group_name_H-M   'P 1'
_cell_length_a   8.18425049
_cell_length_b   9.43265022
_cell_length_c   11.92981200
_cell_angle_alpha   89.99958088
_cell_angle_beta   89.95534930
_cell_angle_gamma   90.01234851
_symmetry_Int_Tables_number   1
_chemical_formula_structural   Dy4Ho7(Lu3Bi4)3
_chemical_formula_sum   'Dy4 Ho7 Lu9 Bi12'
_cell_volume   920.97130904
_cell_formula_units_Z   1
loop_
 _symmetry_equiv_pos_site_id
 _symmetry_equiv_pos_as_xyz
  1  'x, y, z'
loop_
 _atom_site_type_symbol
 _atom_site_label
 _atom_site_symmetry_multiplicity
 _atom_site_fract_x
 _atom_site_fract_y
 _atom_site_fract_z
 _atom_site_occupancy
  Dy  Dy0  1  0.313527  0.250264  0.218018  1
  Dy  Dy1  1  0.813430  0.250211  0.282344  1
  Dy  Dy2  1  0.686408  0.750362  0.782164  1
  Dy  Dy3  1  0.186844  0.749879  0.717939  1
  Ho  Ho4  1  0.352509  0.750295  0.217259  1
  Ho  Ho5  1  0.852770  0.750347  0.282767  1
  Ho  Ho6  1  0.648079  0.250626  0.782503  1
  Ho  Ho7  1  0.147056  0.250313  0.717042  1
  Ho  Ho8  1  0.692126  0.564693  0.059209  1
  Ho  Ho9  1  0.191475  0.935056  0.441001  1
  Ho  Ho10  1  0.308026  0.064781  0.940632  1
  Lu  Lu11  1  0.807570  0.433359  0.559238  1
  Lu  Lu12  1  0.308020  0.432977  0.940828  1
  Lu  Lu13  1  0.808126  0.066751  0.558964  1
  Lu  Lu14  1  0.691897  0.932949  0.059212  1
  Lu  Lu15  1  0.192175  0.567073  0.440879  1
  Lu  Lu16  1  0.477852  0.250121  0.489110  1
  Lu  Lu17  1  0.977317  0.250205  0.010933  1
  Lu  Lu18  1  0.522981  0.749974  0.510894  1
  Lu  Lu19  1  0.022710  0.750322  0.988983  1
  Bi  Bi20  1  0.403273  0.747849  0.957836  1
  Bi  Bi21  1  0.902543  0.749354  0.542543  1
  Bi  Bi22  1  0.596737  0.247761  0.042106  1
  Bi  Bi23  1  0.096574  0.252748  0.457969  1
  Bi  Bi24  1  0.565764  0.995675  0.327258  1
  Bi  Bi25  1  0.065475  0.504680  0.172892  1
  Bi  Bi26  1  0.434753  0.495599  0.672659  1
  Bi  Bi27  1  0.934245  0.004709  0.826991  1
  Bi  Bi28  1  0.434907  0.004632  0.672852  1
  Bi  Bi29  1  0.934642  0.495915  0.826859  1
  Bi  Bi30  1  0.565014  0.504622  0.327187  1
  Bi  Bi31  1  0.065174  0.995896  0.172933  1
