# generated using pymatgen
data_Pr2YEr3Ta2O14
_symmetry_space_group_name_H-M   'P 1'
_cell_length_a   6.48899676
_cell_length_b   6.49835728
_cell_length_c   7.60327000
_cell_angle_alpha   90.00000000
_cell_angle_beta   90.00000000
_cell_angle_gamma   109.23192071
_symmetry_Int_Tables_number   1
_chemical_formula_structural   Pr2YEr3Ta2O14
_chemical_formula_sum   'Pr2 Y1 Er3 Ta2 O14'
_cell_volume   302.72084983
_cell_formula_units_Z   1
loop_
 _symmetry_equiv_pos_site_id
 _symmetry_equiv_pos_as_xyz
  1  'x, y, z'
loop_
 _atom_site_type_symbol
 _atom_site_label
 _atom_site_symmetry_multiplicity
 _atom_site_fract_x
 _atom_site_fract_y
 _atom_site_fract_z
 _atom_site_occupancy
  Pr  Pr0  1  0.501219  0.500749  0.499173  1
  Pr  Pr1  1  0.501219  0.500749  0.000827  1
  Y  Y2  1  0.999416  0.467522  0.750000  1
  Er  Er3  1  0.532238  0.001602  0.750000  1
  Er  Er4  1  0.001344  0.533154  0.250000  1
  Er  Er5  1  0.467521  0.998790  0.250000  1
  Ta  Ta6  1  0.999978  0.000396  0.499183  1
  Ta  Ta7  1  0.999978  0.000396  0.000817  1
  O  O8  1  0.679703  0.933717  0.466669  1
  O  O9  1  0.929518  0.678754  0.529302  1
  O  O10  1  0.679703  0.933717  0.033331  1
  O  O11  1  0.929518  0.678754  0.970698  1
  O  O12  1  0.319617  0.066434  0.533739  1
  O  O13  1  0.068449  0.319268  0.464779  1
  O  O14  1  0.319617  0.066434  0.966261  1
  O  O15  1  0.068449  0.319268  0.035221  1
  O  O16  1  0.935367  0.062508  0.750000  1
  O  O17  1  0.066375  0.936292  0.250000  1
  O  O18  1  0.364386  0.640767  0.750000  1
  O  O19  1  0.638870  0.360160  0.250000  1
  O  O20  1  0.642693  0.354249  0.750000  1
  O  O21  1  0.354822  0.646318  0.250000  1
