# generated using pymatgen
data_Ni8Mo12As4CN3
_symmetry_space_group_name_H-M   'P 1'
_cell_length_a   7.89056274
_cell_length_b   7.89056289
_cell_length_c   7.90105948
_cell_angle_alpha   60.04393467
_cell_angle_beta   60.04393852
_cell_angle_gamma   60.00000511
_symmetry_Int_Tables_number   1
_chemical_formula_structural   Ni8Mo12As4CN3
_chemical_formula_sum   'Ni8 Mo12 As4 C1 N3'
_cell_volume   348.07626490
_cell_formula_units_Z   1
loop_
 _symmetry_equiv_pos_site_id
 _symmetry_equiv_pos_as_xyz
  1  'x, y, z'
loop_
 _atom_site_type_symbol
 _atom_site_label
 _atom_site_symmetry_multiplicity
 _atom_site_fract_x
 _atom_site_fract_y
 _atom_site_fract_z
 _atom_site_occupancy
  Ni  Ni0  1  0.917739  0.917739  0.246783  1
  Ni  Ni1  1  0.332185  0.332185  0.332510  1
  Ni  Ni2  1  0.246879  0.917815  0.917490  1
  Ni  Ni3  1  0.332185  0.003121  0.332510  1
  Ni  Ni4  1  0.003121  0.332185  0.332510  1
  Ni  Ni5  1  0.332261  0.332261  0.003217  1
  Ni  Ni6  1  0.917815  0.917815  0.917490  1
  Ni  Ni7  1  0.917815  0.246879  0.917490  1
  Mo  Mo8  1  0.688656  0.311304  0.311385  1
  Mo  Mo9  1  0.938155  0.938155  0.562155  1
  Mo  Mo10  1  0.688656  0.688656  0.311385  1
  Mo  Mo11  1  0.688465  0.311845  0.687845  1
  Mo  Mo12  1  0.311304  0.688656  0.311385  1
  Mo  Mo13  1  0.561535  0.938155  0.562155  1
  Mo  Mo14  1  0.561344  0.938696  0.938615  1
  Mo  Mo15  1  0.938155  0.561535  0.562155  1
  Mo  Mo16  1  0.938696  0.561344  0.938615  1
  Mo  Mo17  1  0.311845  0.311845  0.687845  1
  Mo  Mo18  1  0.561344  0.561344  0.938615  1
  Mo  Mo19  1  0.311845  0.688465  0.687845  1
  As  As20  1  0.125000  0.125000  0.125000  1
  As  As21  1  0.625000  0.125000  0.125000  1
  As  As22  1  0.125000  0.125000  0.625000  1
  As  As23  1  0.125000  0.625000  0.125000  1
  C  C24  1  0.625000  0.625000  0.125000  1
  N  N25  1  0.625000  0.625000  0.625000  1
  N  N26  1  0.125000  0.625000  0.625000  1
  N  N27  1  0.625000  0.125000  0.625000  1
