# generated using pymatgen
data_Tm2Al8ReSiPd2
_symmetry_space_group_name_H-M   'P 1'
_cell_length_a   7.58583862
_cell_length_b   7.58584008
_cell_length_c   9.36343600
_cell_angle_alpha   90.00000000
_cell_angle_beta   90.00000000
_cell_angle_gamma   119.13630283
_symmetry_Int_Tables_number   1
_chemical_formula_structural   Tm2Al8ReSiPd2
_chemical_formula_sum   'Tm4 Al16 Re2 Si2 Pd4'
_cell_volume   470.63854261
_cell_formula_units_Z   2
loop_
 _symmetry_equiv_pos_site_id
 _symmetry_equiv_pos_as_xyz
  1  'x, y, z'
loop_
 _atom_site_type_symbol
 _atom_site_label
 _atom_site_symmetry_multiplicity
 _atom_site_fract_x
 _atom_site_fract_y
 _atom_site_fract_z
 _atom_site_occupancy
  Tm  Tm0  1  0.994502  0.679977  0.250000  1
  Tm  Tm1  1  0.005498  0.320023  0.750000  1
  Tm  Tm2  1  0.679977  0.994502  0.250000  1
  Tm  Tm3  1  0.320023  0.005498  0.750000  1
  Al  Al4  1  0.001355  0.334814  0.079183  1
  Al  Al5  1  0.998645  0.665186  0.920817  1
  Al  Al6  1  0.998645  0.665186  0.579183  1
  Al  Al7  1  0.334814  0.001355  0.420817  1
  Al  Al8  1  0.001355  0.334814  0.420817  1
  Al  Al9  1  0.665186  0.998645  0.579183  1
  Al  Al10  1  0.665186  0.998645  0.920817  1
  Al  Al11  1  0.334814  0.001355  0.079183  1
  Al  Al12  1  0.331508  0.331508  0.556621  1
  Al  Al13  1  0.668492  0.668493  0.443379  1
  Al  Al14  1  0.668492  0.668493  0.056621  1
  Al  Al15  1  0.331508  0.331508  0.943379  1
  Al  Al16  1  0.339652  0.550007  0.250000  1
  Al  Al17  1  0.660348  0.449993  0.750000  1
  Al  Al18  1  0.550007  0.339652  0.250000  1
  Al  Al19  1  0.449993  0.660348  0.750000  1
  Re  Re20  1  0.000000  0.000000  0.000000  1
  Re  Re21  1  0.000000  0.000000  0.500000  1
  Si  Si22  1  0.126606  0.126606  0.250000  1
  Si  Si23  1  0.873394  0.873394  0.750000  1
  Pd  Pd24  1  0.672553  0.327447  0.000000  1
  Pd  Pd25  1  0.327447  0.672553  0.000000  1
  Pd  Pd26  1  0.327447  0.672553  0.500000  1
  Pd  Pd27  1  0.672553  0.327447  0.500000  1
