# generated using pymatgen
data_Rb4NiP4Pt
_symmetry_space_group_name_H-M   'P 1'
_cell_length_a   7.93207727
_cell_length_b   7.93207756
_cell_length_c   5.99087116
_cell_angle_alpha   91.29858689
_cell_angle_beta   88.70141076
_cell_angle_gamma   130.15679997
_symmetry_Int_Tables_number   1
_chemical_formula_structural   Rb4NiP4Pt
_chemical_formula_sum   'Rb4 Ni1 P4 Pt1'
_cell_volume   287.99312669
_cell_formula_units_Z   1
loop_
 _symmetry_equiv_pos_site_id
 _symmetry_equiv_pos_as_xyz
  1  'x, y, z'
loop_
 _atom_site_type_symbol
 _atom_site_label
 _atom_site_symmetry_multiplicity
 _atom_site_fract_x
 _atom_site_fract_y
 _atom_site_fract_z
 _atom_site_occupancy
  Rb  Rb0  1  0.786758  0.213242  0.249083  1
  Rb  Rb1  1  0.213242  0.786758  0.750917  1
  Rb  Rb2  1  0.417142  0.582858  0.249349  1
  Rb  Rb3  1  0.582858  0.417142  0.750651  1
  Ni  Ni4  1  0.000000  0.000000  0.500000  1
  P  P5  1  0.934651  0.736738  0.265899  1
  P  P6  1  0.065349  0.263262  0.734101  1
  P  P7  1  0.263262  0.065349  0.265899  1
  P  P8  1  0.736738  0.934651  0.734101  1
  Pt  Pt9  1  0.000000  0.000000  0.000000  1
