# generated using pymatgen
data_Yb3DyAl18CuRh5
_symmetry_space_group_name_H-M   'P 1'
_cell_length_a   7.56686124
_cell_length_b   7.56685508
_cell_length_c   9.50464745
_cell_angle_alpha   90.22248822
_cell_angle_beta   90.17951885
_cell_angle_gamma   119.42856847
_symmetry_Int_Tables_number   1
_chemical_formula_structural   Yb3DyAl18CuRh5
_chemical_formula_sum   'Yb3 Dy1 Al18 Cu1 Rh5'
_cell_volume   473.97923264
_cell_formula_units_Z   1
loop_
 _symmetry_equiv_pos_site_id
 _symmetry_equiv_pos_as_xyz
  1  'x, y, z'
loop_
 _atom_site_type_symbol
 _atom_site_label
 _atom_site_symmetry_multiplicity
 _atom_site_fract_x
 _atom_site_fract_y
 _atom_site_fract_z
 _atom_site_occupancy
  Yb  Yb0  1  0.993475  0.671549  0.750196  1
  Yb  Yb1  1  0.004588  0.327323  0.249788  1
  Yb  Yb2  1  0.673403  0.993998  0.750393  1
  Dy  Dy3  1  0.326981  0.003157  0.250118  1
  Al  Al4  1  0.131568  0.132151  0.751556  1
  Al  Al5  1  0.870776  0.868438  0.248699  1
  Al  Al6  1  0.001338  0.338109  0.573934  1
  Al  Al7  1  0.999739  0.662438  0.424664  1
  Al  Al8  1  0.999717  0.663978  0.073016  1
  Al  Al9  1  0.335495  0.000932  0.927210  1
  Al  Al10  1  0.000871  0.336074  0.927786  1
  Al  Al11  1  0.664216  0.999903  0.073493  1
  Al  Al12  1  0.663290  0.000166  0.424516  1
  Al  Al13  1  0.338181  0.001425  0.574993  1
  Al  Al14  1  0.332801  0.333017  0.048198  1
  Al  Al15  1  0.666461  0.666509  0.956920  1
  Al  Al16  1  0.664112  0.663973  0.543771  1
  Al  Al17  1  0.333885  0.334228  0.450291  1
  Al  Al18  1  0.337976  0.548589  0.749946  1
  Al  Al19  1  0.658582  0.449062  0.250097  1
  Al  Al20  1  0.549173  0.338694  0.749941  1
  Al  Al21  1  0.451647  0.663572  0.250198  1
  Cu  Cu22  1  0.001110  0.000122  0.499193  1
  Rh  Rh23  1  0.670979  0.328481  0.499310  1
  Rh  Rh24  1  0.329348  0.672637  0.499426  1
  Rh  Rh25  1  0.329079  0.672516  0.000778  1
  Rh  Rh26  1  0.670910  0.328223  0.000703  1
  Rh  Rh27  1  0.000301  0.000736  0.000863  1
