# generated using pymatgen
data_NdMgB6Os
_symmetry_space_group_name_H-M   'P 1'
_cell_length_a   3.63750700
_cell_length_b   8.98935800
_cell_length_c   11.45003200
_cell_angle_alpha   90.00000000
_cell_angle_beta   90.00000000
_cell_angle_gamma   90.00000000
_symmetry_Int_Tables_number   1
_chemical_formula_structural   NdMgB6Os
_chemical_formula_sum   'Nd4 Mg4 B24 Os4'
_cell_volume   374.40290921
_cell_formula_units_Z   4
loop_
 _symmetry_equiv_pos_site_id
 _symmetry_equiv_pos_as_xyz
  1  'x, y, z'
loop_
 _atom_site_type_symbol
 _atom_site_label
 _atom_site_symmetry_multiplicity
 _atom_site_fract_x
 _atom_site_fract_y
 _atom_site_fract_z
 _atom_site_occupancy
  Nd  Nd0  1  0.000000  0.322097  0.414525  1
  Nd  Nd1  1  0.000000  0.677903  0.585475  1
  Nd  Nd2  1  0.000000  0.822097  0.085475  1
  Nd  Nd3  1  0.000000  0.177903  0.914525  1
  Mg  Mg4  1  0.000000  0.943721  0.370588  1
  Mg  Mg5  1  0.000000  0.056279  0.629412  1
  Mg  Mg6  1  0.000000  0.443721  0.129412  1
  Mg  Mg7  1  0.000000  0.556279  0.870588  1
  B  B8  1  0.500000  0.557517  0.429393  1
  B  B9  1  0.500000  0.442483  0.570607  1
  B  B10  1  0.500000  0.057517  0.070607  1
  B  B11  1  0.500000  0.942483  0.929393  1
  B  B12  1  0.500000  0.755565  0.415474  1
  B  B13  1  0.500000  0.244435  0.584526  1
  B  B14  1  0.500000  0.255565  0.084526  1
  B  B15  1  0.500000  0.744435  0.915474  1
  B  B16  1  0.500000  0.792915  0.264041  1
  B  B17  1  0.500000  0.207085  0.735958  1
  B  B18  1  0.500000  0.292915  0.235959  1
  B  B19  1  0.500000  0.707085  0.764042  1
  B  B20  1  0.500000  0.626760  0.183333  1
  B  B21  1  0.500000  0.373240  0.816667  1
  B  B22  1  0.500000  0.126760  0.316667  1
  B  B23  1  0.500000  0.873240  0.683333  1
  B  B24  1  0.500000  0.982527  0.214183  1
  B  B25  1  0.500000  0.017473  0.785817  1
  B  B26  1  0.500000  0.482527  0.285817  1
  B  B27  1  0.500000  0.517473  0.714183  1
  B  B28  1  0.500000  0.591056  0.024572  1
  B  B29  1  0.500000  0.408944  0.975428  1
  B  B30  1  0.500000  0.091056  0.475428  1
  B  B31  1  0.500000  0.908944  0.524572  1
  Os  Os32  1  0.000000  0.641556  0.316845  1
  Os  Os33  1  0.000000  0.358444  0.683155  1
  Os  Os34  1  0.000000  0.141556  0.183155  1
  Os  Os35  1  0.000000  0.858444  0.816845  1
