# generated using pymatgen
data_Ta6SnCl18
_symmetry_space_group_name_H-M   'P 1'
_cell_length_a   10.31857742
_cell_length_b   10.31857790
_cell_length_c   10.31857786
_cell_angle_alpha   55.84215811
_cell_angle_beta   55.84214746
_cell_angle_gamma   55.84214729
_symmetry_Int_Tables_number   1
_chemical_formula_structural   Ta6SnCl18
_chemical_formula_sum   'Ta6 Sn1 Cl18'
_cell_volume   701.97871579
_cell_formula_units_Z   1
loop_
 _symmetry_equiv_pos_site_id
 _symmetry_equiv_pos_as_xyz
  1  'x, y, z'
loop_
 _atom_site_type_symbol
 _atom_site_label
 _atom_site_symmetry_multiplicity
 _atom_site_fract_x
 _atom_site_fract_y
 _atom_site_fract_z
 _atom_site_occupancy
  Ta  Ta0  1  0.411366  0.299386  0.648591  1
  Ta  Ta1  1  0.351409  0.588634  0.700614  1
  Ta  Ta2  1  0.700614  0.351409  0.588634  1
  Ta  Ta3  1  0.299386  0.648591  0.411366  1
  Ta  Ta4  1  0.648591  0.411366  0.299386  1
  Ta  Ta5  1  0.588634  0.700614  0.351409  1
  Sn  Sn6  1  0.000000  0.000000  0.000000  1
  Cl  Cl7  1  0.569389  0.167999  0.440097  1
  Cl  Cl8  1  0.228158  0.370906  0.900992  1
  Cl  Cl9  1  0.900992  0.228158  0.370906  1
  Cl  Cl10  1  0.370906  0.900992  0.228158  1
  Cl  Cl11  1  0.771842  0.629094  0.099008  1
  Cl  Cl12  1  0.099008  0.771842  0.629094  1
  Cl  Cl13  1  0.687372  0.949974  0.171732  1
  Cl  Cl14  1  0.949974  0.171732  0.687372  1
  Cl  Cl15  1  0.171732  0.687372  0.949974  1
  Cl  Cl16  1  0.312628  0.050026  0.828268  1
  Cl  Cl17  1  0.050026  0.828268  0.312628  1
  Cl  Cl18  1  0.828268  0.312628  0.050026  1
  Cl  Cl19  1  0.559903  0.430611  0.832001  1
  Cl  Cl20  1  0.167999  0.440097  0.569389  1
  Cl  Cl21  1  0.440097  0.569389  0.167999  1
  Cl  Cl22  1  0.430611  0.832001  0.559903  1
  Cl  Cl23  1  0.832001  0.559903  0.430611  1
  Cl  Cl24  1  0.629094  0.099008  0.771842  1
