# generated using pymatgen
data_NdGd5(BePd5)2
_symmetry_space_group_name_H-M   'P 1'
_cell_length_a   8.28658934
_cell_length_b   8.28659118
_cell_length_c   8.28659200
_cell_angle_alpha   126.26893047
_cell_angle_beta   125.26507066
_cell_angle_gamma   80.27403797
_symmetry_Int_Tables_number   1
_chemical_formula_structural   NdGd5(BePd5)2
_chemical_formula_sum   'Nd1 Gd5 Be2 Pd10'
_cell_volume   361.47557576
_cell_formula_units_Z   1
loop_
 _symmetry_equiv_pos_site_id
 _symmetry_equiv_pos_as_xyz
  1  'x, y, z'
loop_
 _atom_site_type_symbol
 _atom_site_label
 _atom_site_symmetry_multiplicity
 _atom_site_fract_x
 _atom_site_fract_y
 _atom_site_fract_z
 _atom_site_occupancy
  Nd  Nd0  1  0.597254  0.750000  0.847254  1
  Gd  Gd1  1  0.822592  0.052562  0.770031  1
  Gd  Gd2  1  0.217467  0.447438  0.770031  1
  Gd  Gd3  1  0.179051  0.948318  0.230733  1
  Gd  Gd4  1  0.403226  0.250000  0.153226  1
  Gd  Gd5  1  0.782417  0.551682  0.230733  1
  Be  Be6  1  0.201765  0.750000  0.451765  1
  Be  Be7  1  0.794387  0.250000  0.544387  1
  Pd  Pd8  1  0.830400  0.587425  0.640981  1
  Pd  Pd9  1  0.553558  0.310581  0.640981  1
  Pd  Pd10  1  0.445501  0.089587  0.759878  1
  Pd  Pd11  1  0.830400  0.189419  0.242976  1
  Pd  Pd12  1  0.170290  0.410413  0.355913  1
  Pd  Pd13  1  0.445501  0.685623  0.355913  1
  Pd  Pd14  1  0.553558  0.912575  0.242976  1
  Pd  Pd15  1  0.170290  0.814377  0.759878  1
  Pd  Pd16  1  0.001172  0.003109  0.504281  1
  Pd  Pd17  1  0.001172  0.496891  0.998063  1
