# generated using pymatgen
data_Er4Al24Pd(Pt3Au)2
_symmetry_space_group_name_H-M   'P 1'
_cell_length_a   7.56237330
_cell_length_b   7.58058311
_cell_length_c   13.13830048
_cell_angle_alpha   84.58821813
_cell_angle_beta   79.01040728
_cell_angle_gamma   59.91685061
_symmetry_Int_Tables_number   1
_chemical_formula_structural   Er4Al24Pd(Pt3Au)2
_chemical_formula_sum   'Er4 Al24 Pd1 Pt6 Au2'
_cell_volume   639.77533690
_cell_formula_units_Z   1
loop_
 _symmetry_equiv_pos_site_id
 _symmetry_equiv_pos_as_xyz
  1  'x, y, z'
loop_
 _atom_site_type_symbol
 _atom_site_label
 _atom_site_symmetry_multiplicity
 _atom_site_fract_x
 _atom_site_fract_y
 _atom_site_fract_z
 _atom_site_occupancy
  Er  Er0  1  0.392328  0.169605  0.809226  1
  Er  Er1  1  0.607672  0.830395  0.190774  1
  Er  Er2  1  0.733925  0.498604  0.809870  1
  Er  Er3  1  0.266075  0.501396  0.190130  1
  Al  Al4  1  0.683068  0.834006  0.944552  1
  Al  Al5  1  0.316932  0.165994  0.055448  1
  Al  Al6  1  0.145485  0.838827  0.562405  1
  Al  Al7  1  0.854515  0.161173  0.437595  1
  Al  Al8  1  0.487321  0.159895  0.559747  1
  Al  Al9  1  0.512679  0.840105  0.440253  1
  Al  Al10  1  0.224132  0.160247  0.325021  1
  Al  Al11  1  0.775868  0.839753  0.674979  1
  Al  Al12  1  0.439722  0.506663  0.675400  1
  Al  Al13  1  0.560278  0.493337  0.324600  1
  Al  Al14  1  0.108702  0.154652  0.673697  1
  Al  Al15  1  0.891298  0.845348  0.326303  1
  Al  Al16  1  0.353631  0.498718  0.944417  1
  Al  Al17  1  0.646369  0.501282  0.055583  1
  Al  Al18  1  0.015564  0.168024  0.953604  1
  Al  Al19  1  0.984436  0.831976  0.046396  1
  Al  Al20  1  0.195165  0.499608  0.437321  1
  Al  Al21  1  0.804835  0.500392  0.562679  1
  Al  Al22  1  0.732099  0.164283  0.183070  1
  Al  Al23  1  0.267901  0.835717  0.816930  1
  Al  Al24  1  0.060225  0.633762  0.818396  1
  Al  Al25  1  0.939775  0.366238  0.181604  1
  Al  Al26  1  0.853685  0.042905  0.816450  1
  Al  Al27  1  0.146315  0.957095  0.183550  1
  Pd  Pd28  1  0.000000  0.500000  0.000000  1
  Pt  Pt29  1  0.657009  0.171653  0.999741  1
  Pt  Pt30  1  0.342991  0.828347  0.000259  1
  Pt  Pt31  1  0.537346  0.166945  0.362079  1
  Pt  Pt32  1  0.462654  0.833055  0.637921  1
  Pt  Pt33  1  0.779101  0.175580  0.636909  1
  Pt  Pt34  1  0.220899  0.824420  0.363091  1
  Au  Au35  1  0.119698  0.490945  0.638168  1
  Au  Au36  1  0.880302  0.509055  0.361832  1
