# generated using pymatgen
data_Tb2Tm8Si5Sn
_symmetry_space_group_name_H-M   'P 1'
_cell_length_a   8.44644000
_cell_length_b   8.44643838
_cell_length_c   6.29905800
_cell_angle_alpha   90.00000000
_cell_angle_beta   90.00000000
_cell_angle_gamma   120.34242359
_symmetry_Int_Tables_number   1
_chemical_formula_structural   Tb2Tm8Si5Sn
_chemical_formula_sum   'Tb2 Tm8 Si5 Sn1'
_cell_volume   387.83291616
_cell_formula_units_Z   1
loop_
 _symmetry_equiv_pos_site_id
 _symmetry_equiv_pos_as_xyz
  1  'x, y, z'
loop_
 _atom_site_type_symbol
 _atom_site_label
 _atom_site_symmetry_multiplicity
 _atom_site_fract_x
 _atom_site_fract_y
 _atom_site_fract_z
 _atom_site_occupancy
  Tb  Tb0  1  0.766681  0.766681  0.250000  1
  Tb  Tb1  1  0.239495  0.239495  0.750000  1
  Tm  Tm2  1  0.674108  0.331076  0.502816  1
  Tm  Tm3  1  0.331076  0.674108  0.502816  1
  Tm  Tm4  1  0.331076  0.674108  0.997184  1
  Tm  Tm5  1  0.674108  0.331076  0.997184  1
  Tm  Tm6  1  0.241176  0.989259  0.250000  1
  Tm  Tm7  1  0.989259  0.241176  0.250000  1
  Tm  Tm8  1  0.755540  0.998797  0.750000  1
  Tm  Tm9  1  0.998797  0.755540  0.750000  1
  Si  Si10  1  0.603271  0.999549  0.250000  1
  Si  Si11  1  0.999549  0.603271  0.250000  1
  Si  Si12  1  0.606451  0.606451  0.750000  1
  Si  Si13  1  0.394665  0.000420  0.750000  1
  Si  Si14  1  0.000420  0.394665  0.750000  1
  Sn  Sn15  1  0.394327  0.394327  0.250000  1
