# generated using pymatgen
data_Li4SnHg3Pd8
_symmetry_space_group_name_H-M   'P 1'
_cell_length_a   4.18909791
_cell_length_b   7.44286600
_cell_length_c   8.31670490
_cell_angle_alpha   90.00000000
_cell_angle_beta   89.92353266
_cell_angle_gamma   90.00000000
_symmetry_Int_Tables_number   1
_chemical_formula_structural   Li4SnHg3Pd8
_chemical_formula_sum   'Li4 Sn1 Hg3 Pd8'
_cell_volume   259.30543286
_cell_formula_units_Z   1
loop_
 _symmetry_equiv_pos_site_id
 _symmetry_equiv_pos_as_xyz
  1  'x, y, z'
loop_
 _atom_site_type_symbol
 _atom_site_label
 _atom_site_symmetry_multiplicity
 _atom_site_fract_x
 _atom_site_fract_y
 _atom_site_fract_z
 _atom_site_occupancy
  Li  Li0  1  0.247910  0.749999  0.137762  1
  Li  Li1  1  0.745263  0.249999  0.374789  1
  Li  Li2  1  0.252394  0.749999  0.612456  1
  Li  Li3  1  0.752704  0.249999  0.874889  1
  Sn  Sn4  1  0.753333  0.749999  0.875332  1
  Hg  Hg5  1  0.248490  0.249999  0.118202  1
  Hg  Hg6  1  0.746298  0.749999  0.374996  1
  Hg  Hg7  1  0.252366  0.249999  0.631466  1
  Pd  Pd8  1  0.749062  0.506433  0.120061  1
  Pd  Pd9  1  0.749062  0.993567  0.120061  1
  Pd  Pd10  1  0.246457  0.006213  0.374972  1
  Pd  Pd11  1  0.246457  0.493787  0.374972  1
  Pd  Pd12  1  0.752508  0.506347  0.630043  1
  Pd  Pd13  1  0.752508  0.993653  0.630043  1
  Pd  Pd14  1  0.252594  0.980454  0.874976  1
  Pd  Pd15  1  0.252594  0.519546  0.874976  1
