# generated using pymatgen
data_Tm2Al2PdRu
_symmetry_space_group_name_H-M   'P 1'
_cell_length_a   4.19414700
_cell_length_b   6.88792300
_cell_length_c   7.95487700
_cell_angle_alpha   90.00000000
_cell_angle_beta   90.00000000
_cell_angle_gamma   90.00000000
_symmetry_Int_Tables_number   1
_chemical_formula_structural   Tm2Al2PdRu
_chemical_formula_sum   'Tm4 Al4 Pd2 Ru2'
_cell_volume   229.80813608
_cell_formula_units_Z   2
loop_
 _symmetry_equiv_pos_site_id
 _symmetry_equiv_pos_as_xyz
  1  'x, y, z'
loop_
 _atom_site_type_symbol
 _atom_site_label
 _atom_site_symmetry_multiplicity
 _atom_site_fract_x
 _atom_site_fract_y
 _atom_site_fract_z
 _atom_site_occupancy
  Tm  Tm0  1  0.250000  0.034998  0.324403  1
  Tm  Tm1  1  0.250000  0.534998  0.175597  1
  Tm  Tm2  1  0.750000  0.972626  0.683130  1
  Tm  Tm3  1  0.750000  0.472626  0.816870  1
  Al  Al4  1  0.250000  0.137577  0.936644  1
  Al  Al5  1  0.250000  0.637577  0.563356  1
  Al  Al6  1  0.750000  0.856757  0.056465  1
  Al  Al7  1  0.750000  0.356757  0.443535  1
  Pd  Pd8  1  0.750000  0.732258  0.375609  1
  Pd  Pd9  1  0.750000  0.232258  0.124391  1
  Ru  Ru10  1  0.250000  0.265784  0.620621  1
  Ru  Ru11  1  0.250000  0.765784  0.879379  1
