# generated using pymatgen
data_NdSn6(IrRu)2
_symmetry_space_group_name_H-M   'P 1'
_cell_length_a   7.00326966
_cell_length_b   7.00327031
_cell_length_c   7.01890403
_cell_angle_alpha   120.57298261
_cell_angle_beta   120.57298794
_cell_angle_gamma   88.88025500
_symmetry_Int_Tables_number   1
_chemical_formula_structural   NdSn6(IrRu)2
_chemical_formula_sum   'Nd1 Sn6 Ir2 Ru2'
_cell_volume   241.54056693
_cell_formula_units_Z   1
loop_
 _symmetry_equiv_pos_site_id
 _symmetry_equiv_pos_as_xyz
  1  'x, y, z'
loop_
 _atom_site_type_symbol
 _atom_site_label
 _atom_site_symmetry_multiplicity
 _atom_site_fract_x
 _atom_site_fract_y
 _atom_site_fract_z
 _atom_site_occupancy
  Nd  Nd0  1  0.001303  0.001303  0.002607  1
  Sn  Sn1  1  0.467876  0.467876  0.593842  1
  Sn  Sn2  1  0.125966  0.125966  0.593842  1
  Sn  Sn3  1  0.877460  0.530099  0.407560  1
  Sn  Sn4  1  0.530099  0.877460  0.407560  1
  Sn  Sn5  1  0.994812  0.494812  0.989625  1
  Sn  Sn6  1  0.494812  0.994812  0.989625  1
  Ir  Ir7  1  0.396905  0.396905  0.159757  1
  Ir  Ir8  1  0.762852  0.762852  0.159757  1
  Ru  Ru9  1  0.252707  0.595206  0.847913  1
  Ru  Ru10  1  0.595206  0.252707  0.847913  1
