# generated using pymatgen
data_ErPa3(SiPt)4
_symmetry_space_group_name_H-M   'P 1'
_cell_length_a   4.29888100
_cell_length_b   7.11929960
_cell_length_c   7.44278566
_cell_angle_alpha   90.18135164
_cell_angle_beta   90.00000000
_cell_angle_gamma   90.00000000
_symmetry_Int_Tables_number   1
_chemical_formula_structural   ErPa3(SiPt)4
_chemical_formula_sum   'Er1 Pa3 Si4 Pt4'
_cell_volume   227.78547612
_cell_formula_units_Z   1
loop_
 _symmetry_equiv_pos_site_id
 _symmetry_equiv_pos_as_xyz
  1  'x, y, z'
loop_
 _atom_site_type_symbol
 _atom_site_label
 _atom_site_symmetry_multiplicity
 _atom_site_fract_x
 _atom_site_fract_y
 _atom_site_fract_z
 _atom_site_occupancy
  Er  Er0  1  0.750000  0.503893  0.296211  1
  Pa  Pa1  1  0.250000  0.992993  0.798672  1
  Pa  Pa2  1  0.250000  0.496246  0.703874  1
  Pa  Pa3  1  0.750000  0.004024  0.202261  1
  Si  Si4  1  0.250000  0.802583  0.406552  1
  Si  Si5  1  0.250000  0.296815  0.090561  1
  Si  Si6  1  0.750000  0.192740  0.589647  1
  Si  Si7  1  0.750000  0.697359  0.912874  1
  Pt  Pt8  1  0.250000  0.216772  0.418907  1
  Pt  Pt9  1  0.250000  0.699871  0.082477  1
  Pt  Pt10  1  0.750000  0.797750  0.583198  1
  Pt  Pt11  1  0.750000  0.298953  0.914767  1
