# generated using pymatgen
data_Ba4CeIrO8
_symmetry_space_group_name_H-M   'P 1'
_cell_length_a   7.41324975
_cell_length_b   7.41325037
_cell_length_c   6.01450500
_cell_angle_alpha   90.00000000
_cell_angle_beta   90.00000000
_cell_angle_gamma   131.92608136
_symmetry_Int_Tables_number   1
_chemical_formula_structural   Ba4CeIrO8
_chemical_formula_sum   'Ba4 Ce1 Ir1 O8'
_cell_volume   245.92035926
_cell_formula_units_Z   1
loop_
 _symmetry_equiv_pos_site_id
 _symmetry_equiv_pos_as_xyz
  1  'x, y, z'
loop_
 _atom_site_type_symbol
 _atom_site_label
 _atom_site_symmetry_multiplicity
 _atom_site_fract_x
 _atom_site_fract_y
 _atom_site_fract_z
 _atom_site_occupancy
  Ba  Ba0  1  0.356964  0.643036  0.000000  1
  Ba  Ba1  1  0.852850  0.147150  0.500000  1
  Ba  Ba2  1  0.147150  0.852850  0.500000  1
  Ba  Ba3  1  0.643036  0.356964  0.000000  1
  Ce  Ce4  1  0.000000  0.000000  0.000000  1
  Ir  Ir5  1  0.500000  0.500000  0.500000  1
  O  O6  1  0.260838  0.260838  0.736185  1
  O  O7  1  0.739162  0.739162  0.263815  1
  O  O8  1  0.739162  0.739162  0.736185  1
  O  O9  1  0.260838  0.260838  0.263815  1
  O  O10  1  0.164952  0.835048  0.000000  1
  O  O11  1  0.653029  0.346971  0.500000  1
  O  O12  1  0.346971  0.653029  0.500000  1
  O  O13  1  0.835048  0.164952  0.000000  1
