# generated using pymatgen
data_Sr3LaSc2(RhO6)2
_symmetry_space_group_name_H-M   'P 1'
_cell_length_a   5.68982792
_cell_length_b   5.70171584
_cell_length_c   9.86598495
_cell_angle_alpha   54.50528369
_cell_angle_beta   89.97136680
_cell_angle_gamma   90.09074782
_symmetry_Int_Tables_number   1
_chemical_formula_structural   Sr3LaSc2(RhO6)2
_chemical_formula_sum   'Sr3 La1 Sc2 Rh2 O12'
_cell_volume   260.59047814
_cell_formula_units_Z   1
loop_
 _symmetry_equiv_pos_site_id
 _symmetry_equiv_pos_as_xyz
  1  'x, y, z'
loop_
 _atom_site_type_symbol
 _atom_site_label
 _atom_site_symmetry_multiplicity
 _atom_site_fract_x
 _atom_site_fract_y
 _atom_site_fract_z
 _atom_site_occupancy
  Sr  Sr0  1  0.520915  0.246315  0.749107  1
  Sr  Sr1  1  0.977316  0.246343  0.249762  1
  Sr  Sr2  1  0.022258  0.757609  0.750495  1
  La  La3  1  0.469361  0.753156  0.250481  1
  Sc  Sc4  1  0.997803  0.002988  0.997005  1
  Sc  Sc5  1  0.500769  0.996931  0.502985  1
  Rh  Rh6  1  0.999830  0.499929  0.498676  1
  Rh  Rh7  1  0.500120  0.499826  0.001389  1
  O  O8  1  0.711472  0.181406  0.041779  1
  O  O9  1  0.283960  0.801251  0.972729  1
  O  O10  1  0.225359  0.803914  0.460586  1
  O  O11  1  0.782237  0.198812  0.529531  1
  O  O12  1  0.017314  0.685112  0.253887  1
  O  O13  1  0.990517  0.319245  0.742978  1
  O  O14  1  0.507183  0.330694  0.245968  1
  O  O15  1  0.492391  0.683042  0.757083  1
  O  O16  1  0.233686  0.237800  0.039151  1
  O  O17  1  0.771578  0.747084  0.970031  1
  O  O18  1  0.720877  0.751046  0.458900  1
  O  O19  1  0.275054  0.257497  0.527476  1
