# generated using pymatgen
data_SrAcIn3Hg
_symmetry_space_group_name_H-M   'P 1'
_cell_length_a   5.03967400
_cell_length_b   5.03967338
_cell_length_c   7.95702900
_cell_angle_alpha   90.00000000
_cell_angle_beta   90.00000000
_cell_angle_gamma   120.00000404
_symmetry_Int_Tables_number   1
_chemical_formula_structural   SrAcIn3Hg
_chemical_formula_sum   'Sr1 Ac1 In3 Hg1'
_cell_volume   175.01948049
_cell_formula_units_Z   1
loop_
 _symmetry_equiv_pos_site_id
 _symmetry_equiv_pos_as_xyz
  1  'x, y, z'
loop_
 _atom_site_type_symbol
 _atom_site_label
 _atom_site_symmetry_multiplicity
 _atom_site_fract_x
 _atom_site_fract_y
 _atom_site_fract_z
 _atom_site_occupancy
  Sr  Sr0  1  0.000000  0.000000  0.244242  1
  Ac  Ac1  1  0.000000  0.000000  0.756573  1
  In  In2  1  0.666667  0.333333  0.451433  1
  In  In3  1  0.333333  0.666667  0.540547  1
  In  In4  1  0.666667  0.333333  0.035135  1
  Hg  Hg5  1  0.333333  0.666667  0.972070  1
