# generated using pymatgen
data_Li5Ca2Cd
_symmetry_space_group_name_H-M   'P 1'
_cell_length_a   6.00131100
_cell_length_b   6.00131094
_cell_length_c   19.10002900
_cell_angle_alpha   90.00000000
_cell_angle_beta   90.00000000
_cell_angle_gamma   119.99999483
_symmetry_Int_Tables_number   1
_chemical_formula_structural   Li5Ca2Cd
_chemical_formula_sum   'Li15 Ca6 Cd3'
_cell_volume   595.74024994
_cell_formula_units_Z   3
loop_
 _symmetry_equiv_pos_site_id
 _symmetry_equiv_pos_as_xyz
  1  'x, y, z'
loop_
 _atom_site_type_symbol
 _atom_site_label
 _atom_site_symmetry_multiplicity
 _atom_site_fract_x
 _atom_site_fract_y
 _atom_site_fract_z
 _atom_site_occupancy
  Li  Li0  1  0.322031  0.161015  0.126926  1
  Li  Li1  1  0.838987  0.161015  0.126926  1
  Li  Li2  1  0.838986  0.677970  0.126926  1
  Li  Li3  1  0.666668  0.333334  0.250000  1
  Li  Li4  1  0.322031  0.161015  0.373074  1
  Li  Li5  1  0.838987  0.161015  0.373074  1
  Li  Li6  1  0.838986  0.677970  0.373074  1
  Li  Li7  1  0.163545  0.327090  0.625371  1
  Li  Li8  1  0.163546  0.836455  0.625371  1
  Li  Li9  1  0.672910  0.836455  0.625371  1
  Li  Li10  1  0.000000  0.000000  0.750000  1
  Li  Li11  1  0.333334  0.666668  0.750000  1
  Li  Li12  1  0.163545  0.327090  0.874628  1
  Li  Li13  1  0.163546  0.836455  0.874628  1
  Li  Li14  1  0.672910  0.836455  0.874628  1
  Ca  Ca15  1  0.333334  0.666668  0.036018  1
  Ca  Ca16  1  0.333334  0.666668  0.250000  1
  Ca  Ca17  1  0.333334  0.666668  0.463982  1
  Ca  Ca18  1  0.666668  0.333334  0.535293  1
  Ca  Ca19  1  0.666668  0.333334  0.750000  1
  Ca  Ca20  1  0.666668  0.333334  0.964707  1
  Cd  Cd21  1  0.000000  0.000000  0.000023  1
  Cd  Cd22  1  0.000000  0.000000  0.250000  1
  Cd  Cd23  1  0.000000  0.000000  0.499977  1
