# generated using pymatgen
data_Rb5NiO4
_symmetry_space_group_name_H-M   'P 1'
_cell_length_a   11.90058300
_cell_length_b   6.94708401
_cell_length_c   10.78543400
_cell_angle_alpha   82.10909914
_cell_angle_beta   90.00000000
_cell_angle_gamma   90.00000000
_symmetry_Int_Tables_number   1
_chemical_formula_structural   Rb5NiO4
_chemical_formula_sum   'Rb20 Ni4 O16'
_cell_volume   883.23568551
_cell_formula_units_Z   4
loop_
 _symmetry_equiv_pos_site_id
 _symmetry_equiv_pos_as_xyz
  1  'x, y, z'
loop_
 _atom_site_type_symbol
 _atom_site_label
 _atom_site_symmetry_multiplicity
 _atom_site_fract_x
 _atom_site_fract_y
 _atom_site_fract_z
 _atom_site_occupancy
  Rb  Rb0  1  0.919141  0.235117  0.011740  1
  Rb  Rb1  1  0.580859  0.735117  0.011740  1
  Rb  Rb2  1  0.176281  0.171660  0.148763  1
  Rb  Rb3  1  0.323719  0.671660  0.148763  1
  Rb  Rb4  1  0.704245  0.999607  0.237504  1
  Rb  Rb5  1  0.795755  0.499607  0.237504  1
  Rb  Rb6  1  0.070153  0.448927  0.367769  1
  Rb  Rb7  1  0.429847  0.948927  0.367769  1
  Rb  Rb8  1  0.862474  0.078152  0.507053  1
  Rb  Rb9  1  0.362474  0.421848  0.492947  1
  Rb  Rb10  1  0.637526  0.578152  0.507053  1
  Rb  Rb11  1  0.137526  0.921848  0.492947  1
  Rb  Rb12  1  0.570153  0.051073  0.632231  1
  Rb  Rb13  1  0.929847  0.551073  0.632231  1
  Rb  Rb14  1  0.204245  0.500393  0.762496  1
  Rb  Rb15  1  0.295755  0.000393  0.762496  1
  Rb  Rb16  1  0.676281  0.328340  0.851237  1
  Rb  Rb17  1  0.823719  0.828340  0.851237  1
  Rb  Rb18  1  0.419141  0.264883  0.988260  1
  Rb  Rb19  1  0.080859  0.764883  0.988260  1
  Ni  Ni20  1  0.533060  0.382524  0.252376  1
  Ni  Ni21  1  0.966940  0.882524  0.252376  1
  Ni  Ni22  1  0.033060  0.117476  0.747624  1
  Ni  Ni23  1  0.466940  0.617476  0.747624  1
  O  O24  1  0.614003  0.342063  0.105499  1
  O  O25  1  0.885997  0.842063  0.105499  1
  O  O26  1  0.379284  0.306164  0.240432  1
  O  O27  1  0.964048  0.150281  0.270116  1
  O  O28  1  0.120716  0.806164  0.240432  1
  O  O29  1  0.535952  0.650281  0.270116  1
  O  O30  1  0.600587  0.240871  0.394993  1
  O  O31  1  0.899413  0.740871  0.394993  1
  O  O32  1  0.100587  0.259129  0.605007  1
  O  O33  1  0.399413  0.759129  0.605007  1
  O  O34  1  0.464048  0.349719  0.729884  1
  O  O35  1  0.879284  0.193836  0.759568  1
  O  O36  1  0.035952  0.849719  0.729884  1
  O  O37  1  0.620716  0.693836  0.759568  1
  O  O38  1  0.114003  0.157937  0.894501  1
  O  O39  1  0.385997  0.657937  0.894501  1
