# generated using pymatgen
data_YbEr2(Al3Pd2)3
_symmetry_space_group_name_H-M   'P 1'
_cell_length_a   9.37887100
_cell_length_b   9.37887164
_cell_length_c   4.21761800
_cell_angle_alpha   90.00000000
_cell_angle_beta   90.00000000
_cell_angle_gamma   120.00000125
_symmetry_Int_Tables_number   1
_chemical_formula_structural   YbEr2(Al3Pd2)3
_chemical_formula_sum   'Yb1 Er2 Al9 Pd6'
_cell_volume   321.29134237
_cell_formula_units_Z   1
loop_
 _symmetry_equiv_pos_site_id
 _symmetry_equiv_pos_as_xyz
  1  'x, y, z'
loop_
 _atom_site_type_symbol
 _atom_site_label
 _atom_site_symmetry_multiplicity
 _atom_site_fract_x
 _atom_site_fract_y
 _atom_site_fract_z
 _atom_site_occupancy
  Yb  Yb0  1  0.000000  0.000000  0.500000  1
  Er  Er1  1  0.666667  0.333333  0.000000  1
  Er  Er2  1  0.333333  0.666667  0.000000  1
  Al  Al3  1  0.500000  0.000000  0.500000  1
  Al  Al4  1  0.000000  0.500000  0.500000  1
  Al  Al5  1  0.500000  0.500000  0.500000  1
  Al  Al6  1  0.306234  0.000000  0.000000  1
  Al  Al7  1  0.306234  0.306234  0.000000  1
  Al  Al8  1  0.000000  0.693766  0.000000  1
  Al  Al9  1  0.000000  0.306234  0.000000  1
  Al  Al10  1  0.693766  0.693766  0.000000  1
  Al  Al11  1  0.693766  0.000000  0.000000  1
  Pd  Pd12  1  0.816203  0.632404  0.500000  1
  Pd  Pd13  1  0.632404  0.816203  0.500000  1
  Pd  Pd14  1  0.183797  0.816203  0.500000  1
  Pd  Pd15  1  0.183797  0.367596  0.500000  1
  Pd  Pd16  1  0.816203  0.183797  0.500000  1
  Pd  Pd17  1  0.367596  0.183797  0.500000  1
