# generated using pymatgen
data_CeTh3(Ge2Ir)4
_symmetry_space_group_name_H-M   'P 1'
_cell_length_a   9.56617877
_cell_length_b   9.56617793
_cell_length_c   9.56617756
_cell_angle_alpha   153.30736121
_cell_angle_beta   124.33596006
_cell_angle_gamma   62.77580429
_symmetry_Int_Tables_number   1
_chemical_formula_structural   CeTh3(Ge2Ir)4
_chemical_formula_sum   'Ce1 Th3 Ge8 Ir4'
_cell_volume   322.15964404
_cell_formula_units_Z   1
loop_
 _symmetry_equiv_pos_site_id
 _symmetry_equiv_pos_as_xyz
  1  'x, y, z'
loop_
 _atom_site_type_symbol
 _atom_site_label
 _atom_site_symmetry_multiplicity
 _atom_site_fract_x
 _atom_site_fract_y
 _atom_site_fract_z
 _atom_site_occupancy
  Ce  Ce0  1  0.707247  0.207247  0.500000  1
  Th  Th1  1  0.293020  0.793020  0.500000  1
  Th  Th2  1  0.271772  0.000371  0.271401  1
  Th  Th3  1  0.728970  0.000371  0.728599  1
  Ge  Ge4  1  0.578233  0.578233  0.000000  1
  Ge  Ge5  1  0.954291  0.800830  0.153461  1
  Ge  Ge6  1  0.647368  0.800830  0.846539  1
  Ge  Ge7  1  0.040195  0.198021  0.842174  1
  Ge  Ge8  1  0.922875  0.422875  0.500000  1
  Ge  Ge9  1  0.424865  0.424865  0.000000  1
  Ge  Ge10  1  0.076046  0.576046  0.500000  1
  Ge  Ge11  1  0.355847  0.198021  0.157826  1
  Ir  Ir12  1  0.899885  0.646509  0.253376  1
  Ir  Ir13  1  0.100648  0.353127  0.747521  1
  Ir  Ir14  1  0.605604  0.353127  0.252479  1
  Ir  Ir15  1  0.393134  0.646509  0.746624  1
