# generated using pymatgen
data_Er3CuHg3Au2
_symmetry_space_group_name_H-M   'P 1'
_cell_length_a   7.75035300
_cell_length_b   7.75035224
_cell_length_c   3.77768100
_cell_angle_alpha   90.00000000
_cell_angle_beta   90.00000000
_cell_angle_gamma   119.99999897
_symmetry_Int_Tables_number   1
_chemical_formula_structural   Er3CuHg3Au2
_chemical_formula_sum   'Er3 Cu1 Hg3 Au2'
_cell_volume   196.51641941
_cell_formula_units_Z   1
loop_
 _symmetry_equiv_pos_site_id
 _symmetry_equiv_pos_as_xyz
  1  'x, y, z'
loop_
 _atom_site_type_symbol
 _atom_site_label
 _atom_site_symmetry_multiplicity
 _atom_site_fract_x
 _atom_site_fract_y
 _atom_site_fract_z
 _atom_site_occupancy
  Er  Er0  1  0.597891  0.000000  0.000000  1
  Er  Er1  1  0.000000  0.597891  0.000000  1
  Er  Er2  1  0.402109  0.402109  0.000000  1
  Cu  Cu3  1  0.000000  0.000000  0.000000  1
  Hg  Hg4  1  0.252951  0.000000  0.500000  1
  Hg  Hg5  1  0.000000  0.252951  0.500000  1
  Hg  Hg6  1  0.747049  0.747049  0.500000  1
  Au  Au7  1  0.333333  0.666667  0.500000  1
  Au  Au8  1  0.666667  0.333333  0.500000  1
