# generated using pymatgen
data_Dy3Y2Hf3Pt4
_symmetry_space_group_name_H-M   'P 1'
_cell_length_a   4.71936700
_cell_length_b   7.10923737
_cell_length_c   8.33412321
_cell_angle_alpha   89.81730355
_cell_angle_beta   90.00000000
_cell_angle_gamma   90.00000000
_symmetry_Int_Tables_number   1
_chemical_formula_structural   Dy3Y2Hf3Pt4
_chemical_formula_sum   'Dy3 Y2 Hf3 Pt4'
_cell_volume   279.61758161
_cell_formula_units_Z   1
loop_
 _symmetry_equiv_pos_site_id
 _symmetry_equiv_pos_as_xyz
  1  'x, y, z'
loop_
 _atom_site_type_symbol
 _atom_site_label
 _atom_site_symmetry_multiplicity
 _atom_site_fract_x
 _atom_site_fract_y
 _atom_site_fract_z
 _atom_site_occupancy
  Dy  Dy0  1  0.250000  0.353948  0.581875  1
  Dy  Dy1  1  0.250000  0.981722  0.318636  1
  Dy  Dy2  1  0.250000  0.482964  0.177743  1
  Y  Y3  1  0.750000  0.009279  0.675148  1
  Y  Y4  1  0.750000  0.520596  0.828134  1
  Hf  Hf5  1  0.250000  0.853244  0.923528  1
  Hf  Hf6  1  0.750000  0.142014  0.075650  1
  Hf  Hf7  1  0.750000  0.646337  0.420728  1
  Pt  Pt8  1  0.250000  0.224137  0.919888  1
  Pt  Pt9  1  0.250000  0.744997  0.593024  1
  Pt  Pt10  1  0.750000  0.771698  0.096326  1
  Pt  Pt11  1  0.750000  0.269064  0.389320  1
