# generated using pymatgen
data_Np2H2Br3Cl
_symmetry_space_group_name_H-M   'P 1'
_cell_length_a   3.94521300
_cell_length_b   3.94521266
_cell_length_c   14.52286000
_cell_angle_alpha   90.00000000
_cell_angle_beta   90.00000000
_cell_angle_gamma   120.00001124
_symmetry_Int_Tables_number   1
_chemical_formula_structural   Np2H2Br3Cl
_chemical_formula_sum   'Np2 H2 Br3 Cl1'
_cell_volume   195.75984249
_cell_formula_units_Z   1
loop_
 _symmetry_equiv_pos_site_id
 _symmetry_equiv_pos_as_xyz
  1  'x, y, z'
loop_
 _atom_site_type_symbol
 _atom_site_label
 _atom_site_symmetry_multiplicity
 _atom_site_fract_x
 _atom_site_fract_y
 _atom_site_fract_z
 _atom_site_occupancy
  Np  Np0  1  0.000000  0.000000  0.244798  1
  Np  Np1  1  0.000000  0.000000  0.749571  1
  H  H2  1  0.333333  0.666667  0.751110  1
  H  H3  1  0.666667  0.333333  0.248675  1
  Br  Br4  1  0.666667  0.333333  0.884661  1
  Br  Br5  1  0.666667  0.333333  0.615678  1
  Br  Br6  1  0.333333  0.666667  0.380564  1
  Cl  Cl7  1  0.333333  0.666667  0.124942  1
