# generated using pymatgen
data_Pu2SbRh3
_symmetry_space_group_name_H-M   'P 1'
_cell_length_a   5.30264569
_cell_length_b   5.30264553
_cell_length_c   5.30264500
_cell_angle_alpha   64.38019324
_cell_angle_beta   64.38018853
_cell_angle_gamma   64.38020245
_symmetry_Int_Tables_number   1
_chemical_formula_structural   Pu2SbRh3
_chemical_formula_sum   'Pu2 Sb1 Rh3'
_cell_volume   115.56800878
_cell_formula_units_Z   1
loop_
 _symmetry_equiv_pos_site_id
 _symmetry_equiv_pos_as_xyz
  1  'x, y, z'
loop_
 _atom_site_type_symbol
 _atom_site_label
 _atom_site_symmetry_multiplicity
 _atom_site_fract_x
 _atom_site_fract_y
 _atom_site_fract_z
 _atom_site_occupancy
  Pu  Pu0  1  0.381215  0.381215  0.381215  1
  Pu  Pu1  1  0.618785  0.618785  0.618785  1
  Sb  Sb2  1  0.000000  0.000000  0.000000  1
  Rh  Rh3  1  0.500001  0.000000  0.000000  1
  Rh  Rh4  1  0.000000  0.500001  0.000000  1
  Rh  Rh5  1  0.000000  0.000000  0.500001  1
