# generated using pymatgen
data_Nd6AlNi23B6
_symmetry_space_group_name_H-M   'P 1'
_cell_length_a   5.04387440
_cell_length_b   6.92368515
_cell_length_c   13.96787264
_cell_angle_alpha   104.34992105
_cell_angle_beta   100.40195698
_cell_angle_gamma   90.00000055
_symmetry_Int_Tables_number   1
_chemical_formula_structural   Nd6AlNi23B6
_chemical_formula_sum   'Nd6 Al1 Ni23 B6'
_cell_volume   464.29051877
_cell_formula_units_Z   1
loop_
 _symmetry_equiv_pos_site_id
 _symmetry_equiv_pos_as_xyz
  1  'x, y, z'
loop_
 _atom_site_type_symbol
 _atom_site_label
 _atom_site_symmetry_multiplicity
 _atom_site_fract_x
 _atom_site_fract_y
 _atom_site_fract_z
 _atom_site_occupancy
  Nd  Nd0  1  0.504621  0.254621  0.009241  1
  Nd  Nd1  1  0.165178  0.915178  0.330357  1
  Nd  Nd2  1  0.179371  0.429371  0.358740  1
  Nd  Nd3  1  0.832509  0.582509  0.665017  1
  Nd  Nd4  1  0.834147  0.084146  0.668292  1
  Nd  Nd5  1  0.490115  0.740115  0.980231  1
  Al  Al6  1  0.069643  0.319644  0.139286  1
  Ni  Ni7  1  0.999572  0.013660  0.999144  1
  Ni  Ni8  1  0.999572  0.485483  0.999144  1
  Ni  Ni9  1  0.330296  0.024807  0.160072  1
  Ni  Ni10  1  0.829776  0.024807  0.160072  1
  Ni  Ni11  1  0.330296  0.635264  0.160072  1
  Ni  Ni12  1  0.829776  0.635264  0.160072  1
  Ni  Ni13  1  0.611549  0.361548  0.223096  1
  Ni  Ni14  1  0.666209  0.121851  0.332416  1
  Ni  Ni15  1  0.666209  0.710567  0.332416  1
  Ni  Ni16  1  0.723588  0.473588  0.447176  1
  Ni  Ni17  1  0.999504  0.203993  0.500561  1
  Ni  Ni18  1  0.501056  0.203993  0.500561  1
  Ni  Ni19  1  0.999504  0.796568  0.500561  1
  Ni  Ni20  1  0.501056  0.796568  0.500561  1
  Ni  Ni21  1  0.280945  0.530946  0.561890  1
  Ni  Ni22  1  0.333719  0.286236  0.667437  1
  Ni  Ni23  1  0.333719  0.881201  0.667437  1
  Ni  Ni24  1  0.386230  0.636230  0.772461  1
  Ni  Ni25  1  0.167828  0.368424  0.835538  1
  Ni  Ni26  1  0.667712  0.368424  0.835538  1
  Ni  Ni27  1  0.167828  0.967113  0.835538  1
  Ni  Ni28  1  0.667712  0.967113  0.835538  1
  Ni  Ni29  1  0.938490  0.688490  0.876979  1
  B  B30  1  0.042840  0.792840  0.085679  1
  B  B31  1  0.611039  0.861038  0.222076  1
  B  B32  1  0.721232  0.971231  0.442463  1
  B  B33  1  0.278040  0.028039  0.556080  1
  B  B34  1  0.389184  0.139183  0.778367  1
  B  B35  1  0.949950  0.199948  0.899897  1
