# generated using pymatgen
data_La7Yb(Tm3Pt4)4
_symmetry_space_group_name_H-M   'P 1'
_cell_length_a   7.63630191
_cell_length_b   7.69543413
_cell_length_c   14.63307800
_cell_angle_alpha   90.03946820
_cell_angle_beta   89.88677096
_cell_angle_gamma   90.08917726
_symmetry_Int_Tables_number   1
_chemical_formula_structural   La7Yb(Tm3Pt4)4
_chemical_formula_sum   'La7 Yb1 Tm12 Pt16'
_cell_volume   859.90490653
_cell_formula_units_Z   1
loop_
 _symmetry_equiv_pos_site_id
 _symmetry_equiv_pos_as_xyz
  1  'x, y, z'
loop_
 _atom_site_type_symbol
 _atom_site_label
 _atom_site_symmetry_multiplicity
 _atom_site_fract_x
 _atom_site_fract_y
 _atom_site_fract_z
 _atom_site_occupancy
  La  La0  1  0.502121  0.678331  0.594644  1
  La  La1  1  0.001601  0.823234  0.903938  1
  La  La2  1  0.498075  0.323868  0.096005  1
  La  La3  1  0.998496  0.173029  0.406394  1
  La  La4  1  0.497496  0.323746  0.404188  1
  La  La5  1  0.998007  0.176776  0.095427  1
  La  La6  1  0.501669  0.676126  0.902744  1
  Yb  Yb7  1  0.001460  0.822207  0.597643  1
  Tm  Tm8  1  0.660977  0.164273  0.622521  1
  Tm  Tm9  1  0.157148  0.333490  0.874406  1
  Tm  Tm10  1  0.342634  0.834082  0.124004  1
  Tm  Tm11  1  0.845241  0.668894  0.378896  1
  Tm  Tm12  1  0.341027  0.834451  0.376582  1
  Tm  Tm13  1  0.841521  0.665175  0.124609  1
  Tm  Tm14  1  0.658455  0.165705  0.874285  1
  Tm  Tm15  1  0.158474  0.334307  0.623776  1
  Tm  Tm16  1  0.823162  0.505446  0.747959  1
  Tm  Tm17  1  0.319576  0.995323  0.747401  1
  Tm  Tm18  1  0.176312  0.496271  0.250815  1
  Tm  Tm19  1  0.678672  0.003084  0.250712  1
  Pt  Pt20  1  0.674009  0.960974  0.455866  1
  Pt  Pt21  1  0.176459  0.537370  0.044961  1
  Pt  Pt22  1  0.324161  0.038681  0.955184  1
  Pt  Pt23  1  0.826167  0.465305  0.546818  1
  Pt  Pt24  1  0.319309  0.037206  0.545220  1
  Pt  Pt25  1  0.823433  0.461758  0.955096  1
  Pt  Pt26  1  0.676728  0.961491  0.044226  1
  Pt  Pt27  1  0.176522  0.539498  0.456629  1
  Pt  Pt28  1  0.455294  0.371814  0.748579  1
  Pt  Pt29  1  0.955658  0.125779  0.748751  1
  Pt  Pt30  1  0.545944  0.629167  0.251235  1
  Pt  Pt31  1  0.045906  0.871090  0.250426  1
  Pt  Pt32  1  0.689189  0.864607  0.748575  1
  Pt  Pt33  1  0.186187  0.637366  0.749375  1
  Pt  Pt34  1  0.311189  0.135946  0.250694  1
  Pt  Pt35  1  0.811720  0.364131  0.251417  1
