# generated using pymatgen
data_Pr3SmCu2(SeO3)8
_symmetry_space_group_name_H-M   'P 1'
_cell_length_a   7.12235144
_cell_length_b   8.35269192
_cell_length_c   10.85036152
_cell_angle_alpha   110.05248419
_cell_angle_beta   90.38724279
_cell_angle_gamma   89.95045012
_symmetry_Int_Tables_number   1
_chemical_formula_structural   Pr3SmCu2(SeO3)8
_chemical_formula_sum   'Pr3 Sm1 Cu2 Se8 O24'
_cell_volume   606.35148720
_cell_formula_units_Z   1
loop_
 _symmetry_equiv_pos_site_id
 _symmetry_equiv_pos_as_xyz
  1  'x, y, z'
loop_
 _atom_site_type_symbol
 _atom_site_label
 _atom_site_symmetry_multiplicity
 _atom_site_fract_x
 _atom_site_fract_y
 _atom_site_fract_z
 _atom_site_occupancy
  Pr  Pr0  1  0.335487  0.239070  0.584739  1
  Pr  Pr1  1  0.835217  0.261887  0.416301  1
  Pr  Pr2  1  0.664541  0.759605  0.415177  1
  Sm  Sm3  1  0.162186  0.741270  0.588317  1
  Cu  Cu4  1  0.499621  0.498843  0.997737  1
  Cu  Cu5  1  0.999235  0.000104  0.998886  1
  Se  Se6  1  0.177820  0.866329  0.319647  1
  Se  Se7  1  0.676355  0.635106  0.683873  1
  Se  Se8  1  0.326139  0.125133  0.867980  1
  Se  Se9  1  0.827186  0.372799  0.130549  1
  Se  Se10  1  0.673564  0.872675  0.130263  1
  Se  Se11  1  0.171342  0.626921  0.866711  1
  Se  Se12  1  0.319469  0.367335  0.316073  1
  Se  Se13  1  0.823650  0.133228  0.685235  1
  O  O14  1  0.657721  0.090267  0.557097  1
  O  O15  1  0.156600  0.414875  0.445087  1
  O  O16  1  0.346047  0.908140  0.445516  1
  O  O17  1  0.844262  0.593749  0.558145  1
  O  O18  1  0.888698  0.926606  0.655482  1
  O  O19  1  0.386597  0.571302  0.340468  1
  O  O20  1  0.115503  0.074320  0.350823  1
  O  O21  1  0.616409  0.427607  0.654815  1
  O  O22  1  0.490171  0.280428  0.389500  1
  O  O23  1  0.991742  0.222956  0.613879  1
  O  O24  1  0.218454  0.535283  0.701978  1
  O  O25  1  0.720868  0.966826  0.295374  1
  O  O26  1  0.781849  0.467296  0.295334  1
  O  O27  1  0.279719  0.027461  0.703092  1
  O  O28  1  0.120006  0.824977  0.850707  1
  O  O29  1  0.623072  0.674432  0.145819  1
  O  O30  1  0.878406  0.174865  0.146942  1
  O  O31  1  0.376964  0.322095  0.849541  1
  O  O32  1  0.108075  0.175099  0.941482  1
  O  O33  1  0.608468  0.323995  0.055801  1
  O  O34  1  0.891918  0.824929  0.056754  1
  O  O35  1  0.390025  0.674744  0.941476  1
  O  O36  1  0.504661  0.718010  0.608441  1
  O  O37  1  0.011954  0.779430  0.394958  1
