# generated using pymatgen
data_Tm5LuC2I7
_symmetry_space_group_name_H-M   'P 1'
_cell_length_a   10.88617957
_cell_length_b   10.88617900
_cell_length_c   12.77306587
_cell_angle_alpha   58.38172412
_cell_angle_beta   58.38172526
_cell_angle_gamma   20.69267214
_symmetry_Int_Tables_number   1
_chemical_formula_structural   Tm5LuC2I7
_chemical_formula_sum   'Tm5 Lu1 C2 I7'
_cell_volume   452.59742402
_cell_formula_units_Z   1
loop_
 _symmetry_equiv_pos_site_id
 _symmetry_equiv_pos_as_xyz
  1  'x, y, z'
loop_
 _atom_site_type_symbol
 _atom_site_label
 _atom_site_symmetry_multiplicity
 _atom_site_fract_x
 _atom_site_fract_y
 _atom_site_fract_z
 _atom_site_occupancy
  Tm  Tm0  1  0.238436  0.238436  0.801676  1
  Tm  Tm1  1  0.306672  0.306672  0.379037  1
  Tm  Tm2  1  0.137006  0.137006  0.447035  1
  Tm  Tm3  1  0.862260  0.862260  0.553403  1
  Tm  Tm4  1  0.693877  0.693877  0.621206  1
  Lu  Lu5  1  0.761230  0.761230  0.200332  1
  C  C6  1  0.281111  0.281111  0.592776  1
  C  C7  1  0.718969  0.718969  0.406217  1
  I  I8  1  0.161438  0.161438  0.179976  1
  I  I9  1  0.840324  0.840324  0.818777  1
  I  I10  1  0.059541  0.059541  0.718975  1
  I  I11  1  0.940566  0.940566  0.280397  1
  I  I12  1  0.500512  0.500512  0.499284  1
  I  I13  1  0.383440  0.383440  0.076152  1
  I  I14  1  0.614617  0.614617  0.924759  1
