# generated using pymatgen
data_SrCrFe(P2O7)2
_symmetry_space_group_name_H-M   'P 1'
_cell_length_a   4.86890789
_cell_length_b   7.18673922
_cell_length_c   7.94782902
_cell_angle_alpha   89.88912605
_cell_angle_beta   87.52584025
_cell_angle_gamma   73.25627417
_symmetry_Int_Tables_number   1
_chemical_formula_structural   SrCrFe(P2O7)2
_chemical_formula_sum   'Sr1 Cr1 Fe1 P4 O14'
_cell_volume   266.05180730
_cell_formula_units_Z   1
loop_
 _symmetry_equiv_pos_site_id
 _symmetry_equiv_pos_as_xyz
  1  'x, y, z'
loop_
 _atom_site_type_symbol
 _atom_site_label
 _atom_site_symmetry_multiplicity
 _atom_site_fract_x
 _atom_site_fract_y
 _atom_site_fract_z
 _atom_site_occupancy
  Sr  Sr0  1  0.500000  0.000000  0.000000  1
  Cr  Cr1  1  0.000000  0.500000  0.000000  1
  Fe  Fe2  1  0.500000  0.000000  0.500000  1
  P  P3  1  0.117104  0.768144  0.297290  1
  P  P4  1  0.882896  0.231856  0.702710  1
  P  P5  1  0.468824  0.619299  0.755533  1
  P  P6  1  0.531176  0.380701  0.244467  1
  O  O7  1  0.012995  0.754990  0.115757  1
  O  O8  1  0.987005  0.245010  0.884243  1
  O  O9  1  0.683969  0.098957  0.708812  1
  O  O10  1  0.316031  0.901043  0.291188  1
  O  O11  1  0.413049  0.804345  0.653883  1
  O  O12  1  0.586951  0.195655  0.346117  1
  O  O13  1  0.194653  0.564144  0.793778  1
  O  O14  1  0.805347  0.435856  0.206222  1
  O  O15  1  0.380724  0.350722  0.082538  1
  O  O16  1  0.619276  0.649278  0.917462  1
  O  O17  1  0.877818  0.820438  0.431206  1
  O  O18  1  0.122182  0.179562  0.568794  1
  O  O19  1  0.692601  0.446676  0.650311  1
  O  O20  1  0.307399  0.553324  0.349689  1
