# generated using pymatgen
data_HfBeNb4Sn3
_symmetry_space_group_name_H-M   'P 1'
_cell_length_a   8.31625620
_cell_length_b   8.29157374
_cell_length_c   5.59143900
_cell_angle_alpha   90.00000000
_cell_angle_beta   90.00000000
_cell_angle_gamma   119.90185737
_symmetry_Int_Tables_number   1
_chemical_formula_structural   HfBeNb4Sn3
_chemical_formula_sum   'Hf2 Be2 Nb8 Sn6'
_cell_volume   334.23174574
_cell_formula_units_Z   2
loop_
 _symmetry_equiv_pos_site_id
 _symmetry_equiv_pos_as_xyz
  1  'x, y, z'
loop_
 _atom_site_type_symbol
 _atom_site_label
 _atom_site_symmetry_multiplicity
 _atom_site_fract_x
 _atom_site_fract_y
 _atom_site_fract_z
 _atom_site_occupancy
  Hf  Hf0  1  0.749298  0.748814  0.250000  1
  Hf  Hf1  1  0.749298  0.000484  0.750000  1
  Be  Be2  1  0.008345  0.004173  0.000000  1
  Be  Be3  1  0.008345  0.004173  0.500000  1
  Nb  Nb4  1  0.334837  0.667419  0.000000  1
  Nb  Nb5  1  0.667162  0.333581  0.500000  1
  Nb  Nb6  1  0.667162  0.333581  0.000000  1
  Nb  Nb7  1  0.334837  0.667419  0.500000  1
  Nb  Nb8  1  0.249854  0.997742  0.250000  1
  Nb  Nb9  1  0.249854  0.252112  0.750000  1
  Nb  Nb10  1  0.996844  0.752442  0.750000  1
  Nb  Nb11  1  0.996844  0.244402  0.250000  1
  Sn  Sn12  1  0.603712  0.001080  0.250000  1
  Sn  Sn13  1  0.603712  0.602632  0.750000  1
  Sn  Sn14  1  0.001654  0.397418  0.750000  1
  Sn  Sn15  1  0.001654  0.604236  0.250000  1
  Sn  Sn16  1  0.388294  0.388296  0.250000  1
  Sn  Sn17  1  0.388294  0.999998  0.750000  1
