# generated using pymatgen
data_Ta4Al6IrAu
_symmetry_space_group_name_H-M   'P 1'
_cell_length_a   5.20506500
_cell_length_b   5.20506603
_cell_length_c   8.09210400
_cell_angle_alpha   90.00000000
_cell_angle_beta   90.00000000
_cell_angle_gamma   119.99998708
_symmetry_Int_Tables_number   1
_chemical_formula_structural   Ta4Al6IrAu
_chemical_formula_sum   'Ta4 Al6 Ir1 Au1'
_cell_volume   189.86483872
_cell_formula_units_Z   1
loop_
 _symmetry_equiv_pos_site_id
 _symmetry_equiv_pos_as_xyz
  1  'x, y, z'
loop_
 _atom_site_type_symbol
 _atom_site_label
 _atom_site_symmetry_multiplicity
 _atom_site_fract_x
 _atom_site_fract_y
 _atom_site_fract_z
 _atom_site_occupancy
  Ta  Ta0  1  0.333333  0.666667  0.428071  1
  Ta  Ta1  1  0.666667  0.333333  0.571929  1
  Ta  Ta2  1  0.666667  0.333333  0.926356  1
  Ta  Ta3  1  0.333333  0.666667  0.073644  1
  Al  Al4  1  0.828168  0.171832  0.243732  1
  Al  Al5  1  0.828168  0.656335  0.243732  1
  Al  Al6  1  0.343665  0.171832  0.243732  1
  Al  Al7  1  0.171832  0.828168  0.756268  1
  Al  Al8  1  0.171832  0.343665  0.756268  1
  Al  Al9  1  0.656335  0.828168  0.756268  1
  Ir  Ir10  1  0.000000  0.000000  0.000000  1
  Au  Au11  1  0.000000  0.000000  0.500000  1
