# generated using pymatgen
data_Nd2SmSn3Hg2
_symmetry_space_group_name_H-M   'P 1'
_cell_length_a   6.57901137
_cell_length_b   6.57901132
_cell_length_c   10.40373300
_cell_angle_alpha   90.00000000
_cell_angle_beta   90.00000000
_cell_angle_gamma   102.98323520
_symmetry_Int_Tables_number   1
_chemical_formula_structural   Nd2SmSn3Hg2
_chemical_formula_sum   'Nd4 Sm2 Sn6 Hg4'
_cell_volume   438.79707033
_cell_formula_units_Z   2
loop_
 _symmetry_equiv_pos_site_id
 _symmetry_equiv_pos_as_xyz
  1  'x, y, z'
loop_
 _atom_site_type_symbol
 _atom_site_label
 _atom_site_symmetry_multiplicity
 _atom_site_fract_x
 _atom_site_fract_y
 _atom_site_fract_z
 _atom_site_occupancy
  Nd  Nd0  1  0.795911  0.204089  0.000000  1
  Nd  Nd1  1  0.204089  0.795911  0.000000  1
  Nd  Nd2  1  0.204089  0.795911  0.500000  1
  Nd  Nd3  1  0.795911  0.204089  0.500000  1
  Sm  Sm4  1  0.626435  0.626435  0.250000  1
  Sm  Sm5  1  0.373565  0.373565  0.750000  1
  Sn  Sn6  1  0.067224  0.493723  0.250000  1
  Sn  Sn7  1  0.932776  0.506277  0.750000  1
  Sn  Sn8  1  0.493723  0.067224  0.250000  1
  Sn  Sn9  1  0.506277  0.932776  0.750000  1
  Sn  Sn10  1  0.016092  0.016092  0.250000  1
  Sn  Sn11  1  0.983908  0.983908  0.750000  1
  Hg  Hg12  1  0.313483  0.313483  0.041273  1
  Hg  Hg13  1  0.686517  0.686517  0.958727  1
  Hg  Hg14  1  0.686517  0.686517  0.541273  1
  Hg  Hg15  1  0.313483  0.313483  0.458727  1
