# generated using pymatgen
data_Tb5Er2Tm13Pb16
_symmetry_space_group_name_H-M   'P 1'
_cell_length_a   8.15615297
_cell_length_b   8.22260881
_cell_length_c   15.50951361
_cell_angle_alpha   89.98613546
_cell_angle_beta   90.07218593
_cell_angle_gamma   89.96344582
_symmetry_Int_Tables_number   1
_chemical_formula_structural   Tb5Er2Tm13Pb16
_chemical_formula_sum   'Tb5 Er2 Tm13 Pb16'
_cell_volume   1040.14221789
_cell_formula_units_Z   1
loop_
 _symmetry_equiv_pos_site_id
 _symmetry_equiv_pos_as_xyz
  1  'x, y, z'
loop_
 _atom_site_type_symbol
 _atom_site_label
 _atom_site_symmetry_multiplicity
 _atom_site_fract_x
 _atom_site_fract_y
 _atom_site_fract_z
 _atom_site_occupancy
  Tb  Tb0  1  0.036060  0.176809  0.599850  1
  Tb  Tb1  1  0.463912  0.676682  0.400303  1
  Tb  Tb2  1  0.963711  0.823508  0.099732  1
  Tb  Tb3  1  0.463755  0.676489  0.099689  1
  Tb  Tb4  1  0.963880  0.823338  0.400235  1
  Er  Er5  1  0.536341  0.323534  0.599886  1
  Er  Er6  1  0.036442  0.176706  0.899938  1
  Tm  Tm7  1  0.377242  0.841396  0.878651  1
  Tm  Tm8  1  0.877062  0.658644  0.621401  1
  Tm  Tm9  1  0.622722  0.159085  0.378881  1
  Tm  Tm10  1  0.122409  0.340723  0.121105  1
  Tm  Tm11  1  0.622445  0.159268  0.121019  1
  Tm  Tm12  1  0.122698  0.340905  0.378705  1
  Tm  Tm13  1  0.377249  0.841270  0.621404  1
  Tm  Tm14  1  0.877184  0.658564  0.878676  1
  Tm  Tm15  1  0.536656  0.323582  0.900042  1
  Tm  Tm16  1  0.208799  0.504334  0.750185  1
  Tm  Tm17  1  0.708308  0.995528  0.750211  1
  Tm  Tm18  1  0.791581  0.495046  0.249938  1
  Tm  Tm19  1  0.291629  0.004953  0.249966  1
  Pb  Pb20  1  0.281504  0.034133  0.042324  1
  Pb  Pb21  1  0.781664  0.465708  0.457722  1
  Pb  Pb22  1  0.717517  0.966394  0.542773  1
  Pb  Pb23  1  0.218700  0.532626  0.957087  1
  Pb  Pb24  1  0.718060  0.967205  0.957105  1
  Pb  Pb25  1  0.218416  0.533551  0.542811  1
  Pb  Pb26  1  0.282062  0.033904  0.457388  1
  Pb  Pb27  1  0.781380  0.465598  0.042111  1
  Pb  Pb28  1  0.571547  0.627054  0.750008  1
  Pb  Pb29  1  0.071648  0.872540  0.750039  1
  Pb  Pb30  1  0.428304  0.372438  0.250007  1
  Pb  Pb31  1  0.928297  0.127679  0.249994  1
  Pb  Pb32  1  0.348567  0.154410  0.750345  1
  Pb  Pb33  1  0.847456  0.346461  0.750480  1
  Pb  Pb34  1  0.652404  0.846930  0.249998  1
  Pb  Pb35  1  0.152388  0.653005  0.249992  1
