# generated using pymatgen
data_Ho4V3MoF28
_symmetry_space_group_name_H-M   'P 1'
_cell_length_a   5.50754721
_cell_length_b   8.81551294
_cell_length_c   11.79957000
_cell_angle_alpha   63.38516366
_cell_angle_beta   90.22957709
_cell_angle_gamma   90.13819184
_symmetry_Int_Tables_number   1
_chemical_formula_structural   Ho4V3MoF28
_chemical_formula_sum   'Ho4 V3 Mo1 F28'
_cell_volume   512.18223791
_cell_formula_units_Z   1
loop_
 _symmetry_equiv_pos_site_id
 _symmetry_equiv_pos_as_xyz
  1  'x, y, z'
loop_
 _atom_site_type_symbol
 _atom_site_label
 _atom_site_symmetry_multiplicity
 _atom_site_fract_x
 _atom_site_fract_y
 _atom_site_fract_z
 _atom_site_occupancy
  Ho  Ho0  1  0.758699  0.808835  0.770027  1
  Ho  Ho1  1  0.261181  0.190724  0.726411  1
  Ho  Ho2  1  0.241161  0.189486  0.234680  1
  Ho  Ho3  1  0.741633  0.808571  0.269113  1
  V  V4  1  0.253945  0.727351  0.544658  1
  V  V5  1  0.245005  0.725042  0.046608  1
  V  V6  1  0.746683  0.274343  0.454853  1
  Mo  Mo7  1  0.755245  0.271202  0.955804  1
  F  F8  1  0.452726  0.706443  0.925484  1
  F  F9  1  0.955506  0.294071  0.575016  1
  F  F10  1  0.559453  0.298284  0.084615  1
  F  F11  1  0.045392  0.708524  0.423435  1
  F  F12  1  0.465137  0.285680  0.545791  1
  F  F13  1  0.962709  0.715637  0.954539  1
  F  F14  1  0.534528  0.716852  0.452783  1
  F  F15  1  0.067579  0.281621  0.046184  1
  F  F16  1  0.768594  0.519911  0.853635  1
  F  F17  1  0.264543  0.495245  0.636350  1
  F  F18  1  0.231943  0.491635  0.138569  1
  F  F19  1  0.734204  0.506668  0.363275  1
  F  F20  1  0.753314  0.023059  0.051007  1
  F  F21  1  0.256509  0.958948  0.452823  1
  F  F22  1  0.242403  0.955170  0.955643  1
  F  F23  1  0.742917  0.044143  0.545896  1
  F  F24  1  0.982145  0.735974  0.639810  1
  F  F25  1  0.452035  0.269598  0.856912  1
  F  F26  1  0.018460  0.268210  0.358998  1
  F  F27  1  0.516116  0.726634  0.145772  1
  F  F28  1  0.040754  0.744062  0.170839  1
  F  F29  1  0.540064  0.253184  0.332534  1
  F  F30  1  0.949894  0.249014  0.822539  1
  F  F31  1  0.459440  0.751029  0.666970  1
  F  F32  1  0.424986  0.976867  0.230945  1
  F  F33  1  0.920327  0.028693  0.266750  1
  F  F34  1  0.577710  0.026444  0.768613  1
  F  F35  1  0.077059  0.972845  0.732122  1
