# generated using pymatgen
data_Yb3ErCo12(GeB3)2
_symmetry_space_group_name_H-M   'P 1'
_cell_length_a   5.15299602
_cell_length_b   5.15280624
_cell_length_c   12.11869700
_cell_angle_alpha   89.99981485
_cell_angle_beta   90.00034048
_cell_angle_gamma   120.01175469
_symmetry_Int_Tables_number   1
_chemical_formula_structural   Yb3ErCo12(GeB3)2
_chemical_formula_sum   'Yb3 Er1 Co12 Ge2 B6'
_cell_volume   278.63696099
_cell_formula_units_Z   1
loop_
 _symmetry_equiv_pos_site_id
 _symmetry_equiv_pos_as_xyz
  1  'x, y, z'
loop_
 _atom_site_type_symbol
 _atom_site_label
 _atom_site_symmetry_multiplicity
 _atom_site_fract_x
 _atom_site_fract_y
 _atom_site_fract_z
 _atom_site_occupancy
  Yb  Yb0  1  0.999996  0.999997  0.005492  1
  Yb  Yb1  1  0.999988  0.999999  0.493641  1
  Yb  Yb2  1  0.999969  0.999996  0.259303  1
  Er  Er3  1  0.999995  0.000004  0.739616  1
  Co  Co4  1  0.499979  0.000002  0.159561  1
  Co  Co5  1  0.499980  0.499997  0.159597  1
  Co  Co6  1  0.999984  0.500004  0.159537  1
  Co  Co7  1  0.500006  0.000002  0.842255  1
  Co  Co8  1  0.500007  0.499999  0.842235  1
  Co  Co9  1  0.000002  0.499999  0.842186  1
  Co  Co10  1  0.499981  0.000000  0.385047  1
  Co  Co11  1  0.499983  0.499998  0.385057  1
  Co  Co12  1  0.999987  0.500003  0.385052  1
  Co  Co13  1  0.499996  0.000000  0.613564  1
  Co  Co14  1  0.499997  0.500000  0.613533  1
  Co  Co15  1  0.999998  0.500001  0.613529  1
  Ge  Ge16  1  0.333263  0.666543  0.001054  1
  Ge  Ge17  1  0.666733  0.333456  0.001055  1
  B  B18  1  0.333362  0.666865  0.499133  1
  B  B19  1  0.666622  0.333136  0.499133  1
  B  B20  1  0.333259  0.666823  0.269376  1
  B  B21  1  0.666713  0.333177  0.269376  1
  B  B22  1  0.666630  0.333266  0.730833  1
  B  B23  1  0.333371  0.666734  0.730833  1
