# generated using pymatgen
data_Nb6GaFeS12
_symmetry_space_group_name_H-M   'P 1'
_cell_length_a   5.79368000
_cell_length_b   5.79367858
_cell_length_c   13.31353400
_cell_angle_alpha   90.00000000
_cell_angle_beta   90.00000000
_cell_angle_gamma   119.99999668
_symmetry_Int_Tables_number   1
_chemical_formula_structural   Nb6GaFeS12
_chemical_formula_sum   'Nb6 Ga1 Fe1 S12'
_cell_volume   387.01954692
_cell_formula_units_Z   1
loop_
 _symmetry_equiv_pos_site_id
 _symmetry_equiv_pos_as_xyz
  1  'x, y, z'
loop_
 _atom_site_type_symbol
 _atom_site_label
 _atom_site_symmetry_multiplicity
 _atom_site_fract_x
 _atom_site_fract_y
 _atom_site_fract_z
 _atom_site_occupancy
  Nb  Nb0  1  0.000000  0.000000  0.535525  1
  Nb  Nb1  1  0.000000  0.000000  0.964475  1
  Nb  Nb2  1  0.333333  0.666667  0.536256  1
  Nb  Nb3  1  0.666667  0.333333  0.531288  1
  Nb  Nb4  1  0.666667  0.333333  0.968712  1
  Nb  Nb5  1  0.333333  0.666667  0.963744  1
  Ga  Ga6  1  0.333333  0.666667  0.250000  1
  Fe  Fe7  1  0.666667  0.333333  0.750000  1
  S  S8  1  0.330657  0.334392  0.084705  1
  S  S9  1  0.665608  0.996266  0.084705  1
  S  S10  1  0.003734  0.669343  0.084705  1
  S  S11  1  0.337725  0.332915  0.848071  1
  S  S12  1  0.995190  0.662275  0.848071  1
  S  S13  1  0.667085  0.004810  0.848071  1
  S  S14  1  0.667085  0.662275  0.651929  1
  S  S15  1  0.337725  0.004810  0.651929  1
  S  S16  1  0.995190  0.332915  0.651929  1
  S  S17  1  0.665608  0.669343  0.415295  1
  S  S18  1  0.003734  0.334392  0.415295  1
  S  S19  1  0.330657  0.996266  0.415295  1
