# generated using pymatgen
data_DySb12Os2RuRh
_symmetry_space_group_name_H-M   'P 1'
_cell_length_a   8.13848271
_cell_length_b   8.13081182
_cell_length_c   8.12901791
_cell_angle_alpha   109.37864233
_cell_angle_beta   109.41326723
_cell_angle_gamma   109.42652802
_symmetry_Int_Tables_number   1
_chemical_formula_structural   DySb12Os2RuRh
_chemical_formula_sum   'Dy1 Sb12 Os2 Ru1 Rh1'
_cell_volume   415.08347889
_cell_formula_units_Z   1
loop_
 _symmetry_equiv_pos_site_id
 _symmetry_equiv_pos_as_xyz
  1  'x, y, z'
loop_
 _atom_site_type_symbol
 _atom_site_label
 _atom_site_symmetry_multiplicity
 _atom_site_fract_x
 _atom_site_fract_y
 _atom_site_fract_z
 _atom_site_occupancy
  Dy  Dy0  1  0.000000  0.000000  0.000000  1
  Sb  Sb1  1  0.844986  0.661581  0.505780  1
  Sb  Sb2  1  0.155014  0.338419  0.494220  1
  Sb  Sb3  1  0.158211  0.663902  0.819790  1
  Sb  Sb4  1  0.841789  0.336098  0.180210  1
  Sb  Sb5  1  0.661746  0.505987  0.845134  1
  Sb  Sb6  1  0.338254  0.494013  0.154866  1
  Sb  Sb7  1  0.662466  0.819931  0.156801  1
  Sb  Sb8  1  0.337534  0.180069  0.843199  1
  Sb  Sb9  1  0.506084  0.845520  0.662865  1
  Sb  Sb10  1  0.493916  0.154480  0.337135  1
  Sb  Sb11  1  0.180962  0.843015  0.337245  1
  Sb  Sb12  1  0.819038  0.156985  0.662755  1
  Os  Os13  1  0.000000  0.500000  0.000000  1
  Os  Os14  1  0.000000  0.000000  0.500000  1
  Ru  Ru15  1  0.500000  0.000000  0.000000  1
  Rh  Rh16  1  0.500000  0.500000  0.500000  1
