# generated using pymatgen
data_NaMn(Sb4Rh)3
_symmetry_space_group_name_H-M   'P 1'
_cell_length_a   8.12787452
_cell_length_b   8.12787404
_cell_length_c   8.12787509
_cell_angle_alpha   109.53897406
_cell_angle_beta   109.53897046
_cell_angle_gamma   109.53896472
_symmetry_Int_Tables_number   1
_chemical_formula_structural   NaMn(Sb4Rh)3
_chemical_formula_sum   'Na1 Mn1 Sb12 Rh3'
_cell_volume   412.30150837
_cell_formula_units_Z   1
loop_
 _symmetry_equiv_pos_site_id
 _symmetry_equiv_pos_as_xyz
  1  'x, y, z'
loop_
 _atom_site_type_symbol
 _atom_site_label
 _atom_site_symmetry_multiplicity
 _atom_site_fract_x
 _atom_site_fract_y
 _atom_site_fract_z
 _atom_site_occupancy
  Na  Na0  1  0.000000  0.000000  0.000000  1
  Mn  Mn1  1  0.500000  0.500000  0.500000  1
  Sb  Sb2  1  0.657836  0.813420  0.155141  1
  Sb  Sb3  1  0.844859  0.342164  0.186580  1
  Sb  Sb4  1  0.503473  0.837923  0.657861  1
  Sb  Sb5  1  0.837923  0.657861  0.503473  1
  Sb  Sb6  1  0.496527  0.162077  0.342139  1
  Sb  Sb7  1  0.155141  0.657836  0.813420  1
  Sb  Sb8  1  0.813420  0.155141  0.657836  1
  Sb  Sb9  1  0.186580  0.844859  0.342164  1
  Sb  Sb10  1  0.162077  0.342139  0.496527  1
  Sb  Sb11  1  0.657861  0.503473  0.837923  1
  Sb  Sb12  1  0.342139  0.496527  0.162077  1
  Sb  Sb13  1  0.342164  0.186580  0.844859  1
  Rh  Rh14  1  0.000000  0.000000  0.500000  1
  Rh  Rh15  1  0.000000  0.500000  0.000000  1
  Rh  Rh16  1  0.500000  0.000000  0.000000  1
