# generated using pymatgen
data_Tb10Bi6C
_symmetry_space_group_name_H-M   'P 1'
_cell_length_a   9.15949400
_cell_length_b   9.15949617
_cell_length_c   6.50316900
_cell_angle_alpha   90.00000000
_cell_angle_beta   90.00000000
_cell_angle_gamma   119.99999215
_symmetry_Int_Tables_number   1
_chemical_formula_structural   Tb10Bi6C
_chemical_formula_sum   'Tb10 Bi6 C1'
_cell_volume   472.49669431
_cell_formula_units_Z   1
loop_
 _symmetry_equiv_pos_site_id
 _symmetry_equiv_pos_as_xyz
  1  'x, y, z'
loop_
 _atom_site_type_symbol
 _atom_site_label
 _atom_site_symmetry_multiplicity
 _atom_site_fract_x
 _atom_site_fract_y
 _atom_site_fract_z
 _atom_site_occupancy
  Tb  Tb0  1  0.333333  0.666667  0.500000  1
  Tb  Tb1  1  0.666667  0.333333  0.500000  1
  Tb  Tb2  1  0.666667  0.333333  0.000000  1
  Tb  Tb3  1  0.333333  0.666667  0.000000  1
  Tb  Tb4  1  0.000000  0.776988  0.270726  1
  Tb  Tb5  1  0.223012  0.223012  0.270726  1
  Tb  Tb6  1  0.776988  0.000000  0.270726  1
  Tb  Tb7  1  0.000000  0.223012  0.729274  1
  Tb  Tb8  1  0.776988  0.776988  0.729274  1
  Tb  Tb9  1  0.223012  0.000000  0.729274  1
  Bi  Bi10  1  0.000000  0.398816  0.247909  1
  Bi  Bi11  1  0.601184  0.601184  0.247909  1
  Bi  Bi12  1  0.398816  0.000000  0.247909  1
  Bi  Bi13  1  0.000000  0.601184  0.752091  1
  Bi  Bi14  1  0.398816  0.398816  0.752091  1
  Bi  Bi15  1  0.601184  0.000000  0.752091  1
  C  C16  1  0.000000  0.000000  0.500000  1
