# generated using pymatgen
data_SrEuNiH6
_symmetry_space_group_name_H-M   'P 1'
_cell_length_a   7.33149408
_cell_length_b   7.33149379
_cell_length_c   5.22182400
_cell_angle_alpha   90.00000000
_cell_angle_beta   90.00000000
_cell_angle_gamma   138.27154797
_symmetry_Int_Tables_number   1
_chemical_formula_structural   SrEuNiH6
_chemical_formula_sum   'Sr2 Eu2 Ni2 H12'
_cell_volume   186.81905933
_cell_formula_units_Z   2
loop_
 _symmetry_equiv_pos_site_id
 _symmetry_equiv_pos_as_xyz
  1  'x, y, z'
loop_
 _atom_site_type_symbol
 _atom_site_label
 _atom_site_symmetry_multiplicity
 _atom_site_fract_x
 _atom_site_fract_y
 _atom_site_fract_z
 _atom_site_occupancy
  Sr  Sr0  1  0.856556  0.143444  0.500000  1
  Sr  Sr1  1  0.356556  0.643444  0.000000  1
  Eu  Eu2  1  0.140529  0.859471  0.500000  1
  Eu  Eu3  1  0.640529  0.359471  0.000000  1
  Ni  Ni4  1  0.502690  0.497310  0.500000  1
  Ni  Ni5  1  0.002690  0.997310  0.000000  1
  H  H6  1  0.992872  0.506915  0.749909  1
  H  H7  1  0.493085  0.007128  0.250091  1
  H  H8  1  0.993085  0.507128  0.249909  1
  H  H9  1  0.492872  0.006915  0.750091  1
  H  H10  1  0.387190  0.612810  0.500000  1
  H  H11  1  0.887190  0.112810  0.000000  1
  H  H12  1  0.617278  0.382722  0.500000  1
  H  H13  1  0.117278  0.882722  0.000000  1
  H  H14  1  0.259365  0.249564  0.745564  1
  H  H15  1  0.750436  0.740635  0.254436  1
  H  H16  1  0.250436  0.240635  0.245564  1
  H  H17  1  0.759365  0.749564  0.754436  1
