# generated using pymatgen
data_Tm4Al15(Co2Si)3
_symmetry_space_group_name_H-M   'P 1'
_cell_length_a   7.35567812
_cell_length_b   7.29240729
_cell_length_c   9.28476600
_cell_angle_alpha   89.99854647
_cell_angle_beta   89.94719615
_cell_angle_gamma   119.63755259
_symmetry_Int_Tables_number   1
_chemical_formula_structural   Tm4Al15(Co2Si)3
_chemical_formula_sum   'Tm4 Al15 Co6 Si3'
_cell_volume   432.88204754
_cell_formula_units_Z   1
loop_
 _symmetry_equiv_pos_site_id
 _symmetry_equiv_pos_as_xyz
  1  'x, y, z'
loop_
 _atom_site_type_symbol
 _atom_site_label
 _atom_site_symmetry_multiplicity
 _atom_site_fract_x
 _atom_site_fract_y
 _atom_site_fract_z
 _atom_site_occupancy
  Tm  Tm0  1  0.991624  0.662377  0.747429  1
  Tm  Tm1  1  0.009286  0.344762  0.253333  1
  Tm  Tm2  1  0.677330  0.003473  0.747778  1
  Tm  Tm3  1  0.317588  0.988955  0.249701  1
  Al  Al4  1  0.123364  0.121976  0.749865  1
  Al  Al5  1  0.877247  0.876447  0.249294  1
  Al  Al6  1  0.336543  0.997824  0.928069  1
  Al  Al7  1  0.000296  0.331663  0.934796  1
  Al  Al8  1  0.666570  0.005790  0.071588  1
  Al  Al9  1  0.665088  0.003894  0.426497  1
  Al  Al10  1  0.336189  0.997828  0.572297  1
  Al  Al11  1  0.332153  0.329424  0.050118  1
  Al  Al12  1  0.666418  0.669686  0.952475  1
  Al  Al13  1  0.665667  0.669170  0.549067  1
  Al  Al14  1  0.332394  0.329707  0.450466  1
  Al  Al15  1  0.336790  0.555630  0.750155  1
  Al  Al16  1  0.662523  0.444076  0.250428  1
  Al  Al17  1  0.550821  0.342334  0.750591  1
  Al  Al18  1  0.452969  0.658879  0.249824  1
  Co  Co19  1  0.692660  0.340728  0.502432  1
  Co  Co20  1  0.307019  0.659679  0.496379  1
  Co  Co21  1  0.317768  0.669189  0.004296  1
  Co  Co22  1  0.681625  0.339141  0.999432  1
  Co  Co23  1  0.999923  0.999760  0.499395  1
  Co  Co24  1  0.001543  0.991428  0.000553  1
  Si  Si25  1  0.000347  0.330086  0.567389  1
  Si  Si26  1  0.998540  0.670310  0.436989  1
  Si  Si27  1  0.999716  0.665786  0.059365  1
