# generated using pymatgen
data_NaNd(CuPt)2
_symmetry_space_group_name_H-M   'P 1'
_cell_length_a   5.15904624
_cell_length_b   5.31517914
_cell_length_c   5.31517800
_cell_angle_alpha   63.50189912
_cell_angle_beta   60.96704773
_cell_angle_gamma   60.96704899
_symmetry_Int_Tables_number   1
_chemical_formula_structural   NaNd(CuPt)2
_chemical_formula_sum   'Na1 Nd1 Cu2 Pt2'
_cell_volume   107.10784201
_cell_formula_units_Z   1
loop_
 _symmetry_equiv_pos_site_id
 _symmetry_equiv_pos_as_xyz
  1  'x, y, z'
loop_
 _atom_site_type_symbol
 _atom_site_label
 _atom_site_symmetry_multiplicity
 _atom_site_fract_x
 _atom_site_fract_y
 _atom_site_fract_z
 _atom_site_occupancy
  Na  Na0  1  0.243686  0.256314  0.256314  1
  Nd  Nd1  1  0.996184  0.003816  0.003816  1
  Cu  Cu2  1  0.128891  0.620965  0.620965  1
  Cu  Cu3  1  0.629178  0.620965  0.620965  1
  Pt  Pt4  1  0.626030  0.622950  0.124990  1
  Pt  Pt5  1  0.626030  0.124990  0.622950  1
