# generated using pymatgen
data_NdCu4Ni
_symmetry_space_group_name_H-M   'P 1'
_cell_length_a   5.08870000
_cell_length_b   5.08870046
_cell_length_c   4.09596200
_cell_angle_alpha   90.00000000
_cell_angle_beta   90.00000000
_cell_angle_gamma   119.99999703
_symmetry_Int_Tables_number   1
_chemical_formula_structural   NdCu4Ni
_chemical_formula_sum   'Nd1 Cu4 Ni1'
_cell_volume   91.85447069
_cell_formula_units_Z   1
loop_
 _symmetry_equiv_pos_site_id
 _symmetry_equiv_pos_as_xyz
  1  'x, y, z'
loop_
 _atom_site_type_symbol
 _atom_site_label
 _atom_site_symmetry_multiplicity
 _atom_site_fract_x
 _atom_site_fract_y
 _atom_site_fract_z
 _atom_site_occupancy
  Nd  Nd0  1  0.000000  0.000000  0.000000  1
  Cu  Cu1  1  0.666667  0.333333  0.000000  1
  Cu  Cu2  1  0.002373  0.501187  0.500000  1
  Cu  Cu3  1  0.498813  0.501187  0.500000  1
  Cu  Cu4  1  0.498813  0.997627  0.500000  1
  Ni  Ni5  1  0.333333  0.666667  0.000000  1
