# generated using pymatgen
data_Nd2(AlAu2)3
_symmetry_space_group_name_H-M   'P 1'
_cell_length_a   8.78478625
_cell_length_b   8.78478528
_cell_length_c   8.78478620
_cell_angle_alpha   57.01201927
_cell_angle_beta   57.01202670
_cell_angle_gamma   57.01202538
_symmetry_Int_Tables_number   1
_chemical_formula_structural   Nd2(AlAu2)3
_chemical_formula_sum   'Nd4 Al6 Au12'
_cell_volume   446.35326164
_cell_formula_units_Z   2
loop_
 _symmetry_equiv_pos_site_id
 _symmetry_equiv_pos_as_xyz
  1  'x, y, z'
loop_
 _atom_site_type_symbol
 _atom_site_label
 _atom_site_symmetry_multiplicity
 _atom_site_fract_x
 _atom_site_fract_y
 _atom_site_fract_z
 _atom_site_occupancy
  Nd  Nd0  1  0.408572  0.408572  0.408572  1
  Nd  Nd1  1  0.908572  0.908572  0.908572  1
  Nd  Nd2  1  0.591428  0.591428  0.591428  1
  Nd  Nd3  1  0.091428  0.091428  0.091428  1
  Al  Al4  1  0.053937  0.250000  0.446063  1
  Al  Al5  1  0.446063  0.053937  0.250000  1
  Al  Al6  1  0.250000  0.446063  0.053937  1
  Al  Al7  1  0.946063  0.750000  0.553937  1
  Al  Al8  1  0.553937  0.946063  0.750000  1
  Al  Al9  1  0.750000  0.553937  0.946063  1
  Au  Au10  1  0.981690  0.365377  0.702452  1
  Au  Au11  1  0.702452  0.981690  0.365377  1
  Au  Au12  1  0.365377  0.702452  0.981690  1
  Au  Au13  1  0.202452  0.865377  0.481690  1
  Au  Au14  1  0.481690  0.202452  0.865377  1
  Au  Au15  1  0.865377  0.481690  0.202452  1
  Au  Au16  1  0.018310  0.634623  0.297548  1
  Au  Au17  1  0.297548  0.018310  0.634623  1
  Au  Au18  1  0.634623  0.297548  0.018310  1
  Au  Au19  1  0.797548  0.134623  0.518310  1
  Au  Au20  1  0.518310  0.797548  0.134623  1
  Au  Au21  1  0.134623  0.518310  0.797548  1
