# generated using pymatgen
data_Tb5Y(Tm2Si3)2
_symmetry_space_group_name_H-M   'P 1'
_cell_length_a   8.42966930
_cell_length_b   8.43350530
_cell_length_c   6.30959400
_cell_angle_alpha   90.00000000
_cell_angle_beta   90.00000000
_cell_angle_gamma   120.01505849
_symmetry_Int_Tables_number   1
_chemical_formula_structural   Tb5Y(Tm2Si3)2
_chemical_formula_sum   'Tb5 Y1 Tm4 Si6'
_cell_volume   388.40497711
_cell_formula_units_Z   1
loop_
 _symmetry_equiv_pos_site_id
 _symmetry_equiv_pos_as_xyz
  1  'x, y, z'
loop_
 _atom_site_type_symbol
 _atom_site_label
 _atom_site_symmetry_multiplicity
 _atom_site_fract_x
 _atom_site_fract_y
 _atom_site_fract_z
 _atom_site_occupancy
  Tb  Tb0  1  0.755957  0.755746  0.250000  1
  Tb  Tb1  1  0.244043  0.999790  0.250000  1
  Tb  Tb2  1  0.000000  0.244883  0.250000  1
  Tb  Tb3  1  0.244325  0.244330  0.750000  1
  Tb  Tb4  1  0.755675  0.000005  0.750000  1
  Y  Y5  1  0.000000  0.755283  0.750000  1
  Tm  Tm6  1  0.666803  0.333484  0.500041  1
  Tm  Tm7  1  0.333197  0.666682  0.500041  1
  Tm  Tm8  1  0.333197  0.666682  0.999959  1
  Tm  Tm9  1  0.666803  0.333484  0.999959  1
  Si  Si10  1  0.395267  0.395037  0.250000  1
  Si  Si11  1  0.604733  0.999769  0.250000  1
  Si  Si12  1  0.000000  0.604614  0.250000  1
  Si  Si13  1  0.605918  0.605157  0.750000  1
  Si  Si14  1  0.394082  0.999240  0.750000  1
  Si  Si15  1  0.000000  0.395815  0.750000  1
