# generated using pymatgen
data_La13Y4Lu3Pb16
_symmetry_space_group_name_H-M   'P 1'
_cell_length_a   8.38547000
_cell_length_b   8.51798007
_cell_length_c   16.24110100
_cell_angle_alpha   90.00698878
_cell_angle_beta   90.00125723
_cell_angle_gamma   89.99726891
_symmetry_Int_Tables_number   1
_chemical_formula_structural   La13Y4Lu3Pb16
_chemical_formula_sum   'La13 Y4 Lu3 Pb16'
_cell_volume   1160.05743721
_cell_formula_units_Z   1
loop_
 _symmetry_equiv_pos_site_id
 _symmetry_equiv_pos_as_xyz
  1  'x, y, z'
loop_
 _atom_site_type_symbol
 _atom_site_label
 _atom_site_symmetry_multiplicity
 _atom_site_fract_x
 _atom_site_fract_y
 _atom_site_fract_z
 _atom_site_occupancy
  La  La0  1  0.870311  0.656183  0.382604  1
  La  La1  1  0.372440  0.841966  0.381117  1
  La  La2  1  0.874508  0.657753  0.117801  1
  La  La3  1  0.625758  0.156859  0.880819  1
  La  La4  1  0.125323  0.344163  0.618583  1
  La  La5  1  0.469118  0.679144  0.599544  1
  La  La6  1  0.968790  0.820830  0.900917  1
  La  La7  1  0.529116  0.321016  0.097237  1
  La  La8  1  0.031884  0.179366  0.401260  1
  La  La9  1  0.529031  0.318867  0.402132  1
  La  La10  1  0.027230  0.180639  0.096152  1
  La  La11  1  0.472923  0.678860  0.901720  1
  La  La12  1  0.970883  0.821860  0.601215  1
  Y  Y13  1  0.631082  0.153103  0.625001  1
  Y  Y14  1  0.133378  0.345069  0.877951  1
  Y  Y15  1  0.366101  0.845850  0.119241  1
  Y  Y16  1  0.702964  0.996669  0.250386  1
  Lu  Lu17  1  0.795002  0.493695  0.749946  1
  Lu  Lu18  1  0.294269  0.004963  0.751408  1
  Lu  Lu19  1  0.207421  0.505421  0.246978  1
  Pb  Pb20  1  0.716664  0.972730  0.458892  1
  Pb  Pb21  1  0.220138  0.534902  0.042761  1
  Pb  Pb22  1  0.278541  0.034829  0.955143  1
  Pb  Pb23  1  0.776814  0.460566  0.548543  1
  Pb  Pb24  1  0.295162  0.034601  0.549910  1
  Pb  Pb25  1  0.797355  0.463738  0.950334  1
  Pb  Pb26  1  0.703583  0.964502  0.048044  1
  Pb  Pb27  1  0.214800  0.529858  0.450686  1
  Pb  Pb28  1  0.434159  0.373270  0.749913  1
  Pb  Pb29  1  0.936095  0.127803  0.751085  1
  Pb  Pb30  1  0.562782  0.626804  0.246433  1
  Pb  Pb31  1  0.068086  0.877247  0.247935  1
  Pb  Pb32  1  0.660440  0.845917  0.749537  1
  Pb  Pb33  1  0.161570  0.652308  0.751702  1
  Pb  Pb34  1  0.337929  0.151592  0.247801  1
  Pb  Pb35  1  0.838350  0.347057  0.249270  1
