# generated using pymatgen
data_TmLu9Si5Sb
_symmetry_space_group_name_H-M   'P 1'
_cell_length_a   8.32195500
_cell_length_b   8.34799419
_cell_length_c   6.17442900
_cell_angle_alpha   90.00000000
_cell_angle_beta   90.00000000
_cell_angle_gamma   119.89687469
_symmetry_Int_Tables_number   1
_chemical_formula_structural   TmLu9Si5Sb
_chemical_formula_sum   'Tm1 Lu9 Si5 Sb1'
_cell_volume   371.86499406
_cell_formula_units_Z   1
loop_
 _symmetry_equiv_pos_site_id
 _symmetry_equiv_pos_as_xyz
  1  'x, y, z'
loop_
 _atom_site_type_symbol
 _atom_site_label
 _atom_site_symmetry_multiplicity
 _atom_site_fract_x
 _atom_site_fract_y
 _atom_site_fract_z
 _atom_site_occupancy
  Tm  Tm0  1  0.765993  0.000000  0.750000  1
  Lu  Lu1  1  0.674419  0.342990  0.003454  1
  Lu  Lu2  1  0.331429  0.657010  0.496546  1
  Lu  Lu3  1  0.331429  0.657010  0.003454  1
  Lu  Lu4  1  0.674419  0.342990  0.496546  1
  Lu  Lu5  1  0.756668  0.757113  0.250000  1
  Lu  Lu6  1  0.999555  0.242887  0.250000  1
  Lu  Lu7  1  0.987424  0.748245  0.750000  1
  Lu  Lu8  1  0.239180  0.251755  0.750000  1
  Lu  Lu9  1  0.240115  0.000000  0.250000  1
  Si  Si10  1  0.394108  0.391974  0.250000  1
  Si  Si11  1  0.002135  0.608026  0.250000  1
  Si  Si12  1  0.999290  0.395228  0.750000  1
  Si  Si13  1  0.604063  0.604772  0.750000  1
  Si  Si14  1  0.606604  0.000000  0.250000  1
  Sb  Sb15  1  0.393171  0.000000  0.750000  1
