# generated using pymatgen
data_Hf3ZrPa2(AlPt)6
_symmetry_space_group_name_H-M   'P 1'
_cell_length_a   7.01974995
_cell_length_b   7.02160608
_cell_length_c   7.81068200
_cell_angle_alpha   90.00000000
_cell_angle_beta   90.00000000
_cell_angle_gamma   119.91639766
_symmetry_Int_Tables_number   1
_chemical_formula_structural   Hf3ZrPa2(AlPt)6
_chemical_formula_sum   'Hf3 Zr1 Pa2 Al6 Pt6'
_cell_volume   333.68980610
_cell_formula_units_Z   1
loop_
 _symmetry_equiv_pos_site_id
 _symmetry_equiv_pos_as_xyz
  1  'x, y, z'
loop_
 _atom_site_type_symbol
 _atom_site_label
 _atom_site_symmetry_multiplicity
 _atom_site_fract_x
 _atom_site_fract_y
 _atom_site_fract_z
 _atom_site_occupancy
  Hf  Hf0  1  0.596954  0.998812  0.750000  1
  Hf  Hf1  1  0.998545  0.596621  0.750000  1
  Hf  Hf2  1  0.405654  0.405345  0.750000  1
  Zr  Zr3  1  0.407330  0.408644  0.250000  1
  Pa  Pa4  1  0.001164  0.581116  0.250000  1
  Pa  Pa5  1  0.580697  0.001216  0.250000  1
  Al  Al6  1  0.748842  0.748543  0.996560  1
  Al  Al7  1  0.248906  0.005276  0.989569  1
  Al  Al8  1  0.005014  0.248743  0.989669  1
  Al  Al9  1  0.748842  0.748543  0.503440  1
  Al  Al10  1  0.248906  0.005276  0.510431  1
  Al  Al11  1  0.005014  0.248743  0.510331  1
  Pt  Pt12  1  0.997156  0.997045  0.750000  1
  Pt  Pt13  1  0.003971  0.003889  0.250000  1
  Pt  Pt14  1  0.668312  0.333435  0.982890  1
  Pt  Pt15  1  0.668312  0.333435  0.517110  1
  Pt  Pt16  1  0.333191  0.667661  0.517644  1
  Pt  Pt17  1  0.333191  0.667661  0.982357  1
