# generated using pymatgen
data_Dy4Ga4CuRu3
_symmetry_space_group_name_H-M   'P 1'
_cell_length_a   4.50368900
_cell_length_b   7.10414570
_cell_length_c   7.18896546
_cell_angle_alpha   88.86336515
_cell_angle_beta   90.00000000
_cell_angle_gamma   90.00000000
_symmetry_Int_Tables_number   1
_chemical_formula_structural   Dy4Ga4CuRu3
_chemical_formula_sum   'Dy4 Ga4 Cu1 Ru3'
_cell_volume   229.96470564
_cell_formula_units_Z   1
loop_
 _symmetry_equiv_pos_site_id
 _symmetry_equiv_pos_as_xyz
  1  'x, y, z'
loop_
 _atom_site_type_symbol
 _atom_site_label
 _atom_site_symmetry_multiplicity
 _atom_site_fract_x
 _atom_site_fract_y
 _atom_site_fract_z
 _atom_site_occupancy
  Dy  Dy0  1  0.250000  0.021520  0.801623  1
  Dy  Dy1  1  0.250000  0.518387  0.692823  1
  Dy  Dy2  1  0.750000  0.989657  0.202280  1
  Dy  Dy3  1  0.750000  0.481221  0.305886  1
  Ga  Ga4  1  0.250000  0.201263  0.400341  1
  Ga  Ga5  1  0.250000  0.692647  0.108679  1
  Ga  Ga6  1  0.750000  0.794488  0.598200  1
  Ga  Ga7  1  0.750000  0.304422  0.894706  1
  Cu  Cu8  1  0.750000  0.669265  0.931997  1
  Ru  Ru9  1  0.250000  0.838737  0.434900  1
  Ru  Ru10  1  0.250000  0.330243  0.061650  1
  Ru  Ru11  1  0.750000  0.158150  0.566914  1
