# generated using pymatgen
data_Dy15Tm5(Ir2Os)4
_symmetry_space_group_name_H-M   'P 1'
_cell_length_a   10.83194411
_cell_length_b   10.83282805
_cell_length_c   6.39273407
_cell_angle_alpha   89.99212090
_cell_angle_beta   89.98543475
_cell_angle_gamma   89.99289068
_symmetry_Int_Tables_number   1
_chemical_formula_structural   Dy15Tm5(Ir2Os)4
_chemical_formula_sum   'Dy15 Tm5 Ir8 Os4'
_cell_volume   750.12713680
_cell_formula_units_Z   1
loop_
 _symmetry_equiv_pos_site_id
 _symmetry_equiv_pos_as_xyz
  1  'x, y, z'
loop_
 _atom_site_type_symbol
 _atom_site_label
 _atom_site_symmetry_multiplicity
 _atom_site_fract_x
 _atom_site_fract_y
 _atom_site_fract_z
 _atom_site_occupancy
  Dy  Dy0  1  0.293155  0.913809  0.877631  1
  Dy  Dy1  1  0.706752  0.086400  0.877745  1
  Dy  Dy2  1  0.706726  0.913539  0.377728  1
  Dy  Dy3  1  0.586468  0.793200  0.877621  1
  Dy  Dy4  1  0.586116  0.206609  0.377550  1
  Dy  Dy5  1  0.413281  0.793579  0.377649  1
  Dy  Dy6  1  0.413281  0.206647  0.877692  1
  Dy  Dy7  1  0.206866  0.413384  0.622187  1
  Dy  Dy8  1  0.206868  0.586544  0.122274  1
  Dy  Dy9  1  0.793167  0.413517  0.122240  1
  Dy  Dy10  1  0.793146  0.586467  0.622258  1
  Dy  Dy11  1  0.913547  0.706892  0.122306  1
  Dy  Dy12  1  0.913554  0.293247  0.622437  1
  Dy  Dy13  1  0.086507  0.706838  0.622324  1
  Dy  Dy14  1  0.086774  0.292968  0.122528  1
  Tm  Tm15  1  0.293876  0.086244  0.378414  1
  Tm  Tm16  1  0.000392  0.000151  0.499780  1
  Tm  Tm17  1  0.000094  0.000042  0.000207  1
  Tm  Tm18  1  0.499984  0.499971  0.999876  1
  Tm  Tm19  1  0.499901  0.499994  0.500027  1
  Ir  Ir20  1  0.849002  0.151063  0.250003  1
  Ir  Ir21  1  0.849075  0.849060  0.750001  1
  Ir  Ir22  1  0.151390  0.150718  0.748690  1
  Ir  Ir23  1  0.151341  0.849441  0.250292  1
  Ir  Ir24  1  0.650970  0.348971  0.749991  1
  Ir  Ir25  1  0.651014  0.650949  0.249977  1
  Ir  Ir26  1  0.348885  0.348237  0.250435  1
  Ir  Ir27  1  0.348981  0.651050  0.750021  1
  Os  Os28  1  0.499575  0.000251  0.124849  1
  Os  Os29  1  0.499409  0.000254  0.623319  1
  Os  Os30  1  0.999984  0.500037  0.876161  1
  Os  Os31  1  0.999918  0.499927  0.375784  1
