# generated using pymatgen
data_UFe3Sb12Rh
_symmetry_space_group_name_H-M   'P 1'
_cell_length_a   7.98276128
_cell_length_b   7.98276185
_cell_length_c   7.98276193
_cell_angle_alpha   109.48098021
_cell_angle_beta   109.48098663
_cell_angle_gamma   109.48097581
_symmetry_Int_Tables_number   1
_chemical_formula_structural   UFe3Sb12Rh
_chemical_formula_sum   'U1 Fe3 Sb12 Rh1'
_cell_volume   391.45384635
_cell_formula_units_Z   1
loop_
 _symmetry_equiv_pos_site_id
 _symmetry_equiv_pos_as_xyz
  1  'x, y, z'
loop_
 _atom_site_type_symbol
 _atom_site_label
 _atom_site_symmetry_multiplicity
 _atom_site_fract_x
 _atom_site_fract_y
 _atom_site_fract_z
 _atom_site_occupancy
  U  U0  1  0.000000  0.000000  0.000000  1
  Fe  Fe1  1  0.500000  0.000000  0.000000  1
  Fe  Fe2  1  0.000000  0.500000  0.000000  1
  Fe  Fe3  1  0.000000  0.000000  0.500000  1
  Sb  Sb4  1  0.167893  0.837104  0.330300  1
  Sb  Sb5  1  0.151779  0.329178  0.494803  1
  Sb  Sb6  1  0.669700  0.832107  0.162896  1
  Sb  Sb7  1  0.670822  0.505197  0.848221  1
  Sb  Sb8  1  0.505197  0.848221  0.670822  1
  Sb  Sb9  1  0.832107  0.162896  0.669700  1
  Sb  Sb10  1  0.330300  0.167893  0.837104  1
  Sb  Sb11  1  0.837104  0.330300  0.167893  1
  Sb  Sb12  1  0.494803  0.151779  0.329178  1
  Sb  Sb13  1  0.329178  0.494803  0.151779  1
  Sb  Sb14  1  0.162896  0.669700  0.832107  1
  Sb  Sb15  1  0.848221  0.670822  0.505197  1
  Rh  Rh16  1  0.500000  0.500000  0.500000  1
