# generated using pymatgen
data_La2Tm2Zn4Si3Ge
_symmetry_space_group_name_H-M   'P 1'
_cell_length_a   4.23644100
_cell_length_b   4.23644166
_cell_length_c   16.13462600
_cell_angle_alpha   90.00000000
_cell_angle_beta   90.00000000
_cell_angle_gamma   120.00000266
_symmetry_Int_Tables_number   1
_chemical_formula_structural   La2Tm2Zn4Si3Ge
_chemical_formula_sum   'La2 Tm2 Zn4 Si3 Ge1'
_cell_volume   250.77943261
_cell_formula_units_Z   1
loop_
 _symmetry_equiv_pos_site_id
 _symmetry_equiv_pos_as_xyz
  1  'x, y, z'
loop_
 _atom_site_type_symbol
 _atom_site_label
 _atom_site_symmetry_multiplicity
 _atom_site_fract_x
 _atom_site_fract_y
 _atom_site_fract_z
 _atom_site_occupancy
  La  La0  1  0.000000  0.000000  0.001609  1
  La  La1  1  0.000000  0.000000  0.499614  1
  Tm  Tm2  1  0.000000  0.000000  0.250239  1
  Tm  Tm3  1  0.000000  0.000000  0.748441  1
  Zn  Zn4  1  0.333333  0.666667  0.152751  1
  Zn  Zn5  1  0.666667  0.333333  0.844276  1
  Zn  Zn6  1  0.666667  0.333333  0.651765  1
  Zn  Zn7  1  0.333333  0.666667  0.347837  1
  Si  Si8  1  0.333333  0.666667  0.624530  1
  Si  Si9  1  0.666667  0.333333  0.374997  1
  Si  Si10  1  0.666667  0.333333  0.125343  1
  Ge  Ge11  1  0.333333  0.666667  0.878599  1
