# generated using pymatgen
data_Ho5Tl2SnSe
_symmetry_space_group_name_H-M   'P 1'
_cell_length_a   9.10414400
_cell_length_b   9.10414356
_cell_length_c   6.75648300
_cell_angle_alpha   90.00000000
_cell_angle_beta   90.00000000
_cell_angle_gamma   120.19855962
_symmetry_Int_Tables_number   1
_chemical_formula_structural   Ho5Tl2SnSe
_chemical_formula_sum   'Ho10 Tl4 Sn2 Se2'
_cell_volume   484.01309276
_cell_formula_units_Z   2
loop_
 _symmetry_equiv_pos_site_id
 _symmetry_equiv_pos_as_xyz
  1  'x, y, z'
loop_
 _atom_site_type_symbol
 _atom_site_label
 _atom_site_symmetry_multiplicity
 _atom_site_fract_x
 _atom_site_fract_y
 _atom_site_fract_z
 _atom_site_occupancy
  Ho  Ho0  1  0.667876  0.332255  0.997691  1
  Ho  Ho1  1  0.332255  0.667876  0.997691  1
  Ho  Ho2  1  0.332255  0.667876  0.502309  1
  Ho  Ho3  1  0.667876  0.332255  0.502309  1
  Ho  Ho4  1  0.749347  0.749347  0.750000  1
  Ho  Ho5  1  0.251765  0.998059  0.750000  1
  Ho  Ho6  1  0.998059  0.251765  0.750000  1
  Ho  Ho7  1  0.248267  0.248267  0.250000  1
  Ho  Ho8  1  0.748414  0.000518  0.250000  1
  Ho  Ho9  1  0.000518  0.748414  0.250000  1
  Tl  Tl10  1  0.401699  0.401699  0.750000  1
  Tl  Tl11  1  0.600945  0.000919  0.750000  1
  Tl  Tl12  1  0.000919  0.600945  0.750000  1
  Tl  Tl13  1  0.601117  0.601117  0.250000  1
  Sn  Sn14  1  0.398366  0.000501  0.250000  1
  Sn  Sn15  1  0.000501  0.398366  0.250000  1
  Se  Se16  1  0.999911  0.999911  0.001160  1
  Se  Se17  1  0.999911  0.999911  0.498840  1
