# generated using pymatgen
data_NaYbGaPd3
_symmetry_space_group_name_H-M   'P 1'
_cell_length_a   5.55894219
_cell_length_b   5.55894093
_cell_length_c   5.17999900
_cell_angle_alpha   57.54905073
_cell_angle_beta   57.54905893
_cell_angle_gamma   59.99999331
_symmetry_Int_Tables_number   1
_chemical_formula_structural   NaYbGaPd3
_chemical_formula_sum   'Na1 Yb1 Ga1 Pd3'
_cell_volume   108.81147592
_cell_formula_units_Z   1
loop_
 _symmetry_equiv_pos_site_id
 _symmetry_equiv_pos_as_xyz
  1  'x, y, z'
loop_
 _atom_site_type_symbol
 _atom_site_label
 _atom_site_symmetry_multiplicity
 _atom_site_fract_x
 _atom_site_fract_y
 _atom_site_fract_z
 _atom_site_occupancy
  Na  Na0  1  0.749424  0.749424  0.751727  1
  Yb  Yb1  1  0.501450  0.501450  0.495651  1
  Ga  Ga2  1  0.124665  0.124665  0.626006  1
  Pd  Pd3  1  0.124781  0.124781  0.125539  1
  Pd  Pd4  1  0.624898  0.124781  0.125539  1
  Pd  Pd5  1  0.124781  0.624898  0.125539  1
