# generated using pymatgen
data_Hf6TaNb3(Ga2Ge)2
_symmetry_space_group_name_H-M   'P 1'
_cell_length_a   7.93946477
_cell_length_b   7.93261246
_cell_length_c   5.43975500
_cell_angle_alpha   90.00467612
_cell_angle_beta   89.99766266
_cell_angle_gamma   119.97146117
_symmetry_Int_Tables_number   1
_chemical_formula_structural   Hf6TaNb3(Ga2Ge)2
_chemical_formula_sum   'Hf6 Ta1 Nb3 Ga4 Ge2'
_cell_volume   296.78521043
_cell_formula_units_Z   1
loop_
 _symmetry_equiv_pos_site_id
 _symmetry_equiv_pos_as_xyz
  1  'x, y, z'
loop_
 _atom_site_type_symbol
 _atom_site_label
 _atom_site_symmetry_multiplicity
 _atom_site_fract_x
 _atom_site_fract_y
 _atom_site_fract_z
 _atom_site_occupancy
  Hf  Hf0  1  0.748536  0.747650  0.250174  1
  Hf  Hf1  1  0.748536  0.000886  0.749826  1
  Hf  Hf2  1  0.999885  0.249509  0.250149  1
  Hf  Hf3  1  0.249508  0.250247  0.749829  1
  Hf  Hf4  1  0.249508  0.999261  0.250171  1
  Hf  Hf5  1  0.999885  0.750375  0.749851  1
  Ta  Ta6  1  0.665911  0.332955  0.000000  1
  Nb  Nb7  1  0.665815  0.332907  0.500000  1
  Nb  Nb8  1  0.335606  0.667803  0.500000  1
  Nb  Nb9  1  0.335700  0.667850  0.000000  1
  Ga  Ga10  1  0.000769  0.397186  0.750260  1
  Ga  Ga11  1  0.000769  0.603583  0.249740  1
  Ga  Ga12  1  0.393903  0.393753  0.249676  1
  Ga  Ga13  1  0.393903  0.000150  0.750324  1
  Ge  Ge14  1  0.605884  0.000953  0.249767  1
  Ge  Ge15  1  0.605884  0.604931  0.750233  1
