# generated using pymatgen
data_KCrSn3O8
_symmetry_space_group_name_H-M   'P 1'
_cell_length_a   7.55895262
_cell_length_b   7.55895287
_cell_length_c   10.52361575
_cell_angle_alpha   46.84012663
_cell_angle_beta   46.84012536
_cell_angle_gamma   24.52067061
_symmetry_Int_Tables_number   1
_chemical_formula_structural   KCrSn3O8
_chemical_formula_sum   'K1 Cr1 Sn3 O8'
_cell_volume   178.21450410
_cell_formula_units_Z   1
loop_
 _symmetry_equiv_pos_site_id
 _symmetry_equiv_pos_as_xyz
  1  'x, y, z'
loop_
 _atom_site_type_symbol
 _atom_site_label
 _atom_site_symmetry_multiplicity
 _atom_site_fract_x
 _atom_site_fract_y
 _atom_site_fract_z
 _atom_site_occupancy
  K  K0  1  0.498191  0.498191  0.995786  1
  Cr  Cr1  1  0.348369  0.348369  0.818379  1
  Sn  Sn2  1  0.656923  0.656923  0.169842  1
  Sn  Sn3  1  0.158580  0.158580  0.493117  1
  Sn  Sn4  1  0.835584  0.835584  0.523249  1
  O  O5  1  0.154221  0.154221  0.041774  1
  O  O6  1  0.849815  0.849815  0.944280  1
  O  O7  1  0.200092  0.200092  0.650856  1
  O  O8  1  0.795364  0.795364  0.362448  1
  O  O9  1  0.537965  0.537965  0.626729  1
  O  O10  1  0.460045  0.460045  0.373262  1
  O  O11  1  0.167290  0.167290  0.288891  1
  O  O12  1  0.837563  0.837563  0.711389  1
