# generated using pymatgen
data_Sc20GaBi11
_symmetry_space_group_name_H-M   'P 1'
_cell_length_a   7.76814999
_cell_length_b   8.94061700
_cell_length_c   11.30816100
_cell_angle_alpha   90.00000000
_cell_angle_beta   90.23795650
_cell_angle_gamma   90.00000000
_symmetry_Int_Tables_number   1
_chemical_formula_structural   Sc20GaBi11
_chemical_formula_sum   'Sc20 Ga1 Bi11'
_cell_volume   785.36823400
_cell_formula_units_Z   1
loop_
 _symmetry_equiv_pos_site_id
 _symmetry_equiv_pos_as_xyz
  1  'x, y, z'
loop_
 _atom_site_type_symbol
 _atom_site_label
 _atom_site_symmetry_multiplicity
 _atom_site_fract_x
 _atom_site_fract_y
 _atom_site_fract_z
 _atom_site_occupancy
  Sc  Sc0  1  0.194251  0.064230  0.935989  1
  Sc  Sc1  1  0.308340  0.046986  0.439066  1
  Sc  Sc2  1  0.308340  0.453014  0.439066  1
  Sc  Sc3  1  0.335471  0.750000  0.712478  1
  Sc  Sc4  1  0.477583  0.750000  0.005625  1
  Sc  Sc5  1  0.162785  0.250000  0.216922  1
  Sc  Sc6  1  0.804038  0.935050  0.066219  1
  Sc  Sc7  1  0.644948  0.750000  0.294186  1
  Sc  Sc8  1  0.032767  0.750000  0.505115  1
  Sc  Sc9  1  0.681981  0.926163  0.558725  1
  Sc  Sc10  1  0.194251  0.435770  0.935989  1
  Sc  Sc11  1  0.338228  0.250000  0.714051  1
  Sc  Sc12  1  0.186587  0.750000  0.237581  1
  Sc  Sc13  1  0.983846  0.250000  0.492907  1
  Sc  Sc14  1  0.681981  0.573837  0.558725  1
  Sc  Sc15  1  0.680771  0.250000  0.269219  1
  Sc  Sc16  1  0.804038  0.564950  0.066219  1
  Sc  Sc17  1  0.520865  0.250000  0.993910  1
  Sc  Sc18  1  0.824229  0.250000  0.769489  1
  Sc  Sc19  1  0.837754  0.750000  0.785694  1
  Ga  Ga20  1  0.400696  0.750000  0.471252  1
  Bi  Bi21  1  0.062734  0.491475  0.675672  1
  Bi  Bi22  1  0.563725  0.509112  0.823629  1
  Bi  Bi23  1  0.935987  0.988235  0.324800  1
  Bi  Bi24  1  0.436622  0.010524  0.176537  1
  Bi  Bi25  1  0.563725  0.990888  0.823629  1
  Bi  Bi26  1  0.097678  0.750000  0.976485  1
  Bi  Bi27  1  0.436622  0.489476  0.176537  1
  Bi  Bi28  1  0.062734  0.008525  0.675672  1
  Bi  Bi29  1  0.935987  0.511765  0.324800  1
  Bi  Bi30  1  0.597838  0.250000  0.526039  1
  Bi  Bi31  1  0.902598  0.250000  0.027770  1
