# generated using pymatgen
data_Cs2BaTe22
_symmetry_space_group_name_H-M   'P 1'
_cell_length_a   9.72847184
_cell_length_b   9.72846997
_cell_length_c   12.20956941
_cell_angle_alpha   113.47789903
_cell_angle_beta   113.47789662
_cell_angle_gamma   89.99999847
_symmetry_Int_Tables_number   1
_chemical_formula_structural   Cs2BaTe22
_chemical_formula_sum   'Cs2 Ba1 Te22'
_cell_volume   954.68632464
_cell_formula_units_Z   1
loop_
 _symmetry_equiv_pos_site_id
 _symmetry_equiv_pos_as_xyz
  1  'x, y, z'
loop_
 _atom_site_type_symbol
 _atom_site_label
 _atom_site_symmetry_multiplicity
 _atom_site_fract_x
 _atom_site_fract_y
 _atom_site_fract_z
 _atom_site_occupancy
  Cs  Cs0  1  0.176916  0.176916  0.353833  1
  Cs  Cs1  1  0.823084  0.823084  0.646167  1
  Ba  Ba2  1  0.500000  0.500000  0.000000  1
  Te  Te3  1  0.500000  0.000000  0.000000  1
  Te  Te4  1  0.194850  0.101763  0.000000  1
  Te  Te5  1  0.898237  0.194850  0.000000  1
  Te  Te6  1  0.000000  0.500000  0.000000  1
  Te  Te7  1  0.101763  0.805150  0.000000  1
  Te  Te8  1  0.805150  0.898237  0.000000  1
  Te  Te9  1  0.749364  0.329326  0.222928  1
  Te  Te10  1  0.329326  0.473564  0.222928  1
  Te  Te11  1  0.893603  0.749364  0.222928  1
  Te  Te12  1  0.473564  0.893603  0.222928  1
  Te  Te13  1  0.590944  0.393246  0.384208  1
  Te  Te14  1  0.990961  0.590944  0.384208  1
  Te  Te15  1  0.393246  0.793266  0.384208  1
  Te  Te16  1  0.793266  0.990961  0.384208  1
  Te  Te17  1  0.206735  0.009040  0.615793  1
  Te  Te18  1  0.606754  0.206735  0.615793  1
  Te  Te19  1  0.009040  0.409057  0.615793  1
  Te  Te20  1  0.409057  0.606754  0.615793  1
  Te  Te21  1  0.526436  0.106397  0.777072  1
  Te  Te22  1  0.106397  0.250636  0.777072  1
  Te  Te23  1  0.670674  0.526436  0.777072  1
  Te  Te24  1  0.250636  0.670674  0.777072  1
