# generated using pymatgen
data_Rb4InOsCl12
_symmetry_space_group_name_H-M   'P 1'
_cell_length_a   7.37127903
_cell_length_b   7.37322603
_cell_length_c   10.29461200
_cell_angle_alpha   90.00000000
_cell_angle_beta   90.00000000
_cell_angle_gamma   90.01102043
_symmetry_Int_Tables_number   1
_chemical_formula_structural   Rb4InOsCl12
_chemical_formula_sum   'Rb4 In1 Os1 Cl12'
_cell_volume   559.51324801
_cell_formula_units_Z   1
loop_
 _symmetry_equiv_pos_site_id
 _symmetry_equiv_pos_as_xyz
  1  'x, y, z'
loop_
 _atom_site_type_symbol
 _atom_site_label
 _atom_site_symmetry_multiplicity
 _atom_site_fract_x
 _atom_site_fract_y
 _atom_site_fract_z
 _atom_site_occupancy
  Rb  Rb0  1  0.500000  0.000000  0.779526  1
  Rb  Rb1  1  0.000000  0.500000  0.220478  1
  Rb  Rb2  1  0.500000  0.000000  0.220474  1
  Rb  Rb3  1  0.000000  0.500000  0.779522  1
  In  In4  1  0.000000  0.000000  0.000000  1
  Os  Os5  1  0.500000  0.500000  0.500000  1
  Cl  Cl6  1  0.000000  0.000000  0.750394  1
  Cl  Cl7  1  0.500000  0.500000  0.273916  1
  Cl  Cl8  1  0.723076  0.723059  0.500000  1
  Cl  Cl9  1  0.244555  0.244548  0.000000  1
  Cl  Cl10  1  0.723060  0.276955  0.500000  1
  Cl  Cl11  1  0.244549  0.755458  0.000000  1
  Cl  Cl12  1  0.000000  0.000000  0.249606  1
  Cl  Cl13  1  0.500000  0.500000  0.726084  1
  Cl  Cl14  1  0.276924  0.276941  0.500000  1
  Cl  Cl15  1  0.755445  0.755452  0.000000  1
  Cl  Cl16  1  0.276940  0.723045  0.500000  1
  Cl  Cl17  1  0.755451  0.244542  0.000000  1
