# generated using pymatgen
data_TbGd7(Ho3Sn4)4
_symmetry_space_group_name_H-M   'P 1'
_cell_length_a   8.06563501
_cell_length_b   8.22192060
_cell_length_c   15.51825400
_cell_angle_alpha   90.06629289
_cell_angle_beta   90.08562082
_cell_angle_gamma   89.91010980
_symmetry_Int_Tables_number   1
_chemical_formula_structural   TbGd7(Ho3Sn4)4
_chemical_formula_sum   'Tb1 Gd7 Ho12 Sn16'
_cell_volume   1029.09007699
_cell_formula_units_Z   1
loop_
 _symmetry_equiv_pos_site_id
 _symmetry_equiv_pos_as_xyz
  1  'x, y, z'
loop_
 _atom_site_type_symbol
 _atom_site_label
 _atom_site_symmetry_multiplicity
 _atom_site_fract_x
 _atom_site_fract_y
 _atom_site_fract_z
 _atom_site_occupancy
  Tb  Tb0  1  0.517335  0.320772  0.903112  1
  Gd  Gd1  1  0.016386  0.179876  0.596551  1
  Gd  Gd2  1  0.483617  0.679581  0.403668  1
  Gd  Gd3  1  0.983693  0.820284  0.095934  1
  Gd  Gd4  1  0.483466  0.679023  0.096048  1
  Gd  Gd5  1  0.983698  0.820308  0.403771  1
  Gd  Gd6  1  0.516326  0.320840  0.596474  1
  Gd  Gd7  1  0.016316  0.179972  0.903874  1
  Ho  Ho8  1  0.362434  0.837527  0.877084  1
  Ho  Ho9  1  0.861737  0.662445  0.623177  1
  Ho  Ho10  1  0.638076  0.162533  0.377075  1
  Ho  Ho11  1  0.137308  0.337692  0.122214  1
  Ho  Ho12  1  0.637386  0.162422  0.122762  1
  Ho  Ho13  1  0.137988  0.337430  0.377329  1
  Ho  Ho14  1  0.362115  0.837781  0.623536  1
  Ho  Ho15  1  0.862643  0.662416  0.877413  1
  Ho  Ho16  1  0.194686  0.502162  0.750210  1
  Ho  Ho17  1  0.694945  0.997808  0.750317  1
  Ho  Ho18  1  0.804868  0.497782  0.249689  1
  Ho  Ho19  1  0.305242  0.002241  0.249836  1
  Sn  Sn20  1  0.298828  0.039123  0.041684  1
  Sn  Sn21  1  0.798678  0.460867  0.458163  1
  Sn  Sn22  1  0.700618  0.961056  0.542119  1
  Sn  Sn23  1  0.202892  0.537858  0.957598  1
  Sn  Sn24  1  0.700920  0.961812  0.957931  1
  Sn  Sn25  1  0.201137  0.539890  0.541956  1
  Sn  Sn26  1  0.299127  0.038943  0.458330  1
  Sn  Sn27  1  0.796943  0.460034  0.041266  1
  Sn  Sn28  1  0.559703  0.620184  0.750415  1
  Sn  Sn29  1  0.059527  0.878841  0.750296  1
  Sn  Sn30  1  0.439792  0.379423  0.249817  1
  Sn  Sn31  1  0.940376  0.120869  0.249596  1
  Sn  Sn32  1  0.326630  0.147368  0.750634  1
  Sn  Sn33  1  0.825400  0.353246  0.750369  1
  Sn  Sn34  1  0.674735  0.853207  0.249903  1
  Sn  Sn35  1  0.174424  0.646389  0.249850  1
