# generated using pymatgen
data_Er9TmHg2(BiAu)2
_symmetry_space_group_name_H-M   'P 1'
_cell_length_a   8.66346222
_cell_length_b   8.66346304
_cell_length_c   8.71771568
_cell_angle_alpha   123.68592001
_cell_angle_beta   123.67437433
_cell_angle_gamma   83.33533854
_symmetry_Int_Tables_number   1
_chemical_formula_structural   Er9TmHg2(BiAu)2
_chemical_formula_sum   'Er9 Tm1 Hg2 Bi2 Au2'
_cell_volume   435.42509514
_cell_formula_units_Z   1
loop_
 _symmetry_equiv_pos_site_id
 _symmetry_equiv_pos_as_xyz
  1  'x, y, z'
loop_
 _atom_site_type_symbol
 _atom_site_label
 _atom_site_symmetry_multiplicity
 _atom_site_fract_x
 _atom_site_fract_y
 _atom_site_fract_z
 _atom_site_occupancy
  Er  Er0  1  0.500000  0.500000  0.000000  1
  Er  Er1  1  0.506003  0.005687  0.796005  1
  Er  Er2  1  0.209681  0.709997  0.203995  1
  Er  Er3  1  0.017608  0.198815  0.499698  1
  Er  Er4  1  0.699117  0.517910  0.500302  1
  Er  Er5  1  0.493997  0.994313  0.203995  1
  Er  Er6  1  0.790319  0.290003  0.796005  1
  Er  Er7  1  0.982392  0.801185  0.500302  1
  Er  Er8  1  0.300883  0.482090  0.499698  1
  Tm  Tm9  1  0.000000  0.000000  0.000000  1
  Hg  Hg10  1  0.140837  0.641243  0.782078  1
  Hg  Hg11  1  0.859163  0.358757  0.217922  1
  Bi  Bi12  1  0.249789  0.249789  0.000000  1
  Bi  Bi13  1  0.750211  0.750211  0.000000  1
  Au  Au14  1  0.637684  0.862674  0.500358  1
  Au  Au15  1  0.362316  0.137326  0.499642  1
