# generated using pymatgen
data_TbSm3(B4W)4
_symmetry_space_group_name_H-M   'P 1'
_cell_length_a   6.08262067
_cell_length_b   11.76425930
_cell_length_c   3.66485800
_cell_angle_alpha   90.00000000
_cell_angle_beta   90.00000000
_cell_angle_gamma   89.94608907
_symmetry_Int_Tables_number   1
_chemical_formula_structural   TbSm3(B4W)4
_chemical_formula_sum   'Tb1 Sm3 B16 W4'
_cell_volume   262.24805859
_cell_formula_units_Z   1
loop_
 _symmetry_equiv_pos_site_id
 _symmetry_equiv_pos_as_xyz
  1  'x, y, z'
loop_
 _atom_site_type_symbol
 _atom_site_label
 _atom_site_symmetry_multiplicity
 _atom_site_fract_x
 _atom_site_fract_y
 _atom_site_fract_z
 _atom_site_occupancy
  Tb  Tb0  1  0.873638  0.850325  0.000000  1
  Sm  Sm1  1  0.626226  0.349933  0.000000  1
  Sm  Sm2  1  0.373828  0.650338  0.000000  1
  Sm  Sm3  1  0.126068  0.149827  0.000000  1
  B  B4  1  0.784414  0.185233  0.500000  1
  B  B5  1  0.213738  0.814632  0.500000  1
  B  B6  1  0.284487  0.314375  0.500000  1
  B  B7  1  0.715884  0.686552  0.500000  1
  B  B8  1  0.864854  0.031212  0.500000  1
  B  B9  1  0.134668  0.967184  0.500000  1
  B  B10  1  0.364508  0.467994  0.500000  1
  B  B11  1  0.635672  0.532453  0.500000  1
  B  B12  1  0.887329  0.453618  0.500000  1
  B  B13  1  0.112345  0.546964  0.500000  1
  B  B14  1  0.387738  0.046078  0.500000  1
  B  B15  1  0.613970  0.952589  0.500000  1
  B  B16  1  0.976173  0.308154  0.500000  1
  B  B17  1  0.022920  0.693000  0.500000  1
  B  B18  1  0.476274  0.191580  0.500000  1
  B  B19  1  0.524994  0.808061  0.500000  1
  W  W20  1  0.630137  0.083327  0.000000  1
  W  W21  1  0.370305  0.915588  0.000000  1
  W  W22  1  0.129588  0.416257  0.000000  1
  W  W23  1  0.870241  0.584726  0.000000  1
