# generated using pymatgen
data_Fe3Sb10Te2Pt
_symmetry_space_group_name_H-M   'P 1'
_cell_length_a   7.99656922
_cell_length_b   7.99583242
_cell_length_c   7.99778291
_cell_angle_alpha   109.15546924
_cell_angle_beta   109.69078605
_cell_angle_gamma   109.71777419
_symmetry_Int_Tables_number   1
_chemical_formula_structural   Fe3Sb10Te2Pt
_chemical_formula_sum   'Fe3 Sb10 Te2 Pt1'
_cell_volume   392.91316854
_cell_formula_units_Z   1
loop_
 _symmetry_equiv_pos_site_id
 _symmetry_equiv_pos_as_xyz
  1  'x, y, z'
loop_
 _atom_site_type_symbol
 _atom_site_label
 _atom_site_symmetry_multiplicity
 _atom_site_fract_x
 _atom_site_fract_y
 _atom_site_fract_z
 _atom_site_occupancy
  Fe  Fe0  1  0.500857  0.998219  0.002158  1
  Fe  Fe1  1  0.995995  0.998356  0.500765  1
  Fe  Fe2  1  0.001464  0.501380  0.998589  1
  Sb  Sb3  1  0.501892  0.666043  0.855364  1
  Sb  Sb4  1  0.672510  0.167812  0.840981  1
  Sb  Sb5  1  0.841476  0.157651  0.317281  1
  Sb  Sb6  1  0.168545  0.837517  0.671896  1
  Sb  Sb7  1  0.172389  0.329744  0.841635  1
  Sb  Sb8  1  0.145300  0.496253  0.330520  1
  Sb  Sb9  1  0.328220  0.144810  0.495375  1
  Sb  Sb10  1  0.495362  0.329121  0.145826  1
  Sb  Sb11  1  0.319683  0.841701  0.160880  1
  Sb  Sb12  1  0.829980  0.668812  0.160411  1
  Te  Te13  1  0.669252  0.858559  0.507557  1
  Te  Te14  1  0.857591  0.504011  0.669258  1
  Pt  Pt15  1  0.499484  0.500011  0.501503  1
