# generated using pymatgen
data_YHo6P12Rh17
_symmetry_space_group_name_H-M   'P 1'
_cell_length_a   3.94797400
_cell_length_b   11.23488200
_cell_length_c   12.86325600
_cell_angle_alpha   90.00000000
_cell_angle_beta   90.00000000
_cell_angle_gamma   90.00000000
_symmetry_Int_Tables_number   1
_chemical_formula_structural   YHo6P12Rh17
_chemical_formula_sum   'Y1 Ho6 P12 Rh17'
_cell_volume   570.55000325
_cell_formula_units_Z   1
loop_
 _symmetry_equiv_pos_site_id
 _symmetry_equiv_pos_as_xyz
  1  'x, y, z'
loop_
 _atom_site_type_symbol
 _atom_site_label
 _atom_site_symmetry_multiplicity
 _atom_site_fract_x
 _atom_site_fract_y
 _atom_site_fract_z
 _atom_site_occupancy
  Y  Y0  1  0.500000  0.500000  0.157014  1
  Ho  Ho1  1  0.000000  0.500000  0.523462  1
  Ho  Ho2  1  0.500000  0.000000  0.477311  1
  Ho  Ho3  1  0.500000  0.818485  0.207032  1
  Ho  Ho4  1  0.500000  0.181515  0.207032  1
  Ho  Ho5  1  0.000000  0.683219  0.796114  1
  Ho  Ho6  1  0.000000  0.316781  0.796114  1
  P  P7  1  0.500000  0.314538  0.620214  1
  P  P8  1  0.500000  0.685462  0.620214  1
  P  P9  1  0.000000  0.184798  0.384785  1
  P  P10  1  0.000000  0.815202  0.384785  1
  P  P11  1  0.500000  0.500000  0.877045  1
  P  P12  1  0.000000  0.000000  0.122158  1
  P  P13  1  0.500000  0.852283  0.887801  1
  P  P14  1  0.500000  0.147717  0.887801  1
  P  P15  1  0.000000  0.666116  0.104451  1
  P  P16  1  0.000000  0.333884  0.104451  1
  P  P17  1  0.500000  0.500000  0.367062  1
  P  P18  1  0.000000  0.000000  0.646371  1
  Rh  Rh19  1  0.000000  0.500000  0.980013  1
  Rh  Rh20  1  0.500000  0.000000  0.023199  1
  Rh  Rh21  1  0.500000  0.287558  0.436107  1
  Rh  Rh22  1  0.500000  0.712442  0.436107  1
  Rh  Rh23  1  0.000000  0.202390  0.572018  1
  Rh  Rh24  1  0.000000  0.797610  0.572018  1
  Rh  Rh25  1  0.500000  0.875007  0.708848  1
  Rh  Rh26  1  0.500000  0.124993  0.708848  1
  Rh  Rh27  1  0.000000  0.629765  0.294643  1
  Rh  Rh28  1  0.000000  0.370235  0.294643  1
  Rh  Rh29  1  0.500000  0.326742  0.984316  1
  Rh  Rh30  1  0.500000  0.673258  0.984316  1
  Rh  Rh31  1  0.000000  0.161718  0.003207  1
  Rh  Rh32  1  0.000000  0.838282  0.003207  1
  Rh  Rh33  1  0.000000  0.000000  0.827016  1
  Rh  Rh34  1  0.500000  0.500000  0.700777  1
  Rh  Rh35  1  0.000000  0.000000  0.299503  1
