# generated using pymatgen
data_Y16MgIn(Ni2Ag)2
_symmetry_space_group_name_H-M   'P 1'
_cell_length_a   9.58300623
_cell_length_b   9.55611713
_cell_length_c   9.55611679
_cell_angle_alpha   60.10982937
_cell_angle_beta   60.05292631
_cell_angle_gamma   60.05293229
_symmetry_Int_Tables_number   1
_chemical_formula_structural   Y16MgIn(Ni2Ag)2
_chemical_formula_sum   'Y16 Mg1 In1 Ni4 Ag2'
_cell_volume   619.80693374
_cell_formula_units_Z   1
loop_
 _symmetry_equiv_pos_site_id
 _symmetry_equiv_pos_as_xyz
  1  'x, y, z'
loop_
 _atom_site_type_symbol
 _atom_site_label
 _atom_site_symmetry_multiplicity
 _atom_site_fract_x
 _atom_site_fract_y
 _atom_site_fract_z
 _atom_site_occupancy
  Y  Y0  1  0.059900  0.440706  0.440706  1
  Y  Y1  1  0.439747  0.060491  0.060491  1
  Y  Y2  1  0.437372  0.063007  0.438370  1
  Y  Y3  1  0.059007  0.440829  0.059825  1
  Y  Y4  1  0.437372  0.438370  0.063007  1
  Y  Y5  1  0.059007  0.059825  0.440829  1
  Y  Y6  1  0.185094  0.815769  0.815769  1
  Y  Y7  1  0.811605  0.187555  0.187555  1
  Y  Y8  1  0.814008  0.191676  0.815101  1
  Y  Y9  1  0.184666  0.813045  0.188683  1
  Y  Y10  1  0.814008  0.815101  0.191676  1
  Y  Y11  1  0.184666  0.188683  0.813045  1
  Y  Y12  1  0.593781  0.596353  0.596353  1
  Y  Y13  1  0.601070  0.600264  0.202089  1
  Y  Y14  1  0.601070  0.202089  0.600264  1
  Y  Y15  1  0.194640  0.602569  0.602569  1
  Mg  Mg16  1  0.530960  0.819014  0.819014  1
  In  In17  1  0.833215  0.830107  0.830107  1
  Ni  Ni18  1  0.391539  0.394881  0.394881  1
  Ni  Ni19  1  0.388799  0.392538  0.823386  1
  Ni  Ni20  1  0.388799  0.823386  0.392538  1
  Ni  Ni21  1  0.823506  0.391665  0.391665  1
  Ag  Ag22  1  0.833083  0.832177  0.499897  1
  Ag  Ag23  1  0.833083  0.499897  0.832177  1
