# generated using pymatgen
data_Mg4NpRuN6
_symmetry_space_group_name_H-M   'P 1'
_cell_length_a   5.36685695
_cell_length_b   5.36685613
_cell_length_c   5.43393000
_cell_angle_alpha   99.33438732
_cell_angle_beta   99.33438588
_cell_angle_gamma   120.07962357
_symmetry_Int_Tables_number   1
_chemical_formula_structural   Mg4NpRuN6
_chemical_formula_sum   'Mg4 Np1 Ru1 N6'
_cell_volume   128.09426241
_cell_formula_units_Z   1
loop_
 _symmetry_equiv_pos_site_id
 _symmetry_equiv_pos_as_xyz
  1  'x, y, z'
loop_
 _atom_site_type_symbol
 _atom_site_label
 _atom_site_symmetry_multiplicity
 _atom_site_fract_x
 _atom_site_fract_y
 _atom_site_fract_z
 _atom_site_occupancy
  Mg  Mg0  1  0.838500  0.161500  0.500000  1
  Mg  Mg1  1  0.165801  0.834199  0.500000  1
  Mg  Mg2  1  0.493879  0.506121  0.500000  1
  Mg  Mg3  1  0.999969  0.000031  0.000000  1
  Np  Np4  1  0.666892  0.333108  0.000000  1
  Ru  Ru5  1  0.334791  0.665209  0.000000  1
  N  N6  1  0.424421  0.082089  0.236339  1
  N  N7  1  0.917911  0.575579  0.763661  1
  N  N8  1  0.577542  0.920489  0.759213  1
  N  N9  1  0.079511  0.422458  0.240787  1
  N  N10  1  0.739899  0.739115  0.243075  1
  N  N11  1  0.260885  0.260101  0.756925  1
