# generated using pymatgen
data_LaPrTa2O7F2
_symmetry_space_group_name_H-M   'P 1'
_cell_length_a   8.07216744
_cell_length_b   8.07216682
_cell_length_c   6.74177601
_cell_angle_alpha   114.07949546
_cell_angle_beta   114.07949463
_cell_angle_gamma   28.17132734
_symmetry_Int_Tables_number   1
_chemical_formula_structural   LaPrTa2O7F2
_chemical_formula_sum   'La1 Pr1 Ta2 O7 F2'
_cell_volume   188.15303503
_cell_formula_units_Z   1
loop_
 _symmetry_equiv_pos_site_id
 _symmetry_equiv_pos_as_xyz
  1  'x, y, z'
loop_
 _atom_site_type_symbol
 _atom_site_label
 _atom_site_symmetry_multiplicity
 _atom_site_fract_x
 _atom_site_fract_y
 _atom_site_fract_z
 _atom_site_occupancy
  La  La0  1  0.297608  0.297608  0.301182  1
  Pr  Pr1  1  0.701239  0.701239  0.697448  1
  Ta  Ta2  1  0.038174  0.038174  0.310501  1
  Ta  Ta3  1  0.962171  0.962171  0.692561  1
  O  O4  1  0.000342  0.000342  0.001566  1
  O  O5  1  0.917149  0.917149  0.335175  1
  O  O6  1  0.549060  0.549060  0.346630  1
  O  O7  1  0.177050  0.177050  0.431329  1
  O  O8  1  0.823395  0.823395  0.570934  1
  O  O9  1  0.452497  0.452497  0.656638  1
  O  O10  1  0.083338  0.083338  0.666846  1
  F  F11  1  0.711229  0.711229  0.074091  1
  F  F12  1  0.286749  0.286749  0.915103  1
