# generated using pymatgen
data_Dy4Er7Lu(GaCo2)2
_symmetry_space_group_name_H-M   'P 1'
_cell_length_a   8.19612312
_cell_length_b   8.19444531
_cell_length_c   8.19612311
_cell_angle_alpha   106.91324152
_cell_angle_beta   109.50008542
_cell_angle_gamma   112.04934114
_symmetry_Int_Tables_number   1
_chemical_formula_structural   Dy4Er7Lu(GaCo2)2
_chemical_formula_sum   'Dy4 Er7 Lu1 Ga2 Co4'
_cell_volume   422.86038833
_cell_formula_units_Z   1
loop_
 _symmetry_equiv_pos_site_id
 _symmetry_equiv_pos_as_xyz
  1  'x, y, z'
loop_
 _atom_site_type_symbol
 _atom_site_label
 _atom_site_symmetry_multiplicity
 _atom_site_fract_x
 _atom_site_fract_y
 _atom_site_fract_z
 _atom_site_occupancy
  Dy  Dy0  1  0.698753  0.261625  0.961517  1
  Dy  Dy1  1  0.302044  0.738594  0.039975  1
  Dy  Dy2  1  0.698619  0.738594  0.436552  1
  Dy  Dy3  1  0.300108  0.261625  0.562870  1
  Er  Er4  1  0.809934  0.482961  0.673027  1
  Er  Er5  1  0.189928  0.863011  0.673083  1
  Er  Er6  1  0.189179  0.515718  0.326539  1
  Er  Er7  1  0.601161  0.781443  0.820704  1
  Er  Er8  1  0.960737  0.781443  0.180282  1
  Er  Er9  1  0.038258  0.218867  0.819185  1
  Er  Er10  1  0.399683  0.218867  0.180611  1
  Lu  Lu11  1  0.811575  0.138534  0.326959  1
  Ga  Ga12  1  0.499599  0.499310  0.999710  1
  Ga  Ga13  1  0.501813  0.000881  0.499068  1
  Co  Co14  1  0.839795  0.499081  0.340213  1
  Co  Co15  1  0.158868  0.499081  0.659286  1
  Co  Co16  1  0.999653  0.115227  0.115573  1
  Co  Co17  1  0.000292  0.885140  0.884848  1
