# generated using pymatgen
data_La6RuI10
_symmetry_space_group_name_H-M   'P 1'
_cell_length_a   8.16208226
_cell_length_b   10.13296372
_cell_length_c   10.15947856
_cell_angle_alpha   107.07868383
_cell_angle_beta   96.93108969
_cell_angle_gamma   104.87004454
_symmetry_Int_Tables_number   1
_chemical_formula_structural   La6RuI10
_chemical_formula_sum   'La6 Ru1 I10'
_cell_volume   758.62073020
_cell_formula_units_Z   1
loop_
 _symmetry_equiv_pos_site_id
 _symmetry_equiv_pos_as_xyz
  1  'x, y, z'
loop_
 _atom_site_type_symbol
 _atom_site_label
 _atom_site_symmetry_multiplicity
 _atom_site_fract_x
 _atom_site_fract_y
 _atom_site_fract_z
 _atom_site_occupancy
  La  La0  1  0.116735  0.043172  0.759802  1
  La  La1  1  0.883265  0.956828  0.240198  1
  La  La2  1  0.967113  0.282625  0.083183  1
  La  La3  1  0.641761  0.871306  0.827588  1
  La  La4  1  0.358239  0.128694  0.172412  1
  La  La5  1  0.032887  0.717375  0.916817  1
  Ru  Ru6  1  0.000000  0.000000  0.000000  1
  I  I7  1  0.350275  0.450931  0.272181  1
  I  I8  1  0.649725  0.549069  0.727819  1
  I  I9  1  0.742376  0.912719  0.538914  1
  I  I10  1  0.086588  0.371050  0.819450  1
  I  I11  1  0.913412  0.628950  0.180550  1
  I  I12  1  0.454613  0.816138  0.091884  1
  I  I13  1  0.545387  0.183862  0.908116  1
  I  I14  1  0.782998  0.257667  0.346181  1
  I  I15  1  0.217002  0.742333  0.653819  1
  I  I16  1  0.257624  0.087281  0.461086  1
