# generated using pymatgen
data_CaDy3Ni13C4
_symmetry_space_group_name_H-M   'P 1'
_cell_length_a   8.36568568
_cell_length_b   8.36568560
_cell_length_c   3.86266800
_cell_angle_alpha   90.00000000
_cell_angle_beta   90.00000000
_cell_angle_gamma   90.60647607
_symmetry_Int_Tables_number   1
_chemical_formula_structural   CaDy3Ni13C4
_chemical_formula_sum   'Ca1 Dy3 Ni13 C4'
_cell_volume   270.31250264
_cell_formula_units_Z   1
loop_
 _symmetry_equiv_pos_site_id
 _symmetry_equiv_pos_as_xyz
  1  'x, y, z'
loop_
 _atom_site_type_symbol
 _atom_site_label
 _atom_site_symmetry_multiplicity
 _atom_site_fract_x
 _atom_site_fract_y
 _atom_site_fract_z
 _atom_site_occupancy
  Ca  Ca0  1  0.649312  0.649312  0.500000  1
  Dy  Dy1  1  0.812491  0.187151  0.500000  1
  Dy  Dy2  1  0.187151  0.812491  0.500000  1
  Dy  Dy3  1  0.349565  0.349565  0.500000  1
  Ni  Ni4  1  0.497320  0.005036  0.500000  1
  Ni  Ni5  1  0.005036  0.497320  0.500000  1
  Ni  Ni6  1  0.001921  0.001921  0.000000  1
  Ni  Ni7  1  0.425731  0.783906  0.000000  1
  Ni  Ni8  1  0.568958  0.213307  0.000000  1
  Ni  Ni9  1  0.213307  0.568958  0.000000  1
  Ni  Ni10  1  0.783906  0.425731  0.000000  1
  Ni  Ni11  1  0.712009  0.929909  0.000000  1
  Ni  Ni12  1  0.291696  0.075260  0.000000  1
  Ni  Ni13  1  0.075260  0.291696  0.000000  1
  Ni  Ni14  1  0.929909  0.712009  0.000000  1
  Ni  Ni15  1  0.877532  0.877532  0.500000  1
  Ni  Ni16  1  0.124469  0.124469  0.500000  1
  C  C17  1  0.441672  0.555443  0.000000  1
  C  C18  1  0.555443  0.441672  0.000000  1
  C  C19  1  0.500842  0.996471  0.000000  1
  C  C20  1  0.996471  0.500842  0.000000  1
