# generated using pymatgen
data_TbCe2Er3In10
_symmetry_space_group_name_H-M   'P 1'
_cell_length_a   6.46551125
_cell_length_b   6.46560208
_cell_length_c   10.28803039
_cell_angle_alpha   89.94115973
_cell_angle_beta   89.94062406
_cell_angle_gamma   102.73079220
_symmetry_Int_Tables_number   1
_chemical_formula_structural   TbCe2Er3In10
_chemical_formula_sum   'Tb1 Ce2 Er3 In10'
_cell_volume   419.50146092
_cell_formula_units_Z   1
loop_
 _symmetry_equiv_pos_site_id
 _symmetry_equiv_pos_as_xyz
  1  'x, y, z'
loop_
 _atom_site_type_symbol
 _atom_site_label
 _atom_site_symmetry_multiplicity
 _atom_site_fract_x
 _atom_site_fract_y
 _atom_site_fract_z
 _atom_site_occupancy
  Tb  Tb0  1  0.793439  0.206573  0.999991  1
  Ce  Ce1  1  0.207994  0.792033  0.499987  1
  Ce  Ce2  1  0.208113  0.791890  0.000007  1
  Er  Er3  1  0.618217  0.620103  0.250058  1
  Er  Er4  1  0.379937  0.381748  0.749936  1
  Er  Er5  1  0.793481  0.206499  0.500005  1
  In  In6  1  0.004997  0.003855  0.250415  1
  In  In7  1  0.996143  0.994963  0.749573  1
  In  In8  1  0.304711  0.304444  0.045538  1
  In  In9  1  0.695586  0.695300  0.954497  1
  In  In10  1  0.303702  0.304340  0.454899  1
  In  In11  1  0.695679  0.696310  0.545092  1
  In  In12  1  0.502948  0.067687  0.250747  1
  In  In13  1  0.932379  0.497026  0.749259  1
  In  In14  1  0.504037  0.941284  0.749840  1
  In  In15  1  0.058638  0.495944  0.250157  1
