# generated using pymatgen
data_GdTlP2O7
_symmetry_space_group_name_H-M   'P 1'
_cell_length_a   11.10000800
_cell_length_b   7.87832064
_cell_length_c   8.82235400
_cell_angle_alpha   74.05365208
_cell_angle_beta   90.00000000
_cell_angle_gamma   90.00000000
_symmetry_Int_Tables_number   1
_chemical_formula_structural   GdTlP2O7
_chemical_formula_sum   'Gd4 Tl4 P8 O28'
_cell_volume   741.82158750
_cell_formula_units_Z   4
loop_
 _symmetry_equiv_pos_site_id
 _symmetry_equiv_pos_as_xyz
  1  'x, y, z'
loop_
 _atom_site_type_symbol
 _atom_site_label
 _atom_site_symmetry_multiplicity
 _atom_site_fract_x
 _atom_site_fract_y
 _atom_site_fract_z
 _atom_site_occupancy
  Gd  Gd0  1  0.403040  0.233675  0.249359  1
  Gd  Gd1  1  0.903040  0.766325  0.250641  1
  Gd  Gd2  1  0.596960  0.766325  0.750641  1
  Gd  Gd3  1  0.096960  0.233675  0.749359  1
  Tl  Tl4  1  0.676998  0.183697  0.932455  1
  Tl  Tl5  1  0.176998  0.816303  0.567545  1
  Tl  Tl6  1  0.323002  0.816303  0.067545  1
  Tl  Tl7  1  0.823002  0.183697  0.432455  1
  P  P8  1  0.400962  0.129646  0.687820  1
  P  P9  1  0.900962  0.870354  0.812180  1
  P  P10  1  0.599038  0.870354  0.312180  1
  P  P11  1  0.099038  0.129646  0.187820  1
  P  P12  1  0.137100  0.435906  0.310866  1
  P  P13  1  0.637100  0.564094  0.189134  1
  P  P14  1  0.862900  0.564094  0.689134  1
  P  P15  1  0.362900  0.435906  0.810866  1
  O  O16  1  0.271211  0.449993  0.268239  1
  O  O17  1  0.771211  0.550007  0.231761  1
  O  O18  1  0.728789  0.550007  0.731761  1
  O  O19  1  0.228789  0.449993  0.768239  1
  O  O20  1  0.000415  0.012725  0.287400  1
  O  O21  1  0.500415  0.987275  0.212600  1
  O  O22  1  0.999585  0.987275  0.712600  1
  O  O23  1  0.499585  0.012725  0.787400  1
  O  O24  1  0.110419  0.331540  0.480409  1
  O  O25  1  0.610419  0.668460  0.019591  1
  O  O26  1  0.889581  0.668460  0.519591  1
  O  O27  1  0.389581  0.331540  0.980409  1
  O  O28  1  0.091206  0.137409  0.014591  1
  O  O29  1  0.591206  0.862591  0.485409  1
  O  O30  1  0.908794  0.862591  0.985409  1
  O  O31  1  0.408794  0.137409  0.514591  1
  O  O32  1  0.071441  0.328583  0.198777  1
  O  O33  1  0.571441  0.671417  0.301223  1
  O  O34  1  0.928559  0.671417  0.801223  1
  O  O35  1  0.428559  0.328583  0.698777  1
  O  O36  1  0.275340  0.072863  0.757502  1
  O  O37  1  0.775340  0.927137  0.742498  1
  O  O38  1  0.724660  0.927137  0.242498  1
  O  O39  1  0.224660  0.072863  0.257502  1
  O  O40  1  0.421628  0.618059  0.762936  1
  O  O41  1  0.921628  0.381941  0.737064  1
  O  O42  1  0.578372  0.381941  0.237064  1
  O  O43  1  0.078372  0.618059  0.262936  1
