# generated using pymatgen
data_Y3Zr2Si12Ir19
_symmetry_space_group_name_H-M   'P 1'
_cell_length_a   12.74953100
_cell_length_b   12.74953148
_cell_length_c   3.92345500
_cell_angle_alpha   90.00000000
_cell_angle_beta   90.00000000
_cell_angle_gamma   120.00000134
_symmetry_Int_Tables_number   1
_chemical_formula_structural   Y3Zr2Si12Ir19
_chemical_formula_sum   'Y3 Zr2 Si12 Ir19'
_cell_volume   552.31614259
_cell_formula_units_Z   1
loop_
 _symmetry_equiv_pos_site_id
 _symmetry_equiv_pos_as_xyz
  1  'x, y, z'
loop_
 _atom_site_type_symbol
 _atom_site_label
 _atom_site_symmetry_multiplicity
 _atom_site_fract_x
 _atom_site_fract_y
 _atom_site_fract_z
 _atom_site_occupancy
  Y  Y0  1  0.813494  0.000000  0.500000  1
  Y  Y1  1  0.000000  0.813494  0.500000  1
  Y  Y2  1  0.186506  0.186506  0.500000  1
  Zr  Zr3  1  0.333333  0.666667  0.000000  1
  Zr  Zr4  1  0.666667  0.333333  0.000000  1
  Si  Si5  1  0.180893  0.000000  0.000000  1
  Si  Si6  1  0.000000  0.180893  0.000000  1
  Si  Si7  1  0.819107  0.819107  0.000000  1
  Si  Si8  1  0.171482  0.483050  0.500000  1
  Si  Si9  1  0.516950  0.688431  0.500000  1
  Si  Si10  1  0.311569  0.828518  0.500000  1
  Si  Si11  1  0.688431  0.516950  0.500000  1
  Si  Si12  1  0.828518  0.311569  0.500000  1
  Si  Si13  1  0.483050  0.171482  0.500000  1
  Si  Si14  1  0.633164  0.000000  0.000000  1
  Si  Si15  1  0.000000  0.633164  0.000000  1
  Si  Si16  1  0.366836  0.366836  0.000000  1
  Ir  Ir17  1  0.447472  0.000000  0.000000  1
  Ir  Ir18  1  0.000000  0.447472  0.000000  1
  Ir  Ir19  1  0.552528  0.552528  0.000000  1
  Ir  Ir20  1  0.362697  0.490597  0.500000  1
  Ir  Ir21  1  0.509403  0.872099  0.500000  1
  Ir  Ir22  1  0.127901  0.637303  0.500000  1
  Ir  Ir23  1  0.872099  0.509403  0.500000  1
  Ir  Ir24  1  0.637303  0.127901  0.500000  1
  Ir  Ir25  1  0.490597  0.362697  0.500000  1
  Ir  Ir26  1  0.183238  0.379552  0.000000  1
  Ir  Ir27  1  0.620448  0.803686  0.000000  1
  Ir  Ir28  1  0.196314  0.816762  0.000000  1
  Ir  Ir29  1  0.803686  0.620448  0.000000  1
  Ir  Ir30  1  0.816762  0.196314  0.000000  1
  Ir  Ir31  1  0.379552  0.183238  0.000000  1
  Ir  Ir32  1  0.283980  0.000000  0.500000  1
  Ir  Ir33  1  0.000000  0.283980  0.500000  1
  Ir  Ir34  1  0.716020  0.716020  0.500000  1
  Ir  Ir35  1  0.000000  0.000000  0.000000  1
