# generated using pymatgen
data_Gd12InSi4Ag
_symmetry_space_group_name_H-M   'P 1'
_cell_length_a   8.63047626
_cell_length_b   8.63037793
_cell_length_c   8.63046800
_cell_angle_alpha   111.82711771
_cell_angle_beta   111.56608660
_cell_angle_gamma   105.10702423
_symmetry_Int_Tables_number   1
_chemical_formula_structural   Gd12InSi4Ag
_chemical_formula_sum   'Gd12 In1 Si4 Ag1'
_cell_volume   492.71773681
_cell_formula_units_Z   1
loop_
 _symmetry_equiv_pos_site_id
 _symmetry_equiv_pos_as_xyz
  1  'x, y, z'
loop_
 _atom_site_type_symbol
 _atom_site_label
 _atom_site_symmetry_multiplicity
 _atom_site_fract_x
 _atom_site_fract_y
 _atom_site_fract_z
 _atom_site_occupancy
  Gd  Gd0  1  0.182222  0.273712  0.456123  1
  Gd  Gd1  1  0.817778  0.726288  0.543877  1
  Gd  Gd2  1  0.182408  0.726287  0.908508  1
  Gd  Gd3  1  0.817592  0.273713  0.091492  1
  Gd  Gd4  1  0.321261  0.619520  0.298258  1
  Gd  Gd5  1  0.678739  0.380480  0.701742  1
  Gd  Gd6  1  0.321407  0.023090  0.701686  1
  Gd  Gd7  1  0.678593  0.976910  0.298314  1
  Gd  Gd8  1  0.442525  0.241347  0.201396  1
  Gd  Gd9  1  0.557475  0.758653  0.798604  1
  Gd  Gd10  1  0.039951  0.241347  0.798822  1
  Gd  Gd11  1  0.960049  0.758653  0.201178  1
  In  In12  1  0.500000  0.500000  0.000000  1
  Si  Si13  1  0.115058  0.615064  0.500008  1
  Si  Si14  1  0.884942  0.384936  0.499992  1
  Si  Si15  1  0.363275  0.000001  0.363275  1
  Si  Si16  1  0.636725  0.999999  0.636725  1
  Ag  Ag17  1  0.000000  0.000000  0.000000  1
