# generated using pymatgen
data_Dy3Zn3Ge2Rh
_symmetry_space_group_name_H-M   'P 1'
_cell_length_a   6.95949100
_cell_length_b   6.95949211
_cell_length_c   4.24614300
_cell_angle_alpha   90.00000000
_cell_angle_beta   90.00000000
_cell_angle_gamma   119.99999946
_symmetry_Int_Tables_number   1
_chemical_formula_structural   Dy3Zn3Ge2Rh
_chemical_formula_sum   'Dy3 Zn3 Ge2 Rh1'
_cell_volume   178.10670724
_cell_formula_units_Z   1
loop_
 _symmetry_equiv_pos_site_id
 _symmetry_equiv_pos_as_xyz
  1  'x, y, z'
loop_
 _atom_site_type_symbol
 _atom_site_label
 _atom_site_symmetry_multiplicity
 _atom_site_fract_x
 _atom_site_fract_y
 _atom_site_fract_z
 _atom_site_occupancy
  Dy  Dy0  1  0.408602  0.000000  0.000000  1
  Dy  Dy1  1  0.000000  0.408602  0.000000  1
  Dy  Dy2  1  0.591397  0.591398  0.000000  1
  Zn  Zn3  1  0.765903  0.000000  0.499999  1
  Zn  Zn4  1  0.234096  0.234097  0.499999  1
  Zn  Zn5  1  0.000000  0.765903  0.499999  1
  Ge  Ge6  1  0.666666  0.333334  0.499999  1
  Ge  Ge7  1  0.333333  0.666666  0.499999  1
  Rh  Rh8  1  0.000000  0.000000  0.000000  1
