# generated using pymatgen
data_Y4Si4IrRu
_symmetry_space_group_name_H-M   'P 1'
_cell_length_a   5.73093108
_cell_length_b   5.73093059
_cell_length_c   10.10528241
_cell_angle_alpha   63.06252916
_cell_angle_beta   63.06253037
_cell_angle_gamma   43.23982184
_symmetry_Int_Tables_number   1
_chemical_formula_structural   Y4Si4IrRu
_chemical_formula_sum   'Y4 Si4 Ir1 Ru1'
_cell_volume   198.54284893
_cell_formula_units_Z   1
loop_
 _symmetry_equiv_pos_site_id
 _symmetry_equiv_pos_as_xyz
  1  'x, y, z'
loop_
 _atom_site_type_symbol
 _atom_site_label
 _atom_site_symmetry_multiplicity
 _atom_site_fract_x
 _atom_site_fract_y
 _atom_site_fract_z
 _atom_site_occupancy
  Y  Y0  1  0.005329  0.005329  0.322433  1
  Y  Y1  1  0.994086  0.994086  0.677254  1
  Y  Y2  1  0.815300  0.815300  0.106050  1
  Y  Y3  1  0.184734  0.184734  0.890779  1
  Si  Si4  1  0.647165  0.647165  0.434723  1
  Si  Si5  1  0.357049  0.357049  0.563746  1
  Si  Si6  1  0.504416  0.504416  0.123997  1
  Si  Si7  1  0.491537  0.491537  0.876516  1
  Ir  Ir8  1  0.727528  0.727528  0.626485  1
  Ru  Ru9  1  0.272855  0.272855  0.378017  1
