# generated using pymatgen
data_TbDy3ZnCo
_symmetry_space_group_name_H-M   'P 1'
_cell_length_a   9.35126557
_cell_length_b   9.35126492
_cell_length_c   9.35126500
_cell_angle_alpha   60.00000327
_cell_angle_beta   60.00000557
_cell_angle_gamma   60.00000141
_symmetry_Int_Tables_number   1
_chemical_formula_structural   TbDy3ZnCo
_chemical_formula_sum   'Tb4 Dy12 Zn4 Co4'
_cell_volume   578.22405112
_cell_formula_units_Z   4
loop_
 _symmetry_equiv_pos_site_id
 _symmetry_equiv_pos_as_xyz
  1  'x, y, z'
loop_
 _atom_site_type_symbol
 _atom_site_label
 _atom_site_symmetry_multiplicity
 _atom_site_fract_x
 _atom_site_fract_y
 _atom_site_fract_z
 _atom_site_occupancy
  Tb  Tb0  1  0.600188  0.600188  0.600188  1
  Tb  Tb1  1  0.600188  0.600188  0.199438  1
  Tb  Tb2  1  0.600188  0.199438  0.600188  1
  Tb  Tb3  1  0.199438  0.600188  0.600188  1
  Dy  Dy4  1  0.059873  0.440127  0.440127  1
  Dy  Dy5  1  0.440127  0.059873  0.059873  1
  Dy  Dy6  1  0.440127  0.059873  0.440127  1
  Dy  Dy7  1  0.059873  0.440127  0.059873  1
  Dy  Dy8  1  0.440127  0.440127  0.059873  1
  Dy  Dy9  1  0.059873  0.059873  0.440127  1
  Dy  Dy10  1  0.187322  0.812678  0.812678  1
  Dy  Dy11  1  0.812678  0.187322  0.187322  1
  Dy  Dy12  1  0.812678  0.187322  0.812678  1
  Dy  Dy13  1  0.187322  0.812678  0.187322  1
  Dy  Dy14  1  0.812678  0.812678  0.187322  1
  Dy  Dy15  1  0.187322  0.187322  0.812678  1
  Zn  Zn16  1  0.827530  0.827530  0.827530  1
  Zn  Zn17  1  0.827530  0.827530  0.517411  1
  Zn  Zn18  1  0.827530  0.517411  0.827530  1
  Zn  Zn19  1  0.517411  0.827530  0.827530  1
  Co  Co20  1  0.391791  0.391791  0.391791  1
  Co  Co21  1  0.391791  0.391791  0.824626  1
  Co  Co22  1  0.391791  0.824626  0.391791  1
  Co  Co23  1  0.824626  0.391791  0.391791  1
