# generated using pymatgen
data_Y3Sc3Sn6(RuPt2)2
_symmetry_space_group_name_H-M   'P 1'
_cell_length_a   7.69222600
_cell_length_b   7.69222589
_cell_length_c   7.21896700
_cell_angle_alpha   90.00000000
_cell_angle_beta   90.00000000
_cell_angle_gamma   120.00000048
_symmetry_Int_Tables_number   1
_chemical_formula_structural   Y3Sc3Sn6(RuPt2)2
_chemical_formula_sum   'Y3 Sc3 Sn6 Ru2 Pt4'
_cell_volume   369.92165110
_cell_formula_units_Z   1
loop_
 _symmetry_equiv_pos_site_id
 _symmetry_equiv_pos_as_xyz
  1  'x, y, z'
loop_
 _atom_site_type_symbol
 _atom_site_label
 _atom_site_symmetry_multiplicity
 _atom_site_fract_x
 _atom_site_fract_y
 _atom_site_fract_z
 _atom_site_occupancy
  Y  Y0  1  0.397230  0.998031  0.750000  1
  Y  Y1  1  0.600801  0.602770  0.750000  1
  Y  Y2  1  0.001969  0.399199  0.750000  1
  Sc  Sc3  1  0.392323  0.002620  0.250000  1
  Sc  Sc4  1  0.610297  0.607677  0.250000  1
  Sc  Sc5  1  0.997380  0.389703  0.250000  1
  Sn  Sn6  1  0.269859  0.270352  0.009267  1
  Sn  Sn7  1  0.000493  0.730141  0.009267  1
  Sn  Sn8  1  0.000493  0.730141  0.490733  1
  Sn  Sn9  1  0.729648  0.999507  0.490733  1
  Sn  Sn10  1  0.269859  0.270352  0.490733  1
  Sn  Sn11  1  0.729648  0.999507  0.009267  1
  Ru  Ru12  1  0.000000  0.000000  0.750000  1
  Ru  Ru13  1  0.000000  0.000000  0.250000  1
  Pt  Pt14  1  0.666667  0.333333  0.022588  1
  Pt  Pt15  1  0.333333  0.666667  0.470579  1
  Pt  Pt16  1  0.333333  0.666667  0.029421  1
  Pt  Pt17  1  0.666667  0.333333  0.477412  1
