# generated using pymatgen
data_La19PrSi15Se
_symmetry_space_group_name_H-M   'P 1'
_cell_length_a   8.07350906
_cell_length_b   8.00433117
_cell_length_c   15.58469700
_cell_angle_alpha   89.67185672
_cell_angle_beta   89.12285552
_cell_angle_gamma   90.27540626
_symmetry_Int_Tables_number   1
_chemical_formula_structural   La19PrSi15Se
_chemical_formula_sum   'La19 Pr1 Si15 Se1'
_cell_volume   1006.98390482
_cell_formula_units_Z   1
loop_
 _symmetry_equiv_pos_site_id
 _symmetry_equiv_pos_as_xyz
  1  'x, y, z'
loop_
 _atom_site_type_symbol
 _atom_site_label
 _atom_site_symmetry_multiplicity
 _atom_site_fract_x
 _atom_site_fract_y
 _atom_site_fract_z
 _atom_site_occupancy
  La  La0  1  0.310503  0.310599  0.000213  1
  La  La1  1  0.186841  0.808794  0.249839  1
  La  La2  1  0.800509  0.190277  0.752496  1
  La  La3  1  0.686137  0.687435  0.495790  1
  La  La4  1  0.380142  0.005593  0.444156  1
  La  La5  1  0.494361  0.874404  0.698709  1
  La  La6  1  0.509289  0.120405  0.196432  1
  La  La7  1  0.875640  0.486696  0.300927  1
  La  La8  1  0.122819  0.511688  0.801151  1
  La  La9  1  0.631571  0.986076  0.951332  1
  La  La10  1  0.998340  0.381814  0.547792  1
  La  La11  1  0.993214  0.621711  0.053208  1
  La  La12  1  0.140127  0.990352  0.871565  1
  La  La13  1  0.518002  0.629474  0.126197  1
  La  La14  1  0.477933  0.368693  0.631771  1
  La  La15  1  0.634281  0.522643  0.876078  1
  La  La16  1  0.368477  0.478557  0.375335  1
  La  La17  1  0.870411  0.017909  0.377288  1
  La  La18  1  0.983695  0.127596  0.124453  1
  Pr  Pr19  1  0.014288  0.867075  0.621319  1
  Si  Si20  1  0.332853  0.700734  0.950144  1
  Si  Si21  1  0.661040  0.302120  0.455479  1
  Si  Si22  1  0.702988  0.335350  0.049275  1
  Si  Si23  1  0.300974  0.666641  0.550215  1
  Si  Si24  1  0.802210  0.832308  0.203504  1
  Si  Si25  1  0.166552  0.195701  0.297366  1
  Si  Si26  1  0.843168  0.803555  0.795204  1
  Si  Si27  1  0.289214  0.921801  0.057219  1
  Si  Si28  1  0.576559  0.787584  0.307863  1
  Si  Si29  1  0.451541  0.209304  0.824081  1
  Si  Si30  1  0.790675  0.580561  0.689114  1
  Si  Si31  1  0.209908  0.422582  0.192035  1
  Si  Si32  1  0.703108  0.075320  0.560753  1
  Si  Si33  1  0.927336  0.291237  0.941260  1
  Si  Si34  1  0.077846  0.711448  0.441927  1
  Se  Se35  1  0.167450  0.175956  0.688504  1
