# generated using pymatgen
data_MgZn12Sn7(RuRh3)2
_symmetry_space_group_name_H-M   'P 1'
_cell_length_a   4.22361800
_cell_length_b   8.33024434
_cell_length_c   13.62689168
_cell_angle_alpha   90.16227902
_cell_angle_beta   90.00000000
_cell_angle_gamma   90.00000000
_symmetry_Int_Tables_number   1
_chemical_formula_structural   MgZn12Sn7(RuRh3)2
_chemical_formula_sum   'Mg1 Zn12 Sn7 Ru2 Rh6'
_cell_volume   479.44349901
_cell_formula_units_Z   1
loop_
 _symmetry_equiv_pos_site_id
 _symmetry_equiv_pos_as_xyz
  1  'x, y, z'
loop_
 _atom_site_type_symbol
 _atom_site_label
 _atom_site_symmetry_multiplicity
 _atom_site_fract_x
 _atom_site_fract_y
 _atom_site_fract_z
 _atom_site_occupancy
  Mg  Mg0  1  0.750000  0.343356  0.194017  1
  Zn  Zn1  1  0.750000  0.465880  0.958325  1
  Zn  Zn2  1  0.750000  0.970229  0.545364  1
  Zn  Zn3  1  0.250000  0.526942  0.046065  1
  Zn  Zn4  1  0.250000  0.028532  0.456025  1
  Zn  Zn5  1  0.750000  0.160829  0.870079  1
  Zn  Zn6  1  0.750000  0.660626  0.630886  1
  Zn  Zn7  1  0.250000  0.841020  0.133066  1
  Zn  Zn8  1  0.250000  0.341504  0.364005  1
  Zn  Zn9  1  0.750000  0.911731  0.744546  1
  Zn  Zn10  1  0.750000  0.413317  0.757027  1
  Zn  Zn11  1  0.250000  0.092707  0.254709  1
  Zn  Zn12  1  0.250000  0.581475  0.241456  1
  Sn  Sn13  1  0.750000  0.844685  0.304815  1
  Sn  Sn14  1  0.250000  0.655149  0.804759  1
  Sn  Sn15  1  0.250000  0.155475  0.695148  1
  Sn  Sn16  1  0.750000  0.850390  0.973793  1
  Sn  Sn17  1  0.750000  0.348593  0.525418  1
  Sn  Sn18  1  0.250000  0.156128  0.029155  1
  Sn  Sn19  1  0.250000  0.653147  0.472530  1
  Ru  Ru20  1  0.250000  0.347783  0.867883  1
  Ru  Ru21  1  0.250000  0.849520  0.631810  1
  Rh  Rh22  1  0.750000  0.035163  0.140978  1
  Rh  Rh23  1  0.750000  0.539646  0.358107  1
  Rh  Rh24  1  0.250000  0.961163  0.859852  1
  Rh  Rh25  1  0.250000  0.459454  0.640614  1
  Rh  Rh26  1  0.750000  0.654247  0.129853  1
  Rh  Rh27  1  0.750000  0.151310  0.369714  1
