# generated using pymatgen
data_Ho13Er3(ZnIn3)2
_symmetry_space_group_name_H-M   'P 1'
_cell_length_a   10.61009000
_cell_length_b   10.61008959
_cell_length_c   6.73982000
_cell_angle_alpha   90.00000000
_cell_angle_beta   90.00000000
_cell_angle_gamma   120.00000129
_symmetry_Int_Tables_number   1
_chemical_formula_structural   Ho13Er3(ZnIn3)2
_chemical_formula_sum   'Ho13 Er3 Zn2 In6'
_cell_volume   657.07817588
_cell_formula_units_Z   1
loop_
 _symmetry_equiv_pos_site_id
 _symmetry_equiv_pos_as_xyz
  1  'x, y, z'
loop_
 _atom_site_type_symbol
 _atom_site_label
 _atom_site_symmetry_multiplicity
 _atom_site_fract_x
 _atom_site_fract_y
 _atom_site_fract_z
 _atom_site_occupancy
  Ho  Ho0  1  0.479291  0.958581  0.009344  1
  Ho  Ho1  1  0.041419  0.520709  0.009344  1
  Ho  Ho2  1  0.479291  0.520709  0.009344  1
  Ho  Ho3  1  0.172714  0.345427  0.726773  1
  Ho  Ho4  1  0.654573  0.827286  0.726773  1
  Ho  Ho5  1  0.172714  0.827286  0.726773  1
  Ho  Ho6  1  0.826961  0.653923  0.227117  1
  Ho  Ho7  1  0.346077  0.173039  0.227117  1
  Ho  Ho8  1  0.826961  0.173039  0.227117  1
  Ho  Ho9  1  0.666667  0.333333  0.856701  1
  Ho  Ho10  1  0.333333  0.666667  0.358550  1
  Ho  Ho11  1  0.000000  0.000000  0.491689  1
  Ho  Ho12  1  0.000000  0.000000  0.992157  1
  Er  Er13  1  0.520395  0.040789  0.509262  1
  Er  Er14  1  0.959211  0.479605  0.509262  1
  Er  Er15  1  0.520395  0.479605  0.509262  1
  Zn  Zn16  1  0.666667  0.333333  0.293481  1
  Zn  Zn17  1  0.333333  0.666667  0.793627  1
  In  In18  1  0.835021  0.670041  0.741928  1
  In  In19  1  0.329959  0.164979  0.741928  1
  In  In20  1  0.835021  0.164979  0.741928  1
  In  In21  1  0.164280  0.328559  0.242855  1
  In  In22  1  0.671441  0.835720  0.242855  1
  In  In23  1  0.164280  0.835720  0.242855  1
