# generated using pymatgen
data_Er3AlHg2Au3
_symmetry_space_group_name_H-M   'P 1'
_cell_length_a   7.75745618
_cell_length_b   7.57813994
_cell_length_c   3.86168600
_cell_angle_alpha   90.00000000
_cell_angle_beta   90.00000000
_cell_angle_gamma   119.23824191
_symmetry_Int_Tables_number   1
_chemical_formula_structural   Er3AlHg2Au3
_chemical_formula_sum   'Er3 Al1 Hg2 Au3'
_cell_volume   198.09442726
_cell_formula_units_Z   1
loop_
 _symmetry_equiv_pos_site_id
 _symmetry_equiv_pos_as_xyz
  1  'x, y, z'
loop_
 _atom_site_type_symbol
 _atom_site_label
 _atom_site_symmetry_multiplicity
 _atom_site_fract_x
 _atom_site_fract_y
 _atom_site_fract_z
 _atom_site_occupancy
  Er  Er0  1  0.410200  0.400988  0.500000  1
  Er  Er1  1  0.589800  0.990788  0.500000  1
  Er  Er2  1  0.000000  0.606334  0.500000  1
  Al  Al3  1  0.000000  0.262558  0.000000  1
  Hg  Hg4  1  0.730897  0.734338  0.000000  1
  Hg  Hg5  1  0.269103  0.003441  0.000000  1
  Au  Au6  1  0.688402  0.326866  0.000000  1
  Au  Au7  1  0.311598  0.638465  0.000000  1
  Au  Au8  1  0.000000  0.036221  0.500000  1
