# generated using pymatgen
data_TbHoB5
_symmetry_space_group_name_H-M   'P 1'
_cell_length_a   7.09937000
_cell_length_b   7.09354197
_cell_length_c   7.12431018
_cell_angle_alpha   76.69900384
_cell_angle_beta   90.00000000
_cell_angle_gamma   90.00000000
_symmetry_Int_Tables_number   1
_chemical_formula_structural   TbHoB5
_chemical_formula_sum   'Tb4 Ho4 B20'
_cell_volume   349.15370940
_cell_formula_units_Z   4
loop_
 _symmetry_equiv_pos_site_id
 _symmetry_equiv_pos_as_xyz
  1  'x, y, z'
loop_
 _atom_site_type_symbol
 _atom_site_label
 _atom_site_symmetry_multiplicity
 _atom_site_fract_x
 _atom_site_fract_y
 _atom_site_fract_z
 _atom_site_occupancy
  Tb  Tb0  1  0.692098  0.769815  0.626578  1
  Tb  Tb1  1  0.192098  0.230185  0.873422  1
  Tb  Tb2  1  0.307902  0.230185  0.373422  1
  Tb  Tb3  1  0.807902  0.769815  0.126578  1
  Ho  Ho4  1  0.315159  0.755613  0.253100  1
  Ho  Ho5  1  0.815159  0.244387  0.246900  1
  Ho  Ho6  1  0.684841  0.244387  0.746900  1
  Ho  Ho7  1  0.184841  0.755613  0.753100  1
  B  B8  1  0.502702  0.313803  0.041005  1
  B  B9  1  0.002702  0.686197  0.458995  1
  B  B10  1  0.497298  0.686197  0.958995  1
  B  B11  1  0.997298  0.313803  0.541005  1
  B  B12  1  0.488782  0.926324  0.924618  1
  B  B13  1  0.988782  0.073676  0.575382  1
  B  B14  1  0.511218  0.073676  0.075382  1
  B  B15  1  0.011218  0.926324  0.424618  1
  B  B16  1  0.326143  0.496496  0.039807  1
  B  B17  1  0.826143  0.503504  0.460193  1
  B  B18  1  0.673857  0.503504  0.960193  1
  B  B19  1  0.173857  0.496496  0.539807  1
  B  B20  1  0.910820  0.498592  0.910923  1
  B  B21  1  0.410820  0.501408  0.589077  1
  B  B22  1  0.089180  0.501408  0.089077  1
  B  B23  1  0.589180  0.498592  0.410923  1
  B  B24  1  0.961621  0.496594  0.674333  1
  B  B25  1  0.461621  0.503406  0.825667  1
  B  B26  1  0.038379  0.503406  0.325667  1
  B  B27  1  0.538379  0.496594  0.174333  1
