# generated using pymatgen
data_CeZr5(ScRu2)6
_symmetry_space_group_name_H-M   'P 1'
_cell_length_a   4.59511900
_cell_length_b   6.49576000
_cell_length_c   13.91311100
_cell_angle_alpha   90.00000000
_cell_angle_beta   89.99992553
_cell_angle_gamma   90.00000000
_symmetry_Int_Tables_number   1
_chemical_formula_structural   CeZr5(ScRu2)6
_chemical_formula_sum   'Ce1 Zr5 Sc6 Ru12'
_cell_volume   415.28953120
_cell_formula_units_Z   1
loop_
 _symmetry_equiv_pos_site_id
 _symmetry_equiv_pos_as_xyz
  1  'x, y, z'
loop_
 _atom_site_type_symbol
 _atom_site_label
 _atom_site_symmetry_multiplicity
 _atom_site_fract_x
 _atom_site_fract_y
 _atom_site_fract_z
 _atom_site_occupancy
  Ce  Ce0  1  0.000000  0.500001  0.000000  1
  Zr  Zr1  1  0.499994  0.000000  0.168520  1
  Zr  Zr2  1  0.999985  0.500001  0.335682  1
  Zr  Zr3  1  0.500000  0.000000  0.500000  1
  Zr  Zr4  1  0.000015  0.500001  0.664318  1
  Zr  Zr5  1  0.500004  0.000000  0.831480  1
  Sc  Sc6  1  0.000000  0.000000  0.000000  1
  Sc  Sc7  1  0.499999  0.500001  0.172336  1
  Sc  Sc8  1  0.999985  0.000000  0.333679  1
  Sc  Sc9  1  0.500000  0.500001  0.500000  1
  Sc  Sc10  1  0.000015  0.000000  0.666321  1
  Sc  Sc11  1  0.500001  0.500001  0.827664  1
  Ru  Ru12  1  0.500000  0.249892  0.000000  1
  Ru  Ru13  1  0.500000  0.750108  0.000000  1
  Ru  Ru14  1  0.999996  0.249178  0.168178  1
  Ru  Ru15  1  0.999996  0.750822  0.168178  1
  Ru  Ru16  1  0.499989  0.250185  0.333982  1
  Ru  Ru17  1  0.499989  0.749815  0.333982  1
  Ru  Ru18  1  0.000000  0.249724  0.500000  1
  Ru  Ru19  1  0.000000  0.750276  0.500000  1
  Ru  Ru20  1  0.500011  0.250185  0.666018  1
  Ru  Ru21  1  0.500011  0.749815  0.666018  1
  Ru  Ru22  1  0.000004  0.249178  0.831822  1
  Ru  Ru23  1  0.000004  0.750822  0.831822  1
