# generated using pymatgen
data_Dy4Ga2Os5W
_symmetry_space_group_name_H-M   'P 1'
_cell_length_a   5.32045672
_cell_length_b   5.32699223
_cell_length_c   8.88891200
_cell_angle_alpha   90.00000000
_cell_angle_beta   90.00000000
_cell_angle_gamma   118.19579979
_symmetry_Int_Tables_number   1
_chemical_formula_structural   Dy4Ga2Os5W
_chemical_formula_sum   'Dy4 Ga2 Os5 W1'
_cell_volume   222.03535118
_cell_formula_units_Z   1
loop_
 _symmetry_equiv_pos_site_id
 _symmetry_equiv_pos_as_xyz
  1  'x, y, z'
loop_
 _atom_site_type_symbol
 _atom_site_label
 _atom_site_symmetry_multiplicity
 _atom_site_fract_x
 _atom_site_fract_y
 _atom_site_fract_z
 _atom_site_occupancy
  Dy  Dy0  1  0.326220  0.669151  0.434731  1
  Dy  Dy1  1  0.659196  0.328187  0.559471  1
  Dy  Dy2  1  0.659196  0.328187  0.940529  1
  Dy  Dy3  1  0.326220  0.669151  0.065269  1
  Ga  Ga4  1  0.187165  0.837865  0.750000  1
  Ga  Ga5  1  0.183211  0.347050  0.750000  1
  Os  Os6  1  0.979834  0.002071  0.503683  1
  Os  Os7  1  0.979834  0.002071  0.996317  1
  Os  Os8  1  0.827050  0.651727  0.250000  1
  Os  Os9  1  0.353516  0.173058  0.250000  1
  Os  Os10  1  0.678496  0.830808  0.750000  1
  W  W11  1  0.840061  0.160673  0.250000  1
