# generated using pymatgen
data_CaErNi2(B4Os3)2
_symmetry_space_group_name_H-M   'P 1'
_cell_length_a   7.48109415
_cell_length_b   7.30547165
_cell_length_c   4.01730400
_cell_angle_alpha   90.00000000
_cell_angle_beta   90.00000000
_cell_angle_gamma   87.57042939
_symmetry_Int_Tables_number   1
_chemical_formula_structural   CaErNi2(B4Os3)2
_chemical_formula_sum   'Ca1 Er1 Ni2 B8 Os6'
_cell_volume   219.36003552
_cell_formula_units_Z   1
loop_
 _symmetry_equiv_pos_site_id
 _symmetry_equiv_pos_as_xyz
  1  'x, y, z'
loop_
 _atom_site_type_symbol
 _atom_site_label
 _atom_site_symmetry_multiplicity
 _atom_site_fract_x
 _atom_site_fract_y
 _atom_site_fract_z
 _atom_site_occupancy
  Ca  Ca0  1  0.500000  0.500000  0.602427  1
  Er  Er1  1  0.000000  0.000000  0.032966  1
  Ni  Ni2  1  0.132134  0.382266  0.878478  1
  Ni  Ni3  1  0.867866  0.617734  0.878478  1
  B  B4  1  0.675738  0.787849  0.105539  1
  B  B5  1  0.324262  0.212151  0.105539  1
  B  B6  1  0.281592  0.835728  0.602877  1
  B  B7  1  0.718408  0.164272  0.602877  1
  B  B8  1  0.843438  0.688158  0.380620  1
  B  B9  1  0.156562  0.311842  0.380620  1
  B  B10  1  0.203779  0.671801  0.879811  1
  B  B11  1  0.796221  0.328199  0.879811  1
  Os  Os12  1  0.878482  0.368676  0.373117  1
  Os  Os13  1  0.121518  0.631324  0.373117  1
  Os  Os14  1  0.344264  0.115486  0.607174  1
  Os  Os15  1  0.655736  0.884514  0.607174  1
  Os  Os16  1  0.607836  0.147083  0.104688  1
  Os  Os17  1  0.392164  0.852917  0.104688  1
