# generated using pymatgen
data_Dy6V2Co16(SiP3)3
_symmetry_space_group_name_H-M   'P 1'
_cell_length_a   3.71898900
_cell_length_b   10.60445700
_cell_length_c   12.27206400
_cell_angle_alpha   90.00000000
_cell_angle_beta   90.00000000
_cell_angle_gamma   90.00000000
_symmetry_Int_Tables_number   1
_chemical_formula_structural   Dy6V2Co16(SiP3)3
_chemical_formula_sum   'Dy6 V2 Co16 Si3 P9'
_cell_volume   483.98392886
_cell_formula_units_Z   1
loop_
 _symmetry_equiv_pos_site_id
 _symmetry_equiv_pos_as_xyz
  1  'x, y, z'
loop_
 _atom_site_type_symbol
 _atom_site_label
 _atom_site_symmetry_multiplicity
 _atom_site_fract_x
 _atom_site_fract_y
 _atom_site_fract_z
 _atom_site_occupancy
  Dy  Dy0  1  0.000000  0.500000  0.525730  1
  Dy  Dy1  1  0.500000  0.000000  0.478073  1
  Dy  Dy2  1  0.500000  0.817923  0.206479  1
  Dy  Dy3  1  0.500000  0.182077  0.206479  1
  Dy  Dy4  1  0.000000  0.682332  0.794093  1
  Dy  Dy5  1  0.000000  0.317668  0.794093  1
  V  V6  1  0.500000  0.500000  0.147599  1
  V  V7  1  0.000000  0.000000  0.846581  1
  Co  Co8  1  0.500000  0.500000  0.697749  1
  Co  Co9  1  0.000000  0.000000  0.302653  1
  Co  Co10  1  0.000000  0.500000  0.990791  1
  Co  Co11  1  0.500000  0.000000  0.008801  1
  Co  Co12  1  0.500000  0.330149  0.995560  1
  Co  Co13  1  0.500000  0.669851  0.995560  1
  Co  Co14  1  0.000000  0.169452  0.003476  1
  Co  Co15  1  0.000000  0.830548  0.003476  1
  Co  Co16  1  0.500000  0.293240  0.432854  1
  Co  Co17  1  0.500000  0.706760  0.432854  1
  Co  Co18  1  0.000000  0.203209  0.569466  1
  Co  Co19  1  0.000000  0.796791  0.569466  1
  Co  Co20  1  0.500000  0.879438  0.707295  1
  Co  Co21  1  0.500000  0.120562  0.707295  1
  Co  Co22  1  0.000000  0.622532  0.291954  1
  Co  Co23  1  0.000000  0.377468  0.291954  1
  Si  Si24  1  0.500000  0.500000  0.883338  1
  Si  Si25  1  0.000000  0.000000  0.116473  1
  Si  Si26  1  0.500000  0.500000  0.346682  1
  P  P27  1  0.000000  0.000000  0.654072  1
  P  P28  1  0.500000  0.308649  0.615690  1
  P  P29  1  0.500000  0.691351  0.615690  1
  P  P30  1  0.000000  0.191068  0.384620  1
  P  P31  1  0.000000  0.808932  0.384620  1
  P  P32  1  0.500000  0.845802  0.891895  1
  P  P33  1  0.500000  0.154198  0.891895  1
  P  P34  1  0.000000  0.655611  0.107346  1
  P  P35  1  0.000000  0.344389  0.107346  1
