# generated using pymatgen
data_Y4Tm8Ni5Bi
_symmetry_space_group_name_H-M   'P 1'
_cell_length_a   8.30840724
_cell_length_b   8.30646532
_cell_length_c   8.30840692
_cell_angle_alpha   109.29851597
_cell_angle_beta   111.47868068
_cell_angle_gamma   107.66814834
_symmetry_Int_Tables_number   1
_chemical_formula_structural   Y4Tm8Ni5Bi
_chemical_formula_sum   'Y4 Tm8 Ni5 Bi1'
_cell_volume   440.85560035
_cell_formula_units_Z   1
loop_
 _symmetry_equiv_pos_site_id
 _symmetry_equiv_pos_as_xyz
  1  'x, y, z'
loop_
 _atom_site_type_symbol
 _atom_site_label
 _atom_site_symmetry_multiplicity
 _atom_site_fract_x
 _atom_site_fract_y
 _atom_site_fract_z
 _atom_site_occupancy
  Y  Y0  1  0.293273  0.180307  0.473621  1
  Y  Y1  1  0.706727  0.819693  0.526379  1
  Y  Y2  1  0.293314  0.819693  0.112966  1
  Y  Y3  1  0.706686  0.180307  0.887034  1
  Tm  Tm4  1  0.631449  0.321478  0.310034  1
  Tm  Tm5  1  0.368551  0.678522  0.689966  1
  Tm  Tm6  1  0.011445  0.321478  0.690030  1
  Tm  Tm7  1  0.988555  0.678522  0.309970  1
  Tm  Tm8  1  0.207257  0.400162  0.192906  1
  Tm  Tm9  1  0.792743  0.599838  0.807094  1
  Tm  Tm10  1  0.207286  0.014366  0.807080  1
  Tm  Tm11  1  0.792714  0.985634  0.192920  1
  Ni  Ni12  1  0.000026  0.366617  0.366591  1
  Ni  Ni13  1  0.999974  0.633383  0.633409  1
  Ni  Ni14  1  0.374236  0.874254  0.500018  1
  Ni  Ni15  1  0.625764  0.125746  0.499982  1
  Ni  Ni16  1  0.000000  0.000000  0.000000  1
  Bi  Bi17  1  0.500000  0.500000  0.000000  1
