# generated using pymatgen
data_CeDy2S3
_symmetry_space_group_name_H-M   'P 1'
_cell_length_a   3.91250800
_cell_length_b   3.91250722
_cell_length_c   9.79356300
_cell_angle_alpha   90.00000000
_cell_angle_beta   90.00000000
_cell_angle_gamma   119.99998966
_symmetry_Int_Tables_number   1
_chemical_formula_structural   CeDy2S3
_chemical_formula_sum   'Ce1 Dy2 S3'
_cell_volume   129.83201253
_cell_formula_units_Z   1
loop_
 _symmetry_equiv_pos_site_id
 _symmetry_equiv_pos_as_xyz
  1  'x, y, z'
loop_
 _atom_site_type_symbol
 _atom_site_label
 _atom_site_symmetry_multiplicity
 _atom_site_fract_x
 _atom_site_fract_y
 _atom_site_fract_z
 _atom_site_occupancy
  Ce  Ce0  1  0.000000  0.000000  0.000000  1
  Dy  Dy1  1  0.333333  0.666667  0.666747  1
  Dy  Dy2  1  0.666667  0.333333  0.333253  1
  S  S3  1  0.333333  0.666667  0.177092  1
  S  S4  1  0.666667  0.333333  0.822908  1
  S  S5  1  0.000000  0.000000  0.500000  1
