# generated using pymatgen
data_Hf18Ga2Re3Mo5
_symmetry_space_group_name_H-M   'P 1'
_cell_length_a   8.65432164
_cell_length_b   8.66007753
_cell_length_c   8.71398400
_cell_angle_alpha   90.00000000
_cell_angle_beta   90.00000000
_cell_angle_gamma   120.02200829
_symmetry_Int_Tables_number   1
_chemical_formula_structural   Hf18Ga2Re3Mo5
_chemical_formula_sum   'Hf18 Ga2 Re3 Mo5'
_cell_volume   565.46515135
_cell_formula_units_Z   1
loop_
 _symmetry_equiv_pos_site_id
 _symmetry_equiv_pos_as_xyz
  1  'x, y, z'
loop_
 _atom_site_type_symbol
 _atom_site_label
 _atom_site_symmetry_multiplicity
 _atom_site_fract_x
 _atom_site_fract_y
 _atom_site_fract_z
 _atom_site_occupancy
  Hf  Hf0  1  0.195472  0.804633  0.455473  1
  Hf  Hf1  1  0.195472  0.390839  0.455473  1
  Hf  Hf2  1  0.609932  0.804966  0.455741  1
  Hf  Hf3  1  0.805068  0.194706  0.546141  1
  Hf  Hf4  1  0.805068  0.610362  0.546141  1
  Hf  Hf5  1  0.390078  0.195039  0.545438  1
  Hf  Hf6  1  0.805068  0.194706  0.953859  1
  Hf  Hf7  1  0.805068  0.610362  0.953859  1
  Hf  Hf8  1  0.390078  0.195039  0.954562  1
  Hf  Hf9  1  0.195472  0.804633  0.044527  1
  Hf  Hf10  1  0.195472  0.390839  0.044527  1
  Hf  Hf11  1  0.609932  0.804966  0.044259  1
  Hf  Hf12  1  0.538401  0.461758  0.250000  1
  Hf  Hf13  1  0.538401  0.076642  0.250000  1
  Hf  Hf14  1  0.923233  0.461616  0.250000  1
  Hf  Hf15  1  0.462880  0.539718  0.750000  1
  Hf  Hf16  1  0.462880  0.923163  0.750000  1
  Hf  Hf17  1  0.076080  0.538040  0.750000  1
  Ga  Ga18  1  0.333744  0.666873  0.250000  1
  Ga  Ga19  1  0.666838  0.333418  0.750000  1
  Re  Re20  1  0.778779  0.889390  0.750000  1
  Re  Re21  1  0.999881  0.999940  0.499929  1
  Re  Re22  1  0.999881  0.999940  0.000071  1
  Mo  Mo23  1  0.890291  0.109370  0.250000  1
  Mo  Mo24  1  0.890291  0.780921  0.250000  1
  Mo  Mo25  1  0.219663  0.109832  0.250000  1
  Mo  Mo26  1  0.108287  0.890191  0.750000  1
  Mo  Mo27  1  0.108287  0.218096  0.750000  1
