# generated using pymatgen
data_Rb8Na4Dy3HoSb8
_symmetry_space_group_name_H-M   'P 1'
_cell_length_a   11.35239227
_cell_length_b   11.35239226
_cell_length_c   7.49395801
_cell_angle_alpha   90.00342327
_cell_angle_beta   89.99657677
_cell_angle_gamma   98.47976010
_symmetry_Int_Tables_number   1
_chemical_formula_structural   Rb8Na4Dy3HoSb8
_chemical_formula_sum   'Rb8 Na4 Dy3 Ho1 Sb8'
_cell_volume   955.23931851
_cell_formula_units_Z   1
loop_
 _symmetry_equiv_pos_site_id
 _symmetry_equiv_pos_as_xyz
  1  'x, y, z'
loop_
 _atom_site_type_symbol
 _atom_site_label
 _atom_site_symmetry_multiplicity
 _atom_site_fract_x
 _atom_site_fract_y
 _atom_site_fract_z
 _atom_site_occupancy
  Rb  Rb0  1  0.070901  0.429097  0.250009  1
  Rb  Rb1  1  0.429097  0.070901  0.749991  1
  Rb  Rb2  1  0.929085  0.570899  0.749985  1
  Rb  Rb3  1  0.570899  0.929085  0.250015  1
  Rb  Rb4  1  0.676190  0.323825  0.216021  1
  Rb  Rb5  1  0.823812  0.176194  0.715999  1
  Rb  Rb6  1  0.323825  0.676190  0.783979  1
  Rb  Rb7  1  0.176194  0.823812  0.284001  1
  Na  Na8  1  0.382448  0.382448  0.000000  1
  Na  Na9  1  0.117553  0.117553  0.500000  1
  Na  Na10  1  0.617553  0.617553  0.000000  1
  Na  Na11  1  0.882435  0.882435  0.500000  1
  Dy  Dy12  1  0.130743  0.130743  0.000000  1
  Dy  Dy13  1  0.369306  0.369306  0.500000  1
  Dy  Dy14  1  0.869266  0.869266  0.000000  1
  Ho  Ho15  1  0.630687  0.630687  0.500000  1
  Sb  Sb16  1  0.846360  0.653495  0.250161  1
  Sb  Sb17  1  0.653495  0.846360  0.749839  1
  Sb  Sb18  1  0.153509  0.346485  0.750005  1
  Sb  Sb19  1  0.346485  0.153509  0.249995  1
  Sb  Sb20  1  0.899655  0.100338  0.211556  1
  Sb  Sb21  1  0.600368  0.399796  0.711440  1
  Sb  Sb22  1  0.100338  0.899655  0.788444  1
  Sb  Sb23  1  0.399796  0.600368  0.288560  1
