# generated using pymatgen
data_Li2Co3Ni6Mo3P7
_symmetry_space_group_name_H-M   'P 1'
_cell_length_a   9.07851100
_cell_length_b   9.07851075
_cell_length_c   3.65841900
_cell_angle_alpha   90.00000000
_cell_angle_beta   90.00000000
_cell_angle_gamma   120.00001184
_symmetry_Int_Tables_number   1
_chemical_formula_structural   Li2Co3Ni6Mo3P7
_chemical_formula_sum   'Li2 Co3 Ni6 Mo3 P7'
_cell_volume   261.12789033
_cell_formula_units_Z   1
loop_
 _symmetry_equiv_pos_site_id
 _symmetry_equiv_pos_as_xyz
  1  'x, y, z'
loop_
 _atom_site_type_symbol
 _atom_site_label
 _atom_site_symmetry_multiplicity
 _atom_site_fract_x
 _atom_site_fract_y
 _atom_site_fract_z
 _atom_site_occupancy
  Li  Li0  1  0.333333  0.666667  0.000000  1
  Li  Li1  1  0.666667  0.333333  0.500000  1
  Co  Co2  1  0.715046  0.877894  0.000000  1
  Co  Co3  1  0.162848  0.284954  0.000000  1
  Co  Co4  1  0.122106  0.837152  0.000000  1
  Ni  Ni5  1  0.625078  0.563527  0.000000  1
  Ni  Ni6  1  0.938450  0.374922  0.000000  1
  Ni  Ni7  1  0.436473  0.061550  0.000000  1
  Ni  Ni8  1  0.556427  0.947988  0.500000  1
  Ni  Ni9  1  0.391560  0.443573  0.500000  1
  Ni  Ni10  1  0.052012  0.608440  0.500000  1
  Mo  Mo11  1  0.874831  0.777448  0.500000  1
  Mo  Mo12  1  0.902616  0.125169  0.500000  1
  Mo  Mo13  1  0.222552  0.097384  0.500000  1
  P  P14  1  0.586281  0.715167  0.500000  1
  P  P15  1  0.128886  0.413719  0.500000  1
  P  P16  1  0.284833  0.871114  0.500000  1
  P  P17  1  0.000000  0.000000  0.000000  1
  P  P18  1  0.881091  0.584357  0.000000  1
  P  P19  1  0.703266  0.118909  0.000000  1
  P  P20  1  0.415643  0.296734  0.000000  1
