# generated using pymatgen
data_YbDy5(Si3Os)8
_symmetry_space_group_name_H-M   'P 1'
_cell_length_a   10.14439343
_cell_length_b   10.14439363
_cell_length_c   8.17641741
_cell_angle_alpha   90.10324276
_cell_angle_beta   89.89675731
_cell_angle_gamma   132.47559715
_symmetry_Int_Tables_number   1
_chemical_formula_structural   YbDy5(Si3Os)8
_chemical_formula_sum   'Yb1 Dy5 Si24 Os8'
_cell_volume   620.60417859
_cell_formula_units_Z   1
loop_
 _symmetry_equiv_pos_site_id
 _symmetry_equiv_pos_as_xyz
  1  'x, y, z'
loop_
 _atom_site_type_symbol
 _atom_site_label
 _atom_site_symmetry_multiplicity
 _atom_site_fract_x
 _atom_site_fract_y
 _atom_site_fract_z
 _atom_site_occupancy
  Yb  Yb0  1  0.000951  0.500951  0.750000  1
  Dy  Dy1  1  0.501093  0.001093  0.750000  1
  Dy  Dy2  1  0.998920  0.498920  0.250000  1
  Dy  Dy3  1  0.500194  0.000194  0.250000  1
  Dy  Dy4  1  0.000255  0.000298  0.999549  1
  Dy  Dy5  1  0.500298  0.500255  0.500451  1
  Si  Si6  1  0.795908  0.205824  0.501661  1
  Si  Si7  1  0.705824  0.295908  0.998339  1
  Si  Si8  1  0.203713  0.794239  0.500525  1
  Si  Si9  1  0.294239  0.703713  0.999475  1
  Si  Si10  1  0.668721  0.667375  0.166706  1
  Si  Si11  1  0.167375  0.168721  0.333294  1
  Si  Si12  1  0.831958  0.833817  0.666897  1
  Si  Si13  1  0.333817  0.331958  0.833103  1
  Si  Si14  1  0.844562  0.610748  0.997321  1
  Si  Si15  1  0.110748  0.344562  0.502679  1
  Si  Si16  1  0.654760  0.888668  0.495373  1
  Si  Si17  1  0.388668  0.154760  0.004627  1
  Si  Si18  1  0.154307  0.388545  0.005847  1
  Si  Si19  1  0.888545  0.654307  0.494153  1
  Si  Si20  1  0.123965  0.888944  0.728251  1
  Si  Si21  1  0.388944  0.623965  0.771749  1
  Si  Si22  1  0.378568  0.612798  0.228138  1
  Si  Si23  1  0.112798  0.878568  0.271862  1
  Si  Si24  1  0.878187  0.112481  0.272794  1
  Si  Si25  1  0.612481  0.378187  0.227206  1
  Si  Si26  1  0.620299  0.385131  0.771793  1
  Si  Si27  1  0.885131  0.120299  0.728207  1
  Si  Si28  1  0.611462  0.844863  0.995077  1
  Si  Si29  1  0.344863  0.111462  0.504923  1
  Os  Os30  1  0.626849  0.626851  0.872109  1
  Os  Os31  1  0.126851  0.126849  0.627891  1
  Os  Os32  1  0.373200  0.373924  0.127476  1
  Os  Os33  1  0.873924  0.873200  0.372524  1
  Os  Os34  1  0.169294  0.830285  0.000461  1
  Os  Os35  1  0.330285  0.669294  0.499539  1
  Os  Os36  1  0.829880  0.168165  0.001521  1
  Os  Os37  1  0.668165  0.329880  0.498479  1
