# generated using pymatgen
data_BiSb2ClF20
_symmetry_space_group_name_H-M   'P 1'
_cell_length_a   8.89301769
_cell_length_b   8.89301884
_cell_length_c   5.51591727
_cell_angle_alpha   87.32151018
_cell_angle_beta   87.32151965
_cell_angle_gamma   110.64320177
_symmetry_Int_Tables_number   1
_chemical_formula_structural   BiSb2ClF20
_chemical_formula_sum   'Bi1 Sb2 Cl1 F20'
_cell_volume   406.84271627
_cell_formula_units_Z   1
loop_
 _symmetry_equiv_pos_site_id
 _symmetry_equiv_pos_as_xyz
  1  'x, y, z'
loop_
 _atom_site_type_symbol
 _atom_site_label
 _atom_site_symmetry_multiplicity
 _atom_site_fract_x
 _atom_site_fract_y
 _atom_site_fract_z
 _atom_site_occupancy
  Bi  Bi0  1  0.798093  0.201907  0.000000  1
  Sb  Sb1  1  0.256175  0.254920  0.253297  1
  Sb  Sb2  1  0.745080  0.743825  0.746703  1
  Cl  Cl3  1  0.204338  0.795662  0.000000  1
  F  F4  1  0.237492  0.445254  0.369723  1
  F  F5  1  0.468452  0.290707  0.338217  1
  F  F6  1  0.709293  0.531548  0.661783  1
  F  F7  1  0.554746  0.762508  0.630277  1
  F  F8  1  0.318101  0.356861  0.936838  1
  F  F9  1  0.643139  0.681899  0.063162  1
  F  F10  1  0.840054  0.414284  0.147879  1
  F  F11  1  0.377973  0.823932  0.099579  1
  F  F12  1  0.176068  0.622027  0.900421  1
  F  F13  1  0.585716  0.159946  0.852121  1
  F  F14  1  0.022070  0.195110  0.146887  1
  F  F15  1  0.240820  0.050732  0.116708  1
  F  F16  1  0.949268  0.759180  0.883292  1
  F  F17  1  0.804890  0.977930  0.853113  1
  F  F18  1  0.157882  0.132444  0.544915  1
  F  F19  1  0.867556  0.842118  0.455085  1
  F  F20  1  0.935961  0.307965  0.696423  1
  F  F21  1  0.294388  0.879593  0.728551  1
  F  F22  1  0.120407  0.705612  0.271449  1
  F  F23  1  0.692035  0.064039  0.303577  1
