# generated using pymatgen
data_Nd8InSiI12
_symmetry_space_group_name_H-M   'P 1'
_cell_length_a   4.35822600
_cell_length_b   14.64094022
_cell_length_c   15.41243632
_cell_angle_alpha   89.77003003
_cell_angle_beta   90.00000000
_cell_angle_gamma   90.00000000
_symmetry_Int_Tables_number   1
_chemical_formula_structural   Nd8InSiI12
_chemical_formula_sum   'Nd8 In1 Si1 I12'
_cell_volume   983.43692679
_cell_formula_units_Z   1
loop_
 _symmetry_equiv_pos_site_id
 _symmetry_equiv_pos_as_xyz
  1  'x, y, z'
loop_
 _atom_site_type_symbol
 _atom_site_label
 _atom_site_symmetry_multiplicity
 _atom_site_fract_x
 _atom_site_fract_y
 _atom_site_fract_z
 _atom_site_occupancy
  Nd  Nd0  1  0.500000  0.121264  0.337425  1
  Nd  Nd1  1  0.500000  0.878736  0.662575  1
  Nd  Nd2  1  0.500000  0.612600  0.151607  1
  Nd  Nd3  1  0.500000  0.387400  0.848393  1
  Nd  Nd4  1  0.000000  0.123446  0.582492  1
  Nd  Nd5  1  0.000000  0.876554  0.417508  1
  Nd  Nd6  1  0.000000  0.610915  0.925945  1
  Nd  Nd7  1  0.000000  0.389085  0.074055  1
  In  In8  1  0.500000  0.000000  0.500000  1
  Si  Si9  1  0.500000  0.500000  0.000000  1
  I  I10  1  0.500000  0.247998  0.160794  1
  I  I11  1  0.500000  0.752002  0.839206  1
  I  I12  1  0.500000  0.741788  0.333876  1
  I  I13  1  0.500000  0.258212  0.666124  1
  I  I14  1  0.000000  0.259838  0.414315  1
  I  I15  1  0.000000  0.740162  0.585685  1
  I  I16  1  0.000000  0.755612  0.085325  1
  I  I17  1  0.000000  0.244388  0.914675  1
  I  I18  1  0.000000  0.998373  0.239175  1
  I  I19  1  0.000000  0.001627  0.760825  1
  I  I20  1  0.000000  0.498639  0.257096  1
  I  I21  1  0.000000  0.501361  0.742904  1
