# generated using pymatgen
data_PrTh3(Sn5Rh3)2
_symmetry_space_group_name_H-M   'P 1'
_cell_length_a   13.67473324
_cell_length_b   13.67473422
_cell_length_c   7.35007626
_cell_angle_alpha   89.65273593
_cell_angle_beta   90.34726533
_cell_angle_gamma   160.95892260
_symmetry_Int_Tables_number   1
_chemical_formula_structural   PrTh3(Sn5Rh3)2
_chemical_formula_sum   'Pr1 Th3 Sn10 Rh6'
_cell_volume   448.40095262
_cell_formula_units_Z   1
loop_
 _symmetry_equiv_pos_site_id
 _symmetry_equiv_pos_as_xyz
  1  'x, y, z'
loop_
 _atom_site_type_symbol
 _atom_site_label
 _atom_site_symmetry_multiplicity
 _atom_site_fract_x
 _atom_site_fract_y
 _atom_site_fract_z
 _atom_site_occupancy
  Pr  Pr0  1  0.173488  0.826512  0.751276  1
  Th  Th1  1  0.827107  0.172893  0.254252  1
  Th  Th2  1  0.474085  0.525915  0.736279  1
  Th  Th3  1  0.525996  0.474004  0.237523  1
  Sn  Sn4  1  0.877500  0.122500  0.733143  1
  Sn  Sn5  1  0.122870  0.877130  0.235828  1
  Sn  Sn6  1  0.703641  0.296359  0.048709  1
  Sn  Sn7  1  0.295764  0.704236  0.549517  1
  Sn  Sn8  1  0.596817  0.403183  0.616373  1
  Sn  Sn9  1  0.402639  0.597361  0.111835  1
  Sn  Sn10  1  0.950712  0.049288  0.395152  1
  Sn  Sn11  1  0.049472  0.950528  0.896047  1
  Sn  Sn12  1  0.289127  0.710873  0.974172  1
  Sn  Sn13  1  0.710697  0.289303  0.474694  1
  Rh  Rh14  1  0.050465  0.949535  0.513921  1
  Rh  Rh15  1  0.949064  0.050936  0.013571  1
  Rh  Rh16  1  0.777323  0.222677  0.766510  1
  Rh  Rh17  1  0.224130  0.775870  0.266463  1
  Rh  Rh18  1  0.395579  0.604421  0.487807  1
  Rh  Rh19  1  0.603522  0.396478  0.992923  1
