# generated using pymatgen
data_Tb2Er6InAgRh2
_symmetry_space_group_name_H-M   'P 1'
_cell_length_a   9.57276474
_cell_length_b   9.53705872
_cell_length_c   9.55150674
_cell_angle_alpha   59.93873851
_cell_angle_beta   59.75439347
_cell_angle_gamma   59.81103394
_symmetry_Int_Tables_number   1
_chemical_formula_structural   Tb2Er6InAgRh2
_chemical_formula_sum   'Tb4 Er12 In2 Ag2 Rh4'
_cell_volume   614.29105921
_cell_formula_units_Z   2
loop_
 _symmetry_equiv_pos_site_id
 _symmetry_equiv_pos_as_xyz
  1  'x, y, z'
loop_
 _atom_site_type_symbol
 _atom_site_label
 _atom_site_symmetry_multiplicity
 _atom_site_fract_x
 _atom_site_fract_y
 _atom_site_fract_z
 _atom_site_occupancy
  Tb  Tb0  1  0.187659  0.188849  0.812146  1
  Tb  Tb1  1  0.438697  0.060829  0.061406  1
  Tb  Tb2  1  0.435489  0.059724  0.436058  1
  Tb  Tb3  1  0.066255  0.437253  0.059847  1
  Er  Er4  1  0.651657  0.051373  0.646316  1
  Er  Er5  1  0.189081  0.811420  0.812091  1
  Er  Er6  1  0.065608  0.059267  0.437443  1
  Er  Er7  1  0.808105  0.190704  0.191507  1
  Er  Er8  1  0.812290  0.811020  0.189622  1
  Er  Er9  1  0.650114  0.646957  0.052485  1
  Er  Er10  1  0.651329  0.649647  0.649653  1
  Er  Er11  1  0.062087  0.436418  0.435499  1
  Er  Er12  1  0.051109  0.649011  0.647343  1
  Er  Er13  1  0.811591  0.189886  0.810723  1
  Er  Er14  1  0.436658  0.437312  0.059285  1
  Er  Er15  1  0.187843  0.811525  0.189564  1
  In  In16  1  0.743476  0.420934  0.421637  1
  In  In17  1  0.417613  0.421079  0.420125  1
  Ag  Ag18  1  0.415518  0.748591  0.418839  1
  Ag  Ag19  1  0.417212  0.418755  0.748723  1
  Rh  Rh20  1  0.855250  0.429174  0.857532  1
  Rh  Rh21  1  0.857462  0.857206  0.428219  1
  Rh  Rh22  1  0.430125  0.855083  0.857176  1
  Rh  Rh23  1  0.857772  0.857981  0.856758  1
