# generated using pymatgen
data_TbHo11In2(SiTc)2
_symmetry_space_group_name_H-M   'P 1'
_cell_length_a   8.49732026
_cell_length_b   8.49811608
_cell_length_c   8.49731890
_cell_angle_alpha   112.83035206
_cell_angle_beta   111.40847991
_cell_angle_gamma   104.29544877
_symmetry_Int_Tables_number   1
_chemical_formula_structural   TbHo11In2(SiTc)2
_chemical_formula_sum   'Tb1 Ho11 In2 Si2 Tc2'
_cell_volume   469.43745662
_cell_formula_units_Z   1
loop_
 _symmetry_equiv_pos_site_id
 _symmetry_equiv_pos_as_xyz
  1  'x, y, z'
loop_
 _atom_site_type_symbol
 _atom_site_label
 _atom_site_symmetry_multiplicity
 _atom_site_fract_x
 _atom_site_fract_y
 _atom_site_fract_z
 _atom_site_occupancy
  Tb  Tb0  1  0.666634  0.978283  0.311649  1
  Ho  Ho1  1  0.442006  0.241473  0.201390  1
  Ho  Ho2  1  0.557683  0.758665  0.798342  1
  Ho  Ho3  1  0.040082  0.241473  0.799467  1
  Ho  Ho4  1  0.960324  0.758665  0.200983  1
  Ho  Ho5  1  0.188396  0.276569  0.464571  1
  Ho  Ho6  1  0.811980  0.723428  0.535970  1
  Ho  Ho7  1  0.187457  0.723428  0.911448  1
  Ho  Ho8  1  0.811999  0.276569  0.088173  1
  Ho  Ho9  1  0.333444  0.646409  0.312965  1
  Ho  Ho10  1  0.666399  0.353908  0.687509  1
  Ho  Ho11  1  0.333911  0.021039  0.687126  1
  In  In12  1  0.499715  0.499216  0.999501  1
  In  In13  1  0.999778  0.999842  0.000064  1
  Si  Si14  1  0.113971  0.613969  0.499998  1
  Si  Si15  1  0.886596  0.386934  0.500337  1
  Tc  Tc16  1  0.327257  0.000064  0.327698  1
  Tc  Tc17  1  0.672366  0.000064  0.672808  1
