# generated using pymatgen
data_ThPa5F24
_symmetry_space_group_name_H-M   'P 1'
_cell_length_a   8.53180674
_cell_length_b   8.51217726
_cell_length_c   8.54171244
_cell_angle_alpha   63.22617546
_cell_angle_beta   63.06930422
_cell_angle_gamma   80.22418005
_symmetry_Int_Tables_number   1
_chemical_formula_structural   ThPa5F24
_chemical_formula_sum   'Th1 Pa5 F24'
_cell_volume   493.31345956
_cell_formula_units_Z   1
loop_
 _symmetry_equiv_pos_site_id
 _symmetry_equiv_pos_as_xyz
  1  'x, y, z'
loop_
 _atom_site_type_symbol
 _atom_site_label
 _atom_site_symmetry_multiplicity
 _atom_site_fract_x
 _atom_site_fract_y
 _atom_site_fract_z
 _atom_site_occupancy
  Th  Th0  1  0.774385  0.633161  0.168325  1
  Pa  Pa1  1  0.628193  0.776173  0.671234  1
  Pa  Pa2  1  0.366056  0.223353  0.331496  1
  Pa  Pa3  1  0.223374  0.363971  0.832768  1
  Pa  Pa4  1  0.786472  0.214059  0.749099  1
  Pa  Pa5  1  0.208787  0.785019  0.254295  1
  F  F6  1  0.324803  0.262449  0.602688  1
  F  F7  1  0.680225  0.742734  0.395379  1
  F  F8  1  0.738076  0.675792  0.894256  1
  F  F9  1  0.268608  0.327930  0.099788  1
  F  F10  1  0.823586  0.935778  0.950741  1
  F  F11  1  0.170935  0.069595  0.048796  1
  F  F12  1  0.067237  0.174060  0.544762  1
  F  F13  1  0.934695  0.820774  0.456833  1
  F  F14  1  0.404996  0.599238  0.750318  1
  F  F15  1  0.596519  0.400083  0.247340  1
  F  F16  1  0.494766  0.998730  0.503064  1
  F  F17  1  0.001455  0.493274  0.002778  1
  F  F18  1  0.501906  0.249903  0.794372  1
  F  F19  1  0.495853  0.744133  0.211285  1
  F  F20  1  0.748612  0.498764  0.704878  1
  F  F21  1  0.246288  0.501093  0.299171  1
  F  F22  1  0.399197  0.810668  0.931902  1
  F  F23  1  0.602860  0.192256  0.069924  1
  F  F24  1  0.196706  0.601734  0.573122  1
  F  F25  1  0.805517  0.398635  0.431027  1
  F  F26  1  0.726969  0.024466  0.651122  1
  F  F27  1  0.276407  0.976987  0.341297  1
  F  F28  1  0.978008  0.275983  0.841301  1
  F  F29  1  0.028507  0.729207  0.146636  1
