# generated using pymatgen
data_Rb6YInAs4
_symmetry_space_group_name_H-M   'P 1'
_cell_length_a   9.68423795
_cell_length_b   9.68423920
_cell_length_c   9.68423724
_cell_angle_alpha   129.08045902
_cell_angle_beta   68.74231868
_cell_angle_gamma   137.06710165
_symmetry_Int_Tables_number   1
_chemical_formula_structural   Rb6YInAs4
_chemical_formula_sum   'Rb6 Y1 In1 As4'
_cell_volume   471.72989827
_cell_formula_units_Z   1
loop_
 _symmetry_equiv_pos_site_id
 _symmetry_equiv_pos_as_xyz
  1  'x, y, z'
loop_
 _atom_site_type_symbol
 _atom_site_label
 _atom_site_symmetry_multiplicity
 _atom_site_fract_x
 _atom_site_fract_y
 _atom_site_fract_z
 _atom_site_occupancy
  Rb  Rb0  1  0.797283  0.183299  0.008800  1
  Rb  Rb1  1  0.702717  0.711519  0.386019  1
  Rb  Rb2  1  0.750000  0.250000  0.500000  1
  Rb  Rb3  1  0.250000  0.750000  0.500001  1
  Rb  Rb4  1  0.325502  0.316700  0.613982  1
  Rb  Rb5  1  0.174498  0.788481  0.991199  1
  Y  Y6  1  0.250000  0.250000  0.000000  1
  In  In7  1  0.750000  0.750000  0.000000  1
  As  As8  1  0.407857  0.692167  0.088523  1
  As  As9  1  0.092143  0.180666  0.284310  1
  As  As10  1  0.896355  0.807833  0.715690  1
  As  As11  1  0.603644  0.319335  0.911477  1
