# generated using pymatgen
data_Ho8Si15GeW12
_symmetry_space_group_name_H-M   'P 1'
_cell_length_a   6.77157085
_cell_length_b   6.93134465
_cell_length_c   12.91629802
_cell_angle_alpha   90.06655780
_cell_angle_beta   89.96804090
_cell_angle_gamma   90.01146171
_symmetry_Int_Tables_number   1
_chemical_formula_structural   Ho8Si15GeW12
_chemical_formula_sum   'Ho8 Si15 Ge1 W12'
_cell_volume   606.24002824
_cell_formula_units_Z   1
loop_
 _symmetry_equiv_pos_site_id
 _symmetry_equiv_pos_as_xyz
  1  'x, y, z'
loop_
 _atom_site_type_symbol
 _atom_site_label
 _atom_site_symmetry_multiplicity
 _atom_site_fract_x
 _atom_site_fract_y
 _atom_site_fract_z
 _atom_site_occupancy
  Ho  Ho0  1  0.494991  0.332389  0.093405  1
  Ho  Ho1  1  0.993697  0.167885  0.406108  1
  Ho  Ho2  1  0.509167  0.669738  0.594283  1
  Ho  Ho3  1  0.004870  0.832468  0.906842  1
  Ho  Ho4  1  0.504739  0.667501  0.906913  1
  Ho  Ho5  1  0.005555  0.832147  0.593569  1
  Ho  Ho6  1  0.495508  0.331103  0.405300  1
  Ho  Ho7  1  0.995042  0.167958  0.093565  1
  Si  Si8  1  0.805418  0.633301  0.750525  1
  Si  Si9  1  0.303843  0.864762  0.750876  1
  Si  Si10  1  0.195698  0.367202  0.249765  1
  Si  Si11  1  0.695983  0.133741  0.249386  1
  Si  Si12  1  0.536403  0.370459  0.750647  1
  Si  Si13  1  0.037022  0.129814  0.750073  1
  Si  Si14  1  0.462187  0.630003  0.249851  1
  Si  Si15  1  0.962047  0.872020  0.248733  1
  Si  Si16  1  0.663563  0.042472  0.546153  1
  Si  Si17  1  0.161519  0.457485  0.953695  1
  Si  Si18  1  0.337628  0.958114  0.047058  1
  Si  Si19  1  0.833956  0.543458  0.452365  1
  Si  Si20  1  0.337204  0.957505  0.453499  1
  Si  Si21  1  0.838168  0.541919  0.046804  1
  Si  Si22  1  0.661667  0.041497  0.953260  1
  Ge  Ge23  1  0.169064  0.458020  0.546061  1
  W  W24  1  0.667841  0.999951  0.750166  1
  W  W25  1  0.167192  0.498914  0.751399  1
  W  W26  1  0.332172  0.000898  0.249974  1
  W  W27  1  0.832376  0.500374  0.250261  1
  W  W28  1  0.829930  0.335712  0.626492  1
  W  W29  1  0.332206  0.162814  0.875072  1
  W  W30  1  0.167505  0.663443  0.124319  1
  W  W31  1  0.667056  0.837946  0.374235  1
  W  W32  1  0.164547  0.667498  0.371432  1
  W  W33  1  0.666612  0.835901  0.125491  1
  W  W34  1  0.831741  0.336054  0.875395  1
  W  W35  1  0.335881  0.157535  0.627025  1
