# generated using pymatgen
data_SmB2OsRh
_symmetry_space_group_name_H-M   'P 1'
_cell_length_a   6.90317085
_cell_length_b   6.05000992
_cell_length_c   5.58357175
_cell_angle_alpha   72.66971404
_cell_angle_beta   56.78536212
_cell_angle_gamma   50.36251480
_symmetry_Int_Tables_number   1
_chemical_formula_structural   SmB2OsRh
_chemical_formula_sum   'Sm2 B4 Os2 Rh2'
_cell_volume   149.76037602
_cell_formula_units_Z   2
loop_
 _symmetry_equiv_pos_site_id
 _symmetry_equiv_pos_as_xyz
  1  'x, y, z'
loop_
 _atom_site_type_symbol
 _atom_site_label
 _atom_site_symmetry_multiplicity
 _atom_site_fract_x
 _atom_site_fract_y
 _atom_site_fract_z
 _atom_site_occupancy
  Sm  Sm0  1  0.003101  0.003101  0.996899  1
  Sm  Sm1  1  0.246899  0.246899  0.253101  1
  B  B2  1  0.661618  0.322545  0.701136  1
  B  B3  1  0.322545  0.661618  0.314701  1
  B  B4  1  0.927455  0.588382  0.935299  1
  B  B5  1  0.588382  0.927455  0.548864  1
  Os  Os6  1  0.363555  0.363555  0.636445  1
  Os  Os7  1  0.886445  0.886445  0.613555  1
  Rh  Rh8  1  0.618102  0.618102  0.881898  1
  Rh  Rh9  1  0.631898  0.631898  0.368102  1
