# generated using pymatgen
data_Y6Al21Si3Os7Ru
_symmetry_space_group_name_H-M   'P 1'
_cell_length_a   8.73423900
_cell_length_b   8.73423974
_cell_length_c   9.63769100
_cell_angle_alpha   90.00000000
_cell_angle_beta   90.00000000
_cell_angle_gamma   119.99999341
_symmetry_Int_Tables_number   1
_chemical_formula_structural   Y6Al21Si3Os7Ru
_chemical_formula_sum   'Y6 Al21 Si3 Os7 Ru1'
_cell_volume   636.72783906
_cell_formula_units_Z   1
loop_
 _symmetry_equiv_pos_site_id
 _symmetry_equiv_pos_as_xyz
  1  'x, y, z'
loop_
 _atom_site_type_symbol
 _atom_site_label
 _atom_site_symmetry_multiplicity
 _atom_site_fract_x
 _atom_site_fract_y
 _atom_site_fract_z
 _atom_site_occupancy
  Y  Y0  1  0.194885  0.389770  0.247900  1
  Y  Y1  1  0.804774  0.609548  0.752609  1
  Y  Y2  1  0.610230  0.805115  0.247900  1
  Y  Y3  1  0.390452  0.195226  0.752609  1
  Y  Y4  1  0.194885  0.805115  0.247900  1
  Y  Y5  1  0.804774  0.195226  0.752609  1
  Al  Al6  1  0.333333  0.666667  0.478303  1
  Al  Al7  1  0.164092  0.328184  0.574346  1
  Al  Al8  1  0.835028  0.670056  0.423503  1
  Al  Al9  1  0.671816  0.835908  0.574346  1
  Al  Al10  1  0.834934  0.669867  0.077073  1
  Al  Al11  1  0.329944  0.164972  0.423503  1
  Al  Al12  1  0.165355  0.330711  0.922657  1
  Al  Al13  1  0.164092  0.835908  0.574346  1
  Al  Al14  1  0.330133  0.165066  0.077073  1
  Al  Al15  1  0.835028  0.164972  0.423503  1
  Al  Al16  1  0.669289  0.834645  0.922657  1
  Al  Al17  1  0.834934  0.165066  0.077073  1
  Al  Al18  1  0.165355  0.834645  0.922657  1
  Al  Al19  1  0.563463  0.126926  0.248672  1
  Al  Al20  1  0.436921  0.873843  0.748693  1
  Al  Al21  1  0.873074  0.436537  0.248672  1
  Al  Al22  1  0.126157  0.563079  0.748693  1
  Al  Al23  1  0.563463  0.436537  0.248672  1
  Al  Al24  1  0.436921  0.563079  0.748693  1
  Al  Al25  1  0.000000  0.000000  0.247362  1
  Al  Al26  1  0.000000  0.000000  0.751093  1
  Si  Si27  1  0.333333  0.666667  0.036695  1
  Si  Si28  1  0.666667  0.333333  0.964094  1
  Si  Si29  1  0.666667  0.333333  0.537734  1
  Os  Os30  1  0.499891  0.999782  0.998810  1
  Os  Os31  1  0.000218  0.500109  0.998810  1
  Os  Os32  1  0.504345  0.008690  0.501225  1
  Os  Os33  1  0.499891  0.500109  0.998810  1
  Os  Os34  1  0.991310  0.495655  0.501225  1
  Os  Os35  1  0.504345  0.495655  0.501225  1
  Os  Os36  1  0.000000  0.000000  0.499337  1
  Ru  Ru37  1  0.000000  0.000000  0.998918  1
