# generated using pymatgen
data_Tb2DySn3GeRh2
_symmetry_space_group_name_H-M   'P 1'
_cell_length_a   7.42070801
_cell_length_b   7.42301907
_cell_length_c   4.16746700
_cell_angle_alpha   90.00000000
_cell_angle_beta   90.00000000
_cell_angle_gamma   119.99492245
_symmetry_Int_Tables_number   1
_chemical_formula_structural   Tb2DySn3GeRh2
_chemical_formula_sum   'Tb2 Dy1 Sn3 Ge1 Rh2'
_cell_volume   198.81582024
_cell_formula_units_Z   1
loop_
 _symmetry_equiv_pos_site_id
 _symmetry_equiv_pos_as_xyz
  1  'x, y, z'
loop_
 _atom_site_type_symbol
 _atom_site_label
 _atom_site_symmetry_multiplicity
 _atom_site_fract_x
 _atom_site_fract_y
 _atom_site_fract_z
 _atom_site_occupancy
  Tb  Tb0  1  0.402926  0.412982  0.500000  1
  Tb  Tb1  1  0.587017  0.990035  0.500000  1
  Dy  Dy2  1  0.010302  0.597344  0.500000  1
  Sn  Sn3  1  0.742642  0.756421  0.000000  1
  Sn  Sn4  1  0.243385  0.985874  0.000000  1
  Sn  Sn5  1  0.013835  0.257593  0.000000  1
  Ge  Ge6  1  0.666971  0.333546  0.000000  1
  Rh  Rh7  1  0.332958  0.666569  0.000000  1
  Rh  Rh8  1  0.999964  0.999634  0.500000  1
