# generated using pymatgen
data_HfZrSb2OsPd
_symmetry_space_group_name_H-M   'P 1'
_cell_length_a   6.36965561
_cell_length_b   6.36928083
_cell_length_c   7.79049811
_cell_angle_alpha   65.87144888
_cell_angle_beta   65.87074536
_cell_angle_gamma   89.99999529
_symmetry_Int_Tables_number   1
_chemical_formula_structural   HfZrSb2OsPd
_chemical_formula_sum   'Hf2 Zr2 Sb4 Os2 Pd2'
_cell_volume   257.89146176
_cell_formula_units_Z   2
loop_
 _symmetry_equiv_pos_site_id
 _symmetry_equiv_pos_as_xyz
  1  'x, y, z'
loop_
 _atom_site_type_symbol
 _atom_site_label
 _atom_site_symmetry_multiplicity
 _atom_site_fract_x
 _atom_site_fract_y
 _atom_site_fract_z
 _atom_site_occupancy
  Hf  Hf0  1  0.370493  0.874996  0.750004  1
  Hf  Hf1  1  0.879507  0.375001  0.749996  1
  Zr  Zr2  1  0.625001  0.628770  0.250000  1
  Zr  Zr3  1  0.124998  0.121237  0.250000  1
  Sb  Sb4  1  0.125001  0.630094  0.250000  1
  Sb  Sb5  1  0.625001  0.119906  0.250000  1
  Sb  Sb6  1  0.880753  0.875024  0.749960  1
  Sb  Sb7  1  0.369246  0.374981  0.750041  1
  Os  Os8  1  0.001202  0.001206  0.997590  1
  Os  Os9  1  0.248798  0.748797  0.502409  1
  Pd  Pd10  1  0.501133  0.501129  0.997730  1
  Pd  Pd11  1  0.748868  0.248861  0.502269  1
