# generated using pymatgen
data_Dy4ReB16MoRh2
_symmetry_space_group_name_H-M   'P 1'
_cell_length_a   3.59349400
_cell_length_b   5.98504164
_cell_length_c   11.59876116
_cell_angle_alpha   90.29555339
_cell_angle_beta   90.00000000
_cell_angle_gamma   90.00000000
_symmetry_Int_Tables_number   1
_chemical_formula_structural   Dy4ReB16MoRh2
_chemical_formula_sum   'Dy4 Re1 B16 Mo1 Rh2'
_cell_volume   249.45368714
_cell_formula_units_Z   1
loop_
 _symmetry_equiv_pos_site_id
 _symmetry_equiv_pos_as_xyz
  1  'x, y, z'
loop_
 _atom_site_type_symbol
 _atom_site_label
 _atom_site_symmetry_multiplicity
 _atom_site_fract_x
 _atom_site_fract_y
 _atom_site_fract_z
 _atom_site_occupancy
  Dy  Dy0  1  0.500000  0.371557  0.147286  1
  Dy  Dy1  1  0.500000  0.628571  0.852483  1
  Dy  Dy2  1  0.500000  0.127657  0.651163  1
  Dy  Dy3  1  0.500000  0.871363  0.348540  1
  Re  Re4  1  0.500000  0.630357  0.586945  1
  B  B5  1  0.000000  0.113200  0.047316  1
  B  B6  1  0.000000  0.886707  0.952750  1
  B  B7  1  0.000000  0.387370  0.548087  1
  B  B8  1  0.000000  0.615434  0.453848  1
  B  B9  1  0.000000  0.133489  0.469018  1
  B  B10  1  0.000000  0.864664  0.532374  1
  B  B11  1  0.000000  0.363785  0.968720  1
  B  B12  1  0.000000  0.636191  0.031337  1
  B  B13  1  0.000000  0.023218  0.192246  1
  B  B14  1  0.000000  0.975638  0.807578  1
  B  B15  1  0.000000  0.476464  0.693105  1
  B  B16  1  0.000000  0.525253  0.306326  1
  B  B17  1  0.000000  0.210008  0.312878  1
  B  B18  1  0.000000  0.788242  0.685908  1
  B  B19  1  0.000000  0.289600  0.814387  1
  B  B20  1  0.000000  0.711285  0.185496  1
  Mo  Mo21  1  0.500000  0.369217  0.413616  1
  Rh  Rh22  1  0.500000  0.140973  0.905116  1
  Rh  Rh23  1  0.500000  0.859758  0.093475  1
