# generated using pymatgen
data_Hf6Mn3Ga12Re
_symmetry_space_group_name_H-M   'P 1'
_cell_length_a   5.39647194
_cell_length_b   7.72692396
_cell_length_c   8.75046358
_cell_angle_alpha   90.30564897
_cell_angle_beta   89.48668111
_cell_angle_gamma   90.29546312
_symmetry_Int_Tables_number   1
_chemical_formula_structural   Hf6Mn3Ga12Re
_chemical_formula_sum   'Hf6 Mn3 Ga12 Re1'
_cell_volume   364.85335643
_cell_formula_units_Z   1
loop_
 _symmetry_equiv_pos_site_id
 _symmetry_equiv_pos_as_xyz
  1  'x, y, z'
loop_
 _atom_site_type_symbol
 _atom_site_label
 _atom_site_symmetry_multiplicity
 _atom_site_fract_x
 _atom_site_fract_y
 _atom_site_fract_z
 _atom_site_occupancy
  Hf  Hf0  1  0.000867  0.844312  0.720434  1
  Hf  Hf1  1  0.504116  0.156968  0.219770  1
  Hf  Hf2  1  0.997376  0.284139  0.000809  1
  Hf  Hf3  1  0.995884  0.843032  0.280230  1
  Hf  Hf4  1  0.499133  0.155688  0.779566  1
  Hf  Hf5  1  0.502624  0.715861  0.499191  1
  Mn  Mn6  1  0.750000  0.500000  0.750000  1
  Mn  Mn7  1  0.250000  0.500000  0.750000  1
  Mn  Mn8  1  0.250000  0.500000  0.250000  1
  Ga  Ga9  1  0.002283  0.563161  0.504194  1
  Ga  Ga10  1  0.997310  0.633871  0.996749  1
  Ga  Ga11  1  0.760010  0.962067  0.998116  1
  Ga  Ga12  1  0.005775  0.227948  0.312827  1
  Ga  Ga13  1  0.497717  0.436839  0.995806  1
  Ga  Ga14  1  0.494225  0.772052  0.187173  1
  Ga  Ga15  1  0.262088  0.039972  0.500544  1
  Ga  Ga16  1  0.502690  0.366129  0.503251  1
  Ga  Ga17  1  0.998719  0.235303  0.687917  1
  Ga  Ga18  1  0.501281  0.764697  0.812083  1
  Ga  Ga19  1  0.739990  0.037933  0.501884  1
  Ga  Ga20  1  0.237912  0.960028  0.999456  1
  Re  Re21  1  0.750000  0.500000  0.250000  1
