# generated using pymatgen
data_LaNdSbTe
_symmetry_space_group_name_H-M   'P 1'
_cell_length_a   7.92053852
_cell_length_b   7.92053803
_cell_length_c   7.92053823
_cell_angle_alpha   33.39384890
_cell_angle_beta   33.39385463
_cell_angle_gamma   33.39385461
_symmetry_Int_Tables_number   1
_chemical_formula_structural   LaNdSbTe
_chemical_formula_sum   'La1 Nd1 Sb1 Te1'
_cell_volume   134.03970063
_cell_formula_units_Z   1
loop_
 _symmetry_equiv_pos_site_id
 _symmetry_equiv_pos_as_xyz
  1  'x, y, z'
loop_
 _atom_site_type_symbol
 _atom_site_label
 _atom_site_symmetry_multiplicity
 _atom_site_fract_x
 _atom_site_fract_y
 _atom_site_fract_z
 _atom_site_occupancy
  La  La0  1  0.496860  0.496860  0.496860  1
  Nd  Nd1  1  0.003188  0.003188  0.003188  1
  Sb  Sb2  1  0.748554  0.748554  0.748554  1
  Te  Te3  1  0.251398  0.251398  0.251398  1
