# generated using pymatgen
data_Li4La3TbRh4
_symmetry_space_group_name_H-M   'P 1'
_cell_length_a   4.00774400
_cell_length_b   7.11282093
_cell_length_c   8.69828398
_cell_angle_alpha   90.12968537
_cell_angle_beta   90.00000000
_cell_angle_gamma   90.00000000
_symmetry_Int_Tables_number   1
_chemical_formula_structural   Li4La3TbRh4
_chemical_formula_sum   'Li4 La3 Tb1 Rh4'
_cell_volume   247.95582643
_cell_formula_units_Z   1
loop_
 _symmetry_equiv_pos_site_id
 _symmetry_equiv_pos_as_xyz
  1  'x, y, z'
loop_
 _atom_site_type_symbol
 _atom_site_label
 _atom_site_symmetry_multiplicity
 _atom_site_fract_x
 _atom_site_fract_y
 _atom_site_fract_z
 _atom_site_occupancy
  Li  Li0  1  0.750000  0.378919  0.045136  1
  Li  Li1  1  0.250000  0.617931  0.945851  1
  Li  Li2  1  0.750000  0.875324  0.451885  1
  Li  Li3  1  0.250000  0.130433  0.552106  1
  La  La4  1  0.250000  0.044215  0.179001  1
  La  La5  1  0.750000  0.953295  0.815199  1
  La  La6  1  0.250000  0.544258  0.325825  1
  Tb  Tb7  1  0.750000  0.450753  0.679708  1
  Rh  Rh8  1  0.250000  0.736240  0.635827  1
  Rh  Rh9  1  0.750000  0.263496  0.372160  1
  Rh  Rh10  1  0.250000  0.240720  0.863573  1
  Rh  Rh11  1  0.750000  0.764416  0.133729  1
