# generated using pymatgen
data_HoGaCoO5
_symmetry_space_group_name_H-M   'P 1'
_cell_length_a   5.72469200
_cell_length_b   7.26920800
_cell_length_c   8.41502500
_cell_angle_alpha   90.00000000
_cell_angle_beta   90.00000000
_cell_angle_gamma   90.00000000
_symmetry_Int_Tables_number   1
_chemical_formula_structural   HoGaCoO5
_chemical_formula_sum   'Ho4 Ga4 Co4 O20'
_cell_volume   350.18265583
_cell_formula_units_Z   4
loop_
 _symmetry_equiv_pos_site_id
 _symmetry_equiv_pos_as_xyz
  1  'x, y, z'
loop_
 _atom_site_type_symbol
 _atom_site_label
 _atom_site_symmetry_multiplicity
 _atom_site_fract_x
 _atom_site_fract_y
 _atom_site_fract_z
 _atom_site_occupancy
  Ho  Ho0  1  0.500000  0.365439  0.330703  1
  Ho  Ho1  1  0.500000  0.634561  0.669297  1
  Ho  Ho2  1  0.500000  0.134561  0.830703  1
  Ho  Ho3  1  0.500000  0.865439  0.169297  1
  Ga  Ga4  1  0.000000  0.109926  0.147823  1
  Ga  Ga5  1  0.000000  0.890074  0.852177  1
  Ga  Ga6  1  0.000000  0.390074  0.647823  1
  Ga  Ga7  1  0.000000  0.609926  0.352177  1
  Co  Co8  1  0.249041  0.000000  0.500000  1
  Co  Co9  1  0.750959  0.000000  0.500000  1
  Co  Co10  1  0.750959  0.500000  0.000000  1
  Co  Co11  1  0.249041  0.500000  0.000000  1
  O  O12  1  0.500000  0.341303  0.056948  1
  O  O13  1  0.500000  0.658697  0.943052  1
  O  O14  1  0.500000  0.158697  0.556948  1
  O  O15  1  0.500000  0.841303  0.443052  1
  O  O16  1  0.230558  0.000000  0.000000  1
  O  O17  1  0.769442  0.000000  0.000000  1
  O  O18  1  0.769442  0.500000  0.500000  1
  O  O19  1  0.230558  0.500000  0.500000  1
  O  O20  1  0.259571  0.106601  0.296066  1
  O  O21  1  0.740429  0.893399  0.703934  1
  O  O22  1  0.259571  0.893399  0.703934  1
  O  O23  1  0.740429  0.393399  0.796066  1
  O  O24  1  0.740429  0.106601  0.296066  1
  O  O25  1  0.259571  0.606601  0.203934  1
  O  O26  1  0.740429  0.606601  0.203934  1
  O  O27  1  0.259571  0.393399  0.796066  1
  O  O28  1  0.000000  0.353998  0.070851  1
  O  O29  1  0.000000  0.646002  0.929149  1
  O  O30  1  0.000000  0.146002  0.570851  1
  O  O31  1  0.000000  0.853998  0.429149  1
