# generated using pymatgen
data_La2Ni9Mo3As7
_symmetry_space_group_name_H-M   'P 1'
_cell_length_a   3.95807700
_cell_length_b   9.55832898
_cell_length_c   9.55833000
_cell_angle_alpha   119.99999660
_cell_angle_beta   90.00000000
_cell_angle_gamma   90.00000000
_symmetry_Int_Tables_number   1
_chemical_formula_structural   La2Ni9Mo3As7
_chemical_formula_sum   'La2 Ni9 Mo3 As7'
_cell_volume   313.16908240
_cell_formula_units_Z   1
loop_
 _symmetry_equiv_pos_site_id
 _symmetry_equiv_pos_as_xyz
  1  'x, y, z'
loop_
 _atom_site_type_symbol
 _atom_site_label
 _atom_site_symmetry_multiplicity
 _atom_site_fract_x
 _atom_site_fract_y
 _atom_site_fract_z
 _atom_site_occupancy
  La  La0  1  0.000000  0.666667  0.333333  1
  La  La1  1  0.500000  0.333333  0.666667  1
  Ni  Ni2  1  0.000000  0.572449  0.935880  1
  Ni  Ni3  1  0.000000  0.363431  0.427551  1
  Ni  Ni4  1  0.000000  0.064120  0.636569  1
  Ni  Ni5  1  0.000000  0.867124  0.147008  1
  Ni  Ni6  1  0.000000  0.279884  0.132876  1
  Ni  Ni7  1  0.000000  0.852992  0.720116  1
  Ni  Ni8  1  0.500000  0.941164  0.376682  1
  Ni  Ni9  1  0.500000  0.435517  0.058836  1
  Ni  Ni10  1  0.500000  0.623318  0.564483  1
  Mo  Mo11  1  0.500000  0.789198  0.893599  1
  Mo  Mo12  1  0.500000  0.104401  0.210802  1
  Mo  Mo13  1  0.500000  0.106401  0.895599  1
  As  As14  1  0.000000  0.000000  0.000000  1
  As  As15  1  0.500000  0.705440  0.106539  1
  As  As16  1  0.500000  0.401100  0.294560  1
  As  As17  1  0.500000  0.893461  0.598900  1
  As  As18  1  0.000000  0.594181  0.696911  1
  As  As19  1  0.000000  0.102732  0.405819  1
  As  As20  1  0.000000  0.303089  0.897268  1
