# generated using pymatgen
data_Mn4Co2PbO12
_symmetry_space_group_name_H-M   'P 1'
_cell_length_a   8.08981175
_cell_length_b   8.08981167
_cell_length_c   9.59091887
_cell_angle_alpha   54.51904896
_cell_angle_beta   54.51904983
_cell_angle_gamma   65.01679769
_symmetry_Int_Tables_number   1
_chemical_formula_structural   Mn4Co2PbO12
_chemical_formula_sum   'Mn8 Co4 Pb2 O24'
_cell_volume   412.74202995
_cell_formula_units_Z   2
loop_
 _symmetry_equiv_pos_site_id
 _symmetry_equiv_pos_as_xyz
  1  'x, y, z'
loop_
 _atom_site_type_symbol
 _atom_site_label
 _atom_site_symmetry_multiplicity
 _atom_site_fract_x
 _atom_site_fract_y
 _atom_site_fract_z
 _atom_site_occupancy
  Mn  Mn0  1  0.670380  0.002582  0.815884  1
  Mn  Mn1  1  0.186843  0.518480  0.479918  1
  Mn  Mn2  1  0.813157  0.481520  0.520082  1
  Mn  Mn3  1  0.329620  0.997418  0.184116  1
  Mn  Mn4  1  0.997418  0.329620  0.184116  1
  Mn  Mn5  1  0.002582  0.670380  0.815884  1
  Mn  Mn6  1  0.518480  0.186843  0.479918  1
  Mn  Mn7  1  0.481520  0.813157  0.520082  1
  Co  Co8  1  0.852664  0.852664  0.475153  1
  Co  Co9  1  0.332417  0.332417  0.821956  1
  Co  Co10  1  0.147336  0.147336  0.524847  1
  Co  Co11  1  0.667583  0.667583  0.178044  1
  Pb  Pb12  1  0.274876  0.725124  0.000000  1
  Pb  Pb13  1  0.725124  0.274876  0.000000  1
  O  O14  1  0.703092  0.703092  0.945775  1
  O  O15  1  0.012499  0.676235  0.348682  1
  O  O16  1  0.676235  0.012499  0.348682  1
  O  O17  1  0.678135  0.010182  0.611909  1
  O  O18  1  0.010182  0.678135  0.611909  1
  O  O19  1  0.042397  0.042397  0.278480  1
  O  O20  1  0.709994  0.378031  0.272405  1
  O  O21  1  0.378031  0.709994  0.272405  1
  O  O22  1  0.989818  0.321865  0.388091  1
  O  O23  1  0.987501  0.323765  0.651318  1
  O  O24  1  0.034273  0.369478  0.945577  1
  O  O25  1  0.369478  0.034273  0.945577  1
  O  O26  1  0.296908  0.296908  0.054225  1
  O  O27  1  0.965727  0.630522  0.054423  1
  O  O28  1  0.341311  0.341311  0.353717  1
  O  O29  1  0.348446  0.348446  0.610364  1
  O  O30  1  0.290006  0.621969  0.727595  1
  O  O31  1  0.621969  0.290006  0.727595  1
  O  O32  1  0.957603  0.957603  0.721520  1
  O  O33  1  0.651554  0.651554  0.389636  1
  O  O34  1  0.321865  0.989818  0.388091  1
  O  O35  1  0.658689  0.658689  0.646283  1
  O  O36  1  0.323765  0.987501  0.651318  1
  O  O37  1  0.630522  0.965727  0.054423  1
