# generated using pymatgen
data_Tb3Ni2PtPb3
_symmetry_space_group_name_H-M   'P 1'
_cell_length_a   7.69265900
_cell_length_b   7.69265915
_cell_length_c   3.87474700
_cell_angle_alpha   90.00000000
_cell_angle_beta   90.00000000
_cell_angle_gamma   119.99999621
_symmetry_Int_Tables_number   1
_chemical_formula_structural   Tb3Ni2PtPb3
_chemical_formula_sum   'Tb3 Ni2 Pt1 Pb3'
_cell_volume   198.57609695
_cell_formula_units_Z   1
loop_
 _symmetry_equiv_pos_site_id
 _symmetry_equiv_pos_as_xyz
  1  'x, y, z'
loop_
 _atom_site_type_symbol
 _atom_site_label
 _atom_site_symmetry_multiplicity
 _atom_site_fract_x
 _atom_site_fract_y
 _atom_site_fract_z
 _atom_site_occupancy
  Tb  Tb0  1  0.404175  0.999741  0.000000  1
  Tb  Tb1  1  0.000259  0.404433  0.000000  1
  Tb  Tb2  1  0.595567  0.595826  0.000000  1
  Ni  Ni3  1  0.000000  0.000000  0.000000  1
  Ni  Ni4  1  0.333334  0.666667  0.500000  1
  Pt  Pt5  1  0.666667  0.333333  0.500000  1
  Pb  Pb6  1  0.737175  0.989964  0.500000  1
  Pb  Pb7  1  0.252789  0.262824  0.500000  1
  Pb  Pb8  1  0.010036  0.747212  0.500000  1
