# generated using pymatgen
data_Li12Nd3Sm9(TeO6)8
_symmetry_space_group_name_H-M   'P 1'
_cell_length_a   10.92471144
_cell_length_b   10.92471186
_cell_length_c   10.93038718
_cell_angle_alpha   109.42879295
_cell_angle_beta   109.51386017
_cell_angle_gamma   109.44997708
_symmetry_Int_Tables_number   1
_chemical_formula_structural   Li12Nd3Sm9(TeO6)8
_chemical_formula_sum   'Li12 Nd3 Sm9 Te8 O48'
_cell_volume   1004.49111749
_cell_formula_units_Z   1
loop_
 _symmetry_equiv_pos_site_id
 _symmetry_equiv_pos_as_xyz
  1  'x, y, z'
loop_
 _atom_site_type_symbol
 _atom_site_label
 _atom_site_symmetry_multiplicity
 _atom_site_fract_x
 _atom_site_fract_y
 _atom_site_fract_z
 _atom_site_occupancy
  Li  Li0  1  0.749912  0.874992  0.124764  1
  Li  Li1  1  0.874621  0.249758  0.124531  1
  Li  Li2  1  0.624627  0.374627  0.250000  1
  Li  Li3  1  0.125235  0.875235  0.250000  1
  Li  Li4  1  0.625227  0.750091  0.375469  1
  Li  Li5  1  0.250228  0.625148  0.375236  1
  Li  Li6  1  0.749984  0.375002  0.625002  1
  Li  Li7  1  0.375382  0.250000  0.625365  1
  Li  Li8  1  0.874976  0.124976  0.750000  1
  Li  Li9  1  0.375167  0.625167  0.750000  1
  Li  Li10  1  0.124635  0.750017  0.874635  1
  Li  Li11  1  0.250000  0.124982  0.874998  1
  Nd  Nd12  1  0.375020  0.750043  0.125058  1
  Nd  Nd13  1  0.124985  0.249962  0.374942  1
  Nd  Nd14  1  0.875026  0.625026  0.250000  1
  Sm  Sm15  1  0.124560  0.374560  0.750000  1
  Sm  Sm16  1  0.875125  0.750210  0.625524  1
  Sm  Sm17  1  0.624686  0.249602  0.874476  1
  Sm  Sm18  1  0.250033  0.374555  0.124603  1
  Sm  Sm19  1  0.624990  0.874990  0.750000  1
  Sm  Sm20  1  0.250405  0.875302  0.625520  1
  Sm  Sm21  1  0.749951  0.125430  0.375397  1
  Sm  Sm22  1  0.375443  0.125443  0.250000  1
  Sm  Sm23  1  0.749782  0.624885  0.874480  1
  Te  Te24  1  0.499253  0.498717  0.998927  1
  Te  Te25  1  0.500264  0.000755  0.999850  1
  Te  Te26  1  0.999165  0.498925  0.998689  1
  Te  Te27  1  0.999853  0.999614  0.999070  1
  Te  Te28  1  0.500904  0.500414  0.500150  1
  Te  Te29  1  0.999790  0.500326  0.501073  1
  Te  Te30  1  0.500544  0.000783  0.500930  1
  Te  Te31  1  0.000236  0.000476  0.501311  1
  O  O32  1  0.078816  0.884138  0.407706  1
  O  O33  1  0.095045  0.618453  0.424722  1
  O  O34  1  0.829298  0.805688  0.424635  1
  O  O35  1  0.381054  0.575425  0.904643  1
  O  O36  1  0.828383  0.524126  0.407824  1
  O  O37  1  0.093894  0.974915  0.671345  1
  O  O38  1  0.116277  0.592230  0.920698  1
  O  O39  1  0.303699  0.328767  0.922742  1
  O  O40  1  0.076929  0.695962  0.671227  1
  O  O41  1  0.619002  0.695768  0.524812  1
  O  O42  1  0.671026  0.077179  0.696155  1
  O  O43  1  0.423390  0.094274  0.619103  1
  O  O44  1  0.406106  0.829427  0.524618  1
  O  O45  1  0.024727  0.328766  0.905597  1
  O  O46  1  0.476524  0.592351  0.171090  1
  O  O47  1  0.881024  0.974870  0.803845  1
  O  O48  1  0.696186  0.525178  0.619052  1
  O  O49  1  0.193704  0.575312  0.170351  1
  O  O50  1  0.195552  0.118687  0.024536  1
  O  O51  1  0.576776  0.170902  0.195428  1
  O  O52  1  0.595093  0.924591  0.118504  1
  O  O53  1  0.328694  0.907587  0.023515  1
  O  O54  1  0.975171  0.804287  0.880897  1
  O  O55  1  0.524588  0.618544  0.695111  1
  O  O56  1  0.475474  0.381348  0.304572  1
  O  O57  1  0.023535  0.194777  0.115944  1
  O  O58  1  0.670955  0.094190  0.975188  1
  O  O59  1  0.406126  0.077134  0.880948  1
  O  O60  1  0.423433  0.829477  0.804889  1
  O  O61  1  0.804809  0.881488  0.975382  1
  O  O62  1  0.803570  0.422549  0.828655  1
  O  O63  1  0.306087  0.476589  0.381496  1
  O  O64  1  0.118451  0.023382  0.193834  1
  O  O65  1  0.524736  0.405702  0.828773  1
  O  O66  1  0.976432  0.671110  0.092294  1
  O  O67  1  0.594151  0.171016  0.475464  1
  O  O68  1  0.578833  0.907591  0.384056  1
  O  O69  1  0.329549  0.924617  0.306166  1
  O  O70  1  0.384071  0.305179  0.476485  1
  O  O71  1  0.921261  0.305434  0.328910  1
  O  O72  1  0.693731  0.670323  0.075278  1
  O  O73  1  0.881052  0.404663  0.075365  1
  O  O74  1  0.904961  0.023353  0.329649  1
  O  O75  1  0.170782  0.476412  0.595357  1
  O  O76  1  0.616302  0.420559  0.092176  1
  O  O77  1  0.171532  0.195579  0.579302  1
  O  O78  1  0.906025  0.380957  0.577258  1
  O  O79  1  0.923169  0.119130  0.594403  1
