# generated using pymatgen
data_Rb4P4OsPt3
_symmetry_space_group_name_H-M   'P 1'
_cell_length_a   6.85526048
_cell_length_b   6.86457047
_cell_length_c   7.74056644
_cell_angle_alpha   90.93502686
_cell_angle_beta   90.74113320
_cell_angle_gamma   111.25083986
_symmetry_Int_Tables_number   1
_chemical_formula_structural   Rb4P4OsPt3
_chemical_formula_sum   'Rb4 P4 Os1 Pt3'
_cell_volume   339.37549290
_cell_formula_units_Z   1
loop_
 _symmetry_equiv_pos_site_id
 _symmetry_equiv_pos_as_xyz
  1  'x, y, z'
loop_
 _atom_site_type_symbol
 _atom_site_label
 _atom_site_symmetry_multiplicity
 _atom_site_fract_x
 _atom_site_fract_y
 _atom_site_fract_z
 _atom_site_occupancy
  Rb  Rb0  1  0.187427  0.806484  0.509241  1
  Rb  Rb1  1  0.689304  0.308312  0.991801  1
  Rb  Rb2  1  0.808106  0.190609  0.492682  1
  Rb  Rb3  1  0.311212  0.691535  0.009711  1
  P  P4  1  0.172082  0.181464  0.823433  1
  P  P5  1  0.655024  0.666381  0.671942  1
  P  P6  1  0.836788  0.825998  0.168863  1
  P  P7  1  0.333114  0.322793  0.339276  1
  Os  Os8  1  0.371005  0.377799  0.625607  1
  Pt  Pt9  1  0.634278  0.626671  0.369316  1
  Pt  Pt10  1  0.131268  0.123890  0.125432  1
  Pt  Pt11  1  0.870394  0.878066  0.872694  1
