# generated using pymatgen
data_K2MnCuS4
_symmetry_space_group_name_H-M   'P 1'
_cell_length_a   13.00151555
_cell_length_b   11.60415712
_cell_length_c   7.03300212
_cell_angle_alpha   84.69892172
_cell_angle_beta   62.71109533
_cell_angle_gamma   32.58998348
_symmetry_Int_Tables_number   1
_chemical_formula_structural   K2MnCuS4
_chemical_formula_sum   'K4 Mn2 Cu2 S8'
_cell_volume   400.90843463
_cell_formula_units_Z   2
loop_
 _symmetry_equiv_pos_site_id
 _symmetry_equiv_pos_as_xyz
  1  'x, y, z'
loop_
 _atom_site_type_symbol
 _atom_site_label
 _atom_site_symmetry_multiplicity
 _atom_site_fract_x
 _atom_site_fract_y
 _atom_site_fract_z
 _atom_site_occupancy
  K  K0  1  0.571466  0.571466  0.928534  1
  K  K1  1  0.928534  0.928534  0.571466  1
  K  K2  1  0.321466  0.321466  0.678534  1
  K  K3  1  0.678534  0.678534  0.321466  1
  Mn  Mn4  1  0.750000  0.750000  0.750000  1
  Mn  Mn5  1  0.500000  0.500000  0.500000  1
  Cu  Cu6  1  0.000000  0.000000  0.000000  1
  Cu  Cu7  1  0.250000  0.250000  0.250000  1
  S  S8  1  0.230100  0.877831  0.578595  1
  S  S9  1  0.313474  0.578595  0.877831  1
  S  S10  1  0.578595  0.313474  0.230100  1
  S  S11  1  0.877831  0.230100  0.313474  1
  S  S12  1  0.372169  0.019900  0.936526  1
  S  S13  1  0.936526  0.671405  0.372169  1
  S  S14  1  0.671405  0.936526  0.019900  1
  S  S15  1  0.019900  0.372169  0.671405  1
