# generated using pymatgen
data_YbErFeIr3
_symmetry_space_group_name_H-M   'P 1'
_cell_length_a   5.11238049
_cell_length_b   5.11237941
_cell_length_c   5.11238016
_cell_angle_alpha   64.19762425
_cell_angle_beta   64.19763588
_cell_angle_gamma   64.19762411
_symmetry_Int_Tables_number   1
_chemical_formula_structural   YbErFeIr3
_chemical_formula_sum   'Yb1 Er1 Fe1 Ir3'
_cell_volume   103.20354633
_cell_formula_units_Z   1
loop_
 _symmetry_equiv_pos_site_id
 _symmetry_equiv_pos_as_xyz
  1  'x, y, z'
loop_
 _atom_site_type_symbol
 _atom_site_label
 _atom_site_symmetry_multiplicity
 _atom_site_fract_x
 _atom_site_fract_y
 _atom_site_fract_z
 _atom_site_occupancy
  Yb  Yb0  1  0.999658  0.999658  0.999658  1
  Er  Er1  1  0.250508  0.250508  0.250508  1
  Fe  Fe2  1  0.624615  0.624615  0.624615  1
  Ir  Ir3  1  0.625646  0.625646  0.123927  1
  Ir  Ir4  1  0.625646  0.123927  0.625646  1
  Ir  Ir5  1  0.123927  0.625646  0.625646  1
