# generated using pymatgen
data_Ac(NbCl3)6
_symmetry_space_group_name_H-M   'P 1'
_cell_length_a   10.43646355
_cell_length_b   10.43705094
_cell_length_c   10.43720929
_cell_angle_alpha   55.77109262
_cell_angle_beta   55.78051327
_cell_angle_gamma   55.77366845
_symmetry_Int_Tables_number   1
_chemical_formula_structural   Ac(NbCl3)6
_chemical_formula_sum   'Ac1 Nb6 Cl18'
_cell_volume   725.13370469
_cell_formula_units_Z   1
loop_
 _symmetry_equiv_pos_site_id
 _symmetry_equiv_pos_as_xyz
  1  'x, y, z'
loop_
 _atom_site_type_symbol
 _atom_site_label
 _atom_site_symmetry_multiplicity
 _atom_site_fract_x
 _atom_site_fract_y
 _atom_site_fract_z
 _atom_site_occupancy
  Ac  Ac0  1  0.000000  0.000000  0.000000  1
  Nb  Nb1  1  0.412760  0.301866  0.646817  1
  Nb  Nb2  1  0.353202  0.587240  0.698109  1
  Nb  Nb3  1  0.698106  0.353196  0.587240  1
  Nb  Nb4  1  0.301894  0.646804  0.412760  1
  Nb  Nb5  1  0.646798  0.412760  0.301891  1
  Nb  Nb6  1  0.587240  0.698134  0.353183  1
  Cl  Cl7  1  0.569207  0.169711  0.440396  1
  Cl  Cl8  1  0.230185  0.370655  0.899692  1
  Cl  Cl9  1  0.899695  0.230179  0.370645  1
  Cl  Cl10  1  0.370637  0.899747  0.230155  1
  Cl  Cl11  1  0.769815  0.629345  0.100308  1
  Cl  Cl12  1  0.100305  0.769821  0.629355  1
  Cl  Cl13  1  0.687977  0.951874  0.170459  1
  Cl  Cl14  1  0.951843  0.170442  0.688004  1
  Cl  Cl15  1  0.170503  0.688012  0.951753  1
  Cl  Cl16  1  0.312023  0.048126  0.829541  1
  Cl  Cl17  1  0.048157  0.829558  0.311996  1
  Cl  Cl18  1  0.829497  0.311988  0.048247  1
  Cl  Cl19  1  0.559591  0.430803  0.830297  1
  Cl  Cl20  1  0.169695  0.440384  0.569209  1
  Cl  Cl21  1  0.440409  0.569197  0.169703  1
  Cl  Cl22  1  0.430793  0.830289  0.559604  1
  Cl  Cl23  1  0.830305  0.559616  0.430791  1
  Cl  Cl24  1  0.629363  0.100253  0.769845  1
