# generated using pymatgen
data_Hf8FeCoBi4
_symmetry_space_group_name_H-M   'P 1'
_cell_length_a   8.23156300
_cell_length_b   8.23156246
_cell_length_c   8.23156130
_cell_angle_alpha   95.74182361
_cell_angle_beta   95.78194946
_cell_angle_gamma   143.05483248
_symmetry_Int_Tables_number   1
_chemical_formula_structural   Hf8FeCoBi4
_chemical_formula_sum   'Hf8 Fe1 Co1 Bi4'
_cell_volume   317.96824431
_cell_formula_units_Z   1
loop_
 _symmetry_equiv_pos_site_id
 _symmetry_equiv_pos_as_xyz
  1  'x, y, z'
loop_
 _atom_site_type_symbol
 _atom_site_label
 _atom_site_symmetry_multiplicity
 _atom_site_fract_x
 _atom_site_fract_y
 _atom_site_fract_z
 _atom_site_occupancy
  Hf  Hf0  1  0.692669  0.580217  0.275042  1
  Hf  Hf1  1  0.580194  0.305120  0.887481  1
  Hf  Hf2  1  0.082359  0.194880  0.275075  1
  Hf  Hf3  1  0.919804  0.807284  0.724924  1
  Hf  Hf4  1  0.194825  0.919783  0.112451  1
  Hf  Hf5  1  0.807333  0.082374  0.887549  1
  Hf  Hf6  1  0.305173  0.417626  0.724959  1
  Hf  Hf7  1  0.417641  0.692716  0.112519  1
  Fe  Fe8  1  0.250000  0.250000  0.000000  1
  Co  Co9  1  0.750001  0.750000  0.000001  1
  Bi  Bi10  1  0.138019  0.638022  0.776014  1
  Bi  Bi11  1  0.361981  0.137996  0.500004  1
  Bi  Bi12  1  0.637992  0.861978  0.499996  1
  Bi  Bi13  1  0.862008  0.362004  0.223986  1
