# generated using pymatgen
data_U8RuS17
_symmetry_space_group_name_H-M   'P 1'
_cell_length_a   7.79731178
_cell_length_b   7.79731151
_cell_length_c   10.27815018
_cell_angle_alpha   80.74101890
_cell_angle_beta   80.74101957
_cell_angle_gamma   64.45960774
_symmetry_Int_Tables_number   1
_chemical_formula_structural   U8RuS17
_chemical_formula_sum   'U8 Ru1 S17'
_cell_volume   553.53523581
_cell_formula_units_Z   1
loop_
 _symmetry_equiv_pos_site_id
 _symmetry_equiv_pos_as_xyz
  1  'x, y, z'
loop_
 _atom_site_type_symbol
 _atom_site_label
 _atom_site_symmetry_multiplicity
 _atom_site_fract_x
 _atom_site_fract_y
 _atom_site_fract_z
 _atom_site_occupancy
  U  U0  1  0.818176  0.298912  0.296101  1
  U  U1  1  0.298912  0.818176  0.296101  1
  U  U2  1  0.181824  0.701088  0.703899  1
  U  U3  1  0.701088  0.181824  0.703899  1
  U  U4  1  0.204135  0.204135  0.543542  1
  U  U5  1  0.795865  0.795865  0.456458  1
  U  U6  1  0.681129  0.681129  0.983712  1
  U  U7  1  0.318871  0.318871  0.016288  1
  Ru  Ru8  1  0.000000  0.000000  0.000000  1
  S  S9  1  0.820563  0.432793  0.534946  1
  S  S10  1  0.432793  0.820563  0.534946  1
  S  S11  1  0.179437  0.567207  0.465054  1
  S  S12  1  0.567207  0.179437  0.465054  1
  S  S13  1  0.944795  0.321941  0.026648  1
  S  S14  1  0.321941  0.944795  0.026648  1
  S  S15  1  0.055205  0.678059  0.973352  1
  S  S16  1  0.678059  0.055205  0.973352  1
  S  S17  1  0.211864  0.211864  0.277825  1
  S  S18  1  0.788136  0.788136  0.722175  1
  S  S19  1  0.059668  0.059668  0.771108  1
  S  S20  1  0.940332  0.940332  0.228892  1
  S  S21  1  0.302125  0.302125  0.755516  1
  S  S22  1  0.697875  0.697875  0.244484  1
  S  S23  1  0.521690  0.521690  0.830831  1
  S  S24  1  0.478310  0.478310  0.169169  1
  S  S25  1  0.000000  0.000000  0.500000  1
