# generated using pymatgen
data_SmFe2(Sb6Os)2
_symmetry_space_group_name_H-M   'P 1'
_cell_length_a   8.08690655
_cell_length_b   8.04869272
_cell_length_c   8.08690584
_cell_angle_alpha   109.47417351
_cell_angle_beta   109.60572731
_cell_angle_gamma   109.52554626
_symmetry_Int_Tables_number   1
_chemical_formula_structural   SmFe2(Sb6Os)2
_chemical_formula_sum   'Sm1 Fe2 Sb12 Os2'
_cell_volume   404.23659954
_cell_formula_units_Z   1
loop_
 _symmetry_equiv_pos_site_id
 _symmetry_equiv_pos_as_xyz
  1  'x, y, z'
loop_
 _atom_site_type_symbol
 _atom_site_label
 _atom_site_symmetry_multiplicity
 _atom_site_fract_x
 _atom_site_fract_y
 _atom_site_fract_z
 _atom_site_occupancy
  Sm  Sm0  1  0.000000  0.000000  0.000000  1
  Fe  Fe1  1  0.000000  0.000000  0.500000  1
  Fe  Fe2  1  0.500000  0.000000  0.000000  1
  Sb  Sb3  1  0.332682  0.170876  0.838194  1
  Sb  Sb4  1  0.667318  0.829124  0.161806  1
  Sb  Sb5  1  0.659936  0.503821  0.843886  1
  Sb  Sb6  1  0.340064  0.496179  0.156114  1
  Sb  Sb7  1  0.176522  0.846775  0.341858  1
  Sb  Sb8  1  0.823478  0.153225  0.658142  1
  Sb  Sb9  1  0.504916  0.846775  0.670254  1
  Sb  Sb10  1  0.495084  0.153225  0.329746  1
  Sb  Sb11  1  0.835067  0.330154  0.176641  1
  Sb  Sb12  1  0.164933  0.669846  0.823359  1
  Sb  Sb13  1  0.846487  0.669846  0.504912  1
  Sb  Sb14  1  0.153513  0.330154  0.495088  1
  Os  Os15  1  0.000000  0.500000  0.000000  1
  Os  Os16  1  0.500000  0.500000  0.500000  1
