# generated using pymatgen
data_Y2ErAl3Cu2Pd
_symmetry_space_group_name_H-M   'P 1'
_cell_length_a   7.09258969
_cell_length_b   7.09261958
_cell_length_c   3.99034000
_cell_angle_alpha   90.00000000
_cell_angle_beta   90.00000000
_cell_angle_gamma   119.86798772
_symmetry_Int_Tables_number   1
_chemical_formula_structural   Y2ErAl3Cu2Pd
_chemical_formula_sum   'Y2 Er1 Al3 Cu2 Pd1'
_cell_volume   174.07171905
_cell_formula_units_Z   1
loop_
 _symmetry_equiv_pos_site_id
 _symmetry_equiv_pos_as_xyz
  1  'x, y, z'
loop_
 _atom_site_type_symbol
 _atom_site_label
 _atom_site_symmetry_multiplicity
 _atom_site_fract_x
 _atom_site_fract_y
 _atom_site_fract_z
 _atom_site_occupancy
  Y  Y0  1  0.413707  0.001409  0.500000  1
  Y  Y1  1  0.999186  0.412630  0.500000  1
  Er  Er2  1  0.587792  0.587444  0.500000  1
  Al  Al3  1  0.765170  0.998319  0.000000  1
  Al  Al4  1  0.000242  0.765910  0.000000  1
  Al  Al5  1  0.234003  0.234936  0.000000  1
  Cu  Cu6  1  0.665603  0.335674  0.000000  1
  Cu  Cu7  1  0.998053  0.998099  0.500000  1
  Pd  Pd8  1  0.336243  0.665580  0.000000  1
