# generated using pymatgen
data_HoLu9In8IrPt3
_symmetry_space_group_name_H-M   'P 1'
_cell_length_a   3.57419200
_cell_length_b   8.02933007
_cell_length_c   17.99959795
_cell_angle_alpha   90.02614017
_cell_angle_beta   90.00000000
_cell_angle_gamma   90.00000000
_symmetry_Int_Tables_number   1
_chemical_formula_structural   HoLu9In8IrPt3
_chemical_formula_sum   'Ho1 Lu9 In8 Ir1 Pt3'
_cell_volume   516.55901939
_cell_formula_units_Z   1
loop_
 _symmetry_equiv_pos_site_id
 _symmetry_equiv_pos_as_xyz
  1  'x, y, z'
loop_
 _atom_site_type_symbol
 _atom_site_label
 _atom_site_symmetry_multiplicity
 _atom_site_fract_x
 _atom_site_fract_y
 _atom_site_fract_z
 _atom_site_occupancy
  Ho  Ho0  1  0.000000  0.501127  0.499362  1
  Lu  Lu1  1  0.000000  0.114805  0.412510  1
  Lu  Lu2  1  0.000000  0.883919  0.585357  1
  Lu  Lu3  1  0.000000  0.383956  0.915048  1
  Lu  Lu4  1  0.000000  0.616240  0.086621  1
  Lu  Lu5  1  0.000000  0.235852  0.222529  1
  Lu  Lu6  1  0.000000  0.758222  0.779204  1
  Lu  Lu7  1  0.000000  0.257880  0.721510  1
  Lu  Lu8  1  0.000000  0.749494  0.278098  1
  Lu  Lu9  1  0.000000  0.000131  0.000155  1
  In  In10  1  0.500000  0.423075  0.351502  1
  In  In11  1  0.500000  0.576970  0.648276  1
  In  In12  1  0.500000  0.076616  0.852759  1
  In  In13  1  0.500000  0.926538  0.147341  1
  In  In14  1  0.500000  0.291248  0.066673  1
  In  In15  1  0.500000  0.708848  0.934290  1
  In  In16  1  0.500000  0.207561  0.566328  1
  In  In17  1  0.500000  0.793308  0.431704  1
  Ir  Ir18  1  0.500000  0.021120  0.303981  1
  Pt  Pt19  1  0.500000  0.976065  0.696113  1
  Pt  Pt20  1  0.500000  0.476094  0.804581  1
  Pt  Pt21  1  0.500000  0.520932  0.196059  1
