# generated using pymatgen
data_LaMnFe(Sb6Os)2
_symmetry_space_group_name_H-M   'P 1'
_cell_length_a   8.14717462
_cell_length_b   8.10080819
_cell_length_c   8.11253317
_cell_angle_alpha   109.37189576
_cell_angle_beta   109.57181039
_cell_angle_gamma   109.58278089
_symmetry_Int_Tables_number   1
_chemical_formula_structural   LaMnFe(Sb6Os)2
_chemical_formula_sum   'La1 Mn1 Fe1 Sb12 Os2'
_cell_volume   411.58769057
_cell_formula_units_Z   1
loop_
 _symmetry_equiv_pos_site_id
 _symmetry_equiv_pos_as_xyz
  1  'x, y, z'
loop_
 _atom_site_type_symbol
 _atom_site_label
 _atom_site_symmetry_multiplicity
 _atom_site_fract_x
 _atom_site_fract_y
 _atom_site_fract_z
 _atom_site_occupancy
  La  La0  1  0.000000  0.000000  0.000000  1
  Mn  Mn1  1  0.000000  0.000000  0.500000  1
  Fe  Fe2  1  0.500000  0.000000  0.000000  1
  Sb  Sb3  1  0.342161  0.175616  0.846630  1
  Sb  Sb4  1  0.657839  0.824384  0.153370  1
  Sb  Sb5  1  0.660087  0.502814  0.843274  1
  Sb  Sb6  1  0.339913  0.497186  0.156726  1
  Sb  Sb7  1  0.182444  0.843944  0.340311  1
  Sb  Sb8  1  0.817556  0.156056  0.659689  1
  Sb  Sb9  1  0.503825  0.845801  0.670275  1
  Sb  Sb10  1  0.496175  0.154199  0.329725  1
  Sb  Sb11  1  0.833540  0.329718  0.175444  1
  Sb  Sb12  1  0.166460  0.670282  0.824556  1
  Sb  Sb13  1  0.843277  0.661267  0.503774  1
  Sb  Sb14  1  0.156723  0.338733  0.496226  1
  Os  Os15  1  0.000000  0.500000  0.000000  1
  Os  Os16  1  0.500000  0.500000  0.500000  1
