# generated using pymatgen
data_Er3Pa(HgPd2)2
_symmetry_space_group_name_H-M   'P 1'
_cell_length_a   7.72369574
_cell_length_b   7.72369534
_cell_length_c   3.66391000
_cell_angle_alpha   90.00000000
_cell_angle_beta   90.00000000
_cell_angle_gamma   91.42945391
_symmetry_Int_Tables_number   1
_chemical_formula_structural   Er3Pa(HgPd2)2
_chemical_formula_sum   'Er3 Pa1 Hg2 Pd4'
_cell_volume   218.50426307
_cell_formula_units_Z   1
loop_
 _symmetry_equiv_pos_site_id
 _symmetry_equiv_pos_as_xyz
  1  'x, y, z'
loop_
 _atom_site_type_symbol
 _atom_site_label
 _atom_site_symmetry_multiplicity
 _atom_site_fract_x
 _atom_site_fract_y
 _atom_site_fract_z
 _atom_site_occupancy
  Er  Er0  1  0.324693  0.824693  0.500000  1
  Er  Er1  1  0.173813  0.330538  0.500000  1
  Er  Er2  1  0.830538  0.673813  0.500000  1
  Pa  Pa3  1  0.670339  0.170339  0.500000  1
  Hg  Hg4  1  0.004345  0.999639  0.000000  1
  Hg  Hg5  1  0.499639  0.504345  0.000000  1
  Pd  Pd6  1  0.122974  0.622974  0.000000  1
  Pd  Pd7  1  0.863379  0.363379  0.000000  1
  Pd  Pd8  1  0.630606  0.879677  0.000000  1
  Pd  Pd9  1  0.379677  0.130606  0.000000  1
