# generated using pymatgen
data_NdZn7Ag5
_symmetry_space_group_name_H-M   'P 1'
_cell_length_a   7.09810964
_cell_length_b   7.09810887
_cell_length_c   7.09810922
_cell_angle_alpha   97.58506754
_cell_angle_beta   97.55242628
_cell_angle_gamma   137.43991590
_symmetry_Int_Tables_number   1
_chemical_formula_structural   NdZn7Ag5
_chemical_formula_sum   'Nd1 Zn7 Ag5'
_cell_volume   225.39218256
_cell_formula_units_Z   1
loop_
 _symmetry_equiv_pos_site_id
 _symmetry_equiv_pos_as_xyz
  1  'x, y, z'
loop_
 _atom_site_type_symbol
 _atom_site_label
 _atom_site_symmetry_multiplicity
 _atom_site_fract_x
 _atom_site_fract_y
 _atom_site_fract_z
 _atom_site_occupancy
  Nd  Nd0  1  0.000000  0.000107  0.000107  1
  Zn  Zn1  1  0.997025  0.998588  0.496678  1
  Zn  Zn2  1  0.498090  0.499653  0.496678  1
  Zn  Zn3  1  0.501910  0.998588  0.001563  1
  Zn  Zn4  1  0.002975  0.499653  0.001563  1
  Zn  Zn5  1  0.500000  0.715052  0.215052  1
  Zn  Zn6  1  0.718811  0.501176  0.219987  1
  Zn  Zn7  1  0.281189  0.501176  0.782363  1
  Ag  Ag8  1  0.000000  0.345668  0.345668  1
  Ag  Ag9  1  0.000000  0.646552  0.646552  1
  Ag  Ag10  1  0.651877  0.999638  0.651515  1
  Ag  Ag11  1  0.348123  0.999638  0.347762  1
  Ag  Ag12  1  0.500000  0.294510  0.794510  1
