# generated using pymatgen
data_MoCl35
_symmetry_space_group_name_H-M   'P 1'
_cell_length_a   10.90127650
_cell_length_b   10.90127571
_cell_length_c   15.15164522
_cell_angle_alpha   81.79486660
_cell_angle_beta   98.20514674
_cell_angle_gamma   69.35609800
_symmetry_Int_Tables_number   1
_chemical_formula_structural   MoCl35
_chemical_formula_sum   'Mo1 Cl35'
_cell_volume   1631.10214829
_cell_formula_units_Z   1
loop_
 _symmetry_equiv_pos_site_id
 _symmetry_equiv_pos_as_xyz
  1  'x, y, z'
loop_
 _atom_site_type_symbol
 _atom_site_label
 _atom_site_symmetry_multiplicity
 _atom_site_fract_x
 _atom_site_fract_y
 _atom_site_fract_z
 _atom_site_occupancy
  Mo  Mo0  1  0.141268  0.858732  0.933007  1
  Cl  Cl1  1  0.160670  0.214867  0.030405  1
  Cl  Cl2  1  0.785133  0.839330  0.030405  1
  Cl  Cl3  1  0.799538  0.200462  0.072646  1
  Cl  Cl4  1  0.059039  0.940961  0.060757  1
  Cl  Cl5  1  0.504145  0.495855  0.267932  1
  Cl  Cl6  1  0.280805  0.719195  0.380919  1
  Cl  Cl7  1  0.363426  0.291959  0.528261  1
  Cl  Cl8  1  0.708041  0.636574  0.528261  1
  Cl  Cl9  1  0.700492  0.299508  0.549082  1
  Cl  Cl10  1  0.331748  0.668252  0.648498  1
  Cl  Cl11  1  0.947897  0.052103  0.867306  1
  Cl  Cl12  1  0.278881  0.306030  0.989878  1
  Cl  Cl13  1  0.693970  0.721119  0.989878  1
  Cl  Cl14  1  0.152528  0.662281  0.024947  1
  Cl  Cl15  1  0.337719  0.847472  0.024947  1
  Cl  Cl16  1  0.668658  0.331341  0.127371  1
  Cl  Cl17  1  0.005714  0.262339  0.280149  1
  Cl  Cl18  1  0.737661  0.994286  0.280149  1
  Cl  Cl19  1  0.346744  0.415176  0.256506  1
  Cl  Cl20  1  0.584824  0.653255  0.256506  1
  Cl  Cl21  1  0.115253  0.884747  0.355657  1
  Cl  Cl22  1  0.652521  0.102251  0.366567  1
  Cl  Cl23  1  0.897749  0.347479  0.366567  1
  Cl  Cl24  1  0.235942  0.201471  0.505935  1
  Cl  Cl25  1  0.798529  0.764058  0.505935  1
  Cl  Cl26  1  0.207362  0.545257  0.646739  1
  Cl  Cl27  1  0.454743  0.792638  0.646739  1
  Cl  Cl28  1  0.818107  0.181893  0.667528  1
  Cl  Cl29  1  0.459510  0.276525  0.768305  1
  Cl  Cl30  1  0.723474  0.540490  0.768305  1
  Cl  Cl31  1  0.220176  0.962510  0.819088  1
  Cl  Cl32  1  0.037490  0.779824  0.819088  1
  Cl  Cl33  1  0.331477  0.668522  0.894493  1
  Cl  Cl34  1  0.594665  0.135903  0.870618  1
  Cl  Cl35  1  0.864097  0.405335  0.870618  1
