# generated using pymatgen
data_TaMn2Nb5(BRu2)4
_symmetry_space_group_name_H-M   'P 1'
_cell_length_a   9.32568500
_cell_length_b   9.32568500
_cell_length_c   3.03933000
_cell_angle_alpha   90.00000000
_cell_angle_beta   90.00000000
_cell_angle_gamma   90.00000000
_symmetry_Int_Tables_number   1
_chemical_formula_structural   TaMn2Nb5(BRu2)4
_chemical_formula_sum   'Ta1 Mn2 Nb5 B4 Ru8'
_cell_volume   264.32566936
_cell_formula_units_Z   1
loop_
 _symmetry_equiv_pos_site_id
 _symmetry_equiv_pos_as_xyz
  1  'x, y, z'
loop_
 _atom_site_type_symbol
 _atom_site_label
 _atom_site_symmetry_multiplicity
 _atom_site_fract_x
 _atom_site_fract_y
 _atom_site_fract_z
 _atom_site_occupancy
  Ta  Ta0  1  0.500000  0.500000  0.000000  1
  Mn  Mn1  1  0.500000  0.000000  0.500000  1
  Mn  Mn2  1  0.000000  0.500000  0.500000  1
  Nb  Nb3  1  0.830954  0.668932  0.000000  1
  Nb  Nb4  1  0.169046  0.331068  0.000000  1
  Nb  Nb5  1  0.331068  0.830954  0.000000  1
  Nb  Nb6  1  0.668932  0.169046  0.000000  1
  Nb  Nb7  1  0.000000  0.000000  0.000000  1
  B  B8  1  0.613495  0.886565  0.000000  1
  B  B9  1  0.386505  0.113435  0.000000  1
  B  B10  1  0.113435  0.613495  0.000000  1
  B  B11  1  0.886565  0.386505  0.000000  1
  Ru  Ru12  1  0.571237  0.720326  0.500000  1
  Ru  Ru13  1  0.428763  0.279674  0.500000  1
  Ru  Ru14  1  0.071307  0.779189  0.500000  1
  Ru  Ru15  1  0.928693  0.220811  0.500000  1
  Ru  Ru16  1  0.279674  0.571237  0.500000  1
  Ru  Ru17  1  0.720326  0.428763  0.500000  1
  Ru  Ru18  1  0.220811  0.071307  0.500000  1
  Ru  Ru19  1  0.779189  0.928693  0.500000  1
