# generated using pymatgen
data_Th4PdPt3Pb2
_symmetry_space_group_name_H-M   'P 1'
_cell_length_a   8.05641609
_cell_length_b   8.05641729
_cell_length_c   3.82486600
_cell_angle_alpha   90.00000000
_cell_angle_beta   90.00000000
_cell_angle_gamma   89.84159823
_symmetry_Int_Tables_number   1
_chemical_formula_structural   Th4PdPt3Pb2
_chemical_formula_sum   'Th4 Pd1 Pt3 Pb2'
_cell_volume   248.25522967
_cell_formula_units_Z   1
loop_
 _symmetry_equiv_pos_site_id
 _symmetry_equiv_pos_as_xyz
  1  'x, y, z'
loop_
 _atom_site_type_symbol
 _atom_site_label
 _atom_site_symmetry_multiplicity
 _atom_site_fract_x
 _atom_site_fract_y
 _atom_site_fract_z
 _atom_site_occupancy
  Th  Th0  1  0.670102  0.170102  0.500000  1
  Th  Th1  1  0.178001  0.328334  0.500000  1
  Th  Th2  1  0.828334  0.678001  0.500000  1
  Th  Th3  1  0.324598  0.824598  0.500000  1
  Pd  Pd4  1  0.871304  0.371304  0.000000  1
  Pt  Pt5  1  0.373081  0.125957  0.000000  1
  Pt  Pt6  1  0.123015  0.623015  0.000000  1
  Pt  Pt7  1  0.625957  0.873081  0.000000  1
  Pb  Pb8  1  0.999878  0.005730  0.000000  1
  Pb  Pb9  1  0.505730  0.499878  0.000000  1
