# generated using pymatgen
data_DyHo3(Pd2O7)2
_symmetry_space_group_name_H-M   'P 1'
_cell_length_a   7.23849460
_cell_length_b   7.23621129
_cell_length_c   7.23621200
_cell_angle_alpha   59.99999675
_cell_angle_beta   60.01043087
_cell_angle_gamma   60.01043012
_symmetry_Int_Tables_number   1
_chemical_formula_structural   DyHo3(Pd2O7)2
_chemical_formula_sum   'Dy1 Ho3 Pd4 O14'
_cell_volume   268.05518920
_cell_formula_units_Z   1
loop_
 _symmetry_equiv_pos_site_id
 _symmetry_equiv_pos_as_xyz
  1  'x, y, z'
loop_
 _atom_site_type_symbol
 _atom_site_label
 _atom_site_symmetry_multiplicity
 _atom_site_fract_x
 _atom_site_fract_y
 _atom_site_fract_z
 _atom_site_occupancy
  Dy  Dy0  1  0.625000  0.125000  0.125000  1
  Ho  Ho1  1  0.125000  0.125000  0.625000  1
  Ho  Ho2  1  0.125000  0.625000  0.125000  1
  Ho  Ho3  1  0.125000  0.125000  0.125000  1
  Pd  Pd4  1  0.125000  0.625000  0.625000  1
  Pd  Pd5  1  0.625000  0.625000  0.625000  1
  Pd  Pd6  1  0.625000  0.125000  0.625000  1
  Pd  Pd7  1  0.625000  0.625000  0.125000  1
  O  O8  1  0.284174  0.715773  0.715773  1
  O  O9  1  0.533431  0.965774  0.965774  1
  O  O10  1  0.716569  0.284226  0.714978  1
  O  O11  1  0.716569  0.714978  0.284226  1
  O  O12  1  0.284174  0.715773  0.284278  1
  O  O13  1  0.284174  0.284278  0.715773  1
  O  O14  1  0.001433  0.999522  0.999522  1
  O  O15  1  0.248567  0.250478  0.250478  1
  O  O16  1  0.965826  0.534227  0.965722  1
  O  O17  1  0.533431  0.535022  0.965774  1
  O  O18  1  0.965826  0.965722  0.534227  1
  O  O19  1  0.533431  0.965774  0.535022  1
  O  O20  1  0.716569  0.284226  0.284226  1
  O  O21  1  0.965826  0.534227  0.534227  1
