# generated using pymatgen
data_Nd16In4RuPt3
_symmetry_space_group_name_H-M   'P 1'
_cell_length_a   10.01214711
_cell_length_b   10.01214791
_cell_length_c   10.01214796
_cell_angle_alpha   60.42275714
_cell_angle_beta   60.42275287
_cell_angle_gamma   60.42276121
_symmetry_Int_Tables_number   1
_chemical_formula_structural   Nd16In4RuPt3
_chemical_formula_sum   'Nd16 In4 Ru1 Pt3'
_cell_volume   716.47076854
_cell_formula_units_Z   1
loop_
 _symmetry_equiv_pos_site_id
 _symmetry_equiv_pos_as_xyz
  1  'x, y, z'
loop_
 _atom_site_type_symbol
 _atom_site_label
 _atom_site_symmetry_multiplicity
 _atom_site_fract_x
 _atom_site_fract_y
 _atom_site_fract_z
 _atom_site_occupancy
  Nd  Nd0  1  0.350333  0.350333  0.350333  1
  Nd  Nd1  1  0.347733  0.347733  0.952120  1
  Nd  Nd2  1  0.347733  0.952120  0.347733  1
  Nd  Nd3  1  0.952120  0.347733  0.347733  1
  Nd  Nd4  1  0.815496  0.190205  0.190205  1
  Nd  Nd5  1  0.191101  0.807785  0.807785  1
  Nd  Nd6  1  0.190205  0.815496  0.190205  1
  Nd  Nd7  1  0.807785  0.191101  0.807785  1
  Nd  Nd8  1  0.190205  0.190205  0.815496  1
  Nd  Nd9  1  0.807785  0.807785  0.191101  1
  Nd  Nd10  1  0.937348  0.562533  0.562533  1
  Nd  Nd11  1  0.558270  0.938416  0.938416  1
  Nd  Nd12  1  0.562533  0.937348  0.562533  1
  Nd  Nd13  1  0.938416  0.558270  0.938416  1
  Nd  Nd14  1  0.562533  0.562533  0.937348  1
  Nd  Nd15  1  0.938416  0.938416  0.558270  1
  In  In16  1  0.581015  0.581015  0.581015  1
  In  In17  1  0.581156  0.581156  0.256635  1
  In  In18  1  0.581156  0.256635  0.581156  1
  In  In19  1  0.256635  0.581156  0.581156  1
  Ru  Ru20  1  0.141584  0.141584  0.141584  1
  Pt  Pt21  1  0.143702  0.143702  0.573038  1
  Pt  Pt22  1  0.143702  0.573038  0.143702  1
  Pt  Pt23  1  0.573038  0.143702  0.143702  1
