# generated using pymatgen
data_Pr6Nd10Cd4Ir3Pt
_symmetry_space_group_name_H-M   'P 1'
_cell_length_a   9.99633407
_cell_length_b   9.99633335
_cell_length_c   9.99633362
_cell_angle_alpha   60.16537963
_cell_angle_beta   60.16538500
_cell_angle_gamma   60.16538239
_symmetry_Int_Tables_number   1
_chemical_formula_structural   Pr6Nd10Cd4Ir3Pt
_chemical_formula_sum   'Pr6 Nd10 Cd4 Ir3 Pt1'
_cell_volume   708.97502256
_cell_formula_units_Z   1
loop_
 _symmetry_equiv_pos_site_id
 _symmetry_equiv_pos_as_xyz
  1  'x, y, z'
loop_
 _atom_site_type_symbol
 _atom_site_label
 _atom_site_symmetry_multiplicity
 _atom_site_fract_x
 _atom_site_fract_y
 _atom_site_fract_z
 _atom_site_occupancy
  Pr  Pr0  1  0.940601  0.561385  0.561385  1
  Pr  Pr1  1  0.560928  0.939567  0.939567  1
  Pr  Pr2  1  0.561385  0.940601  0.561385  1
  Pr  Pr3  1  0.939567  0.560928  0.939567  1
  Pr  Pr4  1  0.561385  0.561385  0.940601  1
  Pr  Pr5  1  0.939567  0.939567  0.560928  1
  Nd  Nd6  1  0.347191  0.347191  0.347191  1
  Nd  Nd7  1  0.351529  0.351529  0.951243  1
  Nd  Nd8  1  0.351529  0.951243  0.351529  1
  Nd  Nd9  1  0.951243  0.351529  0.351529  1
  Nd  Nd10  1  0.805922  0.190279  0.190279  1
  Nd  Nd11  1  0.188118  0.809725  0.809725  1
  Nd  Nd12  1  0.190279  0.805922  0.190279  1
  Nd  Nd13  1  0.809725  0.188118  0.809725  1
  Nd  Nd14  1  0.190279  0.190279  0.805922  1
  Nd  Nd15  1  0.809725  0.809725  0.188118  1
  Cd  Cd16  1  0.579909  0.579909  0.579909  1
  Cd  Cd17  1  0.579947  0.579947  0.260094  1
  Cd  Cd18  1  0.579947  0.260094  0.579947  1
  Cd  Cd19  1  0.260094  0.579947  0.579947  1
  Ir  Ir20  1  0.142103  0.142103  0.574327  1
  Ir  Ir21  1  0.142103  0.574327  0.142103  1
  Ir  Ir22  1  0.574327  0.142103  0.142103  1
  Pt  Pt23  1  0.142595  0.142595  0.142595  1
