# generated using pymatgen
data_KHf2N3
_symmetry_space_group_name_H-M   'P 1'
_cell_length_a   6.45128429
_cell_length_b   6.45128439
_cell_length_c   5.83647300
_cell_angle_alpha   90.00000000
_cell_angle_beta   90.00000000
_cell_angle_gamma   119.00069693
_symmetry_Int_Tables_number   1
_chemical_formula_structural   KHf2N3
_chemical_formula_sum   'K2 Hf4 N6'
_cell_volume   212.45119523
_cell_formula_units_Z   2
loop_
 _symmetry_equiv_pos_site_id
 _symmetry_equiv_pos_as_xyz
  1  'x, y, z'
loop_
 _atom_site_type_symbol
 _atom_site_label
 _atom_site_symmetry_multiplicity
 _atom_site_fract_x
 _atom_site_fract_y
 _atom_site_fract_z
 _atom_site_occupancy
  K  K0  1  0.660956  0.660956  0.474794  1
  K  K1  1  0.339044  0.339044  0.974794  1
  Hf  Hf2  1  0.327684  0.977397  0.490836  1
  Hf  Hf3  1  0.977397  0.327684  0.490836  1
  Hf  Hf4  1  0.672316  0.022603  0.990836  1
  Hf  Hf5  1  0.022603  0.672316  0.990836  1
  N  N6  1  0.343045  0.900203  0.834898  1
  N  N7  1  0.900203  0.343045  0.834898  1
  N  N8  1  0.656955  0.099797  0.334898  1
  N  N9  1  0.099797  0.656955  0.334898  1
  N  N10  1  0.782232  0.782232  0.961738  1
  N  N11  1  0.217768  0.217768  0.461738  1
