# generated using pymatgen
data_Yb2PrY(Ga2Ag)4
_symmetry_space_group_name_H-M   'P 1'
_cell_length_a   4.38431900
_cell_length_b   7.03045349
_cell_length_c   10.41323521
_cell_angle_alpha   90.42314188
_cell_angle_beta   90.00000000
_cell_angle_gamma   90.00000000
_symmetry_Int_Tables_number   1
_chemical_formula_structural   Yb2PrY(Ga2Ag)4
_chemical_formula_sum   'Yb2 Pr1 Y1 Ga8 Ag4'
_cell_volume   320.96621419
_cell_formula_units_Z   1
loop_
 _symmetry_equiv_pos_site_id
 _symmetry_equiv_pos_as_xyz
  1  'x, y, z'
loop_
 _atom_site_type_symbol
 _atom_site_label
 _atom_site_symmetry_multiplicity
 _atom_site_fract_x
 _atom_site_fract_y
 _atom_site_fract_z
 _atom_site_occupancy
  Yb  Yb0  1  0.750000  0.223752  0.172788  1
  Yb  Yb1  1  0.750000  0.722849  0.326590  1
  Pr  Pr2  1  0.250000  0.281143  0.672652  1
  Y  Y3  1  0.250000  0.780219  0.830936  1
  Ga  Ga4  1  0.250000  0.925301  0.149655  1
  Ga  Ga5  1  0.750000  0.071958  0.847046  1
  Ga  Ga6  1  0.750000  0.582063  0.654927  1
  Ga  Ga7  1  0.250000  0.426193  0.349593  1
  Ga  Ga8  1  0.250000  0.706016  0.534106  1
  Ga  Ga9  1  0.750000  0.298402  0.461835  1
  Ga  Ga10  1  0.750000  0.797829  0.035531  1
  Ga  Ga11  1  0.250000  0.197082  0.968612  1
  Ag  Ag12  1  0.250000  0.539121  0.099990  1
  Ag  Ag13  1  0.750000  0.456201  0.904245  1
  Ag  Ag14  1  0.750000  0.954339  0.594826  1
  Ag  Ag15  1  0.250000  0.037531  0.396669  1
