# generated using pymatgen
data_Ce2Nd3P12Ru19
_symmetry_space_group_name_H-M   'P 1'
_cell_length_a   12.62289100
_cell_length_b   12.62289051
_cell_length_c   4.01180400
_cell_angle_alpha   90.00000000
_cell_angle_beta   90.00000000
_cell_angle_gamma   119.99999866
_symmetry_Int_Tables_number   1
_chemical_formula_structural   Ce2Nd3P12Ru19
_chemical_formula_sum   'Ce2 Nd3 P12 Ru19'
_cell_volume   553.58968828
_cell_formula_units_Z   1
loop_
 _symmetry_equiv_pos_site_id
 _symmetry_equiv_pos_as_xyz
  1  'x, y, z'
loop_
 _atom_site_type_symbol
 _atom_site_label
 _atom_site_symmetry_multiplicity
 _atom_site_fract_x
 _atom_site_fract_y
 _atom_site_fract_z
 _atom_site_occupancy
  Ce  Ce0  1  0.333333  0.666667  0.000000  1
  Ce  Ce1  1  0.666667  0.333333  0.000000  1
  Nd  Nd2  1  0.185212  0.185212  0.500000  1
  Nd  Nd3  1  0.814788  0.000000  0.500000  1
  Nd  Nd4  1  0.000000  0.814788  0.500000  1
  P  P5  1  0.813200  0.813200  0.000000  1
  P  P6  1  0.186800  0.000000  0.000000  1
  P  P7  1  0.000000  0.186800  0.000000  1
  P  P8  1  0.171171  0.476106  0.500000  1
  P  P9  1  0.523894  0.695066  0.500000  1
  P  P10  1  0.304934  0.828829  0.500000  1
  P  P11  1  0.695066  0.523894  0.500000  1
  P  P12  1  0.828829  0.304934  0.500000  1
  P  P13  1  0.476106  0.171171  0.500000  1
  P  P14  1  0.373917  0.373917  0.000000  1
  P  P15  1  0.626083  0.000000  0.000000  1
  P  P16  1  0.000000  0.626083  0.000000  1
  Ru  Ru17  1  0.554035  0.554035  0.000000  1
  Ru  Ru18  1  0.445965  0.000000  0.000000  1
  Ru  Ru19  1  0.000000  0.445965  0.000000  1
  Ru  Ru20  1  0.715213  0.715213  0.500000  1
  Ru  Ru21  1  0.284787  0.000000  0.500000  1
  Ru  Ru22  1  0.000000  0.284787  0.500000  1
  Ru  Ru23  1  0.184761  0.379413  0.000000  1
  Ru  Ru24  1  0.620587  0.805348  0.000000  1
  Ru  Ru25  1  0.194652  0.815239  0.000000  1
  Ru  Ru26  1  0.805348  0.620587  0.000000  1
  Ru  Ru27  1  0.815239  0.194652  0.000000  1
  Ru  Ru28  1  0.379413  0.184761  0.000000  1
  Ru  Ru29  1  0.367063  0.493515  0.500000  1
  Ru  Ru30  1  0.506485  0.873548  0.500000  1
  Ru  Ru31  1  0.126452  0.632937  0.500000  1
  Ru  Ru32  1  0.873548  0.506485  0.500000  1
  Ru  Ru33  1  0.632937  0.126452  0.500000  1
  Ru  Ru34  1  0.493515  0.367063  0.500000  1
  Ru  Ru35  1  0.000000  0.000000  0.000000  1
