# generated using pymatgen
data_Er6Ni16P13Pd3Pt
_symmetry_space_group_name_H-M   'P 1'
_cell_length_a   12.77957400
_cell_length_b   12.77957373
_cell_length_c   3.77435000
_cell_angle_alpha   90.00000000
_cell_angle_beta   90.00000000
_cell_angle_gamma   119.99999552
_symmetry_Int_Tables_number   1
_chemical_formula_structural   Er6Ni16P13Pd3Pt
_chemical_formula_sum   'Er6 Ni16 P13 Pd3 Pt1'
_cell_volume   533.83318388
_cell_formula_units_Z   1
loop_
 _symmetry_equiv_pos_site_id
 _symmetry_equiv_pos_as_xyz
  1  'x, y, z'
loop_
 _atom_site_type_symbol
 _atom_site_label
 _atom_site_symmetry_multiplicity
 _atom_site_fract_x
 _atom_site_fract_y
 _atom_site_fract_z
 _atom_site_occupancy
  Er  Er0  1  0.531329  0.813143  0.000000  1
  Er  Er1  1  0.281814  0.468671  0.000000  1
  Er  Er2  1  0.186857  0.718186  0.000000  1
  Er  Er3  1  0.811373  0.283849  0.500000  1
  Er  Er4  1  0.472476  0.188627  0.500000  1
  Er  Er5  1  0.716151  0.527524  0.500000  1
  Ni  Ni6  1  0.800516  0.904399  0.000000  1
  Ni  Ni7  1  0.103883  0.199484  0.000000  1
  Ni  Ni8  1  0.095601  0.896117  0.000000  1
  Ni  Ni9  1  0.666667  0.333333  0.000000  1
  Ni  Ni10  1  0.559590  0.577296  0.000000  1
  Ni  Ni11  1  0.017705  0.440410  0.000000  1
  Ni  Ni12  1  0.422704  0.982295  0.000000  1
  Ni  Ni13  1  0.677195  0.749119  0.500000  1
  Ni  Ni14  1  0.071924  0.322805  0.500000  1
  Ni  Ni15  1  0.250881  0.928076  0.500000  1
  Ni  Ni16  1  0.975563  0.566100  0.500000  1
  Ni  Ni17  1  0.590538  0.024437  0.500000  1
  Ni  Ni18  1  0.433900  0.409462  0.500000  1
  Ni  Ni19  1  0.757620  0.080184  0.000000  1
  Ni  Ni20  1  0.322565  0.242380  0.000000  1
  Ni  Ni21  1  0.919816  0.677435  0.000000  1
  P  P22  1  0.480586  0.607270  0.500000  1
  P  P23  1  0.126684  0.519414  0.500000  1
  P  P24  1  0.392730  0.873316  0.500000  1
  P  P25  1  0.711459  0.945131  0.500000  1
  P  P26  1  0.233671  0.288541  0.500000  1
  P  P27  1  0.054869  0.766329  0.500000  1
  P  P28  1  0.859319  0.477089  0.000000  1
  P  P29  1  0.617769  0.140681  0.000000  1
  P  P30  1  0.522911  0.382231  0.000000  1
  P  P31  1  0.951545  0.241572  0.000000  1
  P  P32  1  0.290027  0.048455  0.000000  1
  P  P33  1  0.758428  0.709973  0.000000  1
  P  P34  1  0.000000  0.000000  0.000000  1
  Pd  Pd35  1  0.922969  0.083598  0.500000  1
  Pd  Pd36  1  0.160628  0.077031  0.500000  1
  Pd  Pd37  1  0.916402  0.839372  0.500000  1
  Pt  Pt38  1  0.333333  0.666667  0.500000  1
