# generated using pymatgen
data_Pr3YGa20Pt11
_symmetry_space_group_name_H-M   'P 1'
_cell_length_a   4.31393282
_cell_length_b   11.00414593
_cell_length_c   13.70598792
_cell_angle_alpha   81.41556457
_cell_angle_beta   80.94549886
_cell_angle_gamma   78.69603324
_symmetry_Int_Tables_number   1
_chemical_formula_structural   Pr3YGa20Pt11
_chemical_formula_sum   'Pr3 Y1 Ga20 Pt11'
_cell_volume   625.33830578
_cell_formula_units_Z   1
loop_
 _symmetry_equiv_pos_site_id
 _symmetry_equiv_pos_as_xyz
  1  'x, y, z'
loop_
 _atom_site_type_symbol
 _atom_site_label
 _atom_site_symmetry_multiplicity
 _atom_site_fract_x
 _atom_site_fract_y
 _atom_site_fract_z
 _atom_site_occupancy
  Pr  Pr0  1  0.877200  0.909437  0.336163  1
  Pr  Pr1  1  0.774385  0.631429  0.819800  1
  Pr  Pr2  1  0.225870  0.368336  0.179926  1
  Y  Y3  1  0.121580  0.091714  0.665126  1
  Ga  Ga4  1  0.006986  0.075099  0.910930  1
  Ga  Ga5  1  0.993850  0.925028  0.087271  1
  Ga  Ga6  1  0.064856  0.676113  0.194173  1
  Ga  Ga7  1  0.935977  0.322451  0.805597  1
  Ga  Ga8  1  0.102200  0.341241  0.454357  1
  Ga  Ga9  1  0.896914  0.659529  0.546645  1
  Ga  Ga10  1  0.201325  0.605090  0.992260  1
  Ga  Ga11  1  0.799055  0.394718  0.007173  1
  Ga  Ga12  1  0.256088  0.787970  0.699855  1
  Ga  Ga13  1  0.741888  0.214388  0.301835  1
  Ga  Ga14  1  0.299830  0.900513  0.499828  1
  Ga  Ga15  1  0.697041  0.101798  0.504119  1
  Ga  Ga16  1  0.388817  0.523447  0.698919  1
  Ga  Ga17  1  0.611740  0.475641  0.300878  1
  Ga  Ga18  1  0.399351  0.199763  0.001535  1
  Ga  Ga19  1  0.601888  0.799636  0.996589  1
  Ga  Ga20  1  0.543985  0.284544  0.627487  1
  Ga  Ga21  1  0.457627  0.711760  0.372986  1
  Ga  Ga22  1  0.634973  0.936542  0.793513  1
  Ga  Ga23  1  0.365530  0.065212  0.203725  1
  Pt  Pt24  1  0.500672  0.498225  0.500430  1
  Pt  Pt25  1  0.027080  0.573925  0.371916  1
  Pt  Pt26  1  0.973305  0.424733  0.628655  1
  Pt  Pt27  1  0.135423  0.839658  0.889496  1
  Pt  Pt28  1  0.864342  0.160943  0.110374  1
  Pt  Pt29  1  0.239004  0.128820  0.393171  1
  Pt  Pt30  1  0.758572  0.873984  0.608872  1
  Pt  Pt31  1  0.345345  0.416051  0.893258  1
  Pt  Pt32  1  0.655171  0.583144  0.106513  1
  Pt  Pt33  1  0.507240  0.170137  0.815383  1
  Pt  Pt34  1  0.494888  0.828980  0.181242  1
