# generated using pymatgen
data_Li4CaYb3Sb4
_symmetry_space_group_name_H-M   'P 1'
_cell_length_a   4.63976000
_cell_length_b   7.64612007
_cell_length_c   8.30279207
_cell_angle_alpha   90.01537516
_cell_angle_beta   90.00000000
_cell_angle_gamma   90.00000000
_symmetry_Int_Tables_number   1
_chemical_formula_structural   Li4CaYb3Sb4
_chemical_formula_sum   'Li4 Ca1 Yb3 Sb4'
_cell_volume   294.55118651
_cell_formula_units_Z   1
loop_
 _symmetry_equiv_pos_site_id
 _symmetry_equiv_pos_as_xyz
  1  'x, y, z'
loop_
 _atom_site_type_symbol
 _atom_site_label
 _atom_site_symmetry_multiplicity
 _atom_site_fract_x
 _atom_site_fract_y
 _atom_site_fract_z
 _atom_site_occupancy
  Li  Li0  1  0.750000  0.848718  0.427931  1
  Li  Li1  1  0.250000  0.151216  0.572137  1
  Li  Li2  1  0.250000  0.651266  0.927864  1
  Li  Li3  1  0.750000  0.348768  0.072094  1
  Ca  Ca4  1  0.250000  0.010143  0.201961  1
  Yb  Yb5  1  0.750000  0.489861  0.702048  1
  Yb  Yb6  1  0.750000  0.989909  0.797956  1
  Yb  Yb7  1  0.250000  0.510117  0.297991  1
  Sb  Sb8  1  0.750000  0.730265  0.100259  1
  Sb  Sb9  1  0.250000  0.269669  0.899494  1
  Sb  Sb10  1  0.750000  0.230637  0.399814  1
  Sb  Sb11  1  0.250000  0.769430  0.600450  1
