# generated using pymatgen
data_TbMgGa3Ni
_symmetry_space_group_name_H-M   'P 1'
_cell_length_a   4.18682909
_cell_length_b   6.53127100
_cell_length_c   8.14589753
_cell_angle_alpha   90.00000000
_cell_angle_beta   104.89155040
_cell_angle_gamma   90.00000000
_symmetry_Int_Tables_number   1
_chemical_formula_structural   TbMgGa3Ni
_chemical_formula_sum   'Tb2 Mg2 Ga6 Ni2'
_cell_volume   215.27078191
_cell_formula_units_Z   2
loop_
 _symmetry_equiv_pos_site_id
 _symmetry_equiv_pos_as_xyz
  1  'x, y, z'
loop_
 _atom_site_type_symbol
 _atom_site_label
 _atom_site_symmetry_multiplicity
 _atom_site_fract_x
 _atom_site_fract_y
 _atom_site_fract_z
 _atom_site_occupancy
  Tb  Tb0  1  0.871439  0.750000  0.742878  1
  Tb  Tb1  1  0.128561  0.250000  0.257122  1
  Mg  Mg2  1  0.500000  0.500000  0.000000  1
  Mg  Mg3  1  0.500000  0.000000  0.000000  1
  Ga  Ga4  1  0.070085  0.750000  0.140170  1
  Ga  Ga5  1  0.929915  0.250000  0.859830  1
  Ga  Ga6  1  0.685183  0.549368  0.370367  1
  Ga  Ga7  1  0.314817  0.450632  0.629633  1
  Ga  Ga8  1  0.685183  0.950632  0.370367  1
  Ga  Ga9  1  0.314817  0.049368  0.629633  1
  Ni  Ni10  1  0.221159  0.750000  0.442317  1
  Ni  Ni11  1  0.778841  0.250000  0.557683  1
