# generated using pymatgen
data_KSc(SbAu)2
_symmetry_space_group_name_H-M   'P 1'
_cell_length_a   4.48920500
_cell_length_b   4.48920525
_cell_length_c   19.21590600
_cell_angle_alpha   90.00000000
_cell_angle_beta   90.00000000
_cell_angle_gamma   120.00002023
_symmetry_Int_Tables_number   1
_chemical_formula_structural   KSc(SbAu)2
_chemical_formula_sum   'K2 Sc2 Sb4 Au4'
_cell_volume   335.37470928
_cell_formula_units_Z   2
loop_
 _symmetry_equiv_pos_site_id
 _symmetry_equiv_pos_as_xyz
  1  'x, y, z'
loop_
 _atom_site_type_symbol
 _atom_site_label
 _atom_site_symmetry_multiplicity
 _atom_site_fract_x
 _atom_site_fract_y
 _atom_site_fract_z
 _atom_site_occupancy
  K  K0  1  0.000000  0.000000  0.500000  1
  K  K1  1  0.000000  0.000000  0.000000  1
  Sc  Sc2  1  0.000000  0.000000  0.250000  1
  Sc  Sc3  1  0.000000  0.000000  0.750000  1
  Sb  Sb4  1  0.333333  0.666667  0.367673  1
  Sb  Sb5  1  0.666667  0.333333  0.632327  1
  Sb  Sb6  1  0.666667  0.333333  0.867673  1
  Sb  Sb7  1  0.333333  0.666667  0.132327  1
  Au  Au8  1  0.666667  0.333333  0.324770  1
  Au  Au9  1  0.333333  0.666667  0.675230  1
  Au  Au10  1  0.333333  0.666667  0.824770  1
  Au  Au11  1  0.666667  0.333333  0.175230  1
