# generated using pymatgen
data_Cs4Zr6FeBr18
_symmetry_space_group_name_H-M   'P 1'
_cell_length_a   10.91045651
_cell_length_b   11.24623114
_cell_length_c   11.35177179
_cell_angle_alpha   118.40211710
_cell_angle_beta   100.34452602
_cell_angle_gamma   104.22484407
_symmetry_Int_Tables_number   1
_chemical_formula_structural   Cs4Zr6FeBr18
_chemical_formula_sum   'Cs4 Zr6 Fe1 Br18'
_cell_volume   1113.56181126
_cell_formula_units_Z   1
loop_
 _symmetry_equiv_pos_site_id
 _symmetry_equiv_pos_as_xyz
  1  'x, y, z'
loop_
 _atom_site_type_symbol
 _atom_site_label
 _atom_site_symmetry_multiplicity
 _atom_site_fract_x
 _atom_site_fract_y
 _atom_site_fract_z
 _atom_site_occupancy
  Cs  Cs0  1  0.660418  0.538262  0.230227  1
  Cs  Cs1  1  0.339582  0.461738  0.769773  1
  Cs  Cs2  1  0.694697  0.227208  0.564589  1
  Cs  Cs3  1  0.305303  0.772792  0.435411  1
  Zr  Zr4  1  0.150156  0.056154  0.226959  1
  Zr  Zr5  1  0.849844  0.943846  0.773041  1
  Zr  Zr6  1  0.861166  0.121866  0.128347  1
  Zr  Zr7  1  0.138834  0.878134  0.871653  1
  Zr  Zr8  1  0.145145  0.235671  0.045096  1
  Zr  Zr9  1  0.854855  0.764329  0.954904  1
  Fe  Fe10  1  0.000000  0.000000  0.000000  1
  Br  Br11  1  0.006934  0.393047  0.188426  1
  Br  Br12  1  0.993066  0.606953  0.811574  1
  Br  Br13  1  0.321973  0.323810  0.301761  1
  Br  Br14  1  0.678027  0.676190  0.698239  1
  Br  Br15  1  0.312675  0.505736  0.098112  1
  Br  Br16  1  0.687325  0.494264  0.901888  1
  Br  Br17  1  0.003606  0.803596  0.201600  1
  Br  Br18  1  0.996394  0.196404  0.798400  1
  Br  Br19  1  0.707948  0.260022  0.273217  1
  Br  Br20  1  0.292052  0.739978  0.726783  1
  Br  Br21  1  0.310096  0.125910  0.908602  1
  Br  Br22  1  0.689904  0.874090  0.091398  1
  Br  Br23  1  0.013964  0.196044  0.391677  1
  Br  Br24  1  0.986036  0.803956  0.608323  1
  Br  Br25  1  0.313767  0.927497  0.108557  1
  Br  Br26  1  0.686233  0.072503  0.891443  1
  Br  Br27  1  0.325029  0.119239  0.485727  1
  Br  Br28  1  0.674971  0.880761  0.514273  1
