# generated using pymatgen
data_Nd2CuP3Pd2
_symmetry_space_group_name_H-M   'P 1'
_cell_length_a   4.01977000
_cell_length_b   10.99576300
_cell_length_c   13.38439800
_cell_angle_alpha   90.00000000
_cell_angle_beta   90.00000000
_cell_angle_gamma   90.00000000
_symmetry_Int_Tables_number   1
_chemical_formula_structural   Nd2CuP3Pd2
_chemical_formula_sum   'Nd8 Cu4 P12 Pd8'
_cell_volume   591.59625711
_cell_formula_units_Z   4
loop_
 _symmetry_equiv_pos_site_id
 _symmetry_equiv_pos_as_xyz
  1  'x, y, z'
loop_
 _atom_site_type_symbol
 _atom_site_label
 _atom_site_symmetry_multiplicity
 _atom_site_fract_x
 _atom_site_fract_y
 _atom_site_fract_z
 _atom_site_occupancy
  Nd  Nd0  1  0.250000  0.930652  0.789849  1
  Nd  Nd1  1  0.750000  0.430652  0.710151  1
  Nd  Nd2  1  0.250000  0.569348  0.289849  1
  Nd  Nd3  1  0.750000  0.069348  0.210151  1
  Nd  Nd4  1  0.250000  0.841097  0.502117  1
  Nd  Nd5  1  0.750000  0.341097  0.997883  1
  Nd  Nd6  1  0.250000  0.658903  0.002117  1
  Nd  Nd7  1  0.750000  0.158903  0.497883  1
  Cu  Cu8  1  0.250000  0.866952  0.279412  1
  Cu  Cu9  1  0.750000  0.366952  0.220588  1
  Cu  Cu10  1  0.250000  0.633048  0.779412  1
  Cu  Cu11  1  0.750000  0.133048  0.720588  1
  P  P12  1  0.250000  0.234063  0.646104  1
  P  P13  1  0.750000  0.734063  0.853896  1
  P  P14  1  0.250000  0.265937  0.146104  1
  P  P15  1  0.750000  0.765937  0.353896  1
  P  P16  1  0.250000  0.601251  0.601890  1
  P  P17  1  0.750000  0.101251  0.898110  1
  P  P18  1  0.250000  0.898749  0.101890  1
  P  P19  1  0.750000  0.398749  0.398110  1
  P  P20  1  0.250000  0.052980  0.369404  1
  P  P21  1  0.750000  0.552980  0.130596  1
  P  P22  1  0.250000  0.447020  0.869404  1
  P  P23  1  0.750000  0.947020  0.630596  1
  Pd  Pd24  1  0.250000  0.402469  0.515185  1
  Pd  Pd25  1  0.750000  0.902469  0.984815  1
  Pd  Pd26  1  0.250000  0.097531  0.015185  1
  Pd  Pd27  1  0.750000  0.597531  0.484815  1
  Pd  Pd28  1  0.250000  0.272207  0.329185  1
  Pd  Pd29  1  0.750000  0.772207  0.170815  1
  Pd  Pd30  1  0.250000  0.227793  0.829185  1
  Pd  Pd31  1  0.750000  0.727793  0.670815  1
