# generated using pymatgen
data_Ho2P6Rh12Pb
_symmetry_space_group_name_H-M   'P 1'
_cell_length_a   9.81326100
_cell_length_b   9.81326011
_cell_length_c   3.88739200
_cell_angle_alpha   90.00000000
_cell_angle_beta   90.00000000
_cell_angle_gamma   120.00000638
_symmetry_Int_Tables_number   1
_chemical_formula_structural   Ho2P6Rh12Pb
_chemical_formula_sum   'Ho2 P6 Rh12 Pb1'
_cell_volume   324.20193334
_cell_formula_units_Z   1
loop_
 _symmetry_equiv_pos_site_id
 _symmetry_equiv_pos_as_xyz
  1  'x, y, z'
loop_
 _atom_site_type_symbol
 _atom_site_label
 _atom_site_symmetry_multiplicity
 _atom_site_fract_x
 _atom_site_fract_y
 _atom_site_fract_z
 _atom_site_occupancy
  Ho  Ho0  1  0.333333  0.666667  0.752887  1
  Ho  Ho1  1  0.666667  0.333333  0.247113  1
  P  P2  1  0.406864  0.288223  0.744769  1
  P  P3  1  0.711777  0.118641  0.744769  1
  P  P4  1  0.881359  0.593136  0.744769  1
  P  P5  1  0.593136  0.711777  0.255231  1
  P  P6  1  0.288223  0.881359  0.255231  1
  P  P7  1  0.118641  0.406864  0.255231  1
  Rh  Rh8  1  0.454795  0.067865  0.746067  1
  Rh  Rh9  1  0.932135  0.386931  0.746067  1
  Rh  Rh10  1  0.613069  0.545205  0.746067  1
  Rh  Rh11  1  0.545205  0.932135  0.253933  1
  Rh  Rh12  1  0.067865  0.613069  0.253933  1
  Rh  Rh13  1  0.386931  0.454795  0.253933  1
  Rh  Rh14  1  0.164471  0.293966  0.761828  1
  Rh  Rh15  1  0.706034  0.870504  0.761828  1
  Rh  Rh16  1  0.129496  0.835529  0.761828  1
  Rh  Rh17  1  0.835529  0.706034  0.238172  1
  Rh  Rh18  1  0.293966  0.129496  0.238172  1
  Rh  Rh19  1  0.870504  0.164471  0.238172  1
  Pb  Pb20  1  0.000000  0.000000  0.500000  1
