# generated using pymatgen
data_Ba4La2AlGaSe10
_symmetry_space_group_name_H-M   'P 1'
_cell_length_a   7.46176842
_cell_length_b   9.02699932
_cell_length_c   9.71971588
_cell_angle_alpha   103.77353431
_cell_angle_beta   102.67186735
_cell_angle_gamma   107.84752523
_symmetry_Int_Tables_number   1
_chemical_formula_structural   Ba4La2AlGaSe10
_chemical_formula_sum   'Ba4 La2 Al1 Ga1 Se10'
_cell_volume   574.21097170
_cell_formula_units_Z   1
loop_
 _symmetry_equiv_pos_site_id
 _symmetry_equiv_pos_as_xyz
  1  'x, y, z'
loop_
 _atom_site_type_symbol
 _atom_site_label
 _atom_site_symmetry_multiplicity
 _atom_site_fract_x
 _atom_site_fract_y
 _atom_site_fract_z
 _atom_site_occupancy
  Ba  Ba0  1  0.635036  0.978616  0.295636  1
  Ba  Ba1  1  0.364582  0.021498  0.704456  1
  Ba  Ba2  1  0.341970  0.508701  0.703978  1
  Ba  Ba3  1  0.658970  0.491349  0.296175  1
  La  La4  1  0.996991  0.732848  0.997367  1
  La  La5  1  0.002162  0.266755  0.001651  1
  Al  Al6  1  0.193916  0.128005  0.312880  1
  Ga  Ga7  1  0.806480  0.871946  0.686707  1
  Se  Se8  1  0.988711  0.688085  0.677513  1
  Se  Se9  1  0.013725  0.309588  0.322368  1
  Se  Se10  1  0.984523  0.146073  0.681810  1
  Se  Se11  1  0.017821  0.857496  0.318095  1
  Se  Se12  1  0.702095  0.903817  0.917704  1
  Se  Se13  1  0.296083  0.096372  0.085083  1
  Se  Se14  1  0.694129  0.406759  0.944277  1
  Se  Se15  1  0.305854  0.593326  0.056060  1
  Se  Se16  1  0.492953  0.742355  0.494146  1
  Se  Se17  1  0.503997  0.256409  0.504092  1
