# generated using pymatgen
data_Nd3Ho(MoO4)6
_symmetry_space_group_name_H-M   'P 1'
_cell_length_a   7.59268804
_cell_length_b   7.59268804
_cell_length_c   10.89238203
_cell_angle_alpha   89.89584918
_cell_angle_beta   90.10415082
_cell_angle_gamma   89.82455341
_symmetry_Int_Tables_number   1
_chemical_formula_structural   Nd3Ho(MoO4)6
_chemical_formula_sum   'Nd3 Ho1 Mo6 O24'
_cell_volume   627.92894412
_cell_formula_units_Z   1
loop_
 _symmetry_equiv_pos_site_id
 _symmetry_equiv_pos_as_xyz
  1  'x, y, z'
loop_
 _atom_site_type_symbol
 _atom_site_label
 _atom_site_symmetry_multiplicity
 _atom_site_fract_x
 _atom_site_fract_y
 _atom_site_fract_z
 _atom_site_occupancy
  Nd  Nd0  1  0.189048  0.688647  0.738576  1
  Nd  Nd1  1  0.811353  0.310952  0.738576  1
  Nd  Nd2  1  0.685588  0.814412  0.260551  1
  Ho  Ho3  1  0.308837  0.191163  0.264136  1
  Mo  Mo4  1  0.209117  0.706618  0.353478  1
  Mo  Mo5  1  0.793382  0.290883  0.353478  1
  Mo  Mo6  1  0.708061  0.791939  0.644831  1
  Mo  Mo7  1  0.291620  0.208380  0.638417  1
  Mo  Mo8  1  0.005698  0.004530  0.003974  1
  Mo  Mo9  1  0.495470  0.494302  0.003974  1
  O  O10  1  0.004504  0.222957  0.297141  1
  O  O11  1  0.998701  0.769179  0.295436  1
  O  O12  1  0.226086  0.000090  0.698184  1
  O  O13  1  0.500097  0.725357  0.704262  1
  O  O14  1  0.774643  0.999903  0.704262  1
  O  O15  1  0.499910  0.273914  0.698184  1
  O  O16  1  0.277043  0.495496  0.297141  1
  O  O17  1  0.730821  0.501299  0.295436  1
  O  O18  1  0.189060  0.050406  0.103124  1
  O  O19  1  0.814085  0.961581  0.094820  1
  O  O20  1  0.051217  0.817053  0.909283  1
  O  O21  1  0.310131  0.536138  0.906245  1
  O  O22  1  0.963862  0.189869  0.906245  1
  O  O23  1  0.682947  0.448783  0.909283  1
  O  O24  1  0.449594  0.310940  0.103124  1
  O  O25  1  0.538419  0.685915  0.094820  1
  O  O26  1  0.622328  0.132643  0.307968  1
  O  O27  1  0.367357  0.877672  0.307968  1
  O  O28  1  0.127834  0.372166  0.685851  1
  O  O29  1  0.872625  0.627375  0.691195  1
  O  O30  1  0.197829  0.696113  0.516686  1
  O  O31  1  0.803887  0.302171  0.516686  1
  O  O32  1  0.695335  0.804665  0.481871  1
  O  O33  1  0.303512  0.196488  0.474793  1
