# generated using pymatgen
data_Ac2URu3
_symmetry_space_group_name_H-M   'P 1'
_cell_length_a   6.26003406
_cell_length_b   6.26003608
_cell_length_c   8.14024400
_cell_angle_alpha   90.00000000
_cell_angle_beta   90.00000000
_cell_angle_gamma   120.00582326
_symmetry_Int_Tables_number   1
_chemical_formula_structural   Ac2URu3
_chemical_formula_sum   'Ac4 U2 Ru6'
_cell_volume   276.24606472
_cell_formula_units_Z   2
loop_
 _symmetry_equiv_pos_site_id
 _symmetry_equiv_pos_as_xyz
  1  'x, y, z'
loop_
 _atom_site_type_symbol
 _atom_site_label
 _atom_site_symmetry_multiplicity
 _atom_site_fract_x
 _atom_site_fract_y
 _atom_site_fract_z
 _atom_site_occupancy
  Ac  Ac0  1  0.666663  0.333337  0.549874  1
  Ac  Ac1  1  0.333337  0.666663  0.450126  1
  Ac  Ac2  1  0.333337  0.666663  0.049874  1
  Ac  Ac3  1  0.666663  0.333337  0.950126  1
  U  U4  1  0.000000  0.000000  0.500000  1
  U  U5  1  0.000000  0.000000  0.000000  1
  Ru  Ru6  1  0.152869  0.305750  0.750000  1
  Ru  Ru7  1  0.152842  0.847158  0.750000  1
  Ru  Ru8  1  0.694250  0.847131  0.750000  1
  Ru  Ru9  1  0.847131  0.694250  0.250000  1
  Ru  Ru10  1  0.847158  0.152842  0.250000  1
  Ru  Ru11  1  0.305750  0.152869  0.250000  1
