# generated using pymatgen
data_Er2Hf3Si3Ge
_symmetry_space_group_name_H-M   'P 1'
_cell_length_a   7.28674805
_cell_length_b   7.28643199
_cell_length_c   13.36292502
_cell_angle_alpha   89.97094874
_cell_angle_beta   90.00398486
_cell_angle_gamma   90.06694264
_symmetry_Int_Tables_number   1
_chemical_formula_structural   Er2Hf3Si3Ge
_chemical_formula_sum   'Er8 Hf12 Si12 Ge4'
_cell_volume   709.49583069
_cell_formula_units_Z   4
loop_
 _symmetry_equiv_pos_site_id
 _symmetry_equiv_pos_as_xyz
  1  'x, y, z'
loop_
 _atom_site_type_symbol
 _atom_site_label
 _atom_site_symmetry_multiplicity
 _atom_site_fract_x
 _atom_site_fract_y
 _atom_site_fract_z
 _atom_site_occupancy
  Er  Er0  1  0.342736  0.000952  0.465256  1
  Er  Er1  1  0.498695  0.842484  0.715438  1
  Er  Er2  1  0.500478  0.155259  0.216373  1
  Er  Er3  1  0.845640  0.499897  0.284141  1
  Er  Er4  1  0.155533  0.502336  0.783347  1
  Er  Er5  1  0.658411  0.996798  0.966084  1
  Er  Er6  1  0.002041  0.344760  0.533503  1
  Er  Er7  1  0.997194  0.657489  0.034459  1
  Hf  Hf8  1  0.323905  0.324144  0.000142  1
  Hf  Hf9  1  0.173089  0.826582  0.250149  1
  Hf  Hf10  1  0.824041  0.173141  0.750391  1
  Hf  Hf11  1  0.673220  0.676068  0.500381  1
  Hf  Hf12  1  0.150180  0.005053  0.876598  1
  Hf  Hf13  1  0.493697  0.653817  0.127452  1
  Hf  Hf14  1  0.505767  0.349826  0.626958  1
  Hf  Hf15  1  0.654392  0.494046  0.872946  1
  Hf  Hf16  1  0.346185  0.506397  0.373377  1
  Hf  Hf17  1  0.850363  0.994486  0.376203  1
  Hf  Hf18  1  0.005147  0.150290  0.124214  1
  Hf  Hf19  1  0.994286  0.846146  0.623685  1
  Si  Si20  1  0.295320  0.635811  0.567985  1
  Si  Si21  1  0.794675  0.864011  0.182250  1
  Si  Si22  1  0.135956  0.205040  0.318201  1
  Si  Si23  1  0.864082  0.795131  0.818073  1
  Si  Si24  1  0.296886  0.955756  0.066430  1
  Si  Si25  1  0.547699  0.796669  0.315183  1
  Si  Si26  1  0.456058  0.202906  0.816924  1
  Si  Si27  1  0.797060  0.546718  0.684815  1
  Si  Si28  1  0.203269  0.452868  0.184929  1
  Si  Si29  1  0.703420  0.044680  0.566349  1
  Si  Si30  1  0.956259  0.296973  0.933657  1
  Si  Si31  1  0.047411  0.703510  0.435402  1
  Ge  Ge32  1  0.203770  0.134873  0.679017  1
  Ge  Ge33  1  0.365331  0.703334  0.929324  1
  Ge  Ge34  1  0.634791  0.296452  0.429160  1
  Ge  Ge35  1  0.703011  0.365297  0.071202  1
