# generated using pymatgen
data_Dy2V3Ni9As7
_symmetry_space_group_name_H-M   'P 1'
_cell_length_a   9.47915100
_cell_length_b   9.47915112
_cell_length_c   3.79331400
_cell_angle_alpha   90.00000000
_cell_angle_beta   90.00000000
_cell_angle_gamma   119.99999609
_symmetry_Int_Tables_number   1
_chemical_formula_structural   Dy2V3Ni9As7
_chemical_formula_sum   'Dy2 V3 Ni9 As7'
_cell_volume   295.18095345
_cell_formula_units_Z   1
loop_
 _symmetry_equiv_pos_site_id
 _symmetry_equiv_pos_as_xyz
  1  'x, y, z'
loop_
 _atom_site_type_symbol
 _atom_site_label
 _atom_site_symmetry_multiplicity
 _atom_site_fract_x
 _atom_site_fract_y
 _atom_site_fract_z
 _atom_site_occupancy
  Dy  Dy0  1  0.333333  0.666667  0.000000  1
  Dy  Dy1  1  0.666667  0.333333  0.500000  1
  V  V2  1  0.216333  0.114086  0.500000  1
  V  V3  1  0.885914  0.102248  0.500000  1
  V  V4  1  0.897752  0.783667  0.500000  1
  Ni  Ni5  1  0.128115  0.280883  0.000000  1
  Ni  Ni6  1  0.719117  0.847232  0.000000  1
  Ni  Ni7  1  0.152768  0.871885  0.000000  1
  Ni  Ni8  1  0.432460  0.371173  0.000000  1
  Ni  Ni9  1  0.628827  0.061287  0.000000  1
  Ni  Ni10  1  0.938713  0.567540  0.000000  1
  Ni  Ni11  1  0.054927  0.434222  0.500000  1
  Ni  Ni12  1  0.565778  0.620705  0.500000  1
  Ni  Ni13  1  0.379295  0.945073  0.500000  1
  As  As14  1  0.293360  0.406442  0.500000  1
  As  As15  1  0.593558  0.886919  0.500000  1
  As  As16  1  0.113081  0.706640  0.500000  1
  As  As17  1  0.409068  0.114269  0.000000  1
  As  As18  1  0.885731  0.294799  0.000000  1
  As  As19  1  0.705201  0.590932  0.000000  1
  As  As20  1  0.000000  0.000000  0.000000  1
