# generated using pymatgen
data_Dy7PSe6
_symmetry_space_group_name_H-M   'P 1'
_cell_length_a   5.77004420
_cell_length_b   7.06454221
_cell_length_c   9.08633600
_cell_angle_alpha   97.62121820
_cell_angle_beta   90.16246279
_cell_angle_gamma   65.78665777
_symmetry_Int_Tables_number   1
_chemical_formula_structural   Dy7PSe6
_chemical_formula_sum   'Dy7 P1 Se6'
_cell_volume   334.27015439
_cell_formula_units_Z   1
loop_
 _symmetry_equiv_pos_site_id
 _symmetry_equiv_pos_as_xyz
  1  'x, y, z'
loop_
 _atom_site_type_symbol
 _atom_site_label
 _atom_site_symmetry_multiplicity
 _atom_site_fract_x
 _atom_site_fract_y
 _atom_site_fract_z
 _atom_site_occupancy
  Dy  Dy0  1  0.084872  0.119921  0.249472  1
  Dy  Dy1  1  0.381190  0.528095  0.385564  1
  Dy  Dy2  1  0.677675  0.935885  0.521524  1
  Dy  Dy3  1  0.527625  0.240700  0.958043  1
  Dy  Dy4  1  0.237652  0.815245  0.813129  1
  Dy  Dy5  1  0.950133  0.395473  0.658504  1
  Dy  Dy6  1  0.813309  0.660774  0.112589  1
  P  P7  1  0.881205  0.527885  0.385486  1
  Se  Se8  1  0.596096  0.097673  0.241995  1
  Se  Se9  1  0.166268  0.958601  0.529189  1
  Se  Se10  1  0.457886  0.380439  0.670663  1
  Se  Se11  1  0.305773  0.675512  0.100467  1
  Se  Se12  1  0.025392  0.244122  0.953048  1
  Se  Se13  1  0.739879  0.811918  0.817960  1
