# generated using pymatgen
data_Ca7HfCr2N9
_symmetry_space_group_name_H-M   'P 1'
_cell_length_a   10.03335100
_cell_length_b   6.11708071
_cell_length_c   9.10492274
_cell_angle_alpha   87.74604873
_cell_angle_beta   90.00000000
_cell_angle_gamma   90.00000000
_symmetry_Int_Tables_number   1
_chemical_formula_structural   Ca7HfCr2N9
_chemical_formula_sum   'Ca14 Hf2 Cr4 N18'
_cell_volume   558.38063611
_cell_formula_units_Z   2
loop_
 _symmetry_equiv_pos_site_id
 _symmetry_equiv_pos_as_xyz
  1  'x, y, z'
loop_
 _atom_site_type_symbol
 _atom_site_label
 _atom_site_symmetry_multiplicity
 _atom_site_fract_x
 _atom_site_fract_y
 _atom_site_fract_z
 _atom_site_occupancy
  Ca  Ca0  1  0.932449  0.430104  0.167784  1
  Ca  Ca1  1  0.081056  0.244998  0.496188  1
  Ca  Ca2  1  0.250000  0.087799  0.797355  1
  Ca  Ca3  1  0.432449  0.569896  0.832216  1
  Ca  Ca4  1  0.581056  0.755002  0.503812  1
  Ca  Ca5  1  0.578292  0.063530  0.825570  1
  Ca  Ca6  1  0.921708  0.063530  0.825570  1
  Ca  Ca7  1  0.421708  0.936470  0.174430  1
  Ca  Ca8  1  0.418944  0.244998  0.496188  1
  Ca  Ca9  1  0.078292  0.936470  0.174430  1
  Ca  Ca10  1  0.918944  0.755002  0.503812  1
  Ca  Ca11  1  0.067551  0.569896  0.832216  1
  Ca  Ca12  1  0.750000  0.912201  0.202645  1
  Ca  Ca13  1  0.567551  0.430104  0.167784  1
  Hf  Hf14  1  0.750000  0.274802  0.441927  1
  Hf  Hf15  1  0.250000  0.725198  0.558073  1
  Cr  Cr16  1  0.250000  0.323966  0.065874  1
  Cr  Cr17  1  0.750000  0.461619  0.726957  1
  Cr  Cr18  1  0.750000  0.676034  0.934126  1
  Cr  Cr19  1  0.250000  0.538381  0.273043  1
  N  N20  1  0.399725  0.230873  0.982785  1
  N  N21  1  0.250000  0.231475  0.265014  1
  N  N22  1  0.908433  0.110892  0.338400  1
  N  N23  1  0.608033  0.369630  0.633686  1
  N  N24  1  0.750000  0.563352  0.330411  1
  N  N25  1  0.250000  0.630959  0.073873  1
  N  N26  1  0.891967  0.369630  0.633686  1
  N  N27  1  0.391967  0.630370  0.366314  1
  N  N28  1  0.750000  0.369041  0.926127  1
  N  N29  1  0.091567  0.889108  0.661600  1
  N  N30  1  0.750000  0.768525  0.734986  1
  N  N31  1  0.108033  0.630370  0.366314  1
  N  N32  1  0.600275  0.769127  0.017215  1
  N  N33  1  0.250000  0.436648  0.669589  1
  N  N34  1  0.408433  0.889108  0.661600  1
  N  N35  1  0.591567  0.110892  0.338400  1
  N  N36  1  0.100275  0.230873  0.982785  1
  N  N37  1  0.899725  0.769127  0.017215  1
