# generated using pymatgen
data_HoTm3Al17GeIr6
_symmetry_space_group_name_H-M   'P 1'
_cell_length_a   7.53897600
_cell_length_b   7.53971298
_cell_length_c   9.42974200
_cell_angle_alpha   90.00000000
_cell_angle_beta   90.00000000
_cell_angle_gamma   119.58225542
_symmetry_Int_Tables_number   1
_chemical_formula_structural   HoTm3Al17GeIr6
_chemical_formula_sum   'Ho1 Tm3 Al17 Ge1 Ir6'
_cell_volume   466.13361057
_cell_formula_units_Z   1
loop_
 _symmetry_equiv_pos_site_id
 _symmetry_equiv_pos_as_xyz
  1  'x, y, z'
loop_
 _atom_site_type_symbol
 _atom_site_label
 _atom_site_symmetry_multiplicity
 _atom_site_fract_x
 _atom_site_fract_y
 _atom_site_fract_z
 _atom_site_occupancy
  Ho  Ho0  1  0.994661  0.677260  0.250000  1
  Tm  Tm1  1  0.003304  0.328205  0.750000  1
  Tm  Tm2  1  0.677230  0.994741  0.250000  1
  Tm  Tm3  1  0.328183  0.003369  0.750000  1
  Al  Al4  1  0.871847  0.871891  0.750000  1
  Al  Al5  1  0.999902  0.337836  0.074293  1
  Al  Al6  1  0.998467  0.664491  0.924124  1
  Al  Al7  1  0.998467  0.664491  0.575876  1
  Al  Al8  1  0.338171  0.000060  0.425692  1
  Al  Al9  1  0.999902  0.337836  0.425707  1
  Al  Al10  1  0.664508  0.998470  0.575720  1
  Al  Al11  1  0.664508  0.998470  0.924280  1
  Al  Al12  1  0.338171  0.000060  0.074308  1
  Al  Al13  1  0.332208  0.332214  0.560443  1
  Al  Al14  1  0.663838  0.663973  0.447409  1
  Al  Al15  1  0.663838  0.663973  0.052591  1
  Al  Al16  1  0.332208  0.332214  0.939557  1
  Al  Al17  1  0.337552  0.554556  0.250000  1
  Al  Al18  1  0.661138  0.450516  0.750000  1
  Al  Al19  1  0.554406  0.337260  0.250000  1
  Al  Al20  1  0.450568  0.661177  0.750000  1
  Ge  Ge21  1  0.136319  0.136470  0.250000  1
  Ir  Ir22  1  0.669749  0.326185  0.000060  1
  Ir  Ir23  1  0.326256  0.669733  0.000080  1
  Ir  Ir24  1  0.326256  0.669733  0.499920  1
  Ir  Ir25  1  0.669749  0.326185  0.499940  1
  Ir  Ir26  1  0.999298  0.999315  0.001098  1
  Ir  Ir27  1  0.999298  0.999315  0.498902  1
