# generated using pymatgen
data_La2Ga4Pt3Rh
_symmetry_space_group_name_H-M   'P 1'
_cell_length_a   4.32148600
_cell_length_b   4.32148600
_cell_length_c   10.52183900
_cell_angle_alpha   90.00000000
_cell_angle_beta   90.00000000
_cell_angle_gamma   90.00000000
_symmetry_Int_Tables_number   1
_chemical_formula_structural   La2Ga4Pt3Rh
_chemical_formula_sum   'La2 Ga4 Pt3 Rh1'
_cell_volume   196.49788170
_cell_formula_units_Z   1
loop_
 _symmetry_equiv_pos_site_id
 _symmetry_equiv_pos_as_xyz
  1  'x, y, z'
loop_
 _atom_site_type_symbol
 _atom_site_label
 _atom_site_symmetry_multiplicity
 _atom_site_fract_x
 _atom_site_fract_y
 _atom_site_fract_z
 _atom_site_occupancy
  La  La0  1  0.000000  0.499999  0.248833  1
  La  La1  1  0.499999  0.000000  0.751167  1
  Ga  Ga2  1  0.499999  0.000000  0.125957  1
  Ga  Ga3  1  0.000000  0.000000  0.500000  1
  Ga  Ga4  1  0.499999  0.499999  0.500000  1
  Ga  Ga5  1  0.000000  0.499999  0.874043  1
  Pt  Pt6  1  0.000000  0.000000  0.000000  1
  Pt  Pt7  1  0.499999  0.000000  0.366334  1
  Pt  Pt8  1  0.000000  0.499999  0.633667  1
  Rh  Rh9  1  0.499999  0.499999  0.000000  1
