# generated using pymatgen
data_Lu3Cd13Hg2
_symmetry_space_group_name_H-M   'P 1'
_cell_length_a   16.26932818
_cell_length_b   16.26932935
_cell_length_c   6.97821960
_cell_angle_alpha   92.47411151
_cell_angle_beta   92.47411232
_cell_angle_gamma   13.22409461
_symmetry_Int_Tables_number   1
_chemical_formula_structural   Lu3Cd13Hg2
_chemical_formula_sum   'Lu3 Cd13 Hg2'
_cell_volume   422.13759200
_cell_formula_units_Z   1
loop_
 _symmetry_equiv_pos_site_id
 _symmetry_equiv_pos_as_xyz
  1  'x, y, z'
loop_
 _atom_site_type_symbol
 _atom_site_label
 _atom_site_symmetry_multiplicity
 _atom_site_fract_x
 _atom_site_fract_y
 _atom_site_fract_z
 _atom_site_occupancy
  Lu  Lu0  1  0.000989  0.000989  0.993022  1
  Lu  Lu1  1  0.666627  0.666627  0.334427  1
  Lu  Lu2  1  0.883750  0.883750  0.453485  1
  Cd  Cd3  1  0.106089  0.106089  0.034328  1
  Cd  Cd4  1  0.228554  0.228554  0.116964  1
  Cd  Cd5  1  0.330837  0.330837  0.158811  1
  Cd  Cd6  1  0.443129  0.443129  0.226465  1
  Cd  Cd7  1  0.556189  0.556189  0.278084  1
  Cd  Cd8  1  0.779061  0.779061  0.398557  1
  Cd  Cd9  1  0.996902  0.996902  0.479443  1
  Cd  Cd10  1  0.221984  0.221984  0.612426  1
  Cd  Cd11  1  0.445453  0.445453  0.713992  1
  Cd  Cd12  1  0.555425  0.555425  0.743043  1
  Cd  Cd13  1  0.669029  0.669029  0.868582  1
  Cd  Cd14  1  0.775405  0.775405  0.877649  1
  Cd  Cd15  1  0.893530  0.893530  0.959398  1
  Hg  Hg16  1  0.113232  0.113232  0.558331  1
  Hg  Hg17  1  0.333816  0.333816  0.692993  1
