# generated using pymatgen
data_TmSiRu2C
_symmetry_space_group_name_H-M   'P 1'
_cell_length_a   5.88446402
_cell_length_b   5.88446410
_cell_length_c   7.12512700
_cell_angle_alpha   90.00000000
_cell_angle_beta   90.00000000
_cell_angle_gamma   142.65102329
_symmetry_Int_Tables_number   1
_chemical_formula_structural   TmSiRu2C
_chemical_formula_sum   'Tm2 Si2 Ru4 C2'
_cell_volume   149.67788466
_cell_formula_units_Z   2
loop_
 _symmetry_equiv_pos_site_id
 _symmetry_equiv_pos_as_xyz
  1  'x, y, z'
loop_
 _atom_site_type_symbol
 _atom_site_label
 _atom_site_symmetry_multiplicity
 _atom_site_fract_x
 _atom_site_fract_y
 _atom_site_fract_z
 _atom_site_occupancy
  Tm  Tm0  1  0.546545  0.453455  0.250000  1
  Tm  Tm1  1  0.453455  0.546545  0.750000  1
  Si  Si2  1  0.267738  0.732262  0.250000  1
  Si  Si3  1  0.732262  0.267738  0.750000  1
  Ru  Ru4  1  0.836308  0.163692  0.056141  1
  Ru  Ru5  1  0.163692  0.836308  0.943859  1
  Ru  Ru6  1  0.163692  0.836308  0.556141  1
  Ru  Ru7  1  0.836308  0.163692  0.443859  1
  C  C8  1  0.000000  0.000000  0.000000  1
  C  C9  1  0.000000  0.000000  0.500000  1
