# generated using pymatgen
data_La8Er11MgSi16
_symmetry_space_group_name_H-M   'P 1'
_cell_length_a   7.79900480
_cell_length_b   7.79900480
_cell_length_c   14.31295316
_cell_angle_alpha   89.79907247
_cell_angle_beta   90.20092753
_cell_angle_gamma   89.98036538
_symmetry_Int_Tables_number   1
_chemical_formula_structural   La8Er11MgSi16
_chemical_formula_sum   'La8 Er11 Mg1 Si16'
_cell_volume   870.56711276
_cell_formula_units_Z   1
loop_
 _symmetry_equiv_pos_site_id
 _symmetry_equiv_pos_as_xyz
  1  'x, y, z'
loop_
 _atom_site_type_symbol
 _atom_site_label
 _atom_site_symmetry_multiplicity
 _atom_site_fract_x
 _atom_site_fract_y
 _atom_site_fract_z
 _atom_site_occupancy
  La  La0  1  0.989821  0.641311  0.040754  1
  La  La1  1  0.005280  0.361578  0.539454  1
  La  La2  1  0.641311  0.989821  0.959246  1
  La  La3  1  0.143473  0.509448  0.788154  1
  La  La4  1  0.858844  0.494705  0.295060  1
  La  La5  1  0.509448  0.143473  0.211846  1
  La  La6  1  0.494705  0.858844  0.704940  1
  La  La7  1  0.361578  0.005280  0.460546  1
  Er  Er8  1  0.365558  0.495323  0.378197  1
  Er  Er9  1  0.861273  0.000831  0.377996  1
  Er  Er10  1  0.992958  0.139857  0.126273  1
  Er  Er11  1  0.000831  0.861273  0.622004  1
  Er  Er12  1  0.636028  0.509548  0.874917  1
  Er  Er13  1  0.495323  0.365558  0.621803  1
  Er  Er14  1  0.509548  0.636028  0.125083  1
  Er  Er15  1  0.139857  0.992958  0.873727  1
  Er  Er16  1  0.814623  0.183667  0.749388  1
  Er  Er17  1  0.183667  0.814623  0.250612  1
  Er  Er18  1  0.316041  0.316041  0.000000  1
  Mg  Mg19  1  0.683281  0.683281  0.500000  1
  Si  Si20  1  0.077041  0.713479  0.436576  1
  Si  Si21  1  0.934335  0.287873  0.937253  1
  Si  Si22  1  0.713479  0.077041  0.563424  1
  Si  Si23  1  0.211343  0.433960  0.189819  1
  Si  Si24  1  0.788206  0.566565  0.687794  1
  Si  Si25  1  0.433960  0.211343  0.810181  1
  Si  Si26  1  0.566565  0.788206  0.312206  1
  Si  Si27  1  0.287873  0.934335  0.062747  1
  Si  Si28  1  0.846826  0.797768  0.807249  1
  Si  Si29  1  0.151278  0.205014  0.311959  1
  Si  Si30  1  0.797768  0.846826  0.192751  1
  Si  Si31  1  0.284599  0.647518  0.563535  1
  Si  Si32  1  0.703760  0.346986  0.059593  1
  Si  Si33  1  0.647518  0.284599  0.436465  1
  Si  Si34  1  0.346986  0.703760  0.940407  1
  Si  Si35  1  0.205014  0.151278  0.688041  1
