# generated using pymatgen
data_Nb2V2SiAs
_symmetry_space_group_name_H-M   'P 1'
_cell_length_a   3.48774200
_cell_length_b   6.55533300
_cell_length_c   7.95132600
_cell_angle_alpha   90.00000000
_cell_angle_beta   90.00000000
_cell_angle_gamma   90.00000000
_symmetry_Int_Tables_number   1
_chemical_formula_structural   Nb2V2SiAs
_chemical_formula_sum   'Nb4 V4 Si2 As2'
_cell_volume   181.79363306
_cell_formula_units_Z   2
loop_
 _symmetry_equiv_pos_site_id
 _symmetry_equiv_pos_as_xyz
  1  'x, y, z'
loop_
 _atom_site_type_symbol
 _atom_site_label
 _atom_site_symmetry_multiplicity
 _atom_site_fract_x
 _atom_site_fract_y
 _atom_site_fract_z
 _atom_site_occupancy
  Nb  Nb0  1  0.250000  0.047463  0.835368  1
  Nb  Nb1  1  0.250000  0.547463  0.664632  1
  Nb  Nb2  1  0.750000  0.958011  0.173661  1
  Nb  Nb3  1  0.750000  0.458011  0.326339  1
  V  V4  1  0.250000  0.127828  0.439475  1
  V  V5  1  0.250000  0.627828  0.060525  1
  V  V6  1  0.750000  0.867175  0.555860  1
  V  V7  1  0.750000  0.367175  0.944140  1
  Si  Si8  1  0.250000  0.752863  0.359366  1
  Si  Si9  1  0.250000  0.252863  0.140634  1
  As  As10  1  0.750000  0.246660  0.637616  1
  As  As11  1  0.750000  0.746660  0.862384  1
