# generated using pymatgen
data_LuPaZn2IrRh
_symmetry_space_group_name_H-M   'P 1'
_cell_length_a   3.82928000
_cell_length_b   7.06727522
_cell_length_c   8.36634031
_cell_angle_alpha   90.85966645
_cell_angle_beta   90.00000000
_cell_angle_gamma   90.00000000
_symmetry_Int_Tables_number   1
_chemical_formula_structural   LuPaZn2IrRh
_chemical_formula_sum   'Lu2 Pa2 Zn4 Ir2 Rh2'
_cell_volume   226.38923287
_cell_formula_units_Z   2
loop_
 _symmetry_equiv_pos_site_id
 _symmetry_equiv_pos_as_xyz
  1  'x, y, z'
loop_
 _atom_site_type_symbol
 _atom_site_label
 _atom_site_symmetry_multiplicity
 _atom_site_fract_x
 _atom_site_fract_y
 _atom_site_fract_z
 _atom_site_occupancy
  Lu  Lu0  1  0.750000  0.939996  0.683345  1
  Lu  Lu1  1  0.250000  0.060004  0.316655  1
  Pa  Pa2  1  0.250000  0.554937  0.188775  1
  Pa  Pa3  1  0.750000  0.445063  0.811225  1
  Zn  Zn4  1  0.250000  0.630454  0.557664  1
  Zn  Zn5  1  0.750000  0.369546  0.442336  1
  Zn  Zn6  1  0.750000  0.886140  0.062094  1
  Zn  Zn7  1  0.250000  0.113860  0.937906  1
  Ir  Ir8  1  0.250000  0.722218  0.874674  1
  Ir  Ir9  1  0.750000  0.277782  0.125326  1
  Rh  Rh10  1  0.750000  0.754893  0.360402  1
  Rh  Rh11  1  0.250000  0.245107  0.639598  1
