# generated using pymatgen
data_HoTmCo8(TcP3)2
_symmetry_space_group_name_H-M   'P 1'
_cell_length_a   3.69837600
_cell_length_b   10.32601900
_cell_length_c   11.80298400
_cell_angle_alpha   90.00000000
_cell_angle_beta   90.00000000
_cell_angle_gamma   90.00000000
_symmetry_Int_Tables_number   1
_chemical_formula_structural   HoTmCo8(TcP3)2
_chemical_formula_sum   'Ho2 Tm2 Co16 Tc4 P12'
_cell_volume   450.75006744
_cell_formula_units_Z   2
loop_
 _symmetry_equiv_pos_site_id
 _symmetry_equiv_pos_as_xyz
  1  'x, y, z'
loop_
 _atom_site_type_symbol
 _atom_site_label
 _atom_site_symmetry_multiplicity
 _atom_site_fract_x
 _atom_site_fract_y
 _atom_site_fract_z
 _atom_site_occupancy
  Ho  Ho0  1  0.750000  0.416242  0.295273  1
  Ho  Ho1  1  0.750000  0.083758  0.795273  1
  Tm  Tm2  1  0.250000  0.584078  0.704543  1
  Tm  Tm3  1  0.250000  0.915922  0.204543  1
  Co  Co4  1  0.250000  0.407235  0.488925  1
  Co  Co5  1  0.250000  0.092765  0.988925  1
  Co  Co6  1  0.750000  0.593248  0.512132  1
  Co  Co7  1  0.750000  0.906752  0.012132  1
  Co  Co8  1  0.250000  0.221990  0.176453  1
  Co  Co9  1  0.250000  0.278010  0.676453  1
  Co  Co10  1  0.750000  0.777712  0.823536  1
  Co  Co11  1  0.750000  0.722288  0.323536  1
  Co  Co12  1  0.250000  0.885296  0.702659  1
  Co  Co13  1  0.250000  0.614704  0.202659  1
  Co  Co14  1  0.750000  0.113416  0.297024  1
  Co  Co15  1  0.750000  0.386584  0.797024  1
  Co  Co16  1  0.250000  0.464384  0.931039  1
  Co  Co17  1  0.250000  0.035616  0.431039  1
  Co  Co18  1  0.750000  0.536469  0.068288  1
  Co  Co19  1  0.750000  0.963531  0.568288  1
  Tc  Tc20  1  0.250000  0.711035  0.989980  1
  Tc  Tc21  1  0.250000  0.788965  0.489980  1
  Tc  Tc22  1  0.750000  0.289172  0.010388  1
  Tc  Tc23  1  0.750000  0.210828  0.510388  1
  P  P24  1  0.250000  0.421057  0.112934  1
  P  P25  1  0.250000  0.078943  0.612934  1
  P  P26  1  0.750000  0.579357  0.886224  1
  P  P27  1  0.750000  0.920643  0.386224  1
  P  P28  1  0.250000  0.269374  0.865440  1
  P  P29  1  0.250000  0.230626  0.365440  1
  P  P30  1  0.750000  0.731270  0.134935  1
  P  P31  1  0.750000  0.768730  0.634935  1
  P  P32  1  0.250000  0.596311  0.391165  1
  P  P33  1  0.250000  0.903689  0.891165  1
  P  P34  1  0.750000  0.404259  0.609062  1
  P  P35  1  0.750000  0.095741  0.109062  1
