# generated using pymatgen
data_NaDyH9W
_symmetry_space_group_name_H-M   'P 1'
_cell_length_a   8.53232300
_cell_length_b   8.53232198
_cell_length_c   5.03362300
_cell_angle_alpha   90.00000000
_cell_angle_beta   90.00000000
_cell_angle_gamma   120.00000785
_symmetry_Int_Tables_number   1
_chemical_formula_structural   NaDyH9W
_chemical_formula_sum   'Na3 Dy3 H27 W3'
_cell_volume   317.35533686
_cell_formula_units_Z   3
loop_
 _symmetry_equiv_pos_site_id
 _symmetry_equiv_pos_as_xyz
  1  'x, y, z'
loop_
 _atom_site_type_symbol
 _atom_site_label
 _atom_site_symmetry_multiplicity
 _atom_site_fract_x
 _atom_site_fract_y
 _atom_site_fract_z
 _atom_site_occupancy
  Na  Na0  1  0.000000  0.602178  0.000000  1
  Na  Na1  1  0.397822  0.397822  0.000000  1
  Na  Na2  1  0.602178  0.000000  0.000000  1
  Dy  Dy3  1  0.000000  0.262712  0.500000  1
  Dy  Dy4  1  0.737288  0.737288  0.500000  1
  Dy  Dy5  1  0.262712  0.000000  0.500000  1
  H  H6  1  0.821615  0.344021  0.748284  1
  H  H7  1  0.655979  0.477593  0.748284  1
  H  H8  1  0.522407  0.178385  0.748284  1
  H  H9  1  0.178385  0.522407  0.251716  1
  H  H10  1  0.522407  0.178385  0.251716  1
  H  H11  1  0.821615  0.344021  0.251716  1
  H  H12  1  0.655979  0.477593  0.251716  1
  H  H13  1  0.344021  0.821615  0.748284  1
  H  H14  1  0.477593  0.655979  0.748284  1
  H  H15  1  0.209700  0.000000  0.000000  1
  H  H16  1  0.790300  0.790300  0.000000  1
  H  H17  1  0.000000  0.209700  0.000000  1
  H  H18  1  0.847760  0.000000  0.263447  1
  H  H19  1  0.152240  0.152240  0.736553  1
  H  H20  1  0.000000  0.847760  0.736553  1
  H  H21  1  0.000000  0.847760  0.263447  1
  H  H22  1  0.152240  0.152240  0.263447  1
  H  H23  1  0.847760  0.000000  0.736553  1
  H  H24  1  0.136909  0.689561  0.500000  1
  H  H25  1  0.552651  0.863091  0.500000  1
  H  H26  1  0.310439  0.447349  0.500000  1
  H  H27  1  0.447349  0.310439  0.500000  1
  H  H28  1  0.863091  0.552651  0.500000  1
  H  H29  1  0.689561  0.136909  0.500000  1
  H  H30  1  0.178385  0.522407  0.748284  1
  H  H31  1  0.344021  0.821615  0.251716  1
  H  H32  1  0.477593  0.655979  0.251716  1
  W  W33  1  0.666667  0.333333  0.500000  1
  W  W34  1  0.333333  0.666667  0.500000  1
  W  W35  1  0.000000  0.000000  0.000000  1
