# generated using pymatgen
data_Ho12TlInFe2Os
_symmetry_space_group_name_H-M   'P 1'
_cell_length_a   8.33532758
_cell_length_b   8.33536716
_cell_length_c   8.33532600
_cell_angle_alpha   108.85808595
_cell_angle_beta   108.59133817
_cell_angle_gamma   110.97468778
_symmetry_Int_Tables_number   1
_chemical_formula_structural   Ho12TlInFe2Os
_chemical_formula_sum   'Ho12 Tl1 In1 Fe2 Os1'
_cell_volume   445.57606907
_cell_formula_units_Z   1
loop_
 _symmetry_equiv_pos_site_id
 _symmetry_equiv_pos_as_xyz
  1  'x, y, z'
loop_
 _atom_site_type_symbol
 _atom_site_label
 _atom_site_symmetry_multiplicity
 _atom_site_fract_x
 _atom_site_fract_y
 _atom_site_fract_z
 _atom_site_occupancy
  Ho  Ho0  1  0.430006  0.192268  0.237745  1
  Ho  Ho1  1  0.569994  0.807732  0.762255  1
  Ho  Ho2  1  0.954524  0.192268  0.762262  1
  Ho  Ho3  1  0.192795  0.954334  0.761538  1
  Ho  Ho4  1  0.045476  0.807732  0.237738  1
  Ho  Ho5  1  0.807205  0.045666  0.238462  1
  Ho  Ho6  1  0.192797  0.431263  0.238466  1
  Ho  Ho7  1  0.807203  0.568737  0.761534  1
  Ho  Ho8  1  0.307988  0.307061  0.615055  1
  Ho  Ho9  1  0.692012  0.692939  0.384945  1
  Ho  Ho10  1  0.307993  0.692939  0.000927  1
  Ho  Ho11  1  0.692007  0.307061  0.999073  1
  Tl  Tl12  1  0.000000  0.500000  0.500000  1
  In  In13  1  0.500000  0.000000  0.500000  1
  Fe  Fe14  1  0.386232  0.386238  0.000006  1
  Fe  Fe15  1  0.613768  0.613762  0.999994  1
  Os  Os16  1  0.000000  0.000000  0.000000  1
