# generated using pymatgen
data_HoCoH4
_symmetry_space_group_name_H-M   'P 1'
_cell_length_a   6.02980363
_cell_length_b   6.02980350
_cell_length_c   4.69419100
_cell_angle_alpha   90.00000000
_cell_angle_beta   90.00000000
_cell_angle_gamma   145.82550326
_symmetry_Int_Tables_number   1
_chemical_formula_structural   HoCoH4
_chemical_formula_sum   'Ho2 Co2 H8'
_cell_volume   95.87011366
_cell_formula_units_Z   2
loop_
 _symmetry_equiv_pos_site_id
 _symmetry_equiv_pos_as_xyz
  1  'x, y, z'
loop_
 _atom_site_type_symbol
 _atom_site_label
 _atom_site_symmetry_multiplicity
 _atom_site_fract_x
 _atom_site_fract_y
 _atom_site_fract_z
 _atom_site_occupancy
  Ho  Ho0  1  0.867122  0.132878  0.750000  1
  Ho  Ho1  1  0.132878  0.867122  0.250000  1
  Co  Co2  1  0.597251  0.402749  0.750000  1
  Co  Co3  1  0.402749  0.597251  0.250000  1
  H  H4  1  0.089089  0.910911  0.750000  1
  H  H5  1  0.910911  0.089089  0.250000  1
  H  H6  1  0.692485  0.307515  0.501129  1
  H  H7  1  0.307515  0.692485  0.498871  1
  H  H8  1  0.692485  0.307515  0.998871  1
  H  H9  1  0.307515  0.692485  0.001129  1
  H  H10  1  0.500000  0.500000  0.000000  1
  H  H11  1  0.500000  0.500000  0.500000  1
