# generated using pymatgen
data_Tb5Ho2(LuPb2)3
_symmetry_space_group_name_H-M   'P 1'
_cell_length_a   6.56174900
_cell_length_b   9.03727179
_cell_length_c   9.04314428
_cell_angle_alpha   120.01413263
_cell_angle_beta   89.99878070
_cell_angle_gamma   90.00231650
_symmetry_Int_Tables_number   1
_chemical_formula_structural   Tb5Ho2(LuPb2)3
_chemical_formula_sum   'Tb5 Ho2 Lu3 Pb6'
_cell_volume   464.34971543
_cell_formula_units_Z   1
loop_
 _symmetry_equiv_pos_site_id
 _symmetry_equiv_pos_as_xyz
  1  'x, y, z'
loop_
 _atom_site_type_symbol
 _atom_site_label
 _atom_site_symmetry_multiplicity
 _atom_site_fract_x
 _atom_site_fract_y
 _atom_site_fract_z
 _atom_site_occupancy
  Tb  Tb0  1  0.750176  0.237383  0.999847  1
  Tb  Tb1  1  0.750155  0.762654  0.762156  1
  Tb  Tb2  1  0.750189  0.000047  0.238379  1
  Tb  Tb3  1  0.249840  0.762453  0.999847  1
  Tb  Tb4  1  0.249839  0.237745  0.237548  1
  Ho  Ho5  1  0.249820  0.999824  0.762354  1
  Ho  Ho6  1  0.499888  0.333312  0.666767  1
  Lu  Lu7  1  0.499874  0.666601  0.333174  1
  Lu  Lu8  1  0.000108  0.666627  0.333175  1
  Lu  Lu9  1  0.000113  0.333348  0.666802  1
  Pb  Pb10  1  0.750828  0.603951  0.000797  1
  Pb  Pb11  1  0.750808  0.397054  0.396056  1
  Pb  Pb12  1  0.750857  0.999130  0.602915  1
  Pb  Pb13  1  0.249148  0.395747  0.000085  1
  Pb  Pb14  1  0.249216  0.605053  0.603419  1
  Pb  Pb15  1  0.249142  0.999072  0.396679  1
