# generated using pymatgen
data_Zr10InCu(BiPb)3
_symmetry_space_group_name_H-M   'P 1'
_cell_length_a   8.91013100
_cell_length_b   8.91013229
_cell_length_c   5.98211500
_cell_angle_alpha   90.00000000
_cell_angle_beta   90.00000000
_cell_angle_gamma   119.99999892
_symmetry_Int_Tables_number   1
_chemical_formula_structural   Zr10InCu(BiPb)3
_chemical_formula_sum   'Zr10 In1 Cu1 Bi3 Pb3'
_cell_volume   411.29519469
_cell_formula_units_Z   1
loop_
 _symmetry_equiv_pos_site_id
 _symmetry_equiv_pos_as_xyz
  1  'x, y, z'
loop_
 _atom_site_type_symbol
 _atom_site_label
 _atom_site_symmetry_multiplicity
 _atom_site_fract_x
 _atom_site_fract_y
 _atom_site_fract_z
 _atom_site_occupancy
  Zr  Zr0  1  0.666667  0.333333  0.001680  1
  Zr  Zr1  1  0.333333  0.666667  0.001680  1
  Zr  Zr2  1  0.333333  0.666667  0.498416  1
  Zr  Zr3  1  0.666667  0.333333  0.498416  1
  Zr  Zr4  1  0.729755  0.729755  0.765970  1
  Zr  Zr5  1  0.270245  0.000000  0.765970  1
  Zr  Zr6  1  0.000000  0.270245  0.765970  1
  Zr  Zr7  1  0.270290  0.270290  0.234129  1
  Zr  Zr8  1  0.729710  0.000000  0.234129  1
  Zr  Zr9  1  0.000000  0.729710  0.234129  1
  In  In10  1  0.000000  0.000000  0.499049  1
  Cu  Cu11  1  0.000000  0.000000  0.000848  1
  Bi  Bi12  1  0.385128  0.385128  0.745050  1
  Bi  Bi13  1  0.614872  0.000000  0.745050  1
  Bi  Bi14  1  0.000000  0.614872  0.745050  1
  Pb  Pb15  1  0.615863  0.615863  0.254822  1
  Pb  Pb16  1  0.384137  0.000000  0.254822  1
  Pb  Pb17  1  0.000000  0.384137  0.254822  1
