# generated using pymatgen
data_HfZr(SiIr)2
_symmetry_space_group_name_H-M   'P 1'
_cell_length_a   3.97353400
_cell_length_b   6.55598100
_cell_length_c   7.43218500
_cell_angle_alpha   90.00000000
_cell_angle_beta   90.00000000
_cell_angle_gamma   90.00000000
_symmetry_Int_Tables_number   1
_chemical_formula_structural   HfZr(SiIr)2
_chemical_formula_sum   'Hf2 Zr2 Si4 Ir4'
_cell_volume   193.61149177
_cell_formula_units_Z   2
loop_
 _symmetry_equiv_pos_site_id
 _symmetry_equiv_pos_as_xyz
  1  'x, y, z'
loop_
 _atom_site_type_symbol
 _atom_site_label
 _atom_site_symmetry_multiplicity
 _atom_site_fract_x
 _atom_site_fract_y
 _atom_site_fract_z
 _atom_site_occupancy
  Hf  Hf0  1  0.250000  0.019275  0.318713  1
  Hf  Hf1  1  0.250000  0.519275  0.181287  1
  Zr  Zr2  1  0.750000  0.981456  0.680660  1
  Zr  Zr3  1  0.750000  0.481456  0.819340  1
  Si  Si4  1  0.250000  0.277175  0.618758  1
  Si  Si5  1  0.250000  0.777175  0.881242  1
  Si  Si6  1  0.750000  0.722418  0.380342  1
  Si  Si7  1  0.750000  0.222418  0.119658  1
  Ir  Ir8  1  0.250000  0.152748  0.938881  1
  Ir  Ir9  1  0.250000  0.652748  0.561119  1
  Ir  Ir10  1  0.750000  0.846928  0.068355  1
  Ir  Ir11  1  0.750000  0.346928  0.431645  1
