# generated using pymatgen
data_SrNpPdS3
_symmetry_space_group_name_H-M   'P 1'
_cell_length_a   6.84323257
_cell_length_b   6.84323225
_cell_length_c   10.17185912
_cell_angle_alpha   90.01614862
_cell_angle_beta   89.98385321
_cell_angle_gamma   145.71095445
_symmetry_Int_Tables_number   1
_chemical_formula_structural   SrNpPdS3
_chemical_formula_sum   'Sr2 Np2 Pd2 S6'
_cell_volume   268.35837027
_cell_formula_units_Z   2
loop_
 _symmetry_equiv_pos_site_id
 _symmetry_equiv_pos_as_xyz
  1  'x, y, z'
loop_
 _atom_site_type_symbol
 _atom_site_label
 _atom_site_symmetry_multiplicity
 _atom_site_fract_x
 _atom_site_fract_y
 _atom_site_fract_z
 _atom_site_occupancy
  Sr  Sr0  1  0.249273  0.750725  0.250032  1
  Sr  Sr1  1  0.750725  0.249273  0.749968  1
  Np  Np2  1  0.499999  0.499999  0.000000  1
  Np  Np3  1  0.499999  0.499999  0.500000  1
  Pd  Pd4  1  0.972152  0.027847  0.249894  1
  Pd  Pd5  1  0.027847  0.972152  0.750106  1
  S  S6  1  0.862953  0.137045  0.057119  1
  S  S7  1  0.582083  0.417915  0.249873  1
  S  S8  1  0.862861  0.137137  0.442816  1
  S  S9  1  0.137137  0.862861  0.557184  1
  S  S10  1  0.417915  0.582083  0.750127  1
  S  S11  1  0.137045  0.862953  0.942881  1
