# generated using pymatgen
data_Y8Lu2(IrPt)3
_symmetry_space_group_name_H-M   'P 1'
_cell_length_a   11.01651419
_cell_length_b   11.01100100
_cell_length_c   6.35030069
_cell_angle_alpha   90.00000000
_cell_angle_beta   90.05330823
_cell_angle_gamma   90.00000000
_symmetry_Int_Tables_number   1
_chemical_formula_structural   Y8Lu2(IrPt)3
_chemical_formula_sum   'Y16 Lu4 Ir6 Pt6'
_cell_volume   770.30923058
_cell_formula_units_Z   2
loop_
 _symmetry_equiv_pos_site_id
 _symmetry_equiv_pos_as_xyz
  1  'x, y, z'
loop_
 _atom_site_type_symbol
 _atom_site_label
 _atom_site_symmetry_multiplicity
 _atom_site_fract_x
 _atom_site_fract_y
 _atom_site_fract_z
 _atom_site_occupancy
  Y  Y0  1  0.293959  0.089410  0.375561  1
  Y  Y1  1  0.293959  0.910590  0.875561  1
  Y  Y2  1  0.706493  0.086414  0.875570  1
  Y  Y3  1  0.706493  0.913586  0.375570  1
  Y  Y4  1  0.583466  0.790971  0.875515  1
  Y  Y5  1  0.583466  0.209029  0.375515  1
  Y  Y6  1  0.412362  0.791071  0.380113  1
  Y  Y7  1  0.412362  0.208929  0.880113  1
  Y  Y8  1  0.210691  0.415059  0.621164  1
  Y  Y9  1  0.210691  0.584941  0.121164  1
  Y  Y10  1  0.793047  0.413672  0.123161  1
  Y  Y11  1  0.793047  0.586328  0.623161  1
  Y  Y12  1  0.914046  0.706457  0.124300  1
  Y  Y13  1  0.914046  0.293543  0.624300  1
  Y  Y14  1  0.089725  0.706159  0.624663  1
  Y  Y15  1  0.089725  0.293841  0.124663  1
  Lu  Lu16  1  0.999945  0.999906  0.499956  1
  Lu  Lu17  1  0.999945  0.000094  0.999956  1
  Lu  Lu18  1  0.497051  0.499590  0.000030  1
  Lu  Lu19  1  0.497051  0.500410  0.500030  1
  Ir  Ir20  1  0.349778  0.349149  0.249948  1
  Ir  Ir21  1  0.349778  0.650851  0.749948  1
  Ir  Ir22  1  0.500339  0.999863  0.125014  1
  Ir  Ir23  1  0.500339  0.000137  0.625014  1
  Ir  Ir24  1  0.999231  0.500049  0.874919  1
  Ir  Ir25  1  0.999231  0.499951  0.374919  1
  Pt  Pt26  1  0.850234  0.149687  0.250182  1
  Pt  Pt27  1  0.850234  0.850313  0.750182  1
  Pt  Pt28  1  0.149066  0.149197  0.749769  1
  Pt  Pt29  1  0.149066  0.850803  0.249769  1
  Pt  Pt30  1  0.650567  0.349822  0.750137  1
  Pt  Pt31  1  0.650567  0.650178  0.250137  1
