# generated using pymatgen
data_Tm4Ga5Ru3
_symmetry_space_group_name_H-M   'P 1'
_cell_length_a   5.33976313
_cell_length_b   5.37367299
_cell_length_c   8.77319900
_cell_angle_alpha   90.00000000
_cell_angle_beta   90.00000000
_cell_angle_gamma   120.21033212
_symmetry_Int_Tables_number   1
_chemical_formula_structural   Tm4Ga5Ru3
_chemical_formula_sum   'Tm4 Ga5 Ru3'
_cell_volume   217.54918878
_cell_formula_units_Z   1
loop_
 _symmetry_equiv_pos_site_id
 _symmetry_equiv_pos_as_xyz
  1  'x, y, z'
loop_
 _atom_site_type_symbol
 _atom_site_label
 _atom_site_symmetry_multiplicity
 _atom_site_fract_x
 _atom_site_fract_y
 _atom_site_fract_z
 _atom_site_occupancy
  Tm  Tm0  1  0.660354  0.330153  0.553997  1
  Tm  Tm1  1  0.340312  0.670171  0.440619  1
  Tm  Tm2  1  0.340312  0.670171  0.059381  1
  Tm  Tm3  1  0.660354  0.330153  0.946003  1
  Ga  Ga4  1  0.162387  0.331249  0.750000  1
  Ga  Ga5  1  0.162388  0.831154  0.750000  1
  Ga  Ga6  1  0.667947  0.833972  0.750000  1
  Ga  Ga7  1  0.836433  0.666613  0.250000  1
  Ga  Ga8  1  0.836438  0.169807  0.250000  1
  Ru  Ru9  1  0.993893  0.996949  0.501459  1
  Ru  Ru10  1  0.993893  0.996949  0.998541  1
  Ru  Ru11  1  0.345288  0.172658  0.250000  1
