# generated using pymatgen
data_Nd5Th3(Si3Rh)4
_symmetry_space_group_name_H-M   'P 1'
_cell_length_a   8.21344541
_cell_length_b   8.25936941
_cell_length_c   8.37907700
_cell_angle_alpha   90.00000000
_cell_angle_beta   90.00000000
_cell_angle_gamma   119.40702953
_symmetry_Int_Tables_number   1
_chemical_formula_structural   Nd5Th3(Si3Rh)4
_chemical_formula_sum   'Nd5 Th3 Si12 Rh4'
_cell_volume   495.18008593
_cell_formula_units_Z   1
loop_
 _symmetry_equiv_pos_site_id
 _symmetry_equiv_pos_as_xyz
  1  'x, y, z'
loop_
 _atom_site_type_symbol
 _atom_site_label
 _atom_site_symmetry_multiplicity
 _atom_site_fract_x
 _atom_site_fract_y
 _atom_site_fract_z
 _atom_site_occupancy
  Nd  Nd0  1  0.999838  0.499969  0.250000  1
  Nd  Nd1  1  0.499975  0.999968  0.750000  1
  Nd  Nd2  1  0.500086  0.000076  0.250000  1
  Nd  Nd3  1  0.000008  0.000002  0.750000  1
  Nd  Nd4  1  0.999971  0.000002  0.250000  1
  Th  Th5  1  0.500150  0.500008  0.750000  1
  Th  Th6  1  0.500016  0.499980  0.250000  1
  Th  Th7  1  0.999896  0.500005  0.750000  1
  Si  Si8  1  0.830077  0.167373  0.999941  1
  Si  Si9  1  0.169947  0.832631  0.000134  1
  Si  Si10  1  0.332330  0.163614  0.999949  1
  Si  Si11  1  0.169947  0.832631  0.499866  1
  Si  Si12  1  0.667656  0.836389  0.000054  1
  Si  Si13  1  0.830077  0.167373  0.500059  1
  Si  Si14  1  0.837515  0.672557  0.000296  1
  Si  Si15  1  0.667656  0.836389  0.499946  1
  Si  Si16  1  0.162495  0.327473  0.000400  1
  Si  Si17  1  0.332330  0.163614  0.500051  1
  Si  Si18  1  0.162495  0.327473  0.499600  1
  Si  Si19  1  0.837515  0.672557  0.499704  1
  Rh  Rh20  1  0.666632  0.342584  0.995766  1
  Rh  Rh21  1  0.333379  0.657374  0.995977  1
  Rh  Rh22  1  0.333379  0.657374  0.504023  1
  Rh  Rh23  1  0.666632  0.342584  0.504234  1
