# generated using pymatgen
data_Er5CoAuO12
_symmetry_space_group_name_H-M   'P 1'
_cell_length_a   6.79318796
_cell_length_b   6.79318834
_cell_length_c   7.14771956
_cell_angle_alpha   74.56072189
_cell_angle_beta   74.56072263
_cell_angle_gamma   50.83912098
_symmetry_Int_Tables_number   1
_chemical_formula_structural   Er5CoAuO12
_chemical_formula_sum   'Er5 Co1 Au1 O12'
_cell_volume   244.39439914
_cell_formula_units_Z   1
loop_
 _symmetry_equiv_pos_site_id
 _symmetry_equiv_pos_as_xyz
  1  'x, y, z'
loop_
 _atom_site_type_symbol
 _atom_site_label
 _atom_site_symmetry_multiplicity
 _atom_site_fract_x
 _atom_site_fract_y
 _atom_site_fract_z
 _atom_site_occupancy
  Er  Er0  1  0.292276  0.308008  0.360266  1
  Er  Er1  1  0.691992  0.707724  0.639734  1
  Er  Er2  1  0.307141  0.304879  0.832841  1
  Er  Er3  1  0.695121  0.692859  0.167159  1
  Er  Er4  1  0.002699  0.997301  0.500000  1
  Co  Co5  1  0.249032  0.750968  0.000000  1
  Au  Au6  1  0.755638  0.244362  0.000000  1
  O  O7  1  0.906719  0.434896  0.914579  1
  O  O8  1  0.422686  0.896647  0.919303  1
  O  O9  1  0.103353  0.577314  0.080697  1
  O  O10  1  0.565104  0.093281  0.085421  1
  O  O11  1  0.095355  0.600059  0.573777  1
  O  O12  1  0.597708  0.100371  0.573528  1
  O  O13  1  0.899629  0.402292  0.426472  1
  O  O14  1  0.399941  0.904645  0.426223  1
  O  O15  1  0.019072  0.981752  0.817327  1
  O  O16  1  0.018248  0.980928  0.182673  1
  O  O17  1  0.489592  0.511306  0.812864  1
  O  O18  1  0.488694  0.510408  0.187136  1
