# generated using pymatgen
data_Sm8Si13Ni3
_symmetry_space_group_name_H-M   'P 1'
_cell_length_a   8.08569700
_cell_length_b   8.08569724
_cell_length_c   8.52994700
_cell_angle_alpha   90.00000000
_cell_angle_beta   90.00000000
_cell_angle_gamma   120.00000310
_symmetry_Int_Tables_number   1
_chemical_formula_structural   Sm8Si13Ni3
_chemical_formula_sum   'Sm8 Si13 Ni3'
_cell_volume   482.96080788
_cell_formula_units_Z   1
loop_
 _symmetry_equiv_pos_site_id
 _symmetry_equiv_pos_as_xyz
  1  'x, y, z'
loop_
 _atom_site_type_symbol
 _atom_site_label
 _atom_site_symmetry_multiplicity
 _atom_site_fract_x
 _atom_site_fract_y
 _atom_site_fract_z
 _atom_site_occupancy
  Sm  Sm0  1  0.000001  0.000001  0.747667  1
  Sm  Sm1  1  0.000001  0.000000  0.252366  1
  Sm  Sm2  1  0.498637  0.501365  0.749772  1
  Sm  Sm3  1  0.498635  0.997271  0.749772  1
  Sm  Sm4  1  0.002728  0.501365  0.749771  1
  Sm  Sm5  1  0.499102  0.500900  0.250352  1
  Sm  Sm6  1  0.001798  0.500900  0.250352  1
  Sm  Sm7  1  0.499101  0.998201  0.250351  1
  Si  Si8  1  0.824198  0.175807  0.999651  1
  Si  Si9  1  0.824196  0.648390  0.999651  1
  Si  Si10  1  0.351610  0.175806  0.999651  1
  Si  Si11  1  0.827961  0.172043  0.500420  1
  Si  Si12  1  0.827961  0.655921  0.500420  1
  Si  Si13  1  0.344083  0.172043  0.500420  1
  Si  Si14  1  0.171818  0.828174  0.499751  1
  Si  Si15  1  0.656355  0.828174  0.499750  1
  Si  Si16  1  0.171819  0.343641  0.499750  1
  Si  Si17  1  0.161905  0.838092  0.000191  1
  Si  Si18  1  0.676184  0.838092  0.000190  1
  Si  Si19  1  0.161904  0.323810  0.000190  1
  Si  Si20  1  0.333335  0.666668  0.001069  1
  Ni  Ni21  1  0.666664  0.333334  0.999102  1
  Ni  Ni22  1  0.666669  0.333337  0.500659  1
  Ni  Ni23  1  0.333333  0.666663  0.498732  1
