# generated using pymatgen
data_RbCr(SeO3)2
_symmetry_space_group_name_H-M   'P 1'
_cell_length_a   5.51282900
_cell_length_b   8.34410004
_cell_length_c   13.21201200
_cell_angle_alpha   89.99419084
_cell_angle_beta   90.00047809
_cell_angle_gamma   89.99967045
_symmetry_Int_Tables_number   1
_chemical_formula_structural   RbCr(SeO3)2
_chemical_formula_sum   'Rb4 Cr4 Se8 O24'
_cell_volume   607.74722041
_cell_formula_units_Z   4
loop_
 _symmetry_equiv_pos_site_id
 _symmetry_equiv_pos_as_xyz
  1  'x, y, z'
loop_
 _atom_site_type_symbol
 _atom_site_label
 _atom_site_symmetry_multiplicity
 _atom_site_fract_x
 _atom_site_fract_y
 _atom_site_fract_z
 _atom_site_occupancy
  Rb  Rb0  1  0.250033  0.513046  0.876804  1
  Rb  Rb1  1  0.250030  0.987025  0.376796  1
  Rb  Rb2  1  0.749997  0.487022  0.123221  1
  Rb  Rb3  1  0.749988  0.012936  0.623230  1
  Cr  Cr4  1  0.250034  0.809008  0.106546  1
  Cr  Cr5  1  0.749887  0.309009  0.393527  1
  Cr  Cr6  1  0.249988  0.690991  0.606402  1
  Cr  Cr7  1  0.750223  0.190951  0.893402  1
  Se  Se8  1  0.750021  0.017384  0.200070  1
  Se  Se9  1  0.250016  0.982591  0.799967  1
  Se  Se10  1  0.249957  0.517387  0.299965  1
  Se  Se11  1  0.750017  0.799284  0.943426  1
  Se  Se12  1  0.749981  0.700786  0.443356  1
  Se  Se13  1  0.250018  0.200812  0.056613  1
  Se  Se14  1  0.750002  0.482569  0.700018  1
  Se  Se15  1  0.249915  0.299232  0.556610  1
  O  O16  1  0.508113  0.615630  0.705619  1
  O  O17  1  0.008063  0.384324  0.294350  1
  O  O18  1  0.250023  0.003850  0.021264  1
  O  O19  1  0.493733  0.221241  0.490392  1
  O  O20  1  0.249996  0.581779  0.174700  1
  O  O21  1  0.006146  0.221254  0.490372  1
  O  O22  1  0.991911  0.884316  0.205704  1
  O  O23  1  0.249961  0.496197  0.521179  1
  O  O24  1  0.991897  0.615639  0.705621  1
  O  O25  1  0.506202  0.778735  0.509609  1
  O  O26  1  0.749957  0.503804  0.478758  1
  O  O27  1  0.993823  0.721303  0.009660  1
  O  O28  1  0.008141  0.115680  0.794335  1
  O  O29  1  0.249996  0.918190  0.674718  1
  O  O30  1  0.508183  0.884283  0.205687  1
  O  O31  1  0.491811  0.384288  0.294341  1
  O  O32  1  0.993782  0.778739  0.509613  1
  O  O33  1  0.491878  0.115674  0.794339  1
  O  O34  1  0.506230  0.721310  0.009662  1
  O  O35  1  0.750021  0.996230  0.978794  1
  O  O36  1  0.006198  0.278766  0.990354  1
  O  O37  1  0.493821  0.278764  0.990365  1
  O  O38  1  0.750009  0.418212  0.825283  1
  O  O39  1  0.749995  0.081756  0.325327  1
