# generated using pymatgen
data_Er4Ta4Co11P12Ru5
_symmetry_space_group_name_H-M   'P 1'
_cell_length_a   3.68724700
_cell_length_b   10.73938545
_cell_length_c   12.19182189
_cell_angle_alpha   90.12568647
_cell_angle_beta   90.00000000
_cell_angle_gamma   90.00000000
_symmetry_Int_Tables_number   1
_chemical_formula_structural   Er4Ta4Co11P12Ru5
_chemical_formula_sum   'Er4 Ta4 Co11 P12 Ru5'
_cell_volume   482.77995006
_cell_formula_units_Z   1
loop_
 _symmetry_equiv_pos_site_id
 _symmetry_equiv_pos_as_xyz
  1  'x, y, z'
loop_
 _atom_site_type_symbol
 _atom_site_label
 _atom_site_symmetry_multiplicity
 _atom_site_fract_x
 _atom_site_fract_y
 _atom_site_fract_z
 _atom_site_occupancy
  Er  Er0  1  0.250000  0.584140  0.709190  1
  Er  Er1  1  0.250000  0.917702  0.210246  1
  Er  Er2  1  0.750000  0.418692  0.291261  1
  Er  Er3  1  0.750000  0.083147  0.789746  1
  Ta  Ta4  1  0.250000  0.701859  0.987479  1
  Ta  Ta5  1  0.250000  0.797580  0.487314  1
  Ta  Ta6  1  0.750000  0.299940  0.009480  1
  Ta  Ta7  1  0.750000  0.200796  0.514859  1
  Co  Co8  1  0.250000  0.270998  0.678998  1
  Co  Co9  1  0.750000  0.771849  0.820523  1
  Co  Co10  1  0.750000  0.727863  0.320390  1
  Co  Co11  1  0.250000  0.884221  0.697730  1
  Co  Co12  1  0.250000  0.616218  0.198050  1
  Co  Co13  1  0.750000  0.109452  0.307363  1
  Co  Co14  1  0.750000  0.386746  0.800423  1
  Co  Co15  1  0.250000  0.465390  0.932820  1
  Co  Co16  1  0.250000  0.034990  0.437656  1
  Co  Co17  1  0.750000  0.537740  0.064456  1
  Co  Co18  1  0.750000  0.962900  0.566706  1
  P  P19  1  0.250000  0.428929  0.115610  1
  P  P20  1  0.250000  0.073612  0.618666  1
  P  P21  1  0.750000  0.575680  0.881885  1
  P  P22  1  0.750000  0.923506  0.383664  1
  P  P23  1  0.250000  0.271137  0.858758  1
  P  P24  1  0.250000  0.230379  0.366940  1
  P  P25  1  0.750000  0.730238  0.139271  1
  P  P26  1  0.750000  0.770271  0.639303  1
  P  P27  1  0.250000  0.591335  0.382470  1
  P  P28  1  0.250000  0.906724  0.880534  1
  P  P29  1  0.750000  0.409969  0.617441  1
  P  P30  1  0.750000  0.091263  0.116481  1
  Ru  Ru31  1  0.250000  0.401690  0.492434  1
  Ru  Ru32  1  0.250000  0.097472  0.983341  1
  Ru  Ru33  1  0.750000  0.600279  0.509947  1
  Ru  Ru34  1  0.750000  0.900680  0.009529  1
  Ru  Ru35  1  0.250000  0.224614  0.179035  1
