# generated using pymatgen
data_Eu9YSe10
_symmetry_space_group_name_H-M   'P 1'
_cell_length_a   7.46103607
_cell_length_b   8.61043516
_cell_length_c   9.62069927
_cell_angle_alpha   102.87676122
_cell_angle_beta   97.47434842
_cell_angle_gamma   106.81288194
_symmetry_Int_Tables_number   1
_chemical_formula_structural   Eu9YSe10
_chemical_formula_sum   'Eu9 Y1 Se10'
_cell_volume   564.08979366
_cell_formula_units_Z   1
loop_
 _symmetry_equiv_pos_site_id
 _symmetry_equiv_pos_as_xyz
  1  'x, y, z'
loop_
 _atom_site_type_symbol
 _atom_site_label
 _atom_site_symmetry_multiplicity
 _atom_site_fract_x
 _atom_site_fract_y
 _atom_site_fract_z
 _atom_site_occupancy
  Eu  Eu0  1  0.800934  0.599827  0.598769  1
  Eu  Eu1  1  0.596255  0.198793  0.199111  1
  Eu  Eu2  1  0.403745  0.801207  0.800889  1
  Eu  Eu3  1  0.599567  0.699826  0.199664  1
  Eu  Eu4  1  0.199066  0.400173  0.401231  1
  Eu  Eu5  1  0.400433  0.300174  0.800336  1
  Eu  Eu6  1  0.000000  0.000000  0.000000  1
  Eu  Eu7  1  0.199637  0.900038  0.400075  1
  Eu  Eu8  1  0.800363  0.099962  0.599925  1
  Y  Y9  1  0.000000  0.500000  0.000000  1
  Se  Se10  1  0.708751  0.645878  0.902297  1
  Se  Se11  1  0.499740  0.250180  0.499583  1
  Se  Se12  1  0.708222  0.159736  0.903218  1
  Se  Se13  1  0.291778  0.840264  0.096782  1
  Se  Se14  1  0.500260  0.749820  0.500417  1
  Se  Se15  1  0.098288  0.452355  0.709116  1
  Se  Se16  1  0.291249  0.354122  0.097703  1
  Se  Se17  1  0.898840  0.050458  0.299963  1
  Se  Se18  1  0.101160  0.949542  0.700037  1
  Se  Se19  1  0.901712  0.547645  0.290884  1
