# generated using pymatgen
data_Dy3Er2Zr3Pt4
_symmetry_space_group_name_H-M   'P 1'
_cell_length_a   4.72829000
_cell_length_b   7.11306564
_cell_length_c   8.33512448
_cell_angle_alpha   90.62104430
_cell_angle_beta   90.00000000
_cell_angle_gamma   90.00000000
_symmetry_Int_Tables_number   1
_chemical_formula_structural   Dy3Er2Zr3Pt4
_chemical_formula_sum   'Dy3 Er2 Zr3 Pt4'
_cell_volume   280.31574923
_cell_formula_units_Z   1
loop_
 _symmetry_equiv_pos_site_id
 _symmetry_equiv_pos_as_xyz
  1  'x, y, z'
loop_
 _atom_site_type_symbol
 _atom_site_label
 _atom_site_symmetry_multiplicity
 _atom_site_fract_x
 _atom_site_fract_y
 _atom_site_fract_z
 _atom_site_occupancy
  Dy  Dy0  1  0.250000  0.010271  0.325982  1
  Dy  Dy1  1  0.250000  0.519094  0.170656  1
  Dy  Dy2  1  0.750000  0.485013  0.821298  1
  Er  Er3  1  0.750000  0.353202  0.417062  1
  Er  Er4  1  0.750000  0.982110  0.681430  1
  Zr  Zr5  1  0.250000  0.144004  0.921745  1
  Zr  Zr6  1  0.250000  0.646458  0.580084  1
  Zr  Zr7  1  0.750000  0.852062  0.080009  1
  Pt  Pt8  1  0.250000  0.263971  0.604140  1
  Pt  Pt9  1  0.250000  0.769541  0.906172  1
  Pt  Pt10  1  0.750000  0.745329  0.409468  1
  Pt  Pt11  1  0.750000  0.228944  0.081952  1
