# generated using pymatgen
data_MnFe7P4
_symmetry_space_group_name_H-M   'P 1'
_cell_length_a   3.55301700
_cell_length_b   5.66863118
_cell_length_c   6.58089234
_cell_angle_alpha   89.98263837
_cell_angle_beta   90.00000000
_cell_angle_gamma   90.00000000
_symmetry_Int_Tables_number   1
_chemical_formula_structural   MnFe7P4
_chemical_formula_sum   'Mn1 Fe7 P4'
_cell_volume   132.54405495
_cell_formula_units_Z   1
loop_
 _symmetry_equiv_pos_site_id
 _symmetry_equiv_pos_as_xyz
  1  'x, y, z'
loop_
 _atom_site_type_symbol
 _atom_site_label
 _atom_site_symmetry_multiplicity
 _atom_site_fract_x
 _atom_site_fract_y
 _atom_site_fract_z
 _atom_site_occupancy
  Mn  Mn0  1  0.500000  0.533321  0.676237  1
  Fe  Fe1  1  0.500000  0.643829  0.066469  1
  Fe  Fe2  1  0.500000  0.149079  0.435832  1
  Fe  Fe3  1  0.000000  0.356461  0.933179  1
  Fe  Fe4  1  0.000000  0.849301  0.562151  1
  Fe  Fe5  1  0.500000  0.025403  0.832348  1
  Fe  Fe6  1  0.000000  0.467203  0.325553  1
  Fe  Fe7  1  0.000000  0.974469  0.169827  1
  P  P8  1  0.500000  0.256941  0.116256  1
  P  P9  1  0.500000  0.768891  0.373905  1
  P  P10  1  0.000000  0.745213  0.883945  1
  P  P11  1  0.000000  0.229887  0.624296  1
