# generated using pymatgen
data_Tb6DyCo6Sn23
_symmetry_space_group_name_H-M   'P 1'
_cell_length_a   9.72528602
_cell_length_b   9.72472270
_cell_length_c   9.99736408
_cell_angle_alpha   90.00830526
_cell_angle_beta   90.00645510
_cell_angle_gamma   120.00477026
_symmetry_Int_Tables_number   1
_chemical_formula_structural   Tb6DyCo6Sn23
_chemical_formula_sum   'Tb6 Dy1 Co6 Sn23'
_cell_volume   818.79438707
_cell_formula_units_Z   1
loop_
 _symmetry_equiv_pos_site_id
 _symmetry_equiv_pos_as_xyz
  1  'x, y, z'
loop_
 _atom_site_type_symbol
 _atom_site_label
 _atom_site_symmetry_multiplicity
 _atom_site_fract_x
 _atom_site_fract_y
 _atom_site_fract_z
 _atom_site_occupancy
  Tb  Tb0  1  0.999963  0.000003  0.000059  1
  Tb  Tb1  1  0.521669  0.478287  0.694198  1
  Tb  Tb2  1  0.478326  0.956654  0.305716  1
  Tb  Tb3  1  0.521595  0.043322  0.694257  1
  Tb  Tb4  1  0.043323  0.521665  0.305713  1
  Tb  Tb5  1  0.956692  0.478394  0.694272  1
  Dy  Dy6  1  0.478522  0.521478  0.305662  1
  Co  Co7  1  0.832703  0.167328  0.196770  1
  Co  Co8  1  0.167327  0.832620  0.803295  1
  Co  Co9  1  0.832352  0.665157  0.196859  1
  Co  Co10  1  0.167370  0.334768  0.803190  1
  Co  Co11  1  0.334843  0.167662  0.196848  1
  Co  Co12  1  0.665262  0.832629  0.803182  1
  Sn  Sn13  1  0.345722  0.000028  0.000019  1
  Sn  Sn14  1  0.654292  0.999969  0.999982  1
  Sn  Sn15  1  0.000051  0.345750  0.999990  1
  Sn  Sn16  1  0.999946  0.654306  0.000048  1
  Sn  Sn17  1  0.654287  0.654306  0.000034  1
  Sn  Sn18  1  0.345727  0.345785  0.000022  1
  Sn  Sn19  1  0.333354  0.666701  0.818030  1
  Sn  Sn20  1  0.666605  0.333380  0.182047  1
  Sn  Sn21  1  0.999980  0.000024  0.499991  1
  Sn  Sn22  1  0.781243  0.218766  0.451521  1
  Sn  Sn23  1  0.218726  0.781240  0.548466  1
  Sn  Sn24  1  0.780985  0.562473  0.451406  1
  Sn  Sn25  1  0.218919  0.437572  0.548326  1
  Sn  Sn26  1  0.437538  0.219029  0.451410  1
  Sn  Sn27  1  0.562402  0.781063  0.548322  1
  Sn  Sn28  1  0.333646  0.666317  0.115694  1
  Sn  Sn29  1  0.666665  0.333353  0.884582  1
  Sn  Sn30  1  0.117671  0.882331  0.274886  1
  Sn  Sn31  1  0.882312  0.117695  0.725116  1
  Sn  Sn32  1  0.117988  0.235658  0.274943  1
  Sn  Sn33  1  0.882249  0.764579  0.725116  1
  Sn  Sn34  1  0.764326  0.881993  0.274922  1
  Sn  Sn35  1  0.235418  0.117714  0.725106  1
