# generated using pymatgen
data_Tb11Tl8InIr3Pd
_symmetry_space_group_name_H-M   'P 1'
_cell_length_a   13.26751693
_cell_length_b   13.27553176
_cell_length_c   3.72689000
_cell_angle_alpha   90.00000000
_cell_angle_beta   90.00000000
_cell_angle_gamma   110.82179497
_symmetry_Int_Tables_number   1
_chemical_formula_structural   Tb11Tl8InIr3Pd
_chemical_formula_sum   'Tb11 Tl8 In1 Ir3 Pd1'
_cell_volume   613.55852236
_cell_formula_units_Z   1
loop_
 _symmetry_equiv_pos_site_id
 _symmetry_equiv_pos_as_xyz
  1  'x, y, z'
loop_
 _atom_site_type_symbol
 _atom_site_label
 _atom_site_symmetry_multiplicity
 _atom_site_fract_x
 _atom_site_fract_y
 _atom_site_fract_z
 _atom_site_occupancy
  Tb  Tb0  1  0.419734  0.083905  0.000000  1
  Tb  Tb1  1  0.579555  0.916724  0.000000  1
  Tb  Tb2  1  0.085329  0.420394  0.000000  1
  Tb  Tb3  1  0.921973  0.581441  0.000000  1
  Tb  Tb4  1  0.161442  0.840478  0.000000  1
  Tb  Tb5  1  0.839344  0.159879  0.000000  1
  Tb  Tb6  1  0.373897  0.623515  0.000000  1
  Tb  Tb7  1  0.618060  0.366907  0.000000  1
  Tb  Tb8  1  0.312726  0.313420  0.000000  1
  Tb  Tb9  1  0.682801  0.691498  0.000000  1
  Tb  Tb10  1  0.000470  0.000142  0.000000  1
  Tl  Tl11  1  0.367863  0.844284  0.500000  1
  Tl  Tl12  1  0.633036  0.154905  0.500000  1
  Tl  Tl13  1  0.846332  0.369334  0.500000  1
  Tl  Tl14  1  0.155537  0.632068  0.500000  1
  Tl  Tl15  1  0.216474  0.070893  0.500000  1
  Tl  Tl16  1  0.783822  0.929900  0.500000  1
  Tl  Tl17  1  0.070355  0.217037  0.500000  1
  Tl  Tl18  1  0.930660  0.782888  0.500000  1
  In  In19  1  0.499999  0.500510  0.500000  1
  Ir  Ir20  1  0.451832  0.249320  0.500000  1
  Ir  Ir21  1  0.549312  0.751373  0.500000  1
  Ir  Ir22  1  0.249624  0.450271  0.500000  1
  Pd  Pd23  1  0.749828  0.548912  0.500000  1
