# generated using pymatgen
data_YbNb8VS16
_symmetry_space_group_name_H-M   'P 1'
_cell_length_a   6.72838000
_cell_length_b   6.72838049
_cell_length_c   13.18028500
_cell_angle_alpha   90.00000000
_cell_angle_beta   90.00000000
_cell_angle_gamma   120.00000740
_symmetry_Int_Tables_number   1
_chemical_formula_structural   YbNb8VS16
_chemical_formula_sum   'Yb1 Nb8 V1 S16'
_cell_volume   516.74520435
_cell_formula_units_Z   1
loop_
 _symmetry_equiv_pos_site_id
 _symmetry_equiv_pos_as_xyz
  1  'x, y, z'
loop_
 _atom_site_type_symbol
 _atom_site_label
 _atom_site_symmetry_multiplicity
 _atom_site_fract_x
 _atom_site_fract_y
 _atom_site_fract_z
 _atom_site_occupancy
  Yb  Yb0  1  0.000000  0.000000  0.000000  1
  Nb  Nb1  1  0.000000  0.000000  0.267267  1
  Nb  Nb2  1  0.000000  0.000000  0.732733  1
  Nb  Nb3  1  0.504553  0.009105  0.268909  1
  Nb  Nb4  1  0.495447  0.990895  0.731091  1
  Nb  Nb5  1  0.990895  0.495447  0.268909  1
  Nb  Nb6  1  0.009105  0.504553  0.731091  1
  Nb  Nb7  1  0.504553  0.495447  0.268909  1
  Nb  Nb8  1  0.495447  0.504553  0.731091  1
  V  V9  1  0.000000  0.000000  0.500000  1
  S  S10  1  0.333333  0.666667  0.611842  1
  S  S11  1  0.666667  0.333333  0.388158  1
  S  S12  1  0.666667  0.333333  0.147376  1
  S  S13  1  0.333333  0.666667  0.852624  1
  S  S14  1  0.168386  0.336771  0.149557  1
  S  S15  1  0.831614  0.663229  0.850443  1
  S  S16  1  0.663229  0.831614  0.149557  1
  S  S17  1  0.834792  0.669585  0.613187  1
  S  S18  1  0.336771  0.168386  0.850443  1
  S  S19  1  0.165208  0.330415  0.386813  1
  S  S20  1  0.168386  0.831614  0.149557  1
  S  S21  1  0.330415  0.165208  0.613187  1
  S  S22  1  0.831614  0.168386  0.850443  1
  S  S23  1  0.669585  0.834792  0.386813  1
  S  S24  1  0.834792  0.165208  0.613187  1
  S  S25  1  0.165208  0.834792  0.386813  1
