# generated using pymatgen
data_DyY2(TmSb4)5
_symmetry_space_group_name_H-M   'P 1'
_cell_length_a   4.20962500
_cell_length_b   13.19096139
_cell_length_c   14.59171570
_cell_angle_alpha   78.39033446
_cell_angle_beta   90.00000000
_cell_angle_gamma   90.00000000
_symmetry_Int_Tables_number   1
_chemical_formula_structural   DyY2(TmSb4)5
_chemical_formula_sum   'Dy1 Y2 Tm5 Sb20'
_cell_volume   793.68646942
_cell_formula_units_Z   1
loop_
 _symmetry_equiv_pos_site_id
 _symmetry_equiv_pos_as_xyz
  1  'x, y, z'
loop_
 _atom_site_type_symbol
 _atom_site_label
 _atom_site_symmetry_multiplicity
 _atom_site_fract_x
 _atom_site_fract_y
 _atom_site_fract_z
 _atom_site_occupancy
  Dy  Dy0  1  0.250000  0.953143  0.358484  1
  Y  Y1  1  0.750000  0.331541  0.423841  1
  Y  Y2  1  0.750000  0.046192  0.641374  1
  Tm  Tm3  1  0.250000  0.395756  0.771168  1
  Tm  Tm4  1  0.750000  0.604763  0.229230  1
  Tm  Tm5  1  0.250000  0.661486  0.856153  1
  Tm  Tm6  1  0.750000  0.338434  0.143376  1
  Tm  Tm7  1  0.250000  0.668754  0.576359  1
  Sb  Sb8  1  0.250000  0.145097  0.779432  1
  Sb  Sb9  1  0.750000  0.855136  0.220872  1
  Sb  Sb10  1  0.250000  0.143194  0.482200  1
  Sb  Sb11  1  0.750000  0.854550  0.517453  1
  Sb  Sb12  1  0.250000  0.153881  0.169991  1
  Sb  Sb13  1  0.750000  0.846035  0.829947  1
  Sb  Sb14  1  0.250000  0.420841  0.975508  1
  Sb  Sb15  1  0.750000  0.579300  0.024422  1
  Sb  Sb16  1  0.750000  0.028707  0.910451  1
  Sb  Sb17  1  0.250000  0.971217  0.089824  1
  Sb  Sb18  1  0.750000  0.139883  0.321212  1
  Sb  Sb19  1  0.250000  0.858732  0.678297  1
  Sb  Sb20  1  0.750000  0.279577  0.936706  1
  Sb  Sb21  1  0.250000  0.720445  0.063358  1
  Sb  Sb22  1  0.750000  0.286214  0.654122  1
  Sb  Sb23  1  0.250000  0.714300  0.346775  1
  Sb  Sb24  1  0.750000  0.576728  0.734612  1
  Sb  Sb25  1  0.250000  0.424597  0.263501  1
  Sb  Sb26  1  0.750000  0.572492  0.447374  1
  Sb  Sb27  1  0.250000  0.429005  0.553959  1
