# generated using pymatgen
data_HoErBe3Fe14C3
_symmetry_space_group_name_H-M   'P 1'
_cell_length_a   6.33911548
_cell_length_b   6.33911428
_cell_length_c   6.33911494
_cell_angle_alpha   83.37959263
_cell_angle_beta   83.37958776
_cell_angle_gamma   83.37960002
_symmetry_Int_Tables_number   1
_chemical_formula_structural   HoErBe3Fe14C3
_chemical_formula_sum   'Ho1 Er1 Be3 Fe14 C3'
_cell_volume   250.00091784
_cell_formula_units_Z   1
loop_
 _symmetry_equiv_pos_site_id
 _symmetry_equiv_pos_as_xyz
  1  'x, y, z'
loop_
 _atom_site_type_symbol
 _atom_site_label
 _atom_site_symmetry_multiplicity
 _atom_site_fract_x
 _atom_site_fract_y
 _atom_site_fract_z
 _atom_site_occupancy
  Ho  Ho0  1  0.654530  0.654530  0.654530  1
  Er  Er1  1  0.345162  0.345162  0.345162  1
  Be  Be2  1  0.999945  0.999945  0.499812  1
  Be  Be3  1  0.499812  0.999945  0.999945  1
  Be  Be4  1  0.999945  0.499812  0.999945  1
  Fe  Fe5  1  0.719272  0.280573  0.000137  1
  Fe  Fe6  1  0.000137  0.719272  0.280573  1
  Fe  Fe7  1  0.280573  0.000137  0.719272  1
  Fe  Fe8  1  0.000137  0.280573  0.719272  1
  Fe  Fe9  1  0.719272  0.000137  0.280573  1
  Fe  Fe10  1  0.280573  0.719272  0.000137  1
  Fe  Fe11  1  0.338173  0.861355  0.338173  1
  Fe  Fe12  1  0.338173  0.338173  0.861355  1
  Fe  Fe13  1  0.861355  0.338173  0.338173  1
  Fe  Fe14  1  0.661534  0.139481  0.661534  1
  Fe  Fe15  1  0.661534  0.661534  0.139481  1
  Fe  Fe16  1  0.139481  0.661534  0.661534  1
  Fe  Fe17  1  0.901888  0.901888  0.901888  1
  Fe  Fe18  1  0.098461  0.098461  0.098461  1
  C  C19  1  0.499572  0.499572  0.000899  1
  C  C20  1  0.000899  0.499572  0.499572  1
  C  C21  1  0.499572  0.000899  0.499572  1
