# generated using pymatgen
data_VFe3Br7O
_symmetry_space_group_name_H-M   'P 1'
_cell_length_a   8.17367259
_cell_length_b   8.17367137
_cell_length_c   8.07194258
_cell_angle_alpha   54.72052746
_cell_angle_beta   54.72053184
_cell_angle_gamma   54.20433036
_symmetry_Int_Tables_number   1
_chemical_formula_structural   VFe3Br7O
_chemical_formula_sum   'V1 Fe3 Br7 O1'
_cell_volume   332.85033233
_cell_formula_units_Z   1
loop_
 _symmetry_equiv_pos_site_id
 _symmetry_equiv_pos_as_xyz
  1  'x, y, z'
loop_
 _atom_site_type_symbol
 _atom_site_label
 _atom_site_symmetry_multiplicity
 _atom_site_fract_x
 _atom_site_fract_y
 _atom_site_fract_z
 _atom_site_occupancy
  V  V0  1  0.976496  0.976496  0.031351  1
  Fe  Fe1  1  0.529869  0.977397  0.471264  1
  Fe  Fe2  1  0.977397  0.529869  0.471264  1
  Fe  Fe3  1  0.498056  0.498056  0.000880  1
  Br  Br4  1  0.735704  0.735704  0.746736  1
  Br  Br5  1  0.248055  0.744489  0.237427  1
  Br  Br6  1  0.744489  0.248055  0.237427  1
  Br  Br7  1  0.257947  0.257947  0.252775  1
  Br  Br8  1  0.222520  0.222520  0.738381  1
  Br  Br9  1  0.753656  0.246025  0.767428  1
  Br  Br10  1  0.246025  0.753656  0.767428  1
  O  O11  1  0.809786  0.809786  0.277642  1
