# generated using pymatgen
data_DyHo3(Al8Pt3)3
_symmetry_space_group_name_H-M   'P 1'
_cell_length_a   7.51975678
_cell_length_b   7.53945400
_cell_length_c   13.14586117
_cell_angle_alpha   84.56814710
_cell_angle_beta   79.10043612
_cell_angle_gamma   59.97872954
_symmetry_Int_Tables_number   1
_chemical_formula_structural   DyHo3(Al8Pt3)3
_chemical_formula_sum   'Dy1 Ho3 Al24 Pt9'
_cell_volume   633.67139407
_cell_formula_units_Z   1
loop_
 _symmetry_equiv_pos_site_id
 _symmetry_equiv_pos_as_xyz
  1  'x, y, z'
loop_
 _atom_site_type_symbol
 _atom_site_label
 _atom_site_symmetry_multiplicity
 _atom_site_fract_x
 _atom_site_fract_y
 _atom_site_fract_z
 _atom_site_occupancy
  Dy  Dy0  1  0.265874  0.501527  0.192388  1
  Ho  Ho1  1  0.393369  0.168472  0.807851  1
  Ho  Ho2  1  0.606620  0.831521  0.192135  1
  Ho  Ho3  1  0.734186  0.498479  0.807524  1
  Al  Al4  1  0.684415  0.833644  0.944410  1
  Al  Al5  1  0.315614  0.166224  0.055532  1
  Al  Al6  1  0.146938  0.832310  0.561228  1
  Al  Al7  1  0.853060  0.167693  0.438776  1
  Al  Al8  1  0.479711  0.166838  0.558709  1
  Al  Al9  1  0.520297  0.833155  0.441293  1
  Al  Al10  1  0.217245  0.165173  0.329931  1
  Al  Al11  1  0.782725  0.834719  0.670130  1
  Al  Al12  1  0.437990  0.506068  0.670138  1
  Al  Al13  1  0.562121  0.493928  0.329917  1
  Al  Al14  1  0.109728  0.160138  0.669390  1
  Al  Al15  1  0.890120  0.839987  0.330678  1
  Al  Al16  1  0.353418  0.498895  0.944506  1
  Al  Al17  1  0.646741  0.501108  0.055375  1
  Al  Al18  1  0.014899  0.167983  0.952952  1
  Al  Al19  1  0.985009  0.832123  0.046984  1
  Al  Al20  1  0.186754  0.498887  0.441264  1
  Al  Al21  1  0.813228  0.501112  0.558778  1
  Al  Al22  1  0.734305  0.163772  0.183289  1
  Al  Al23  1  0.265839  0.836114  0.816705  1
  Al  Al24  1  0.061841  0.631395  0.815452  1
  Al  Al25  1  0.938033  0.368580  0.184545  1
  Al  Al26  1  0.854683  0.041829  0.815968  1
  Al  Al27  1  0.145291  0.958344  0.184028  1
  Pt  Pt28  1  0.120049  0.491998  0.638940  1
  Pt  Pt29  1  0.879815  0.507993  0.361128  1
  Pt  Pt30  1  0.657166  0.171202  0.999904  1
  Pt  Pt31  1  0.342881  0.828788  0.000042  1
  Pt  Pt32  1  0.538064  0.166608  0.361143  1
  Pt  Pt33  1  0.462029  0.833280  0.638930  1
  Pt  Pt34  1  0.778874  0.175044  0.637384  1
  Pt  Pt35  1  0.221082  0.825081  0.362684  1
  Pt  Pt36  1  0.999986  0.499988  0.999970  1
