# generated using pymatgen
data_La14OsPd3Rh2
_symmetry_space_group_name_H-M   'P 1'
_cell_length_a   10.27375900
_cell_length_b   10.29310700
_cell_length_c   6.61082658
_cell_angle_alpha   90.67326784
_cell_angle_beta   90.00000000
_cell_angle_gamma   119.93784898
_symmetry_Int_Tables_number   1
_chemical_formula_structural   La14OsPd3Rh2
_chemical_formula_sum   'La14 Os1 Pd3 Rh2'
_cell_volume   605.75077000
_cell_formula_units_Z   1
loop_
 _symmetry_equiv_pos_site_id
 _symmetry_equiv_pos_as_xyz
  1  'x, y, z'
loop_
 _atom_site_type_symbol
 _atom_site_label
 _atom_site_symmetry_multiplicity
 _atom_site_fract_x
 _atom_site_fract_y
 _atom_site_fract_z
 _atom_site_occupancy
  La  La0  1  0.664220  0.328440  0.563359  1
  La  La1  1  0.330362  0.660727  0.070190  1
  La  La2  1  0.870869  0.741737  0.791896  1
  La  La3  1  0.247541  0.134173  0.782539  1
  La  La4  1  0.886631  0.134173  0.782539  1
  La  La5  1  0.123230  0.246460  0.276572  1
  La  La6  1  0.748013  0.881174  0.290996  1
  La  La7  1  0.133161  0.881174  0.290996  1
  La  La8  1  0.466125  0.932251  0.589167  1
  La  La9  1  0.078340  0.532831  0.593180  1
  La  La10  1  0.454490  0.532831  0.593180  1
  La  La11  1  0.539682  0.079364  0.089177  1
  La  La12  1  0.927119  0.453367  0.093355  1
  La  La13  1  0.526250  0.453367  0.093355  1
  Os  Os14  1  0.189979  0.379956  0.845185  1
  Pd  Pd15  1  0.626255  0.814404  0.834111  1
  Pd  Pd16  1  0.188150  0.814404  0.834111  1
  Pd  Pd17  1  0.812941  0.625884  0.331806  1
  Rh  Rh18  1  0.378085  0.186641  0.334670  1
  Rh  Rh19  1  0.808556  0.186641  0.334670  1
