# generated using pymatgen
data_TmBeBOs
_symmetry_space_group_name_H-M   'P 1'
_cell_length_a   6.03878300
_cell_length_b   5.40594200
_cell_length_c   6.40630400
_cell_angle_alpha   90.00000000
_cell_angle_beta   90.00000000
_cell_angle_gamma   90.00000000
_symmetry_Int_Tables_number   1
_chemical_formula_structural   TmBeBOs
_chemical_formula_sum   'Tm4 Be4 B4 Os4'
_cell_volume   209.13578419
_cell_formula_units_Z   4
loop_
 _symmetry_equiv_pos_site_id
 _symmetry_equiv_pos_as_xyz
  1  'x, y, z'
loop_
 _atom_site_type_symbol
 _atom_site_label
 _atom_site_symmetry_multiplicity
 _atom_site_fract_x
 _atom_site_fract_y
 _atom_site_fract_z
 _atom_site_occupancy
  Tm  Tm0  1  0.002746  0.257292  0.347276  1
  Tm  Tm1  1  0.502746  0.242708  0.152724  1
  Tm  Tm2  1  0.997254  0.757292  0.652724  1
  Tm  Tm3  1  0.497254  0.742708  0.847276  1
  Be  Be4  1  0.361774  0.063221  0.540969  1
  Be  Be5  1  0.861774  0.436779  0.959031  1
  Be  Be6  1  0.638226  0.563221  0.459031  1
  Be  Be7  1  0.138226  0.936779  0.040969  1
  B  B8  1  0.644452  0.933018  0.448737  1
  B  B9  1  0.144452  0.566982  0.051263  1
  B  B10  1  0.355548  0.433018  0.551263  1
  B  B11  1  0.855548  0.066982  0.948737  1
  Os  Os12  1  0.175367  0.265949  0.812831  1
  Os  Os13  1  0.675367  0.234051  0.687169  1
  Os  Os14  1  0.824633  0.765949  0.187169  1
  Os  Os15  1  0.324633  0.734051  0.312831  1
