# generated using pymatgen
data_La7Tm(GePd)8
_symmetry_space_group_name_H-M   'P 1'
_cell_length_a   4.54069300
_cell_length_b   7.78578735
_cell_length_c   14.77937600
_cell_angle_alpha   89.98283876
_cell_angle_beta   90.00000000
_cell_angle_gamma   90.00000000
_symmetry_Int_Tables_number   1
_chemical_formula_structural   La7Tm(GePd)8
_chemical_formula_sum   'La7 Tm1 Ge8 Pd8'
_cell_volume   522.49333669
_cell_formula_units_Z   1
loop_
 _symmetry_equiv_pos_site_id
 _symmetry_equiv_pos_as_xyz
  1  'x, y, z'
loop_
 _atom_site_type_symbol
 _atom_site_label
 _atom_site_symmetry_multiplicity
 _atom_site_fract_x
 _atom_site_fract_y
 _atom_site_fract_z
 _atom_site_occupancy
  La  La0  1  0.000000  0.214803  0.752987  1
  La  La1  1  0.000000  0.209177  0.247980  1
  La  La2  1  0.500000  0.784796  0.746896  1
  La  La3  1  0.000000  0.283218  0.498681  1
  La  La4  1  0.500000  0.717887  0.001892  1
  La  La5  1  0.000000  0.295014  0.002301  1
  La  La6  1  0.500000  0.708170  0.497844  1
  Tm  Tm7  1  0.500000  0.777315  0.252057  1
  Ge  Ge8  1  0.000000  0.589014  0.856337  1
  Ge  Ge9  1  0.000000  0.593826  0.149049  1
  Ge  Ge10  1  0.500000  0.411667  0.642959  1
  Ge  Ge11  1  0.500000  0.415611  0.354836  1
  Ge  Ge12  1  0.000000  0.910355  0.399358  1
  Ge  Ge13  1  0.000000  0.912864  0.593261  1
  Ge  Ge14  1  0.500000  0.085666  0.098625  1
  Ge  Ge15  1  0.500000  0.086865  0.906438  1
  Pd  Pd16  1  0.000000  0.922155  0.889304  1
  Pd  Pd17  1  0.000000  0.920380  0.117712  1
  Pd  Pd18  1  0.500000  0.078515  0.610650  1
  Pd  Pd19  1  0.500000  0.071850  0.382507  1
  Pd  Pd20  1  0.000000  0.586161  0.341271  1
  Pd  Pd21  1  0.000000  0.580598  0.651335  1
  Pd  Pd22  1  0.500000  0.424613  0.156140  1
  Pd  Pd23  1  0.500000  0.419479  0.849578  1
