# generated using pymatgen
data_Sm(TiIr)2
_symmetry_space_group_name_H-M   'P 1'
_cell_length_a   6.19374236
_cell_length_b   6.19374201
_cell_length_c   6.19374184
_cell_angle_alpha   139.66010259
_cell_angle_beta   139.66009661
_cell_angle_gamma   58.36975439
_symmetry_Int_Tables_number   1
_chemical_formula_structural   Sm(TiIr)2
_chemical_formula_sum   'Sm1 Ti2 Ir2'
_cell_volume   98.65255606
_cell_formula_units_Z   1
loop_
 _symmetry_equiv_pos_site_id
 _symmetry_equiv_pos_as_xyz
  1  'x, y, z'
loop_
 _atom_site_type_symbol
 _atom_site_label
 _atom_site_symmetry_multiplicity
 _atom_site_fract_x
 _atom_site_fract_y
 _atom_site_fract_z
 _atom_site_occupancy
  Sm  Sm0  1  0.000000  0.000000  0.000000  1
  Ti  Ti1  1  0.250000  0.750000  0.500000  1
  Ti  Ti2  1  0.750000  0.250000  0.500000  1
  Ir  Ir3  1  0.621371  0.621371  0.000000  1
  Ir  Ir4  1  0.378629  0.378629  0.000000  1
