# generated using pymatgen
data_Er3Sc2GaSb2
_symmetry_space_group_name_H-M   'P 1'
_cell_length_a   8.60884030
_cell_length_b   8.62793034
_cell_length_c   6.13028000
_cell_angle_alpha   90.00000000
_cell_angle_beta   90.00000000
_cell_angle_gamma   120.07337513
_symmetry_Int_Tables_number   1
_chemical_formula_structural   Er3Sc2GaSb2
_chemical_formula_sum   'Er6 Sc4 Ga2 Sb4'
_cell_volume   394.04030105
_cell_formula_units_Z   2
loop_
 _symmetry_equiv_pos_site_id
 _symmetry_equiv_pos_as_xyz
  1  'x, y, z'
loop_
 _atom_site_type_symbol
 _atom_site_label
 _atom_site_symmetry_multiplicity
 _atom_site_fract_x
 _atom_site_fract_y
 _atom_site_fract_z
 _atom_site_occupancy
  Er  Er0  1  0.011559  0.765894  0.750000  1
  Er  Er1  1  0.011559  0.245664  0.250000  1
  Er  Er2  1  0.750640  0.751741  0.250000  1
  Er  Er3  1  0.750640  0.998900  0.750000  1
  Er  Er4  1  0.245760  0.233949  0.750000  1
  Er  Er5  1  0.245760  0.011811  0.250000  1
  Sc  Sc6  1  0.336584  0.668293  0.500000  1
  Sc  Sc7  1  0.653393  0.326697  0.000000  1
  Sc  Sc8  1  0.653393  0.326697  0.500000  1
  Sc  Sc9  1  0.336584  0.668293  0.000000  1
  Ga  Ga10  1  0.397534  0.997675  0.750000  1
  Ga  Ga11  1  0.397534  0.399859  0.250000  1
  Sb  Sb12  1  0.999731  0.605161  0.250000  1
  Sb  Sb13  1  0.999731  0.394569  0.750000  1
  Sb  Sb14  1  0.604797  0.602910  0.750000  1
  Sb  Sb15  1  0.604797  0.001887  0.250000  1
