# generated using pymatgen
data_Li8HoSc7SnPb7
_symmetry_space_group_name_H-M   'P 1'
_cell_length_a   9.27141000
_cell_length_b   9.27140949
_cell_length_c   6.88316200
_cell_angle_alpha   90.00000000
_cell_angle_beta   90.00000000
_cell_angle_gamma   120.00000182
_symmetry_Int_Tables_number   1
_chemical_formula_structural   Li8HoSc7SnPb7
_chemical_formula_sum   'Li8 Ho1 Sc7 Sn1 Pb7'
_cell_volume   512.40123127
_cell_formula_units_Z   1
loop_
 _symmetry_equiv_pos_site_id
 _symmetry_equiv_pos_as_xyz
  1  'x, y, z'
loop_
 _atom_site_type_symbol
 _atom_site_label
 _atom_site_symmetry_multiplicity
 _atom_site_fract_x
 _atom_site_fract_y
 _atom_site_fract_z
 _atom_site_occupancy
  Li  Li0  1  0.167518  0.335037  0.291584  1
  Li  Li1  1  0.167518  0.832482  0.291584  1
  Li  Li2  1  0.664963  0.832482  0.291584  1
  Li  Li3  1  0.831247  0.662494  0.786407  1
  Li  Li4  1  0.831247  0.168753  0.786407  1
  Li  Li5  1  0.337506  0.168753  0.786407  1
  Li  Li6  1  0.333333  0.666667  0.676933  1
  Li  Li7  1  0.666667  0.333333  0.176112  1
  Ho  Ho8  1  0.000000  0.000000  0.000407  1
  Sc  Sc9  1  0.513408  0.026814  0.495113  1
  Sc  Sc10  1  0.513408  0.486592  0.495113  1
  Sc  Sc11  1  0.973186  0.486592  0.495113  1
  Sc  Sc12  1  0.489339  0.978679  0.992970  1
  Sc  Sc13  1  0.489339  0.510661  0.992970  1
  Sc  Sc14  1  0.021321  0.510661  0.992970  1
  Sc  Sc15  1  0.000000  0.000000  0.501265  1
  Sn  Sn16  1  0.666667  0.333333  0.755236  1
  Pb  Pb17  1  0.167731  0.335462  0.727713  1
  Pb  Pb18  1  0.167731  0.832269  0.727713  1
  Pb  Pb19  1  0.664538  0.832269  0.727713  1
  Pb  Pb20  1  0.831341  0.662681  0.233933  1
  Pb  Pb21  1  0.831341  0.168659  0.233933  1
  Pb  Pb22  1  0.337319  0.168659  0.233933  1
  Pb  Pb23  1  0.333333  0.666667  0.248856  1
