# generated using pymatgen
data_Th2Sc2NiBr6
_symmetry_space_group_name_H-M   'P 1'
_cell_length_a   4.02437200
_cell_length_b   13.41307800
_cell_length_c   13.97073400
_cell_angle_alpha   90.00000000
_cell_angle_beta   90.00000000
_cell_angle_gamma   90.00000000
_symmetry_Int_Tables_number   1
_chemical_formula_structural   Th2Sc2NiBr6
_chemical_formula_sum   'Th4 Sc4 Ni2 Br12'
_cell_volume   754.12926180
_cell_formula_units_Z   2
loop_
 _symmetry_equiv_pos_site_id
 _symmetry_equiv_pos_as_xyz
  1  'x, y, z'
loop_
 _atom_site_type_symbol
 _atom_site_label
 _atom_site_symmetry_multiplicity
 _atom_site_fract_x
 _atom_site_fract_y
 _atom_site_fract_z
 _atom_site_occupancy
  Th  Th0  1  0.000000  0.113547  0.577269  1
  Th  Th1  1  0.000000  0.886453  0.422731  1
  Th  Th2  1  0.000000  0.613547  0.922731  1
  Th  Th3  1  0.000000  0.386453  0.077269  1
  Sc  Sc4  1  0.500000  0.111166  0.349999  1
  Sc  Sc5  1  0.500000  0.888834  0.650001  1
  Sc  Sc6  1  0.500000  0.611166  0.150001  1
  Sc  Sc7  1  0.500000  0.388834  0.849999  1
  Ni  Ni8  1  0.500000  0.000000  0.500000  1
  Ni  Ni9  1  0.500000  0.500000  0.000000  1
  Br  Br10  1  0.500000  0.236781  0.172182  1
  Br  Br11  1  0.500000  0.763219  0.827818  1
  Br  Br12  1  0.500000  0.736781  0.327818  1
  Br  Br13  1  0.500000  0.263219  0.672182  1
  Br  Br14  1  0.000000  0.247070  0.403782  1
  Br  Br15  1  0.000000  0.752930  0.596218  1
  Br  Br16  1  0.000000  0.747070  0.096218  1
  Br  Br17  1  0.000000  0.252930  0.903782  1
  Br  Br18  1  0.000000  0.012450  0.244981  1
  Br  Br19  1  0.000000  0.987550  0.755019  1
  Br  Br20  1  0.000000  0.512450  0.255019  1
  Br  Br21  1  0.000000  0.487550  0.744981  1
