# generated using pymatgen
data_Tb3Dy(Fe2Cl)2
_symmetry_space_group_name_H-M   'P 1'
_cell_length_a   3.88695200
_cell_length_b   3.88695271
_cell_length_c   16.07427200
_cell_angle_alpha   90.00000000
_cell_angle_beta   90.00000000
_cell_angle_gamma   119.99999392
_symmetry_Int_Tables_number   1
_chemical_formula_structural   Tb3Dy(Fe2Cl)2
_chemical_formula_sum   'Tb3 Dy1 Fe4 Cl2'
_cell_volume   210.31991916
_cell_formula_units_Z   1
loop_
 _symmetry_equiv_pos_site_id
 _symmetry_equiv_pos_as_xyz
  1  'x, y, z'
loop_
 _atom_site_type_symbol
 _atom_site_label
 _atom_site_symmetry_multiplicity
 _atom_site_fract_x
 _atom_site_fract_y
 _atom_site_fract_z
 _atom_site_occupancy
  Tb  Tb0  1  0.000000  0.000000  0.114433  1
  Tb  Tb1  1  0.000000  0.000000  0.885814  1
  Tb  Tb2  1  0.000000  0.000000  0.613238  1
  Dy  Dy3  1  0.000000  0.000000  0.386841  1
  Fe  Fe4  1  0.333333  0.666667  0.506778  1
  Fe  Fe5  1  0.666667  0.333333  0.492149  1
  Fe  Fe6  1  0.666667  0.333333  0.007116  1
  Fe  Fe7  1  0.333333  0.666667  0.993158  1
  Cl  Cl8  1  0.333333  0.666667  0.250894  1
  Cl  Cl9  1  0.666667  0.333333  0.749580  1
