# generated using pymatgen
data_Nd4Sm2Zn4Pt13
_symmetry_space_group_name_H-M   'P 1'
_cell_length_a   8.38240054
_cell_length_b   8.38214163
_cell_length_c   8.38214230
_cell_angle_alpha   109.50197378
_cell_angle_beta   109.45522188
_cell_angle_gamma   109.45522205
_symmetry_Int_Tables_number   1
_chemical_formula_structural   Nd4Sm2Zn4Pt13
_chemical_formula_sum   'Nd4 Sm2 Zn4 Pt13'
_cell_volume   453.38081504
_cell_formula_units_Z   1
loop_
 _symmetry_equiv_pos_site_id
 _symmetry_equiv_pos_as_xyz
  1  'x, y, z'
loop_
 _atom_site_type_symbol
 _atom_site_label
 _atom_site_symmetry_multiplicity
 _atom_site_fract_x
 _atom_site_fract_y
 _atom_site_fract_z
 _atom_site_occupancy
  Nd  Nd0  1  0.000000  0.300024  0.300371  1
  Nd  Nd1  1  0.300757  0.300581  0.000176  1
  Nd  Nd2  1  0.699243  0.999824  0.699419  1
  Nd  Nd3  1  0.000000  0.699629  0.699976  1
  Sm  Sm4  1  0.697996  0.697828  0.000168  1
  Sm  Sm5  1  0.302004  0.999832  0.302172  1
  Zn  Zn6  1  0.000000  0.000127  0.499249  1
  Zn  Zn7  1  0.000000  0.500751  0.999873  1
  Zn  Zn8  1  0.500000  0.000130  0.999870  1
  Zn  Zn9  1  0.500000  0.500130  0.499870  1
  Pt  Pt10  1  0.330724  0.330274  0.659902  1
  Pt  Pt11  1  0.669276  0.999550  0.329180  1
  Pt  Pt12  1  0.000000  0.671590  0.328410  1
  Pt  Pt13  1  0.670054  0.331204  0.000156  1
  Pt  Pt14  1  0.329946  0.661149  0.330102  1
  Pt  Pt15  1  0.000000  0.329709  0.670291  1
  Pt  Pt16  1  0.330724  0.670820  0.000450  1
  Pt  Pt17  1  0.329946  0.999844  0.668796  1
  Pt  Pt18  1  0.658189  0.328775  0.329415  1
  Pt  Pt19  1  0.670054  0.669898  0.338851  1
  Pt  Pt20  1  0.669276  0.340098  0.669726  1
  Pt  Pt21  1  0.341811  0.670585  0.671225  1
  Pt  Pt22  1  0.000000  0.997648  0.002352  1
