# generated using pymatgen
data_Ac3Tb(B2Ir5)2
_symmetry_space_group_name_H-M   'P 1'
_cell_length_a   11.26827577
_cell_length_b   11.26827593
_cell_length_c   11.26827600
_cell_angle_alpha   28.91133828
_cell_angle_beta   28.91133684
_cell_angle_gamma   28.91134150
_symmetry_Int_Tables_number   1
_chemical_formula_structural   Ac3Tb(B2Ir5)2
_chemical_formula_sum   'Ac3 Tb1 B4 Ir10'
_cell_volume   295.74917960
_cell_formula_units_Z   1
loop_
 _symmetry_equiv_pos_site_id
 _symmetry_equiv_pos_as_xyz
  1  'x, y, z'
loop_
 _atom_site_type_symbol
 _atom_site_label
 _atom_site_symmetry_multiplicity
 _atom_site_fract_x
 _atom_site_fract_y
 _atom_site_fract_z
 _atom_site_occupancy
  Ac  Ac0  1  0.150497  0.150497  0.150497  1
  Ac  Ac1  1  0.951042  0.951042  0.951042  1
  Ac  Ac2  1  0.848232  0.848232  0.848232  1
  Tb  Tb3  1  0.049531  0.049531  0.049531  1
  B  B4  1  0.618930  0.618930  0.618930  1
  B  B5  1  0.716499  0.716499  0.716499  1
  B  B6  1  0.381177  0.381177  0.381177  1
  B  B7  1  0.283956  0.283956  0.283956  1
  Ir  Ir8  1  0.410562  0.898337  0.410562  1
  Ir  Ir9  1  0.898337  0.410562  0.410562  1
  Ir  Ir10  1  0.501332  0.501332  0.000516  1
  Ir  Ir11  1  0.501332  0.000516  0.501332  1
  Ir  Ir12  1  0.000516  0.501332  0.501332  1
  Ir  Ir13  1  0.499708  0.499708  0.499708  1
  Ir  Ir14  1  0.588289  0.101210  0.588289  1
  Ir  Ir15  1  0.588289  0.588289  0.101210  1
  Ir  Ir16  1  0.101210  0.588289  0.588289  1
  Ir  Ir17  1  0.410562  0.410562  0.898337  1
