# generated using pymatgen
data_Ho3In3CuAgHg
_symmetry_space_group_name_H-M   'P 1'
_cell_length_a   7.71222200
_cell_length_b   7.71222149
_cell_length_c   4.02263000
_cell_angle_alpha   90.00000000
_cell_angle_beta   90.00000000
_cell_angle_gamma   120.00001079
_symmetry_Int_Tables_number   1
_chemical_formula_structural   Ho3In3CuAgHg
_chemical_formula_sum   'Ho3 In3 Cu1 Ag1 Hg1'
_cell_volume   207.20474119
_cell_formula_units_Z   1
loop_
 _symmetry_equiv_pos_site_id
 _symmetry_equiv_pos_as_xyz
  1  'x, y, z'
loop_
 _atom_site_type_symbol
 _atom_site_label
 _atom_site_symmetry_multiplicity
 _atom_site_fract_x
 _atom_site_fract_y
 _atom_site_fract_z
 _atom_site_occupancy
  Ho  Ho0  1  0.995590  0.595087  0.500000  1
  Ho  Ho1  1  0.404913  0.400503  0.500000  1
  Ho  Ho2  1  0.599497  0.004410  0.500000  1
  In  In3  1  0.757063  0.750968  0.000000  1
  In  In4  1  0.993904  0.242937  0.000000  1
  In  In5  1  0.249032  0.006096  0.000000  1
  Cu  Cu6  1  0.000000  0.000000  0.500000  1
  Ag  Ag7  1  0.666667  0.333333  0.000000  1
  Hg  Hg8  1  0.333333  0.666667  0.000000  1
