# generated using pymatgen
data_NdHoCo7Tc5P7
_symmetry_space_group_name_H-M   'P 1'
_cell_length_a   9.23466737
_cell_length_b   9.15550874
_cell_length_c   3.76471600
_cell_angle_alpha   90.00000000
_cell_angle_beta   90.00000000
_cell_angle_gamma   119.59268431
_symmetry_Int_Tables_number   1
_chemical_formula_structural   NdHoCo7Tc5P7
_chemical_formula_sum   'Nd1 Ho1 Co7 Tc5 P7'
_cell_volume   276.77987474
_cell_formula_units_Z   1
loop_
 _symmetry_equiv_pos_site_id
 _symmetry_equiv_pos_as_xyz
  1  'x, y, z'
loop_
 _atom_site_type_symbol
 _atom_site_label
 _atom_site_symmetry_multiplicity
 _atom_site_fract_x
 _atom_site_fract_y
 _atom_site_fract_z
 _atom_site_occupancy
  Nd  Nd0  1  0.330860  0.665911  0.000000  1
  Ho  Ho1  1  0.672647  0.339053  0.500000  1
  Co  Co2  1  0.114854  0.837778  0.000000  1
  Co  Co3  1  0.732541  0.883982  0.000000  1
  Co  Co4  1  0.935921  0.367566  0.000000  1
  Co  Co5  1  0.641653  0.571957  0.000000  1
  Co  Co6  1  0.422209  0.064533  0.000000  1
  Co  Co7  1  0.043501  0.609108  0.500000  1
  Co  Co8  1  0.151771  0.272402  0.000000  1
  Tc  Tc9  1  0.389969  0.434313  0.500000  1
  Tc  Tc10  1  0.566924  0.958638  0.500000  1
  Tc  Tc11  1  0.204712  0.086638  0.500000  1
  Tc  Tc12  1  0.881136  0.781592  0.500000  1
  Tc  Tc13  1  0.908825  0.120839  0.500000  1
  P  P14  1  0.000631  0.999556  0.000000  1
  P  P15  1  0.603688  0.717168  0.500000  1
  P  P16  1  0.699869  0.116738  0.000000  1
  P  P17  1  0.890605  0.587748  0.000000  1
  P  P18  1  0.413817  0.299881  0.000000  1
  P  P19  1  0.281501  0.882127  0.500000  1
  P  P20  1  0.112366  0.402470  0.500000  1
