# generated using pymatgen
data_Tb5ErAl24GaOs7
_symmetry_space_group_name_H-M   'P 1'
_cell_length_a   8.87069615
_cell_length_b   8.87069529
_cell_length_c   9.55969701
_cell_angle_alpha   90.15619979
_cell_angle_beta   89.84379835
_cell_angle_gamma   119.88329454
_symmetry_Int_Tables_number   1
_chemical_formula_structural   Tb5ErAl24GaOs7
_chemical_formula_sum   'Tb5 Er1 Al24 Ga1 Os7'
_cell_volume   652.22508937
_cell_formula_units_Z   1
loop_
 _symmetry_equiv_pos_site_id
 _symmetry_equiv_pos_as_xyz
  1  'x, y, z'
loop_
 _atom_site_type_symbol
 _atom_site_label
 _atom_site_symmetry_multiplicity
 _atom_site_fract_x
 _atom_site_fract_y
 _atom_site_fract_z
 _atom_site_occupancy
  Tb  Tb0  1  0.191189  0.384650  0.245957  1
  Tb  Tb1  1  0.808765  0.615138  0.753916  1
  Tb  Tb2  1  0.615350  0.808811  0.245957  1
  Tb  Tb3  1  0.384862  0.191235  0.753916  1
  Tb  Tb4  1  0.194242  0.805758  0.255125  1
  Er  Er5  1  0.804858  0.195142  0.744735  1
  Al  Al6  1  0.327357  0.672643  0.022044  1
  Al  Al7  1  0.672867  0.327133  0.977520  1
  Al  Al8  1  0.666151  0.333849  0.518738  1
  Al  Al9  1  0.334083  0.665917  0.481687  1
  Al  Al10  1  0.162211  0.325483  0.572198  1
  Al  Al11  1  0.837377  0.674271  0.428122  1
  Al  Al12  1  0.674517  0.837789  0.572198  1
  Al  Al13  1  0.852093  0.678476  0.081696  1
  Al  Al14  1  0.325729  0.162623  0.428122  1
  Al  Al15  1  0.147286  0.321035  0.917940  1
  Al  Al16  1  0.163031  0.836969  0.576290  1
  Al  Al17  1  0.321524  0.147907  0.081696  1
  Al  Al18  1  0.837031  0.162969  0.424391  1
  Al  Al19  1  0.678965  0.852714  0.917940  1
  Al  Al20  1  0.836776  0.163224  0.076547  1
  Al  Al21  1  0.163328  0.836672  0.922890  1
  Al  Al22  1  0.562202  0.121700  0.249441  1
  Al  Al23  1  0.438534  0.878824  0.750567  1
  Al  Al24  1  0.878300  0.437798  0.249441  1
  Al  Al25  1  0.121176  0.561466  0.750567  1
  Al  Al26  1  0.565663  0.434337  0.258158  1
  Al  Al27  1  0.434317  0.565683  0.741865  1
  Al  Al28  1  0.998930  0.001070  0.250775  1
  Al  Al29  1  0.000525  0.999475  0.749320  1
  Ga  Ga30  1  0.500000  0.500000  0.000002  1
  Os  Os31  1  0.500466  0.000214  0.999679  1
  Os  Os32  1  0.999786  0.499534  0.999679  1
  Os  Os33  1  0.500526  0.000280  0.500379  1
  Os  Os34  1  0.999720  0.499474  0.500379  1
  Os  Os35  1  0.500119  0.499881  0.500017  1
  Os  Os36  1  0.000112  0.999888  0.999962  1
  Os  Os37  1  0.000033  0.999967  0.500141  1
