# generated using pymatgen
data_ErZr2Fe8Co
_symmetry_space_group_name_H-M   'P 1'
_cell_length_a   8.47567329
_cell_length_b   8.47567371
_cell_length_c   8.47755319
_cell_angle_alpha   34.10055006
_cell_angle_beta   34.10054801
_cell_angle_gamma   34.04390057
_symmetry_Int_Tables_number   1
_chemical_formula_structural   ErZr2Fe8Co
_chemical_formula_sum   'Er1 Zr2 Fe8 Co1'
_cell_volume   170.48814334
_cell_formula_units_Z   1
loop_
 _symmetry_equiv_pos_site_id
 _symmetry_equiv_pos_as_xyz
  1  'x, y, z'
loop_
 _atom_site_type_symbol
 _atom_site_label
 _atom_site_symmetry_multiplicity
 _atom_site_fract_x
 _atom_site_fract_y
 _atom_site_fract_z
 _atom_site_occupancy
  Er  Er0  1  0.000827  0.000827  0.000647  1
  Zr  Zr1  1  0.141736  0.141736  0.143749  1
  Zr  Zr2  1  0.857938  0.857938  0.857951  1
  Fe  Fe3  1  0.918997  0.415477  0.413244  1
  Fe  Fe4  1  0.584425  0.081700  0.585741  1
  Fe  Fe5  1  0.585083  0.585083  0.081968  1
  Fe  Fe6  1  0.415477  0.918997  0.413244  1
  Fe  Fe7  1  0.081700  0.584425  0.585741  1
  Fe  Fe8  1  0.332730  0.332730  0.333149  1
  Fe  Fe9  1  0.666224  0.666224  0.666803  1
  Fe  Fe10  1  0.499806  0.499806  0.500371  1
  Co  Co11  1  0.415057  0.415057  0.917394  1
