# generated using pymatgen
data_DyY6Er(Sc3Si4)4
_symmetry_space_group_name_H-M   'P 1'
_cell_length_a   7.09937007
_cell_length_b   7.38993069
_cell_length_c   14.00375007
_cell_angle_alpha   89.98734639
_cell_angle_beta   89.99982498
_cell_angle_gamma   90.02605808
_symmetry_Int_Tables_number   1
_chemical_formula_structural   DyY6Er(Sc3Si4)4
_chemical_formula_sum   'Dy1 Y6 Er1 Sc12 Si16'
_cell_volume   734.69058846
_cell_formula_units_Z   1
loop_
 _symmetry_equiv_pos_site_id
 _symmetry_equiv_pos_as_xyz
  1  'x, y, z'
loop_
 _atom_site_type_symbol
 _atom_site_label
 _atom_site_symmetry_multiplicity
 _atom_site_fract_x
 _atom_site_fract_y
 _atom_site_fract_z
 _atom_site_occupancy
  Dy  Dy0  1  0.511897  0.324998  0.403208  1
  Y  Y1  1  0.011830  0.175099  0.096918  1
  Y  Y2  1  0.988178  0.824892  0.902967  1
  Y  Y3  1  0.488177  0.675067  0.903159  1
  Y  Y4  1  0.988081  0.824697  0.596908  1
  Y  Y5  1  0.511847  0.324974  0.096933  1
  Y  Y6  1  0.011961  0.175129  0.403207  1
  Er  Er7  1  0.487955  0.675339  0.597167  1
  Sc  Sc8  1  0.160762  0.502555  0.749855  1
  Sc  Sc9  1  0.839375  0.497628  0.250053  1
  Sc  Sc10  1  0.339451  0.002476  0.250056  1
  Sc  Sc11  1  0.660438  0.997410  0.749847  1
  Sc  Sc12  1  0.330764  0.177002  0.625145  1
  Sc  Sc13  1  0.669173  0.822897  0.374904  1
  Sc  Sc14  1  0.169513  0.676756  0.374881  1
  Sc  Sc15  1  0.669325  0.823164  0.125211  1
  Sc  Sc16  1  0.830444  0.323466  0.625166  1
  Sc  Sc17  1  0.330632  0.176862  0.874691  1
  Sc  Sc18  1  0.830571  0.323201  0.874690  1
  Sc  Sc19  1  0.169400  0.676801  0.125205  1
  Si  Si20  1  0.033211  0.117697  0.749964  1
  Si  Si21  1  0.966749  0.882337  0.250043  1
  Si  Si22  1  0.466764  0.617544  0.250083  1
  Si  Si23  1  0.533143  0.382861  0.749786  1
  Si  Si24  1  0.285909  0.873497  0.749621  1
  Si  Si25  1  0.714465  0.126045  0.250109  1
  Si  Si26  1  0.214661  0.374034  0.250038  1
  Si  Si27  1  0.784847  0.626127  0.749674  1
  Si  Si28  1  0.158634  0.465061  0.539622  1
  Si  Si29  1  0.841942  0.535387  0.460589  1
  Si  Si30  1  0.342712  0.964149  0.460769  1
  Si  Si31  1  0.842398  0.535469  0.039456  1
  Si  Si32  1  0.657237  0.034821  0.539579  1
  Si  Si33  1  0.157514  0.464520  0.960508  1
  Si  Si34  1  0.657611  0.035459  0.960541  1
  Si  Si35  1  0.342430  0.964581  0.039449  1
