# generated using pymatgen
data_TlSb2Rh(SeO3)8
_symmetry_space_group_name_H-M   'P 1'
_cell_length_a   8.37735040
_cell_length_b   8.23607502
_cell_length_c   8.36729374
_cell_angle_alpha   89.15880166
_cell_angle_beta   89.67458622
_cell_angle_gamma   90.27475471
_symmetry_Int_Tables_number   1
_chemical_formula_structural   TlSb2Rh(SeO3)8
_chemical_formula_sum   'Tl1 Sb2 Rh1 Se8 O24'
_cell_volume   577.23546734
_cell_formula_units_Z   1
loop_
 _symmetry_equiv_pos_site_id
 _symmetry_equiv_pos_as_xyz
  1  'x, y, z'
loop_
 _atom_site_type_symbol
 _atom_site_label
 _atom_site_symmetry_multiplicity
 _atom_site_fract_x
 _atom_site_fract_y
 _atom_site_fract_z
 _atom_site_occupancy
  Tl  Tl0  1  0.000000  0.500000  0.000000  1
  Sb  Sb1  1  0.000000  0.000000  0.500000  1
  Sb  Sb2  1  0.500000  0.000000  0.000000  1
  Rh  Rh3  1  0.500000  0.500000  0.500000  1
  Se  Se4  1  0.349509  0.659420  0.179883  1
  Se  Se5  1  0.820603  0.339903  0.353653  1
  Se  Se6  1  0.668857  0.812628  0.668582  1
  Se  Se7  1  0.172976  0.153419  0.829377  1
  Se  Se8  1  0.650491  0.340580  0.820117  1
  Se  Se9  1  0.179397  0.660097  0.646347  1
  Se  Se10  1  0.331143  0.187372  0.331418  1
  Se  Se11  1  0.827024  0.846581  0.170623  1
  O  O12  1  0.264484  0.541944  0.037322  1
  O  O13  1  0.741884  0.465709  0.497099  1
  O  O14  1  0.763853  0.960624  0.543142  1
  O  O15  1  0.264368  0.001107  0.951133  1
  O  O16  1  0.544692  0.955211  0.764334  1
  O  O17  1  0.486041  0.523211  0.257020  1
  O  O18  1  0.953589  0.471055  0.264868  1
  O  O19  1  0.042042  0.013353  0.736383  1
  O  O20  1  0.960618  0.238845  0.486099  1
  O  O21  1  0.535028  0.745315  0.530561  1
  O  O22  1  0.494373  0.763535  0.050522  1
  O  O23  1  0.045135  0.227155  0.965873  1
  O  O24  1  0.735516  0.458056  0.962678  1
  O  O25  1  0.258116  0.534291  0.502901  1
  O  O26  1  0.236147  0.039376  0.456858  1
  O  O27  1  0.735632  0.998893  0.048867  1
  O  O28  1  0.455308  0.044789  0.235666  1
  O  O29  1  0.513959  0.476789  0.742980  1
  O  O30  1  0.046411  0.528945  0.735132  1
  O  O31  1  0.957958  0.986647  0.263617  1
  O  O32  1  0.039382  0.761155  0.513901  1
  O  O33  1  0.464972  0.254685  0.469439  1
  O  O34  1  0.505627  0.236465  0.949478  1
  O  O35  1  0.954865  0.772845  0.034127  1
