# generated using pymatgen
data_Y8Sc12Si15Ir
_symmetry_space_group_name_H-M   'P 1'
_cell_length_a   7.08318377
_cell_length_b   7.44310796
_cell_length_c   13.96830300
_cell_angle_alpha   90.00000000
_cell_angle_beta   90.00000000
_cell_angle_gamma   90.29719563
_symmetry_Int_Tables_number   1
_chemical_formula_structural   Y8Sc12Si15Ir
_chemical_formula_sum   'Y8 Sc12 Si15 Ir1'
_cell_volume   736.41161957
_cell_formula_units_Z   1
loop_
 _symmetry_equiv_pos_site_id
 _symmetry_equiv_pos_as_xyz
  1  'x, y, z'
loop_
 _atom_site_type_symbol
 _atom_site_label
 _atom_site_symmetry_multiplicity
 _atom_site_fract_x
 _atom_site_fract_y
 _atom_site_fract_z
 _atom_site_occupancy
  Y  Y0  1  0.011376  0.178542  0.096406  1
  Y  Y1  1  0.990544  0.825251  0.904350  1
  Y  Y2  1  0.489272  0.676511  0.904517  1
  Y  Y3  1  0.990544  0.825251  0.595650  1
  Y  Y4  1  0.511274  0.323499  0.096276  1
  Y  Y5  1  0.011376  0.178542  0.403594  1
  Y  Y6  1  0.511274  0.323499  0.403724  1
  Y  Y7  1  0.489272  0.676511  0.595483  1
  Sc  Sc8  1  0.157772  0.500624  0.750000  1
  Sc  Sc9  1  0.838506  0.496586  0.250000  1
  Sc  Sc10  1  0.339405  0.004613  0.250000  1
  Sc  Sc11  1  0.667758  0.998568  0.750000  1
  Sc  Sc12  1  0.319240  0.172607  0.627286  1
  Sc  Sc13  1  0.671745  0.825579  0.373702  1
  Sc  Sc14  1  0.171510  0.677664  0.374062  1
  Sc  Sc15  1  0.671745  0.825579  0.126298  1
  Sc  Sc16  1  0.835487  0.320339  0.627218  1
  Sc  Sc17  1  0.319240  0.172607  0.872714  1
  Sc  Sc18  1  0.835487  0.320339  0.872782  1
  Sc  Sc19  1  0.171510  0.677664  0.125938  1
  Si  Si20  1  0.968777  0.884584  0.250000  1
  Si  Si21  1  0.469104  0.615294  0.250000  1
  Si  Si22  1  0.530076  0.387777  0.750000  1
  Si  Si23  1  0.286193  0.868271  0.750000  1
  Si  Si24  1  0.713507  0.129082  0.250000  1
  Si  Si25  1  0.213731  0.372305  0.250000  1
  Si  Si26  1  0.779228  0.625225  0.750000  1
  Si  Si27  1  0.159368  0.467764  0.537565  1
  Si  Si28  1  0.843840  0.536218  0.461196  1
  Si  Si29  1  0.345274  0.965752  0.460289  1
  Si  Si30  1  0.843840  0.536218  0.038804  1
  Si  Si31  1  0.655653  0.034696  0.538720  1
  Si  Si32  1  0.159368  0.467764  0.962435  1
  Si  Si33  1  0.655653  0.034696  0.961280  1
  Si  Si34  1  0.345274  0.965752  0.039711  1
  Ir  Ir35  1  0.026776  0.108224  0.750000  1
