# generated using pymatgen
data_Pr5HgRu2
_symmetry_space_group_name_H-M   'P 1'
_cell_length_a   9.00532613
_cell_length_b   9.00532574
_cell_length_c   9.00532548
_cell_angle_alpha   127.17932928
_cell_angle_beta   127.17932783
_cell_angle_gamma   77.95830681
_symmetry_Int_Tables_number   1
_chemical_formula_structural   Pr5HgRu2
_chemical_formula_sum   'Pr10 Hg2 Ru4'
_cell_volume   449.27473361
_cell_formula_units_Z   2
loop_
 _symmetry_equiv_pos_site_id
 _symmetry_equiv_pos_as_xyz
  1  'x, y, z'
loop_
 _atom_site_type_symbol
 _atom_site_label
 _atom_site_symmetry_multiplicity
 _atom_site_fract_x
 _atom_site_fract_y
 _atom_site_fract_z
 _atom_site_occupancy
  Pr  Pr0  1  0.000000  0.000000  0.000000  1
  Pr  Pr1  1  0.500000  0.500000  0.000000  1
  Pr  Pr2  1  0.203826  0.703826  0.174292  1
  Pr  Pr3  1  0.470466  0.970466  0.174292  1
  Pr  Pr4  1  0.029534  0.203826  0.500000  1
  Pr  Pr5  1  0.296174  0.470466  0.500000  1
  Pr  Pr6  1  0.703826  0.529534  0.500000  1
  Pr  Pr7  1  0.970466  0.796174  0.500000  1
  Pr  Pr8  1  0.529534  0.029534  0.825708  1
  Pr  Pr9  1  0.796174  0.296174  0.825708  1
  Hg  Hg10  1  0.250000  0.250000  0.000000  1
  Hg  Hg11  1  0.750000  0.750000  0.000000  1
  Ru  Ru12  1  0.861159  0.361159  0.222318  1
  Ru  Ru13  1  0.361158  0.138841  0.500000  1
  Ru  Ru14  1  0.638842  0.861159  0.500000  1
  Ru  Ru15  1  0.138841  0.638841  0.777682  1
