# generated using pymatgen
data_Ho2ErP4Rh7
_symmetry_space_group_name_H-M   'P 1'
_cell_length_a   7.73386813
_cell_length_b   7.73386819
_cell_length_c   9.16364159
_cell_angle_alpha   56.78441634
_cell_angle_beta   56.78441488
_cell_angle_gamma   29.44346762
_symmetry_Int_Tables_number   1
_chemical_formula_structural   Ho2ErP4Rh7
_chemical_formula_sum   'Ho2 Er1 P4 Rh7'
_cell_volume   222.04643988
_cell_formula_units_Z   1
loop_
 _symmetry_equiv_pos_site_id
 _symmetry_equiv_pos_as_xyz
  1  'x, y, z'
loop_
 _atom_site_type_symbol
 _atom_site_label
 _atom_site_symmetry_multiplicity
 _atom_site_fract_x
 _atom_site_fract_y
 _atom_site_fract_z
 _atom_site_occupancy
  Ho  Ho0  1  0.499996  0.499996  0.500014  1
  Ho  Ho1  1  0.828726  0.828726  0.168568  1
  Er  Er2  1  0.171200  0.171200  0.831502  1
  P  P3  1  0.391242  0.391242  0.325026  1
  P  P4  1  0.608851  0.608851  0.675131  1
  P  P5  1  0.832625  0.832625  0.773894  1
  P  P6  1  0.167248  0.167248  0.226182  1
  Rh  Rh7  1  0.668558  0.668558  0.078129  1
  Rh  Rh8  1  0.007210  0.007210  0.229919  1
  Rh  Rh9  1  0.992900  0.992900  0.769950  1
  Rh  Rh10  1  0.500248  0.500248  0.999710  1
  Rh  Rh11  1  0.197685  0.197685  0.454257  1
  Rh  Rh12  1  0.802179  0.802179  0.546145  1
  Rh  Rh13  1  0.331331  0.331331  0.921572  1
