# generated using pymatgen
data_La8CdPd23Au
_symmetry_space_group_name_H-M   'P 1'
_cell_length_a   8.53754500
_cell_length_b   8.59888200
_cell_length_c   8.61101000
_cell_angle_alpha   90.00000000
_cell_angle_beta   90.00000000
_cell_angle_gamma   90.00000000
_symmetry_Int_Tables_number   1
_chemical_formula_structural   La8CdPd23Au
_chemical_formula_sum   'La8 Cd1 Pd23 Au1'
_cell_volume   632.16302231
_cell_formula_units_Z   1
loop_
 _symmetry_equiv_pos_site_id
 _symmetry_equiv_pos_as_xyz
  1  'x, y, z'
loop_
 _atom_site_type_symbol
 _atom_site_label
 _atom_site_symmetry_multiplicity
 _atom_site_fract_x
 _atom_site_fract_y
 _atom_site_fract_z
 _atom_site_occupancy
  La  La0  1  0.250006  0.246289  0.255317  1
  La  La1  1  0.749320  0.748958  0.749515  1
  La  La2  1  0.749320  0.748958  0.250485  1
  La  La3  1  0.749320  0.251042  0.749515  1
  La  La4  1  0.250006  0.246289  0.744683  1
  La  La5  1  0.250006  0.753711  0.255317  1
  La  La6  1  0.250006  0.753711  0.744683  1
  La  La7  1  0.749320  0.251042  0.250485  1
  Cd  Cd8  1  0.000191  0.000000  0.000000  1
  Pd  Pd9  1  0.732649  0.500000  0.000000  1
  Pd  Pd10  1  0.998588  0.267163  0.500000  1
  Pd  Pd11  1  0.499603  0.265846  0.000000  1
  Pd  Pd12  1  0.998588  0.732837  0.500000  1
  Pd  Pd13  1  0.499603  0.734154  0.000000  1
  Pd  Pd14  1  0.500764  0.000000  0.267208  1
  Pd  Pd15  1  0.267653  0.000000  0.500000  1
  Pd  Pd16  1  0.500764  0.000000  0.732792  1
  Pd  Pd17  1  0.732226  0.000000  0.500000  1
  Pd  Pd18  1  0.001058  0.500000  0.267626  1
  Pd  Pd19  1  0.001058  0.500000  0.732374  1
  Pd  Pd20  1  0.254919  0.500000  0.500000  1
  Pd  Pd21  1  0.744928  0.500000  0.500000  1
  Pd  Pd22  1  0.500772  0.255406  0.500000  1
  Pd  Pd23  1  0.500772  0.744594  0.500000  1
  Pd  Pd24  1  0.499056  0.500000  0.256939  1
  Pd  Pd25  1  0.499056  0.500000  0.743061  1
  Pd  Pd26  1  0.316133  0.000000  0.000000  1
  Pd  Pd27  1  0.683812  0.000000  0.000000  1
  Pd  Pd28  1  0.001180  0.315189  0.000000  1
  Pd  Pd29  1  0.001180  0.684811  0.000000  1
  Pd  Pd30  1  0.998859  0.000000  0.315808  1
  Pd  Pd31  1  0.998859  0.000000  0.684192  1
  Au  Au32  1  0.270426  0.500000  0.000000  1
