# generated using pymatgen
data_Ca10Sm2Sn3AsN4
_symmetry_space_group_name_H-M   'P 1'
_cell_length_a   6.87600697
_cell_length_b   6.87481224
_cell_length_c   9.77822300
_cell_angle_alpha   90.00000000
_cell_angle_beta   90.00000000
_cell_angle_gamma   90.00650407
_symmetry_Int_Tables_number   1
_chemical_formula_structural   Ca10Sm2Sn3AsN4
_chemical_formula_sum   'Ca10 Sm2 Sn3 As1 N4'
_cell_volume   462.22888824
_cell_formula_units_Z   1
loop_
 _symmetry_equiv_pos_site_id
 _symmetry_equiv_pos_as_xyz
  1  'x, y, z'
loop_
 _atom_site_type_symbol
 _atom_site_label
 _atom_site_symmetry_multiplicity
 _atom_site_fract_x
 _atom_site_fract_y
 _atom_site_fract_z
 _atom_site_occupancy
  Ca  Ca0  1  0.004959  0.497937  0.250000  1
  Ca  Ca1  1  0.490084  0.000933  0.250000  1
  Ca  Ca2  1  0.749055  0.250757  0.010923  1
  Ca  Ca3  1  0.756122  0.756154  0.487042  1
  Ca  Ca4  1  0.244888  0.244973  0.006140  1
  Ca  Ca5  1  0.251577  0.748356  0.493825  1
  Ca  Ca6  1  0.251577  0.748356  0.006175  1
  Ca  Ca7  1  0.244888  0.244973  0.493860  1
  Ca  Ca8  1  0.756122  0.756154  0.012958  1
  Ca  Ca9  1  0.749055  0.250757  0.489077  1
  Sm  Sm10  1  0.504540  0.999160  0.750000  1
  Sm  Sm11  1  0.995225  0.500739  0.750000  1
  Sn  Sn12  1  0.999827  0.999760  0.750000  1
  Sn  Sn13  1  0.499729  0.499750  0.750000  1
  Sn  Sn14  1  0.499809  0.500248  0.250000  1
  As  As15  1  0.002218  0.000815  0.250000  1
  N  N16  1  0.500089  0.000042  0.503145  1
  N  N17  1  0.000074  0.500047  0.996846  1
  N  N18  1  0.000074  0.500047  0.503154  1
  N  N19  1  0.500089  0.000042  0.996855  1
