# generated using pymatgen
data_Pr7Nd(Ga5Cl2)2
_symmetry_space_group_name_H-M   'P 1'
_cell_length_a   11.41328385
_cell_length_b   11.41328324
_cell_length_c   4.22256200
_cell_angle_alpha   90.00000000
_cell_angle_beta   90.00000000
_cell_angle_gamma   93.81681343
_symmetry_Int_Tables_number   1
_chemical_formula_structural   Pr7Nd(Ga5Cl2)2
_chemical_formula_sum   'Pr7 Nd1 Ga10 Cl4'
_cell_volume   548.82375839
_cell_formula_units_Z   1
loop_
 _symmetry_equiv_pos_site_id
 _symmetry_equiv_pos_as_xyz
  1  'x, y, z'
loop_
 _atom_site_type_symbol
 _atom_site_label
 _atom_site_symmetry_multiplicity
 _atom_site_fract_x
 _atom_site_fract_y
 _atom_site_fract_z
 _atom_site_occupancy
  Pr  Pr0  1  0.680340  0.041052  0.500000  1
  Pr  Pr1  1  0.319595  0.959008  0.500000  1
  Pr  Pr2  1  0.041052  0.680340  0.500000  1
  Pr  Pr3  1  0.959008  0.319595  0.500000  1
  Pr  Pr4  1  0.733837  0.733837  0.000000  1
  Pr  Pr5  1  0.366108  0.633842  0.000000  1
  Pr  Pr6  1  0.633842  0.366108  0.000000  1
  Nd  Nd7  1  0.266266  0.266266  0.000000  1
  Ga  Ga8  1  0.580033  0.580033  0.500000  1
  Ga  Ga9  1  0.419771  0.419771  0.500000  1
  Ga  Ga10  1  0.536943  0.900139  0.000000  1
  Ga  Ga11  1  0.462847  0.100018  0.000000  1
  Ga  Ga12  1  0.900139  0.536943  0.000000  1
  Ga  Ga13  1  0.100018  0.462847  0.000000  1
  Ga  Ga14  1  0.512625  0.783263  0.500000  1
  Ga  Ga15  1  0.487250  0.216752  0.500000  1
  Ga  Ga16  1  0.216752  0.487250  0.500000  1
  Ga  Ga17  1  0.783263  0.512625  0.500000  1
  Cl  Cl18  1  0.128485  0.128485  0.500000  1
  Cl  Cl19  1  0.871823  0.871823  0.500000  1
  Cl  Cl20  1  0.823175  0.176828  0.000000  1
  Cl  Cl21  1  0.176828  0.823175  0.000000  1
