# generated using pymatgen
data_Yb8DyLuIr4
_symmetry_space_group_name_H-M   'P 1'
_cell_length_a   8.49924947
_cell_length_b   8.49924891
_cell_length_c   7.32522731
_cell_angle_alpha   82.68630353
_cell_angle_beta   82.68630398
_cell_angle_gamma   44.89332567
_symmetry_Int_Tables_number   1
_chemical_formula_structural   Yb8DyLuIr4
_chemical_formula_sum   'Yb8 Dy1 Lu1 Ir4'
_cell_volume   369.91159487
_cell_formula_units_Z   1
loop_
 _symmetry_equiv_pos_site_id
 _symmetry_equiv_pos_as_xyz
  1  'x, y, z'
loop_
 _atom_site_type_symbol
 _atom_site_label
 _atom_site_symmetry_multiplicity
 _atom_site_fract_x
 _atom_site_fract_y
 _atom_site_fract_z
 _atom_site_occupancy
  Yb  Yb0  1  0.358666  0.204772  0.320376  1
  Yb  Yb1  1  0.200781  0.970970  0.078853  1
  Yb  Yb2  1  0.798305  0.030324  0.923514  1
  Yb  Yb3  1  0.969676  0.201695  0.576486  1
  Yb  Yb4  1  0.641944  0.795358  0.678953  1
  Yb  Yb5  1  0.204642  0.358056  0.821047  1
  Yb  Yb6  1  0.795228  0.641334  0.179624  1
  Yb  Yb7  1  0.029030  0.799219  0.421147  1
  Dy  Dy8  1  0.434091  0.565909  0.750000  1
  Lu  Lu9  1  0.563397  0.436603  0.250000  1
  Ir  Ir10  1  0.400556  0.810764  0.423317  1
  Ir  Ir11  1  0.189236  0.599444  0.076683  1
  Ir  Ir12  1  0.811856  0.397407  0.928179  1
  Ir  Ir13  1  0.602593  0.188144  0.571821  1
