# generated using pymatgen
data_Nb12Al9Tc3C4
_symmetry_space_group_name_H-M   'P 1'
_cell_length_a   8.39332503
_cell_length_b   8.36188556
_cell_length_c   8.39332500
_cell_angle_alpha   59.87555098
_cell_angle_beta   60.00000407
_cell_angle_gamma   59.87555190
_symmetry_Int_Tables_number   1
_chemical_formula_structural   Nb12Al9Tc3C4
_chemical_formula_sum   'Nb12 Al9 Tc3 C4'
_cell_volume   415.75532973
_cell_formula_units_Z   1
loop_
 _symmetry_equiv_pos_site_id
 _symmetry_equiv_pos_as_xyz
  1  'x, y, z'
loop_
 _atom_site_type_symbol
 _atom_site_label
 _atom_site_symmetry_multiplicity
 _atom_site_fract_x
 _atom_site_fract_y
 _atom_site_fract_z
 _atom_site_occupancy
  Nb  Nb0  1  0.808291  0.810361  0.190674  1
  Nb  Nb1  1  0.191181  0.193972  0.807424  1
  Nb  Nb2  1  0.807424  0.193972  0.807424  1
  Nb  Nb3  1  0.190674  0.810361  0.190674  1
  Nb  Nb4  1  0.190674  0.810361  0.808291  1
  Nb  Nb5  1  0.807424  0.193972  0.191181  1
  Nb  Nb6  1  0.441709  0.439639  0.059326  1
  Nb  Nb7  1  0.058819  0.056028  0.442576  1
  Nb  Nb8  1  0.442576  0.056028  0.442576  1
  Nb  Nb9  1  0.059326  0.439639  0.059326  1
  Nb  Nb10  1  0.059326  0.439639  0.441709  1
  Nb  Nb11  1  0.442576  0.056028  0.058819  1
  Al  Al12  1  0.625000  0.125000  0.625000  1
  Al  Al13  1  0.754976  0.421973  0.411526  1
  Al  Al14  1  0.415139  0.754585  0.415139  1
  Al  Al15  1  0.411526  0.421973  0.754976  1
  Al  Al16  1  0.411526  0.421973  0.411526  1
  Al  Al17  1  0.495024  0.828027  0.838474  1
  Al  Al18  1  0.834861  0.495415  0.834861  1
  Al  Al19  1  0.838474  0.828027  0.495024  1
  Al  Al20  1  0.838474  0.828027  0.838474  1
  Tc  Tc21  1  0.125000  0.625000  0.625000  1
  Tc  Tc22  1  0.625000  0.625000  0.125000  1
  Tc  Tc23  1  0.625000  0.625000  0.625000  1
  C  C24  1  0.625000  0.125000  0.125000  1
  C  C25  1  0.125000  0.625000  0.125000  1
  C  C26  1  0.125000  0.125000  0.625000  1
  C  C27  1  0.125000  0.125000  0.125000  1
