# generated using pymatgen
data_Dy13Y7(Cd3Tc)2
_symmetry_space_group_name_H-M   'P 1'
_cell_length_a   9.57495700
_cell_length_b   9.57495588
_cell_length_c   9.96726000
_cell_angle_alpha   90.00000000
_cell_angle_beta   90.00000000
_cell_angle_gamma   120.00000041
_symmetry_Int_Tables_number   1
_chemical_formula_structural   Dy13Y7(Cd3Tc)2
_chemical_formula_sum   'Dy13 Y7 Cd6 Tc2'
_cell_volume   791.37081694
_cell_formula_units_Z   1
loop_
 _symmetry_equiv_pos_site_id
 _symmetry_equiv_pos_as_xyz
  1  'x, y, z'
loop_
 _atom_site_type_symbol
 _atom_site_label
 _atom_site_symmetry_multiplicity
 _atom_site_fract_x
 _atom_site_fract_y
 _atom_site_fract_z
 _atom_site_occupancy
  Dy  Dy0  1  0.000000  0.000000  0.500000  1
  Dy  Dy1  1  0.210037  0.789963  0.440827  1
  Dy  Dy2  1  0.210037  0.420074  0.440827  1
  Dy  Dy3  1  0.579926  0.789963  0.440827  1
  Dy  Dy4  1  0.789963  0.210037  0.559173  1
  Dy  Dy5  1  0.789963  0.579926  0.559173  1
  Dy  Dy6  1  0.420074  0.210037  0.559173  1
  Dy  Dy7  1  0.789910  0.210090  0.940748  1
  Dy  Dy8  1  0.789910  0.579820  0.940748  1
  Dy  Dy9  1  0.420180  0.210090  0.940748  1
  Dy  Dy10  1  0.210090  0.789910  0.059252  1
  Dy  Dy11  1  0.210090  0.420180  0.059252  1
  Dy  Dy12  1  0.579820  0.789910  0.059252  1
  Y  Y13  1  0.000000  0.000000  0.000000  1
  Y  Y14  1  0.539694  0.460306  0.250063  1
  Y  Y15  1  0.539694  0.079389  0.250063  1
  Y  Y16  1  0.920611  0.460306  0.250063  1
  Y  Y17  1  0.460306  0.539694  0.749937  1
  Y  Y18  1  0.460306  0.920611  0.749937  1
  Y  Y19  1  0.079389  0.539694  0.749937  1
  Cd  Cd20  1  0.885427  0.114573  0.249999  1
  Cd  Cd21  1  0.885427  0.770855  0.249999  1
  Cd  Cd22  1  0.229145  0.114573  0.249999  1
  Cd  Cd23  1  0.114573  0.885427  0.750001  1
  Cd  Cd24  1  0.114573  0.229145  0.750001  1
  Cd  Cd25  1  0.770855  0.885427  0.750001  1
  Tc  Tc26  1  0.333333  0.666667  0.249979  1
  Tc  Tc27  1  0.666667  0.333333  0.750021  1
