# generated using pymatgen
data_YbHo2Sc2(In2Pt)2
_symmetry_space_group_name_H-M   'P 1'
_cell_length_a   3.54917000
_cell_length_b   8.02563200
_cell_length_c   17.96149600
_cell_angle_alpha   90.00000000
_cell_angle_beta   90.00000000
_cell_angle_gamma   90.00000000
_symmetry_Int_Tables_number   1
_chemical_formula_structural   YbHo2Sc2(In2Pt)2
_chemical_formula_sum   'Yb2 Ho4 Sc4 In8 Pt4'
_cell_volume   511.62122113
_cell_formula_units_Z   2
loop_
 _symmetry_equiv_pos_site_id
 _symmetry_equiv_pos_as_xyz
  1  'x, y, z'
loop_
 _atom_site_type_symbol
 _atom_site_label
 _atom_site_symmetry_multiplicity
 _atom_site_fract_x
 _atom_site_fract_y
 _atom_site_fract_z
 _atom_site_occupancy
  Yb  Yb0  1  0.000000  0.000000  0.000000  1
  Yb  Yb1  1  0.000000  0.500000  0.500000  1
  Ho  Ho2  1  0.000000  0.241671  0.216890  1
  Ho  Ho3  1  0.000000  0.758329  0.783110  1
  Ho  Ho4  1  0.000000  0.258329  0.716890  1
  Ho  Ho5  1  0.000000  0.741671  0.283110  1
  Sc  Sc6  1  0.000000  0.119656  0.413072  1
  Sc  Sc7  1  0.000000  0.880344  0.586928  1
  Sc  Sc8  1  0.000000  0.380344  0.913072  1
  Sc  Sc9  1  0.000000  0.619656  0.086928  1
  In  In10  1  0.500000  0.415164  0.350699  1
  In  In11  1  0.500000  0.584836  0.649301  1
  In  In12  1  0.500000  0.084836  0.850699  1
  In  In13  1  0.500000  0.915164  0.149301  1
  In  In14  1  0.500000  0.306439  0.060392  1
  In  In15  1  0.500000  0.693561  0.939608  1
  In  In16  1  0.500000  0.193561  0.560392  1
  In  In17  1  0.500000  0.806439  0.439608  1
  Pt  Pt18  1  0.500000  0.030052  0.307083  1
  Pt  Pt19  1  0.500000  0.969948  0.692917  1
  Pt  Pt20  1  0.500000  0.469948  0.807083  1
  Pt  Pt21  1  0.500000  0.530052  0.192917  1
