# generated using pymatgen
data_Lu3B4Ru10W3
_symmetry_space_group_name_H-M   'P 1'
_cell_length_a   9.52685527
_cell_length_b   9.52685634
_cell_length_c   3.05195100
_cell_angle_alpha   90.00000000
_cell_angle_beta   90.00000000
_cell_angle_gamma   89.91821372
_symmetry_Int_Tables_number   1
_chemical_formula_structural   Lu3B4Ru10W3
_chemical_formula_sum   'Lu3 B4 Ru10 W3'
_cell_volume   276.99778624
_cell_formula_units_Z   1
loop_
 _symmetry_equiv_pos_site_id
 _symmetry_equiv_pos_as_xyz
  1  'x, y, z'
loop_
 _atom_site_type_symbol
 _atom_site_label
 _atom_site_symmetry_multiplicity
 _atom_site_fract_x
 _atom_site_fract_y
 _atom_site_fract_z
 _atom_site_occupancy
  Lu  Lu0  1  0.175324  0.824676  0.000000  1
  Lu  Lu1  1  0.323958  0.324853  0.000000  1
  Lu  Lu2  1  0.675147  0.676042  0.000000  1
  B  B3  1  0.622138  0.377862  0.000000  1
  B  B4  1  0.381487  0.618513  0.000000  1
  B  B5  1  0.120365  0.121472  0.000000  1
  B  B6  1  0.878528  0.879635  0.000000  1
  Ru  Ru7  1  0.503244  0.496756  0.500000  1
  Ru  Ru8  1  0.991385  0.008615  0.500000  1
  Ru  Ru9  1  0.582600  0.211722  0.500000  1
  Ru  Ru10  1  0.432088  0.783294  0.500000  1
  Ru  Ru11  1  0.057767  0.281344  0.500000  1
  Ru  Ru12  1  0.928885  0.718327  0.500000  1
  Ru  Ru13  1  0.281673  0.071115  0.500000  1
  Ru  Ru14  1  0.718656  0.942233  0.500000  1
  Ru  Ru15  1  0.216706  0.567912  0.500000  1
  Ru  Ru16  1  0.788278  0.417400  0.500000  1
  W  W17  1  0.496265  0.997725  0.000000  1
  W  W18  1  0.002275  0.503735  0.000000  1
  W  W19  1  0.823233  0.176767  0.000000  1
