# generated using pymatgen
data_Cs2Pu(OF2)2
_symmetry_space_group_name_H-M   'P 1'
_cell_length_a   6.49922017
_cell_length_b   6.49921977
_cell_length_c   5.17507285
_cell_angle_alpha   88.55429038
_cell_angle_beta   88.55429134
_cell_angle_gamma   62.54837867
_symmetry_Int_Tables_number   1
_chemical_formula_structural   Cs2Pu(OF2)2
_chemical_formula_sum   'Cs2 Pu1 O2 F4'
_cell_volume   193.89618446
_cell_formula_units_Z   1
loop_
 _symmetry_equiv_pos_site_id
 _symmetry_equiv_pos_as_xyz
  1  'x, y, z'
loop_
 _atom_site_type_symbol
 _atom_site_label
 _atom_site_symmetry_multiplicity
 _atom_site_fract_x
 _atom_site_fract_y
 _atom_site_fract_z
 _atom_site_occupancy
  Cs  Cs0  1  0.335981  0.335981  0.309309  1
  Cs  Cs1  1  0.664019  0.664019  0.690691  1
  Pu  Pu2  1  0.000000  0.000000  0.000000  1
  O  O3  1  0.137306  0.137306  0.803185  1
  O  O4  1  0.862694  0.862694  0.196815  1
  F  F5  1  0.680320  0.156145  0.774596  1
  F  F6  1  0.156145  0.680320  0.774596  1
  F  F7  1  0.319680  0.843855  0.225404  1
  F  F8  1  0.843855  0.319680  0.225404  1
