# generated using pymatgen
data_Ho3Fe4P6Rh5
_symmetry_space_group_name_H-M   'P 1'
_cell_length_a   3.80058300
_cell_length_b   11.01307000
_cell_length_c   12.39476900
_cell_angle_alpha   90.00000000
_cell_angle_beta   90.00000000
_cell_angle_gamma   90.00000000
_symmetry_Int_Tables_number   1
_chemical_formula_structural   Ho3Fe4P6Rh5
_chemical_formula_sum   'Ho6 Fe8 P12 Rh10'
_cell_volume   518.79652490
_cell_formula_units_Z   2
loop_
 _symmetry_equiv_pos_site_id
 _symmetry_equiv_pos_as_xyz
  1  'x, y, z'
loop_
 _atom_site_type_symbol
 _atom_site_label
 _atom_site_symmetry_multiplicity
 _atom_site_fract_x
 _atom_site_fract_y
 _atom_site_fract_z
 _atom_site_occupancy
  Ho  Ho0  1  0.000000  0.500000  0.519092  1
  Ho  Ho1  1  0.500000  0.000000  0.474738  1
  Ho  Ho2  1  0.500000  0.817320  0.195214  1
  Ho  Ho3  1  0.500000  0.182680  0.195214  1
  Ho  Ho4  1  0.000000  0.677896  0.806733  1
  Ho  Ho5  1  0.000000  0.322104  0.806733  1
  Fe  Fe6  1  0.000000  0.500000  0.994538  1
  Fe  Fe7  1  0.500000  0.000000  0.008803  1
  Fe  Fe8  1  0.000000  0.618126  0.283020  1
  Fe  Fe9  1  0.000000  0.381874  0.283020  1
  Fe  Fe10  1  0.500000  0.334157  0.997747  1
  Fe  Fe11  1  0.500000  0.665843  0.997747  1
  Fe  Fe12  1  0.000000  0.166919  0.006982  1
  Fe  Fe13  1  0.000000  0.833081  0.006982  1
  P  P14  1  0.500000  0.314584  0.620526  1
  P  P15  1  0.500000  0.685416  0.620526  1
  P  P16  1  0.000000  0.196757  0.369820  1
  P  P17  1  0.000000  0.803243  0.369820  1
  P  P18  1  0.500000  0.500000  0.897105  1
  P  P19  1  0.000000  0.000000  0.105741  1
  P  P20  1  0.500000  0.837809  0.908857  1
  P  P21  1  0.500000  0.162191  0.908857  1
  P  P22  1  0.000000  0.658513  0.100863  1
  P  P23  1  0.000000  0.341487  0.100863  1
  P  P24  1  0.500000  0.500000  0.338320  1
  P  P25  1  0.000000  0.000000  0.653948  1
  Rh  Rh26  1  0.500000  0.301683  0.426059  1
  Rh  Rh27  1  0.500000  0.698317  0.426059  1
  Rh  Rh28  1  0.000000  0.205656  0.568958  1
  Rh  Rh29  1  0.000000  0.794344  0.568958  1
  Rh  Rh30  1  0.500000  0.873489  0.717655  1
  Rh  Rh31  1  0.500000  0.126511  0.717655  1
  Rh  Rh32  1  0.500000  0.500000  0.154301  1
  Rh  Rh33  1  0.000000  0.000000  0.845900  1
  Rh  Rh34  1  0.500000  0.500000  0.705844  1
  Rh  Rh35  1  0.000000  0.000000  0.296799  1
