# generated using pymatgen
data_Zr12Al9Pd3C4
_symmetry_space_group_name_H-M   'P 1'
_cell_length_a   8.73080122
_cell_length_b   8.73080100
_cell_length_c   8.74294668
_cell_angle_alpha   60.04593517
_cell_angle_beta   60.04594147
_cell_angle_gamma   59.99999173
_symmetry_Int_Tables_number   1
_chemical_formula_structural   Zr12Al9Pd3C4
_chemical_formula_sum   'Zr12 Al9 Pd3 C4'
_cell_volume   471.57655074
_cell_formula_units_Z   1
loop_
 _symmetry_equiv_pos_site_id
 _symmetry_equiv_pos_as_xyz
  1  'x, y, z'
loop_
 _atom_site_type_symbol
 _atom_site_label
 _atom_site_symmetry_multiplicity
 _atom_site_fract_x
 _atom_site_fract_y
 _atom_site_fract_z
 _atom_site_occupancy
  Zr  Zr0  1  0.438990  0.438990  0.058699  1
  Zr  Zr1  1  0.063321  0.438990  0.058699  1
  Zr  Zr2  1  0.438990  0.063321  0.058699  1
  Zr  Zr3  1  0.062354  0.062354  0.436998  1
  Zr  Zr4  1  0.438293  0.062354  0.436998  1
  Zr  Zr5  1  0.062354  0.438293  0.436998  1
  Zr  Zr6  1  0.811010  0.811010  0.191301  1
  Zr  Zr7  1  0.186679  0.811010  0.191301  1
  Zr  Zr8  1  0.811010  0.186679  0.191301  1
  Zr  Zr9  1  0.187646  0.187646  0.813002  1
  Zr  Zr10  1  0.811707  0.187646  0.813002  1
  Zr  Zr11  1  0.187646  0.811707  0.813002  1
  Al  Al12  1  0.831719  0.831719  0.504844  1
  Al  Al13  1  0.836476  0.507795  0.819252  1
  Al  Al14  1  0.507795  0.836476  0.819252  1
  Al  Al15  1  0.836476  0.836476  0.819252  1
  Al  Al16  1  0.418281  0.418281  0.745156  1
  Al  Al17  1  0.413524  0.742205  0.430748  1
  Al  Al18  1  0.742205  0.413524  0.430748  1
  Al  Al19  1  0.413524  0.413524  0.430748  1
  Al  Al20  1  0.625000  0.625000  0.125000  1
  Pd  Pd21  1  0.625000  0.125000  0.625000  1
  Pd  Pd22  1  0.125000  0.625000  0.625000  1
  Pd  Pd23  1  0.625000  0.625000  0.625000  1
  C  C24  1  0.125000  0.125000  0.625000  1
  C  C25  1  0.125000  0.625000  0.125000  1
  C  C26  1  0.625000  0.125000  0.125000  1
  C  C27  1  0.125000  0.125000  0.125000  1
