# generated using pymatgen
data_Sc4In2TcHg
_symmetry_space_group_name_H-M   'P 1'
_cell_length_a   6.98738804
_cell_length_b   6.90186100
_cell_length_c   6.98638503
_cell_angle_alpha   89.99848662
_cell_angle_beta   90.01188244
_cell_angle_gamma   90.00011488
_symmetry_Int_Tables_number   1
_chemical_formula_structural   Sc4In2TcHg
_chemical_formula_sum   'Sc8 In4 Tc2 Hg2'
_cell_volume   336.92526480
_cell_formula_units_Z   2
loop_
 _symmetry_equiv_pos_site_id
 _symmetry_equiv_pos_as_xyz
  1  'x, y, z'
loop_
 _atom_site_type_symbol
 _atom_site_label
 _atom_site_symmetry_multiplicity
 _atom_site_fract_x
 _atom_site_fract_y
 _atom_site_fract_z
 _atom_site_occupancy
  Sc  Sc0  1  0.769048  0.499964  0.269026  1
  Sc  Sc1  1  0.769053  0.000050  0.269060  1
  Sc  Sc2  1  0.229788  0.500018  0.270199  1
  Sc  Sc3  1  0.229787  0.000013  0.270262  1
  Sc  Sc4  1  0.770212  0.999987  0.729738  1
  Sc  Sc5  1  0.770211  0.499983  0.729802  1
  Sc  Sc6  1  0.230953  0.500036  0.730974  1
  Sc  Sc7  1  0.230948  0.999950  0.730940  1
  In  In8  1  0.000009  0.249985  0.999947  1
  In  In9  1  0.999991  0.750016  0.000053  1
  In  In10  1  0.500043  0.749955  0.500022  1
  In  In11  1  0.499958  0.250046  0.499979  1
  Tc  Tc12  1  0.000034  0.250058  0.500023  1
  Tc  Tc13  1  0.999966  0.749943  0.499977  1
  Hg  Hg14  1  0.500006  0.249978  0.000016  1
  Hg  Hg15  1  0.499995  0.750023  0.999984  1
