# generated using pymatgen
data_Nd2Dy2TcB12Ru
_symmetry_space_group_name_H-M   'P 1'
_cell_length_a   3.73213000
_cell_length_b   9.23326001
_cell_length_c   11.67862821
_cell_angle_alpha   89.85299576
_cell_angle_beta   90.00000000
_cell_angle_gamma   90.00000000
_symmetry_Int_Tables_number   1
_chemical_formula_structural   Nd2Dy2TcB12Ru
_chemical_formula_sum   'Nd4 Dy4 Tc2 B24 Ru2'
_cell_volume   402.44101132
_cell_formula_units_Z   2
loop_
 _symmetry_equiv_pos_site_id
 _symmetry_equiv_pos_as_xyz
  1  'x, y, z'
loop_
 _atom_site_type_symbol
 _atom_site_label
 _atom_site_symmetry_multiplicity
 _atom_site_fract_x
 _atom_site_fract_y
 _atom_site_fract_z
 _atom_site_occupancy
  Nd  Nd0  1  0.000000  0.324343  0.415259  1
  Nd  Nd1  1  0.000000  0.675657  0.584741  1
  Nd  Nd2  1  0.000000  0.821851  0.086670  1
  Nd  Nd3  1  0.000000  0.178149  0.913330  1
  Dy  Dy4  1  0.000000  0.941976  0.369807  1
  Dy  Dy5  1  0.000000  0.058024  0.630193  1
  Dy  Dy6  1  0.000000  0.443235  0.130636  1
  Dy  Dy7  1  0.000000  0.556765  0.869364  1
  Tc  Tc8  1  0.000000  0.639399  0.318907  1
  Tc  Tc9  1  0.000000  0.360601  0.681093  1
  B  B10  1  0.500000  0.555110  0.430613  1
  B  B11  1  0.500000  0.444890  0.569387  1
  B  B12  1  0.500000  0.055926  0.069646  1
  B  B13  1  0.500000  0.944074  0.930354  1
  B  B14  1  0.500000  0.749065  0.416330  1
  B  B15  1  0.500000  0.250935  0.583670  1
  B  B16  1  0.500000  0.249241  0.083611  1
  B  B17  1  0.500000  0.750759  0.916389  1
  B  B18  1  0.500000  0.790333  0.265947  1
  B  B19  1  0.500000  0.209667  0.734053  1
  B  B20  1  0.500000  0.289483  0.233632  1
  B  B21  1  0.500000  0.710517  0.766368  1
  B  B22  1  0.500000  0.630264  0.185866  1
  B  B23  1  0.500000  0.369736  0.814134  1
  B  B24  1  0.500000  0.129792  0.313286  1
  B  B25  1  0.500000  0.870208  0.686714  1
  B  B26  1  0.500000  0.985345  0.212772  1
  B  B27  1  0.500000  0.014655  0.787228  1
  B  B28  1  0.500000  0.485225  0.286773  1
  B  B29  1  0.500000  0.514775  0.713227  1
  B  B30  1  0.500000  0.599623  0.027155  1
  B  B31  1  0.500000  0.400377  0.972845  1
  B  B32  1  0.500000  0.098895  0.472618  1
  B  B33  1  0.500000  0.901105  0.527382  1
  Ru  Ru34  1  0.000000  0.138825  0.180209  1
  Ru  Ru35  1  0.000000  0.861175  0.819791  1
