# generated using pymatgen
data_NdEuNi2(SbH2)2
_symmetry_space_group_name_H-M   'P 1'
_cell_length_a   4.37743000
_cell_length_b   4.37742863
_cell_length_c   8.57651600
_cell_angle_alpha   90.00000000
_cell_angle_beta   90.00000000
_cell_angle_gamma   120.00001036
_symmetry_Int_Tables_number   1
_chemical_formula_structural   NdEuNi2(SbH2)2
_chemical_formula_sum   'Nd1 Eu1 Ni2 Sb2 H4'
_cell_volume   142.32453461
_cell_formula_units_Z   1
loop_
 _symmetry_equiv_pos_site_id
 _symmetry_equiv_pos_as_xyz
  1  'x, y, z'
loop_
 _atom_site_type_symbol
 _atom_site_label
 _atom_site_symmetry_multiplicity
 _atom_site_fract_x
 _atom_site_fract_y
 _atom_site_fract_z
 _atom_site_occupancy
  Nd  Nd0  1  0.000000  0.000000  0.500000  1
  Eu  Eu1  1  0.000000  0.000000  0.000000  1
  Ni  Ni2  1  0.666667  0.333333  0.254246  1
  Ni  Ni3  1  0.333333  0.666667  0.745754  1
  Sb  Sb4  1  0.333333  0.666667  0.248007  1
  Sb  Sb5  1  0.666667  0.333333  0.751993  1
  H  H6  1  0.333333  0.666667  0.932434  1
  H  H7  1  0.666667  0.333333  0.067566  1
  H  H8  1  0.333333  0.666667  0.559205  1
  H  H9  1  0.666667  0.333333  0.440795  1
