# generated using pymatgen
data_CaFe4PbCl16
_symmetry_space_group_name_H-M   'P 1'
_cell_length_a   7.43384097
_cell_length_b   7.58446386
_cell_length_c   13.92685860
_cell_angle_alpha   86.74038516
_cell_angle_beta   89.81017376
_cell_angle_gamma   89.71228252
_symmetry_Int_Tables_number   1
_chemical_formula_structural   CaFe4PbCl16
_chemical_formula_sum   'Ca1 Fe4 Pb1 Cl16'
_cell_volume   783.93607601
_cell_formula_units_Z   1
loop_
 _symmetry_equiv_pos_site_id
 _symmetry_equiv_pos_as_xyz
  1  'x, y, z'
loop_
 _atom_site_type_symbol
 _atom_site_label
 _atom_site_symmetry_multiplicity
 _atom_site_fract_x
 _atom_site_fract_y
 _atom_site_fract_z
 _atom_site_occupancy
  Ca  Ca0  1  0.252066  0.000011  0.005287  1
  Fe  Fe1  1  0.934900  0.438146  0.538497  1
  Fe  Fe2  1  0.434109  0.860920  0.234982  1
  Fe  Fe3  1  0.556450  0.853171  0.746323  1
  Fe  Fe4  1  0.076635  0.437138  0.037673  1
  Pb  Pb5  1  0.740834  0.996455  0.501620  1
  Cl  Cl6  1  0.936839  0.462312  0.171214  1
  Cl  Cl7  1  0.065640  0.465835  0.673783  1
  Cl  Cl8  1  0.649570  0.347256  0.559437  1
  Cl  Cl9  1  0.357414  0.334539  0.059574  1
  Cl  Cl10  1  0.943726  0.685816  0.443413  1
  Cl  Cl11  1  0.080277  0.696447  0.951118  1
  Cl  Cl12  1  0.425672  0.843619  0.601513  1
  Cl  Cl13  1  0.557900  0.844614  0.088405  1
  Cl  Cl14  1  0.056571  0.215735  0.460014  1
  Cl  Cl15  1  0.956253  0.217117  0.957793  1
  Cl  Cl16  1  0.150797  0.940620  0.197309  1
  Cl  Cl17  1  0.834970  0.941989  0.704781  1
  Cl  Cl18  1  0.444064  0.615972  0.320094  1
  Cl  Cl19  1  0.559104  0.602288  0.825348  1
  Cl  Cl20  1  0.568307  0.075221  0.311796  1
  Cl  Cl21  1  0.417902  0.061980  0.828027  1
