# generated using pymatgen
data_SmY2In3HgRh2
_symmetry_space_group_name_H-M   'P 1'
_cell_length_a   7.89336191
_cell_length_b   7.91274534
_cell_length_c   3.82390100
_cell_angle_alpha   90.00000000
_cell_angle_beta   90.00000000
_cell_angle_gamma   120.09230051
_symmetry_Int_Tables_number   1
_chemical_formula_structural   SmY2In3HgRh2
_chemical_formula_sum   'Sm1 Y2 In3 Hg1 Rh2'
_cell_volume   206.64352217
_cell_formula_units_Z   1
loop_
 _symmetry_equiv_pos_site_id
 _symmetry_equiv_pos_as_xyz
  1  'x, y, z'
loop_
 _atom_site_type_symbol
 _atom_site_label
 _atom_site_symmetry_multiplicity
 _atom_site_fract_x
 _atom_site_fract_y
 _atom_site_fract_z
 _atom_site_occupancy
  Sm  Sm0  1  0.415877  0.027338  0.500000  1
  Y  Y1  1  0.971095  0.388287  0.500000  1
  Y  Y2  1  0.612925  0.585447  0.500000  1
  In  In3  1  0.255216  0.256425  0.000000  1
  In  In4  1  0.996652  0.741427  0.000000  1
  In  In5  1  0.748143  0.002542  0.000000  1
  Hg  Hg6  1  0.332743  0.664315  0.000000  1
  Rh  Rh7  1  0.999913  0.998595  0.500000  1
  Rh  Rh8  1  0.667438  0.335624  0.000000  1
