# generated using pymatgen
data_Li2MgScTaNb7N12
_symmetry_space_group_name_H-M   'P 1'
_cell_length_a   5.26833800
_cell_length_b   5.26833753
_cell_length_c   10.42102200
_cell_angle_alpha   90.00000000
_cell_angle_beta   90.00000000
_cell_angle_gamma   120.00000296
_symmetry_Int_Tables_number   1
_chemical_formula_structural   Li2MgScTaNb7N12
_chemical_formula_sum   'Li2 Mg1 Sc1 Ta1 Nb7 N12'
_cell_volume   250.48870816
_cell_formula_units_Z   1
loop_
 _symmetry_equiv_pos_site_id
 _symmetry_equiv_pos_as_xyz
  1  'x, y, z'
loop_
 _atom_site_type_symbol
 _atom_site_label
 _atom_site_symmetry_multiplicity
 _atom_site_fract_x
 _atom_site_fract_y
 _atom_site_fract_z
 _atom_site_occupancy
  Li  Li0  1  0.333333  0.666667  0.000000  1
  Li  Li1  1  0.333333  0.666667  0.500000  1
  Mg  Mg2  1  0.666667  0.333333  0.000000  1
  Sc  Sc3  1  0.666667  0.333333  0.500000  1
  Ta  Ta4  1  0.000000  0.000000  0.000000  1
  Nb  Nb5  1  0.004046  0.342723  0.249630  1
  Nb  Nb6  1  0.657277  0.995954  0.750370  1
  Nb  Nb7  1  0.338677  0.342723  0.750370  1
  Nb  Nb8  1  0.000000  0.000000  0.500000  1
  Nb  Nb9  1  0.657277  0.661323  0.249630  1
  Nb  Nb10  1  0.338677  0.995954  0.249630  1
  Nb  Nb11  1  0.004046  0.661323  0.750370  1
  N  N12  1  0.671793  0.671809  0.622466  1
  N  N13  1  0.677092  0.673915  0.879043  1
  N  N14  1  0.326085  0.322908  0.120957  1
  N  N15  1  0.328191  0.328207  0.377534  1
  N  N16  1  0.326085  0.003177  0.879043  1
  N  N17  1  0.328191  0.999985  0.622466  1
  N  N18  1  0.000015  0.671809  0.377534  1
  N  N19  1  0.996823  0.673915  0.120957  1
  N  N20  1  0.677092  0.003177  0.120957  1
  N  N21  1  0.671793  0.999985  0.377534  1
  N  N22  1  0.996823  0.322908  0.879043  1
  N  N23  1  0.000015  0.328207  0.622466  1
