# generated using pymatgen
data_La3PrHoIn3Br
_symmetry_space_group_name_H-M   'P 1'
_cell_length_a   9.67812800
_cell_length_b   9.67812702
_cell_length_c   6.87103900
_cell_angle_alpha   90.00000000
_cell_angle_beta   90.00000000
_cell_angle_gamma   120.00001019
_symmetry_Int_Tables_number   1
_chemical_formula_structural   La3PrHoIn3Br
_chemical_formula_sum   'La6 Pr2 Ho2 In6 Br2'
_cell_volume   557.35984924
_cell_formula_units_Z   2
loop_
 _symmetry_equiv_pos_site_id
 _symmetry_equiv_pos_as_xyz
  1  'x, y, z'
loop_
 _atom_site_type_symbol
 _atom_site_label
 _atom_site_symmetry_multiplicity
 _atom_site_fract_x
 _atom_site_fract_y
 _atom_site_fract_z
 _atom_site_occupancy
  La  La0  1  0.732952  0.732952  0.252484  1
  La  La1  1  0.000000  0.732952  0.747516  1
  La  La2  1  0.732952  0.000000  0.747516  1
  La  La3  1  0.267048  0.267048  0.747516  1
  La  La4  1  0.000000  0.267048  0.252484  1
  La  La5  1  0.267048  0.000000  0.252484  1
  Pr  Pr6  1  0.333333  0.666667  0.000000  1
  Pr  Pr7  1  0.666667  0.333333  0.000000  1
  Ho  Ho8  1  0.333333  0.666667  0.500000  1
  Ho  Ho9  1  0.666667  0.333333  0.500000  1
  In  In10  1  0.393074  0.000000  0.745033  1
  In  In11  1  0.000000  0.606926  0.254967  1
  In  In12  1  0.606926  0.000000  0.254967  1
  In  In13  1  0.000000  0.393074  0.745033  1
  In  In14  1  0.393074  0.393074  0.254967  1
  In  In15  1  0.606926  0.606926  0.745033  1
  Br  Br16  1  0.000000  0.000000  0.500000  1
  Br  Br17  1  0.000000  0.000000  0.000000  1
