# generated using pymatgen
data_Y5Sc5Si20(IrPt)4
_symmetry_space_group_name_H-M   'P 1'
_cell_length_a   12.54495207
_cell_length_b   12.49000107
_cell_length_c   4.21162100
_cell_angle_alpha   90.00000000
_cell_angle_beta   90.00000000
_cell_angle_gamma   89.98748574
_symmetry_Int_Tables_number   1
_chemical_formula_structural   Y5Sc5Si20(IrPt)4
_chemical_formula_sum   'Y5 Sc5 Si20 Ir4 Pt4'
_cell_volume   659.90399022
_cell_formula_units_Z   1
loop_
 _symmetry_equiv_pos_site_id
 _symmetry_equiv_pos_as_xyz
  1  'x, y, z'
loop_
 _atom_site_type_symbol
 _atom_site_label
 _atom_site_symmetry_multiplicity
 _atom_site_fract_x
 _atom_site_fract_y
 _atom_site_fract_z
 _atom_site_occupancy
  Y  Y0  1  0.000000  0.000000  0.000000  1
  Y  Y1  1  0.885500  0.385625  0.500000  1
  Y  Y2  1  0.114500  0.614375  0.500000  1
  Y  Y3  1  0.386572  0.115760  0.500000  1
  Y  Y4  1  0.613428  0.884240  0.500000  1
  Sc  Sc5  1  0.500000  0.500000  0.000000  1
  Sc  Sc6  1  0.672492  0.175805  0.500000  1
  Sc  Sc7  1  0.327508  0.824195  0.500000  1
  Sc  Sc8  1  0.174279  0.325998  0.500000  1
  Sc  Sc9  1  0.825721  0.674002  0.500000  1
  Si  Si10  1  0.563869  0.069384  0.000000  1
  Si  Si11  1  0.436131  0.930616  0.000000  1
  Si  Si12  1  0.065812  0.432621  0.000000  1
  Si  Si13  1  0.934188  0.567379  0.000000  1
  Si  Si14  1  0.664884  0.702098  0.000000  1
  Si  Si15  1  0.335116  0.297902  0.000000  1
  Si  Si16  1  0.165083  0.797170  0.000000  1
  Si  Si17  1  0.834917  0.202830  0.000000  1
  Si  Si18  1  0.300944  0.667533  0.000000  1
  Si  Si19  1  0.699056  0.332467  0.000000  1
  Si  Si20  1  0.199343  0.168044  0.000000  1
  Si  Si21  1  0.800657  0.831956  0.000000  1
  Si  Si22  1  0.649097  0.506976  0.500000  1
  Si  Si23  1  0.350903  0.493024  0.500000  1
  Si  Si24  1  0.155814  0.993765  0.500000  1
  Si  Si25  1  0.844186  0.006235  0.500000  1
  Si  Si26  1  0.493105  0.651192  0.500000  1
  Si  Si27  1  0.506895  0.348808  0.500000  1
  Si  Si28  1  0.006321  0.157834  0.500000  1
  Si  Si29  1  0.993679  0.842166  0.500000  1
  Ir  Ir30  1  0.479209  0.741223  0.000000  1
  Ir  Ir31  1  0.520791  0.258777  0.000000  1
  Ir  Ir32  1  0.021099  0.245159  0.000000  1
  Ir  Ir33  1  0.978901  0.754841  0.000000  1
  Pt  Pt34  1  0.742747  0.520739  0.000000  1
  Pt  Pt35  1  0.257253  0.479261  0.000000  1
  Pt  Pt36  1  0.246686  0.978910  0.000000  1
  Pt  Pt37  1  0.753314  0.021090  0.000000  1
