# generated using pymatgen
data_Dy2HoIn3HgIr2
_symmetry_space_group_name_H-M   'P 1'
_cell_length_a   7.80161712
_cell_length_b   7.80255724
_cell_length_c   3.87258300
_cell_angle_alpha   90.00000000
_cell_angle_beta   90.00000000
_cell_angle_gamma   120.01649027
_symmetry_Int_Tables_number   1
_chemical_formula_structural   Dy2HoIn3HgIr2
_chemical_formula_sum   'Dy2 Ho1 In3 Hg1 Ir2'
_cell_volume   204.11775028
_cell_formula_units_Z   1
loop_
 _symmetry_equiv_pos_site_id
 _symmetry_equiv_pos_as_xyz
  1  'x, y, z'
loop_
 _atom_site_type_symbol
 _atom_site_label
 _atom_site_symmetry_multiplicity
 _atom_site_fract_x
 _atom_site_fract_y
 _atom_site_fract_z
 _atom_site_occupancy
  Dy  Dy0  1  0.584847  0.614935  0.000000  1
  Dy  Dy1  1  0.384994  0.969927  0.000000  1
  Ho  Ho2  1  0.030528  0.415138  0.000000  1
  In  In3  1  0.002093  0.745012  0.500000  1
  In  In4  1  0.254726  0.257069  0.500000  1
  In  In5  1  0.743090  0.998002  0.500000  1
  Hg  Hg6  1  0.666913  0.333390  0.500000  1
  Ir  Ir7  1  0.999992  0.000248  0.000000  1
  Ir  Ir8  1  0.332818  0.666281  0.500000  1
