# generated using pymatgen
data_TmMnGaO5
_symmetry_space_group_name_H-M   'P 1'
_cell_length_a   5.72922800
_cell_length_b   7.27778200
_cell_length_c   8.48936700
_cell_angle_alpha   90.00000000
_cell_angle_beta   90.00000000
_cell_angle_gamma   90.00000000
_symmetry_Int_Tables_number   1
_chemical_formula_structural   TmMnGaO5
_chemical_formula_sum   'Tm4 Mn4 Ga4 O20'
_cell_volume   353.97326117
_cell_formula_units_Z   4
loop_
 _symmetry_equiv_pos_site_id
 _symmetry_equiv_pos_as_xyz
  1  'x, y, z'
loop_
 _atom_site_type_symbol
 _atom_site_label
 _atom_site_symmetry_multiplicity
 _atom_site_fract_x
 _atom_site_fract_y
 _atom_site_fract_z
 _atom_site_occupancy
  Tm  Tm0  1  0.500000  0.366823  0.331901  1
  Tm  Tm1  1  0.500000  0.633177  0.668099  1
  Tm  Tm2  1  0.500000  0.133177  0.831901  1
  Tm  Tm3  1  0.500000  0.866823  0.168099  1
  Mn  Mn4  1  0.249752  0.000000  0.500000  1
  Mn  Mn5  1  0.750248  0.000000  0.500000  1
  Mn  Mn6  1  0.750248  0.500000  0.000000  1
  Mn  Mn7  1  0.249752  0.500000  0.000000  1
  Ga  Ga8  1  0.000000  0.107779  0.147152  1
  Ga  Ga9  1  0.000000  0.892221  0.852848  1
  Ga  Ga10  1  0.000000  0.392221  0.647152  1
  Ga  Ga11  1  0.000000  0.607779  0.352848  1
  O  O12  1  0.500000  0.336983  0.059415  1
  O  O13  1  0.500000  0.663017  0.940585  1
  O  O14  1  0.500000  0.163017  0.559415  1
  O  O15  1  0.500000  0.836983  0.440585  1
  O  O16  1  0.232334  0.000000  0.000000  1
  O  O17  1  0.767666  0.000000  0.000000  1
  O  O18  1  0.767666  0.500000  0.500000  1
  O  O19  1  0.232334  0.500000  0.500000  1
  O  O20  1  0.261659  0.109390  0.293483  1
  O  O21  1  0.738341  0.890610  0.706517  1
  O  O22  1  0.261659  0.890610  0.706517  1
  O  O23  1  0.738341  0.390610  0.793483  1
  O  O24  1  0.738341  0.109390  0.293483  1
  O  O25  1  0.261659  0.609390  0.206517  1
  O  O26  1  0.738341  0.609390  0.206517  1
  O  O27  1  0.261659  0.390610  0.793483  1
  O  O28  1  0.000000  0.350337  0.072789  1
  O  O29  1  0.000000  0.649663  0.927211  1
  O  O30  1  0.000000  0.149663  0.572789  1
  O  O31  1  0.000000  0.850337  0.427211  1
