# generated using pymatgen
data_Y(HfSe2)8
_symmetry_space_group_name_H-M   'P 1'
_cell_length_a   7.50638300
_cell_length_b   7.50638143
_cell_length_c   13.77367200
_cell_angle_alpha   90.00000000
_cell_angle_beta   90.00000000
_cell_angle_gamma   119.99998488
_symmetry_Int_Tables_number   1
_chemical_formula_structural   Y(HfSe2)8
_chemical_formula_sum   'Y1 Hf8 Se16'
_cell_volume   672.11220711
_cell_formula_units_Z   1
loop_
 _symmetry_equiv_pos_site_id
 _symmetry_equiv_pos_as_xyz
  1  'x, y, z'
loop_
 _atom_site_type_symbol
 _atom_site_label
 _atom_site_symmetry_multiplicity
 _atom_site_fract_x
 _atom_site_fract_y
 _atom_site_fract_z
 _atom_site_occupancy
  Y  Y0  1  0.000000  0.000000  0.000000  1
  Hf  Hf1  1  0.504077  0.495923  0.745933  1
  Hf  Hf2  1  0.495923  0.504077  0.254067  1
  Hf  Hf3  1  0.504077  0.008152  0.745933  1
  Hf  Hf4  1  0.495923  0.991848  0.254067  1
  Hf  Hf5  1  0.991848  0.495923  0.745933  1
  Hf  Hf6  1  0.008152  0.504077  0.254067  1
  Hf  Hf7  1  0.000000  0.000000  0.742990  1
  Hf  Hf8  1  0.000000  0.000000  0.257010  1
  Se  Se9  1  0.831849  0.663700  0.134992  1
  Se  Se10  1  0.832993  0.665988  0.630338  1
  Se  Se11  1  0.831849  0.168151  0.134992  1
  Se  Se12  1  0.832993  0.167007  0.630338  1
  Se  Se13  1  0.333333  0.666667  0.134900  1
  Se  Se14  1  0.333333  0.666667  0.637059  1
  Se  Se15  1  0.336300  0.168151  0.134992  1
  Se  Se16  1  0.334012  0.167007  0.630338  1
  Se  Se17  1  0.663700  0.831849  0.865008  1
  Se  Se18  1  0.665988  0.832993  0.369662  1
  Se  Se19  1  0.666667  0.333333  0.865100  1
  Se  Se20  1  0.666667  0.333333  0.362941  1
  Se  Se21  1  0.168151  0.831849  0.865008  1
  Se  Se22  1  0.167007  0.832993  0.369662  1
  Se  Se23  1  0.168151  0.336300  0.865008  1
  Se  Se24  1  0.167007  0.334012  0.369662  1
