# generated using pymatgen
data_Ti12CuMo5Ir6
_symmetry_space_group_name_H-M   'P 1'
_cell_length_a   4.40366400
_cell_length_b   6.25818600
_cell_length_c   13.27012000
_cell_angle_alpha   90.00000432
_cell_angle_beta   89.99942010
_cell_angle_gamma   90.00005349
_symmetry_Int_Tables_number   1
_chemical_formula_structural   Ti12CuMo5Ir6
_chemical_formula_sum   'Ti12 Cu1 Mo5 Ir6'
_cell_volume   365.71055225
_cell_formula_units_Z   1
loop_
 _symmetry_equiv_pos_site_id
 _symmetry_equiv_pos_as_xyz
  1  'x, y, z'
loop_
 _atom_site_type_symbol
 _atom_site_label
 _atom_site_symmetry_multiplicity
 _atom_site_fract_x
 _atom_site_fract_y
 _atom_site_fract_z
 _atom_site_occupancy
  Ti  Ti0  1  0.500000  0.254700  0.000000  1
  Ti  Ti1  1  0.500000  0.745301  0.000000  1
  Ti  Ti2  1  0.000088  0.251323  0.168236  1
  Ti  Ti3  1  0.000088  0.748677  0.168236  1
  Ti  Ti4  1  0.500079  0.250736  0.333823  1
  Ti  Ti5  1  0.500077  0.749261  0.333823  1
  Ti  Ti6  1  0.999999  0.249274  0.500001  1
  Ti  Ti7  1  0.000001  0.750725  0.499999  1
  Ti  Ti8  1  0.499923  0.250737  0.666176  1
  Ti  Ti9  1  0.499921  0.749262  0.666176  1
  Ti  Ti10  1  0.999912  0.251323  0.831764  1
  Ti  Ti11  1  0.999912  0.748677  0.831764  1
  Cu  Cu12  1  0.000000  0.000000  0.000000  1
  Mo  Mo13  1  0.500068  0.500000  0.164862  1
  Mo  Mo14  1  0.000090  0.999997  0.330903  1
  Mo  Mo15  1  0.500000  0.499999  0.500000  1
  Mo  Mo16  1  0.999910  0.000003  0.669097  1
  Mo  Mo17  1  0.499932  0.499998  0.835139  1
  Ir  Ir18  1  0.000000  0.499999  0.000000  1
  Ir  Ir19  1  0.500106  0.000000  0.162763  1
  Ir  Ir20  1  0.000077  0.500000  0.332360  1
  Ir  Ir21  1  0.500000  0.000000  0.500000  1
  Ir  Ir22  1  0.999923  0.499998  0.667640  1
  Ir  Ir23  1  0.499894  0.000000  0.837236  1
