# generated using pymatgen
data_YbHf(Ni2P)4
_symmetry_space_group_name_H-M   'P 1'
_cell_length_a   7.00910227
_cell_length_b   7.00910227
_cell_length_c   3.56718700
_cell_angle_alpha   90.00000000
_cell_angle_beta   90.00000000
_cell_angle_gamma   90.71716833
_symmetry_Int_Tables_number   1
_chemical_formula_structural   YbHf(Ni2P)4
_chemical_formula_sum   'Yb1 Hf1 Ni8 P4'
_cell_volume   175.23330327
_cell_formula_units_Z   1
loop_
 _symmetry_equiv_pos_site_id
 _symmetry_equiv_pos_as_xyz
  1  'x, y, z'
loop_
 _atom_site_type_symbol
 _atom_site_label
 _atom_site_symmetry_multiplicity
 _atom_site_fract_x
 _atom_site_fract_y
 _atom_site_fract_z
 _atom_site_occupancy
  Yb  Yb0  1  0.000000  0.000000  0.500000  1
  Hf  Hf1  1  0.500000  0.500000  0.000000  1
  Ni  Ni2  1  0.833376  0.417505  0.500000  1
  Ni  Ni3  1  0.166624  0.582495  0.500000  1
  Ni  Ni4  1  0.417505  0.833376  0.500000  1
  Ni  Ni5  1  0.582495  0.166624  0.500000  1
  Ni  Ni6  1  0.333517  0.083511  0.000000  1
  Ni  Ni7  1  0.666483  0.916489  0.000000  1
  Ni  Ni8  1  0.916489  0.666483  0.000000  1
  Ni  Ni9  1  0.083511  0.333517  0.000000  1
  P  P10  1  0.228822  0.771178  0.000000  1
  P  P11  1  0.286222  0.286222  0.500000  1
  P  P12  1  0.713778  0.713778  0.500000  1
  P  P13  1  0.771178  0.228822  0.000000  1
