# generated using pymatgen
data_Sm2Gd4Tl3In3O18
_symmetry_space_group_name_H-M   'P 1'
_cell_length_a   6.52831111
_cell_length_b   6.52835262
_cell_length_c   12.51187828
_cell_angle_alpha   89.76025552
_cell_angle_beta   90.15011042
_cell_angle_gamma   120.04742025
_symmetry_Int_Tables_number   1
_chemical_formula_structural   Sm2Gd4Tl3In3O18
_chemical_formula_sum   'Sm2 Gd4 Tl3 In3 O18'
_cell_volume   461.57894198
_cell_formula_units_Z   1
loop_
 _symmetry_equiv_pos_site_id
 _symmetry_equiv_pos_as_xyz
  1  'x, y, z'
loop_
 _atom_site_type_symbol
 _atom_site_label
 _atom_site_symmetry_multiplicity
 _atom_site_fract_x
 _atom_site_fract_y
 _atom_site_fract_z
 _atom_site_occupancy
  Sm  Sm0  1  0.664327  0.328827  0.961584  1
  Sm  Sm1  1  0.336416  0.675287  0.458857  1
  Gd  Gd2  1  0.670477  0.331424  0.458978  1
  Gd  Gd3  1  0.330338  0.672746  0.961821  1
  Gd  Gd4  1  0.996452  0.994563  0.997051  1
  Gd  Gd5  1  0.001623  0.997273  0.494187  1
  Tl  Tl6  1  0.665596  0.666315  0.725919  1
  Tl  Tl7  1  0.000467  0.333155  0.725677  1
  Tl  Tl8  1  0.333523  0.334071  0.225782  1
  In  In9  1  0.999721  0.666365  0.226405  1
  In  In10  1  0.332995  0.000688  0.726297  1
  In  In11  1  0.668032  0.000332  0.226122  1
  O  O12  1  0.689875  0.693434  0.901048  1
  O  O13  1  0.002669  0.306849  0.900705  1
  O  O14  1  0.310674  0.308000  0.397514  1
  O  O15  1  0.997359  0.694372  0.398260  1
  O  O16  1  0.298663  0.997773  0.900057  1
  O  O17  1  0.699639  0.002992  0.397866  1
  O  O18  1  0.640726  0.637407  0.553145  1
  O  O19  1  0.000350  0.359756  0.552750  1
  O  O20  1  0.355917  0.359484  0.055932  1
  O  O21  1  0.000914  0.637718  0.057026  1
  O  O22  1  0.367388  0.004179  0.555096  1
  O  O23  1  0.635850  0.997284  0.056646  1
  O  O24  1  0.013143  0.999422  0.688700  1
  O  O25  1  0.983458  0.982879  0.193059  1
  O  O26  1  0.654154  0.320010  0.761559  1
  O  O27  1  0.333764  0.684180  0.257864  1
  O  O28  1  0.682459  0.332675  0.255869  1
  O  O29  1  0.333032  0.680539  0.760007  1
