# generated using pymatgen
data_Pr2FeB10
_symmetry_space_group_name_H-M   'P 1'
_cell_length_a   4.21429100
_cell_length_b   5.67274300
_cell_length_c   11.29123000
_cell_angle_alpha   90.00000000
_cell_angle_beta   90.00000000
_cell_angle_gamma   90.00000000
_symmetry_Int_Tables_number   1
_chemical_formula_structural   Pr2FeB10
_chemical_formula_sum   'Pr4 Fe2 B20'
_cell_volume   269.93480361
_cell_formula_units_Z   2
loop_
 _symmetry_equiv_pos_site_id
 _symmetry_equiv_pos_as_xyz
  1  'x, y, z'
loop_
 _atom_site_type_symbol
 _atom_site_label
 _atom_site_symmetry_multiplicity
 _atom_site_fract_x
 _atom_site_fract_y
 _atom_site_fract_z
 _atom_site_occupancy
  Pr  Pr0  1  0.500000  0.207643  0.367940  1
  Pr  Pr1  1  0.500000  0.792357  0.632060  1
  Pr  Pr2  1  0.500000  0.292357  0.867940  1
  Pr  Pr3  1  0.500000  0.707643  0.132060  1
  Fe  Fe4  1  0.000000  0.000000  0.000000  1
  Fe  Fe5  1  0.000000  0.500000  0.500000  1
  B  B6  1  0.000000  0.371316  0.040157  1
  B  B7  1  0.000000  0.628684  0.959843  1
  B  B8  1  0.000000  0.128684  0.540157  1
  B  B9  1  0.000000  0.871316  0.459843  1
  B  B10  1  0.000000  0.345159  0.197417  1
  B  B11  1  0.000000  0.654841  0.802583  1
  B  B12  1  0.000000  0.154841  0.697417  1
  B  B13  1  0.000000  0.845159  0.302583  1
  B  B14  1  0.000000  0.035454  0.186326  1
  B  B15  1  0.000000  0.964546  0.813674  1
  B  B16  1  0.000000  0.464546  0.686326  1
  B  B17  1  0.000000  0.535454  0.313674  1
  B  B18  1  0.297507  0.202829  0.112854  1
  B  B19  1  0.702493  0.797171  0.887146  1
  B  B20  1  0.297507  0.797171  0.887146  1
  B  B21  1  0.702493  0.297171  0.612854  1
  B  B22  1  0.702493  0.202829  0.112854  1
  B  B23  1  0.297507  0.702829  0.387146  1
  B  B24  1  0.702493  0.702829  0.387146  1
  B  B25  1  0.297507  0.297171  0.612854  1
