# generated using pymatgen
data_Lu4ReSi4Ir
_symmetry_space_group_name_H-M   'P 1'
_cell_length_a   5.62777885
_cell_length_b   5.62777905
_cell_length_c   9.83838908
_cell_angle_alpha   116.24312413
_cell_angle_beta   116.24312446
_cell_angle_gamma   43.68486926
_symmetry_Int_Tables_number   1
_chemical_formula_structural   Lu4ReSi4Ir
_chemical_formula_sum   'Lu4 Re1 Si4 Ir1'
_cell_volume   189.22969869
_cell_formula_units_Z   1
loop_
 _symmetry_equiv_pos_site_id
 _symmetry_equiv_pos_as_xyz
  1  'x, y, z'
loop_
 _atom_site_type_symbol
 _atom_site_label
 _atom_site_symmetry_multiplicity
 _atom_site_fract_x
 _atom_site_fract_y
 _atom_site_fract_z
 _atom_site_occupancy
  Lu  Lu0  1  0.008821  0.008821  0.179476  1
  Lu  Lu1  1  0.813505  0.813505  0.389032  1
  Lu  Lu2  1  0.183398  0.183398  0.609494  1
  Lu  Lu3  1  0.993868  0.993868  0.820508  1
  Re  Re4  1  0.729307  0.729307  0.871837  1
  Si  Si5  1  0.637786  0.637786  0.061822  1
  Si  Si6  1  0.509951  0.509951  0.376946  1
  Si  Si7  1  0.491993  0.491993  0.620759  1
  Si  Si8  1  0.361233  0.361233  0.940221  1
  Ir  Ir9  1  0.270137  0.270137  0.129906  1
