# generated using pymatgen
data_Zr10Ga9AsPd10
_symmetry_space_group_name_H-M   'P 1'
_cell_length_a   3.87051700
_cell_length_b   6.88476374
_cell_length_c   19.86690324
_cell_angle_alpha   89.94623699
_cell_angle_beta   90.00000000
_cell_angle_gamma   90.00000000
_symmetry_Int_Tables_number   1
_chemical_formula_structural   Zr10Ga9AsPd10
_chemical_formula_sum   'Zr10 Ga9 As1 Pd10'
_cell_volume   529.40496025
_cell_formula_units_Z   1
loop_
 _symmetry_equiv_pos_site_id
 _symmetry_equiv_pos_as_xyz
  1  'x, y, z'
loop_
 _atom_site_type_symbol
 _atom_site_label
 _atom_site_symmetry_multiplicity
 _atom_site_fract_x
 _atom_site_fract_y
 _atom_site_fract_z
 _atom_site_occupancy
  Zr  Zr0  1  0.500000  0.967746  0.678309  1
  Zr  Zr1  1  0.000000  0.147114  0.000479  1
  Zr  Zr2  1  0.000000  0.523035  0.871918  1
  Zr  Zr3  1  0.500000  0.482954  0.374235  1
  Zr  Zr4  1  0.500000  0.475169  0.626792  1
  Zr  Zr5  1  0.000000  0.519652  0.127440  1
  Zr  Zr6  1  0.000000  0.034444  0.179510  1
  Zr  Zr7  1  0.500000  0.852190  0.499173  1
  Zr  Zr8  1  0.000000  0.033709  0.821252  1
  Zr  Zr9  1  0.500000  0.969142  0.321513  1
  Ga  Ga10  1  0.000000  0.770088  0.399924  1
  Ga  Ga11  1  0.500000  0.268959  0.500140  1
  Ga  Ga12  1  0.500000  0.230058  0.099628  1
  Ga  Ga13  1  0.000000  0.259143  0.301155  1
  Ga  Ga14  1  0.500000  0.744077  0.199841  1
  Ga  Ga15  1  0.500000  0.747130  0.798822  1
  Ga  Ga16  1  0.500000  0.231273  0.900413  1
  Ga  Ga17  1  0.000000  0.727236  0.999827  1
  Ga  Ga18  1  0.000000  0.256186  0.700197  1
  As  As19  1  0.000000  0.764131  0.599801  1
  Pd  Pd20  1  0.000000  0.139386  0.425986  1
  Pd  Pd21  1  0.500000  0.356569  0.223139  1
  Pd  Pd22  1  0.500000  0.478413  0.999889  1
  Pd  Pd23  1  0.500000  0.357911  0.776361  1
  Pd  Pd24  1  0.000000  0.645458  0.276758  1
  Pd  Pd25  1  0.000000  0.640841  0.724406  1
  Pd  Pd26  1  0.500000  0.856421  0.074416  1
  Pd  Pd27  1  0.500000  0.855929  0.924432  1
  Pd  Pd28  1  0.000000  0.142325  0.575560  1
  Pd  Pd29  1  0.000000  0.523313  0.498684  1
