# generated using pymatgen
data_Pr7Er(Sc3Pt4)4
_symmetry_space_group_name_H-M   'P 1'
_cell_length_a   7.70426427
_cell_length_b   7.43651802
_cell_length_c   13.77016829
_cell_angle_alpha   90.22836439
_cell_angle_beta   90.06446928
_cell_angle_gamma   89.93826635
_symmetry_Int_Tables_number   1
_chemical_formula_structural   Pr7Er(Sc3Pt4)4
_chemical_formula_sum   'Pr7 Er1 Sc12 Pt16'
_cell_volume   788.92565638
_cell_formula_units_Z   1
loop_
 _symmetry_equiv_pos_site_id
 _symmetry_equiv_pos_as_xyz
  1  'x, y, z'
loop_
 _atom_site_type_symbol
 _atom_site_label
 _atom_site_symmetry_multiplicity
 _atom_site_fract_x
 _atom_site_fract_y
 _atom_site_fract_z
 _atom_site_occupancy
  Pr  Pr0  1  0.513127  0.328165  0.402770  1
  Pr  Pr1  1  0.487249  0.670661  0.902764  1
  Pr  Pr2  1  0.485365  0.670872  0.597344  1
  Pr  Pr3  1  0.986531  0.832250  0.594991  1
  Pr  Pr4  1  0.986999  0.828370  0.902130  1
  Pr  Pr5  1  0.512671  0.328855  0.099451  1
  Pr  Pr6  1  0.012735  0.171611  0.097435  1
  Er  Er7  1  0.014408  0.175569  0.398274  1
  Sc  Sc8  1  0.331512  0.162942  0.624125  1
  Sc  Sc9  1  0.668877  0.838942  0.377103  1
  Sc  Sc10  1  0.663138  0.006174  0.749301  1
  Sc  Sc11  1  0.167596  0.663236  0.376437  1
  Sc  Sc12  1  0.832431  0.338253  0.875252  1
  Sc  Sc13  1  0.835486  0.333943  0.621460  1
  Sc  Sc14  1  0.837701  0.506334  0.251236  1
  Sc  Sc15  1  0.333955  0.994152  0.251083  1
  Sc  Sc16  1  0.333936  0.162769  0.876265  1
  Sc  Sc17  1  0.166281  0.662623  0.125419  1
  Sc  Sc18  1  0.668121  0.838729  0.125879  1
  Sc  Sc19  1  0.162030  0.494199  0.748826  1
  Pt  Pt20  1  0.292228  0.865274  0.750020  1
  Pt  Pt21  1  0.462447  0.641313  0.250915  1
  Pt  Pt22  1  0.037079  0.141758  0.750619  1
  Pt  Pt23  1  0.537662  0.357895  0.749253  1
  Pt  Pt24  1  0.161443  0.447350  0.543974  1
  Pt  Pt25  1  0.966117  0.862590  0.252959  1
  Pt  Pt26  1  0.713175  0.135649  0.252442  1
  Pt  Pt27  1  0.837798  0.546711  0.047642  1
  Pt  Pt28  1  0.338056  0.952088  0.047300  1
  Pt  Pt29  1  0.161965  0.453430  0.952737  1
  Pt  Pt30  1  0.660347  0.046315  0.545871  1
  Pt  Pt31  1  0.328895  0.959230  0.452665  1
  Pt  Pt32  1  0.840906  0.539027  0.450810  1
  Pt  Pt33  1  0.792726  0.633994  0.748660  1
  Pt  Pt34  1  0.205834  0.361495  0.252876  1
  Pt  Pt35  1  0.663170  0.047232  0.953711  1
