# generated using pymatgen
data_NdSm2CBr5
_symmetry_space_group_name_H-M   'P 1'
_cell_length_a   7.56487530
_cell_length_b   9.09964169
_cell_length_c   9.22236271
_cell_angle_alpha   107.77168664
_cell_angle_beta   96.82181922
_cell_angle_gamma   105.43105596
_symmetry_Int_Tables_number   1
_chemical_formula_structural   NdSm2CBr5
_chemical_formula_sum   'Nd2 Sm4 C2 Br10'
_cell_volume   568.75855129
_cell_formula_units_Z   2
loop_
 _symmetry_equiv_pos_site_id
 _symmetry_equiv_pos_as_xyz
  1  'x, y, z'
loop_
 _atom_site_type_symbol
 _atom_site_label
 _atom_site_symmetry_multiplicity
 _atom_site_fract_x
 _atom_site_fract_y
 _atom_site_fract_z
 _atom_site_occupancy
  Nd  Nd0  1  0.886071  0.955722  0.230948  1
  Nd  Nd1  1  0.113929  0.044278  0.769052  1
  Sm  Sm2  1  0.027367  0.724023  0.917667  1
  Sm  Sm3  1  0.972633  0.275977  0.082333  1
  Sm  Sm4  1  0.612710  0.851896  0.804044  1
  Sm  Sm5  1  0.387290  0.148104  0.195956  1
  C  C6  1  0.907185  0.967112  0.954649  1
  C  C7  1  0.092815  0.032888  0.045351  1
  Br  Br8  1  0.746267  0.913322  0.538262  1
  Br  Br9  1  0.253733  0.086678  0.461738  1
  Br  Br10  1  0.454345  0.817997  0.083984  1
  Br  Br11  1  0.545655  0.182003  0.916016  1
  Br  Br12  1  0.816089  0.269253  0.354254  1
  Br  Br13  1  0.183911  0.730747  0.645746  1
  Br  Br14  1  0.911704  0.626126  0.171663  1
  Br  Br15  1  0.088296  0.373874  0.828337  1
  Br  Br16  1  0.654575  0.538421  0.723370  1
  Br  Br17  1  0.345425  0.461579  0.276630  1
