# generated using pymatgen
data_Lu12InGaTc3
_symmetry_space_group_name_H-M   'P 1'
_cell_length_a   8.24565260
_cell_length_b   8.24565211
_cell_length_c   8.24565262
_cell_angle_alpha   108.14742004
_cell_angle_beta   109.97943295
_cell_angle_gamma   110.29502296
_symmetry_Int_Tables_number   1
_chemical_formula_structural   Lu12InGaTc3
_chemical_formula_sum   'Lu12 In1 Ga1 Tc3'
_cell_volume   431.39627265
_cell_formula_units_Z   1
loop_
 _symmetry_equiv_pos_site_id
 _symmetry_equiv_pos_as_xyz
  1  'x, y, z'
loop_
 _atom_site_type_symbol
 _atom_site_label
 _atom_site_symmetry_multiplicity
 _atom_site_fract_x
 _atom_site_fract_y
 _atom_site_fract_z
 _atom_site_occupancy
  Lu  Lu0  1  0.306996  0.304381  0.611378  1
  Lu  Lu1  1  0.693004  0.695619  0.388622  1
  Lu  Lu2  1  0.693004  0.304381  0.997385  1
  Lu  Lu3  1  0.306996  0.695619  0.002615  1
  Lu  Lu4  1  0.188007  0.425500  0.237494  1
  Lu  Lu5  1  0.811993  0.574500  0.762506  1
  Lu  Lu6  1  0.188007  0.950512  0.762506  1
  Lu  Lu7  1  0.940595  0.187779  0.752818  1
  Lu  Lu8  1  0.811993  0.049488  0.237494  1
  Lu  Lu9  1  0.059405  0.812221  0.247182  1
  Lu  Lu10  1  0.434961  0.187779  0.247182  1
  Lu  Lu11  1  0.565039  0.812221  0.752818  1
  In  In12  1  0.000000  0.500000  0.500000  1
  Ga  Ga13  1  0.500000  0.000000  0.500000  1
  Tc  Tc14  1  0.369130  0.369130  0.000000  1
  Tc  Tc15  1  0.630870  0.630870  0.000000  1
  Tc  Tc16  1  0.000000  0.000000  0.000000  1
