# generated using pymatgen
data_Th2MoWN6
_symmetry_space_group_name_H-M   'P 1'
_cell_length_a   5.60244283
_cell_length_b   5.67242400
_cell_length_c   7.99430019
_cell_angle_alpha   90.00000000
_cell_angle_beta   90.06255318
_cell_angle_gamma   90.00000000
_symmetry_Int_Tables_number   1
_chemical_formula_structural   Th2MoWN6
_chemical_formula_sum   'Th4 Mo2 W2 N12'
_cell_volume   254.05416146
_cell_formula_units_Z   2
loop_
 _symmetry_equiv_pos_site_id
 _symmetry_equiv_pos_as_xyz
  1  'x, y, z'
loop_
 _atom_site_type_symbol
 _atom_site_label
 _atom_site_symmetry_multiplicity
 _atom_site_fract_x
 _atom_site_fract_y
 _atom_site_fract_z
 _atom_site_occupancy
  Th  Th0  1  0.502090  0.545228  0.250159  1
  Th  Th1  1  0.997910  0.045228  0.249841  1
  Th  Th2  1  0.497910  0.454772  0.749841  1
  Th  Th3  1  0.002090  0.954772  0.750159  1
  Mo  Mo4  1  0.000000  0.500000  0.000000  1
  Mo  Mo5  1  0.500000  0.000000  0.500000  1
  W  W6  1  0.000000  0.500000  0.500000  1
  W  W7  1  0.500000  0.000000  0.000000  1
  N  N8  1  0.424988  0.982501  0.248679  1
  N  N9  1  0.075012  0.482501  0.251321  1
  N  N10  1  0.575012  0.017499  0.751321  1
  N  N11  1  0.924988  0.517499  0.748679  1
  N  N12  1  0.797814  0.799418  0.038101  1
  N  N13  1  0.702186  0.299418  0.461899  1
  N  N14  1  0.199529  0.202879  0.538329  1
  N  N15  1  0.300471  0.702879  0.961671  1
  N  N16  1  0.202186  0.200582  0.961899  1
  N  N17  1  0.297814  0.700582  0.538101  1
  N  N18  1  0.800471  0.797121  0.461671  1
  N  N19  1  0.699529  0.297121  0.038329  1
