# generated using pymatgen
data_La2V3Co9As7
_symmetry_space_group_name_H-M   'P 1'
_cell_length_a   3.84292600
_cell_length_b   9.47134939
_cell_length_c   9.47135000
_cell_angle_alpha   120.00000214
_cell_angle_beta   90.00000000
_cell_angle_gamma   90.00000000
_symmetry_Int_Tables_number   1
_chemical_formula_structural   La2V3Co9As7
_chemical_formula_sum   'La2 V3 Co9 As7'
_cell_volume   298.54952680
_cell_formula_units_Z   1
loop_
 _symmetry_equiv_pos_site_id
 _symmetry_equiv_pos_as_xyz
  1  'x, y, z'
loop_
 _atom_site_type_symbol
 _atom_site_label
 _atom_site_symmetry_multiplicity
 _atom_site_fract_x
 _atom_site_fract_y
 _atom_site_fract_z
 _atom_site_occupancy
  La  La0  1  0.000000  0.666667  0.333333  1
  La  La1  1  0.500000  0.333333  0.666667  1
  V  V2  1  0.500000  0.785877  0.897614  1
  V  V3  1  0.500000  0.111737  0.214123  1
  V  V4  1  0.500000  0.102386  0.888263  1
  Co  Co5  1  0.000000  0.570924  0.941290  1
  Co  Co6  1  0.000000  0.370365  0.429076  1
  Co  Co7  1  0.000000  0.058710  0.629635  1
  Co  Co8  1  0.000000  0.876975  0.153395  1
  Co  Co9  1  0.000000  0.276420  0.123025  1
  Co  Co10  1  0.000000  0.846605  0.723580  1
  Co  Co11  1  0.500000  0.950456  0.379630  1
  Co  Co12  1  0.500000  0.429172  0.049544  1
  Co  Co13  1  0.500000  0.620370  0.570828  1
  As  As14  1  0.000000  0.000000  0.000000  1
  As  As15  1  0.500000  0.706611  0.108815  1
  As  As16  1  0.500000  0.402204  0.293389  1
  As  As17  1  0.500000  0.891185  0.597796  1
  As  As18  1  0.000000  0.593559  0.701284  1
  As  As19  1  0.000000  0.107725  0.406441  1
  As  As20  1  0.000000  0.298716  0.892275  1
