# generated using pymatgen
data_Tb4Co16Si7P5W4
_symmetry_space_group_name_H-M   'P 1'
_cell_length_a   3.72868500
_cell_length_b   10.51859300
_cell_length_c   12.04306201
_cell_angle_alpha   90.00367196
_cell_angle_beta   90.00000000
_cell_angle_gamma   90.00000000
_symmetry_Int_Tables_number   1
_chemical_formula_structural   Tb4Co16Si7P5W4
_chemical_formula_sum   'Tb4 Co16 Si7 P5 W4'
_cell_volume   472.33515283
_cell_formula_units_Z   1
loop_
 _symmetry_equiv_pos_site_id
 _symmetry_equiv_pos_as_xyz
  1  'x, y, z'
loop_
 _atom_site_type_symbol
 _atom_site_label
 _atom_site_symmetry_multiplicity
 _atom_site_fract_x
 _atom_site_fract_y
 _atom_site_fract_z
 _atom_site_occupancy
  Tb  Tb0  1  0.250000  0.580225  0.703167  1
  Tb  Tb1  1  0.250000  0.922901  0.203065  1
  Tb  Tb2  1  0.750000  0.423147  0.297236  1
  Tb  Tb3  1  0.750000  0.077590  0.797088  1
  Co  Co4  1  0.250000  0.410283  0.489295  1
  Co  Co5  1  0.250000  0.090657  0.988555  1
  Co  Co6  1  0.750000  0.594156  0.513765  1
  Co  Co7  1  0.750000  0.908378  0.008947  1
  Co  Co8  1  0.250000  0.214195  0.172352  1
  Co  Co9  1  0.250000  0.285848  0.672188  1
  Co  Co10  1  0.750000  0.783390  0.822756  1
  Co  Co11  1  0.750000  0.714593  0.328861  1
  Co  Co12  1  0.250000  0.882107  0.701106  1
  Co  Co13  1  0.250000  0.617071  0.201662  1
  Co  Co14  1  0.750000  0.116033  0.298508  1
  Co  Co15  1  0.750000  0.383600  0.798006  1
  Co  Co16  1  0.250000  0.465516  0.933450  1
  Co  Co17  1  0.250000  0.033184  0.434635  1
  Co  Co18  1  0.750000  0.534342  0.066691  1
  Co  Co19  1  0.750000  0.962592  0.568254  1
  Si  Si20  1  0.250000  0.419999  0.116521  1
  Si  Si21  1  0.250000  0.080363  0.616769  1
  Si  Si22  1  0.750000  0.579097  0.883910  1
  Si  Si23  1  0.750000  0.919873  0.383887  1
  Si  Si24  1  0.250000  0.268357  0.861035  1
  Si  Si25  1  0.250000  0.231413  0.361690  1
  Si  Si26  1  0.750000  0.731841  0.138734  1
  P  P27  1  0.750000  0.768936  0.637494  1
  P  P28  1  0.250000  0.597637  0.391759  1
  P  P29  1  0.250000  0.902941  0.891455  1
  P  P30  1  0.750000  0.403283  0.608487  1
  P  P31  1  0.750000  0.097067  0.107737  1
  W  W32  1  0.250000  0.703137  0.990610  1
  W  W33  1  0.250000  0.795946  0.492410  1
  W  W34  1  0.750000  0.297079  0.008517  1
  W  W35  1  0.750000  0.203222  0.509400  1
