# generated using pymatgen
data_Dy10Al3Co
_symmetry_space_group_name_H-M   'P 1'
_cell_length_a   9.44560400
_cell_length_b   9.44560485
_cell_length_c   9.63121500
_cell_angle_alpha   90.00000000
_cell_angle_beta   90.00000000
_cell_angle_gamma   119.99999702
_symmetry_Int_Tables_number   1
_chemical_formula_structural   Dy10Al3Co
_chemical_formula_sum   'Dy20 Al6 Co2'
_cell_volume   744.16840949
_cell_formula_units_Z   2
loop_
 _symmetry_equiv_pos_site_id
 _symmetry_equiv_pos_as_xyz
  1  'x, y, z'
loop_
 _atom_site_type_symbol
 _atom_site_label
 _atom_site_symmetry_multiplicity
 _atom_site_fract_x
 _atom_site_fract_y
 _atom_site_fract_z
 _atom_site_occupancy
  Dy  Dy0  1  0.000000  0.000000  0.500000  1
  Dy  Dy1  1  0.000000  0.000000  0.000000  1
  Dy  Dy2  1  0.542446  0.457554  0.250000  1
  Dy  Dy3  1  0.542446  0.084892  0.250000  1
  Dy  Dy4  1  0.915108  0.457554  0.250000  1
  Dy  Dy5  1  0.457554  0.542446  0.750000  1
  Dy  Dy6  1  0.457554  0.915108  0.750000  1
  Dy  Dy7  1  0.084892  0.542446  0.750000  1
  Dy  Dy8  1  0.208701  0.791299  0.436569  1
  Dy  Dy9  1  0.208701  0.417404  0.436569  1
  Dy  Dy10  1  0.582596  0.791299  0.436569  1
  Dy  Dy11  1  0.791299  0.208701  0.563431  1
  Dy  Dy12  1  0.791299  0.582596  0.563431  1
  Dy  Dy13  1  0.417404  0.208701  0.563431  1
  Dy  Dy14  1  0.791299  0.208701  0.936569  1
  Dy  Dy15  1  0.791299  0.582596  0.936569  1
  Dy  Dy16  1  0.417404  0.208701  0.936569  1
  Dy  Dy17  1  0.208701  0.791299  0.063431  1
  Dy  Dy18  1  0.208701  0.417404  0.063431  1
  Dy  Dy19  1  0.582596  0.791299  0.063431  1
  Al  Al20  1  0.889942  0.110058  0.250000  1
  Al  Al21  1  0.889942  0.779884  0.250000  1
  Al  Al22  1  0.220116  0.110058  0.250000  1
  Al  Al23  1  0.110058  0.889942  0.750000  1
  Al  Al24  1  0.110058  0.220116  0.750000  1
  Al  Al25  1  0.779884  0.889942  0.750000  1
  Co  Co26  1  0.333333  0.666667  0.250000  1
  Co  Co27  1  0.666667  0.333333  0.750000  1
