# generated using pymatgen
data_TbYAlNiRu
_symmetry_space_group_name_H-M   'P 1'
_cell_length_a   5.48766797
_cell_length_b   5.48721114
_cell_length_c   5.48721139
_cell_angle_alpha   135.79603216
_cell_angle_beta   118.33982246
_cell_angle_gamma   78.95466156
_symmetry_Int_Tables_number   1
_chemical_formula_structural   TbYAlNiRu
_chemical_formula_sum   'Tb1 Y1 Al1 Ni1 Ru1'
_cell_volume   98.37196269
_cell_formula_units_Z   1
loop_
 _symmetry_equiv_pos_site_id
 _symmetry_equiv_pos_as_xyz
  1  'x, y, z'
loop_
 _atom_site_type_symbol
 _atom_site_label
 _atom_site_symmetry_multiplicity
 _atom_site_fract_x
 _atom_site_fract_y
 _atom_site_fract_z
 _atom_site_occupancy
  Tb  Tb0  1  0.695700  0.202923  0.492777  1
  Y  Y1  1  0.289460  0.796783  0.492675  1
  Al  Al2  1  0.998539  0.999996  0.998543  1
  Ni  Ni3  1  0.740459  0.500016  0.240444  1
  Ru  Ru4  1  0.275842  0.500282  0.775561  1
