# generated using pymatgen
data_Nd4ReOsC4
_symmetry_space_group_name_H-M   'P 1'
_cell_length_a   5.37622400
_cell_length_b   6.65770200
_cell_length_c   10.17755500
_cell_angle_alpha   90.00000000
_cell_angle_beta   90.00000000
_cell_angle_gamma   90.00000000
_symmetry_Int_Tables_number   1
_chemical_formula_structural   Nd4ReOsC4
_chemical_formula_sum   'Nd8 Re2 Os2 C8'
_cell_volume   364.28825167
_cell_formula_units_Z   2
loop_
 _symmetry_equiv_pos_site_id
 _symmetry_equiv_pos_as_xyz
  1  'x, y, z'
loop_
 _atom_site_type_symbol
 _atom_site_label
 _atom_site_symmetry_multiplicity
 _atom_site_fract_x
 _atom_site_fract_y
 _atom_site_fract_z
 _atom_site_occupancy
  Nd  Nd0  1  0.250000  0.473682  0.785893  1
  Nd  Nd1  1  0.750000  0.026318  0.285893  1
  Nd  Nd2  1  0.250000  0.975218  0.713564  1
  Nd  Nd3  1  0.750000  0.524782  0.213564  1
  Nd  Nd4  1  0.250000  0.812744  0.050024  1
  Nd  Nd5  1  0.750000  0.687256  0.550024  1
  Nd  Nd6  1  0.250000  0.310936  0.449068  1
  Nd  Nd7  1  0.750000  0.189064  0.949068  1
  Re  Re8  1  0.250000  0.770019  0.357351  1
  Re  Re9  1  0.750000  0.729981  0.857351  1
  Os  Os10  1  0.250000  0.269668  0.142251  1
  Os  Os11  1  0.750000  0.230332  0.642251  1
  C  C12  1  0.250000  0.686386  0.538850  1
  C  C13  1  0.750000  0.813614  0.038850  1
  C  C14  1  0.250000  0.186164  0.962294  1
  C  C15  1  0.750000  0.313836  0.462294  1
  C  C16  1  0.250000  0.034159  0.258070  1
  C  C17  1  0.750000  0.465841  0.758070  1
  C  C18  1  0.250000  0.532618  0.242636  1
  C  C19  1  0.750000  0.967382  0.742636  1
