# generated using pymatgen
data_Er2Ga9NiRh2
_symmetry_space_group_name_H-M   'P 1'
_cell_length_a   7.52165217
_cell_length_b   7.52165275
_cell_length_c   9.43146000
_cell_angle_alpha   90.00000000
_cell_angle_beta   90.00000000
_cell_angle_gamma   120.18094639
_symmetry_Int_Tables_number   1
_chemical_formula_structural   Er2Ga9NiRh2
_chemical_formula_sum   'Er4 Ga18 Ni2 Rh4'
_cell_volume   461.25525659
_cell_formula_units_Z   2
loop_
 _symmetry_equiv_pos_site_id
 _symmetry_equiv_pos_as_xyz
  1  'x, y, z'
loop_
 _atom_site_type_symbol
 _atom_site_label
 _atom_site_symmetry_multiplicity
 _atom_site_fract_x
 _atom_site_fract_y
 _atom_site_fract_z
 _atom_site_occupancy
  Er  Er0  1  0.996037  0.662696  0.250000  1
  Er  Er1  1  0.003963  0.337304  0.750000  1
  Er  Er2  1  0.662696  0.996037  0.250000  1
  Er  Er3  1  0.337304  0.003963  0.750000  1
  Ga  Ga4  1  0.113259  0.113259  0.250000  1
  Ga  Ga5  1  0.886741  0.886741  0.750000  1
  Ga  Ga6  1  0.998968  0.328301  0.078206  1
  Ga  Ga7  1  0.001032  0.671699  0.921794  1
  Ga  Ga8  1  0.001032  0.671699  0.578206  1
  Ga  Ga9  1  0.328301  0.998968  0.421794  1
  Ga  Ga10  1  0.998968  0.328301  0.421794  1
  Ga  Ga11  1  0.671699  0.001032  0.578206  1
  Ga  Ga12  1  0.671699  0.001032  0.921794  1
  Ga  Ga13  1  0.328301  0.998968  0.078206  1
  Ga  Ga14  1  0.327430  0.327430  0.565264  1
  Ga  Ga15  1  0.672570  0.672570  0.434736  1
  Ga  Ga16  1  0.672570  0.672570  0.065264  1
  Ga  Ga17  1  0.327430  0.327430  0.934736  1
  Ga  Ga18  1  0.336356  0.542164  0.250000  1
  Ga  Ga19  1  0.663644  0.457836  0.750000  1
  Ga  Ga20  1  0.542164  0.336356  0.250000  1
  Ga  Ga21  1  0.457836  0.663644  0.750000  1
  Ni  Ni22  1  0.000000  0.000000  0.000000  1
  Ni  Ni23  1  0.000000  0.000000  0.500000  1
  Rh  Rh24  1  0.671697  0.328303  0.000000  1
  Rh  Rh25  1  0.328303  0.671697  0.000000  1
  Rh  Rh26  1  0.328303  0.671697  0.500000  1
  Rh  Rh27  1  0.671697  0.328303  0.500000  1
