# generated using pymatgen
data_Sc4Mn5Co11(MoP3)4
_symmetry_space_group_name_H-M   'P 1'
_cell_length_a   3.60402700
_cell_length_b   10.36830794
_cell_length_c   11.99444818
_cell_angle_alpha   89.93042038
_cell_angle_beta   90.00000000
_cell_angle_gamma   90.00000000
_symmetry_Int_Tables_number   1
_chemical_formula_structural   Sc4Mn5Co11(MoP3)4
_chemical_formula_sum   'Sc4 Mn5 Co11 Mo4 P12'
_cell_volume   448.20415203
_cell_formula_units_Z   1
loop_
 _symmetry_equiv_pos_site_id
 _symmetry_equiv_pos_as_xyz
  1  'x, y, z'
loop_
 _atom_site_type_symbol
 _atom_site_label
 _atom_site_symmetry_multiplicity
 _atom_site_fract_x
 _atom_site_fract_y
 _atom_site_fract_z
 _atom_site_occupancy
  Sc  Sc0  1  0.250000  0.584641  0.709545  1
  Sc  Sc1  1  0.250000  0.913974  0.209138  1
  Sc  Sc2  1  0.750000  0.417823  0.290828  1
  Sc  Sc3  1  0.750000  0.084718  0.790391  1
  Mn  Mn4  1  0.250000  0.409564  0.491159  1
  Mn  Mn5  1  0.250000  0.090785  0.989973  1
  Mn  Mn6  1  0.750000  0.591462  0.509900  1
  Mn  Mn7  1  0.750000  0.908595  0.008853  1
  Mn  Mn8  1  0.250000  0.217323  0.176689  1
  Co  Co9  1  0.250000  0.276009  0.678782  1
  Co  Co10  1  0.750000  0.776423  0.820935  1
  Co  Co11  1  0.750000  0.724266  0.321317  1
  Co  Co12  1  0.250000  0.886367  0.698529  1
  Co  Co13  1  0.250000  0.614788  0.198976  1
  Co  Co14  1  0.750000  0.114159  0.302125  1
  Co  Co15  1  0.750000  0.386382  0.800950  1
  Co  Co16  1  0.250000  0.466330  0.932406  1
  Co  Co17  1  0.250000  0.034657  0.433576  1
  Co  Co18  1  0.750000  0.535549  0.066489  1
  Co  Co19  1  0.750000  0.965588  0.566803  1
  Mo  Mo20  1  0.250000  0.712034  0.987804  1
  Mo  Mo21  1  0.250000  0.788109  0.488622  1
  Mo  Mo22  1  0.750000  0.289064  0.012658  1
  Mo  Mo23  1  0.750000  0.211871  0.512429  1
  P  P24  1  0.250000  0.422642  0.117092  1
  P  P25  1  0.250000  0.078515  0.617248  1
  P  P26  1  0.750000  0.578708  0.882743  1
  P  P27  1  0.750000  0.921461  0.383176  1
  P  P28  1  0.250000  0.265311  0.862363  1
  P  P29  1  0.250000  0.236895  0.364068  1
  P  P30  1  0.750000  0.734721  0.137135  1
  P  P31  1  0.750000  0.765146  0.637720  1
  P  P32  1  0.250000  0.593649  0.381379  1
  P  P33  1  0.250000  0.906773  0.880899  1
  P  P34  1  0.750000  0.406851  0.618920  1
  P  P35  1  0.750000  0.088846  0.118379  1
