# generated using pymatgen
data_Li8DyHo7Sn5Bi3
_symmetry_space_group_name_H-M   'P 1'
_cell_length_a   9.47016114
_cell_length_b   9.46935435
_cell_length_c   7.20734903
_cell_angle_alpha   90.00832959
_cell_angle_beta   89.99388336
_cell_angle_gamma   119.99611330
_symmetry_Int_Tables_number   1
_chemical_formula_structural   Li8DyHo7Sn5Bi3
_chemical_formula_sum   'Li8 Dy1 Ho7 Sn5 Bi3'
_cell_volume   559.75879448
_cell_formula_units_Z   1
loop_
 _symmetry_equiv_pos_site_id
 _symmetry_equiv_pos_as_xyz
  1  'x, y, z'
loop_
 _atom_site_type_symbol
 _atom_site_label
 _atom_site_symmetry_multiplicity
 _atom_site_fract_x
 _atom_site_fract_y
 _atom_site_fract_z
 _atom_site_occupancy
  Li  Li0  1  0.167074  0.334029  0.279323  1
  Li  Li1  1  0.167084  0.832919  0.279690  1
  Li  Li2  1  0.665908  0.832899  0.279434  1
  Li  Li3  1  0.831660  0.663272  0.787132  1
  Li  Li4  1  0.831650  0.168375  0.787773  1
  Li  Li5  1  0.336802  0.168478  0.787328  1
  Li  Li6  1  0.333322  0.666562  0.672893  1
  Li  Li7  1  0.666447  0.333426  0.179909  1
  Dy  Dy8  1  0.514370  0.028426  0.488989  1
  Ho  Ho9  1  0.514025  0.485872  0.488688  1
  Ho  Ho10  1  0.971627  0.485639  0.488842  1
  Ho  Ho11  1  0.491312  0.982612  0.999840  1
  Ho  Ho12  1  0.491173  0.508837  0.999792  1
  Ho  Ho13  1  0.017418  0.508711  0.999881  1
  Ho  Ho14  1  0.999967  0.999996  0.492922  1
  Ho  Ho15  1  0.000051  0.999980  0.008797  1
  Sn  Sn16  1  0.833444  0.666752  0.233180  1
  Sn  Sn17  1  0.833517  0.166615  0.233098  1
  Sn  Sn18  1  0.333217  0.166583  0.233131  1
  Sn  Sn19  1  0.333248  0.666594  0.258596  1
  Sn  Sn20  1  0.666759  0.333485  0.760190  1
  Bi  Bi21  1  0.166523  0.333284  0.734126  1
  Bi  Bi22  1  0.166784  0.833269  0.734230  1
  Bi  Bi23  1  0.666617  0.833386  0.734185  1
