# generated using pymatgen
data_Nd7Ho10Er3Si16
_symmetry_space_group_name_H-M   'P 1'
_cell_length_a   7.72897579
_cell_length_b   7.73373715
_cell_length_c   14.30074107
_cell_angle_alpha   90.00039466
_cell_angle_beta   89.87800990
_cell_angle_gamma   90.07307252
_symmetry_Int_Tables_number   1
_chemical_formula_structural   Nd7Ho10Er3Si16
_chemical_formula_sum   'Nd7 Ho10 Er3 Si16'
_cell_volume   854.80796580
_cell_formula_units_Z   1
loop_
 _symmetry_equiv_pos_site_id
 _symmetry_equiv_pos_as_xyz
  1  'x, y, z'
loop_
 _atom_site_type_symbol
 _atom_site_label
 _atom_site_symmetry_multiplicity
 _atom_site_fract_x
 _atom_site_fract_y
 _atom_site_fract_z
 _atom_site_occupancy
  Nd  Nd0  1  0.358682  0.007382  0.958097  1
  Nd  Nd1  1  0.992380  0.642841  0.540806  1
  Nd  Nd2  1  0.490534  0.858597  0.209447  1
  Nd  Nd3  1  0.509401  0.139548  0.707094  1
  Nd  Nd4  1  0.859774  0.490398  0.791625  1
  Nd  Nd5  1  0.139687  0.508749  0.292960  1
  Nd  Nd6  1  0.007651  0.358194  0.042634  1
  Ho  Ho7  1  0.491029  0.360854  0.124908  1
  Ho  Ho8  1  0.991727  0.136666  0.624264  1
  Ho  Ho9  1  0.862007  0.008381  0.874616  1
  Ho  Ho10  1  0.137321  0.992964  0.375184  1
  Ho  Ho11  1  0.511211  0.639681  0.622933  1
  Ho  Ho12  1  0.361238  0.491112  0.875209  1
  Ho  Ho13  1  0.639698  0.510059  0.376281  1
  Ho  Ho14  1  0.006750  0.861372  0.126523  1
  Ho  Ho15  1  0.636303  0.995818  0.456057  1
  Ho  Ho16  1  0.317993  0.316937  0.499848  1
  Er  Er17  1  0.184393  0.816352  0.749102  1
  Er  Er18  1  0.814962  0.182971  0.250546  1
  Er  Er19  1  0.682705  0.681933  0.000314  1
  Si  Si20  1  0.294001  0.938480  0.560250  1
  Si  Si21  1  0.709374  0.063221  0.061856  1
  Si  Si22  1  0.933585  0.288126  0.438181  1
  Si  Si23  1  0.438037  0.209105  0.312838  1
  Si  Si24  1  0.564632  0.788469  0.811623  1
  Si  Si25  1  0.211594  0.436233  0.687762  1
  Si  Si26  1  0.788358  0.565000  0.189010  1
  Si  Si27  1  0.064368  0.710162  0.938619  1
  Si  Si28  1  0.799206  0.844793  0.690642  1
  Si  Si29  1  0.202551  0.153212  0.189941  1
  Si  Si30  1  0.843168  0.801463  0.314051  1
  Si  Si31  1  0.350367  0.706940  0.437976  1
  Si  Si32  1  0.653266  0.296149  0.939763  1
  Si  Si33  1  0.701672  0.342487  0.558852  1
  Si  Si34  1  0.296107  0.653306  0.060708  1
  Si  Si35  1  0.154269  0.202046  0.809479  1
