# generated using pymatgen
data_Sm7Y(SBr6)2
_symmetry_space_group_name_H-M   'P 1'
_cell_length_a   4.03904500
_cell_length_b   13.15871404
_cell_length_c   13.94325400
_cell_angle_alpha   90.34318332
_cell_angle_beta   90.00000000
_cell_angle_gamma   90.00000000
_symmetry_Int_Tables_number   1
_chemical_formula_structural   Sm7Y(SBr6)2
_chemical_formula_sum   'Sm7 Y1 S2 Br12'
_cell_volume   741.05166831
_cell_formula_units_Z   1
loop_
 _symmetry_equiv_pos_site_id
 _symmetry_equiv_pos_as_xyz
  1  'x, y, z'
loop_
 _atom_site_type_symbol
 _atom_site_label
 _atom_site_symmetry_multiplicity
 _atom_site_fract_x
 _atom_site_fract_y
 _atom_site_fract_z
 _atom_site_occupancy
  Sm  Sm0  1  0.500000  0.117708  0.343356  1
  Sm  Sm1  1  0.500000  0.883177  0.657292  1
  Sm  Sm2  1  0.500000  0.616817  0.156317  1
  Sm  Sm3  1  0.000000  0.115414  0.577249  1
  Sm  Sm4  1  0.000000  0.886046  0.424221  1
  Sm  Sm5  1  0.000000  0.614194  0.923817  1
  Sm  Sm6  1  0.000000  0.385292  0.075541  1
  Y  Y7  1  0.500000  0.383191  0.843330  1
  S  S8  1  0.500000  0.000889  0.500620  1
  S  S9  1  0.500000  0.498574  0.998121  1
  Br  Br10  1  0.500000  0.243152  0.160372  1
  Br  Br11  1  0.500000  0.755440  0.838039  1
  Br  Br12  1  0.500000  0.743412  0.338676  1
  Br  Br13  1  0.500000  0.257625  0.664627  1
  Br  Br14  1  0.000000  0.261637  0.415036  1
  Br  Br15  1  0.000000  0.739097  0.585748  1
  Br  Br16  1  0.000000  0.760759  0.086287  1
  Br  Br17  1  0.000000  0.243164  0.908859  1
  Br  Br18  1  0.000000  0.997674  0.238984  1
  Br  Br19  1  0.000000  0.002691  0.762097  1
  Br  Br20  1  0.000000  0.498023  0.260718  1
  Br  Br21  1  0.000000  0.496025  0.740694  1
