# generated using pymatgen
data_Er20Ir10PtAu
_symmetry_space_group_name_H-M   'P 1'
_cell_length_a   10.89210392
_cell_length_b   10.86911850
_cell_length_c   6.29900492
_cell_angle_alpha   90.05315091
_cell_angle_beta   89.91811432
_cell_angle_gamma   90.15035114
_symmetry_Int_Tables_number   1
_chemical_formula_structural   Er20Ir10PtAu
_chemical_formula_sum   'Er20 Ir10 Pt1 Au1'
_cell_volume   745.72022786
_cell_formula_units_Z   1
loop_
 _symmetry_equiv_pos_site_id
 _symmetry_equiv_pos_as_xyz
  1  'x, y, z'
loop_
 _atom_site_type_symbol
 _atom_site_label
 _atom_site_symmetry_multiplicity
 _atom_site_fract_x
 _atom_site_fract_y
 _atom_site_fract_z
 _atom_site_occupancy
  Er  Er0  1  0.292113  0.088072  0.372735  1
  Er  Er1  1  0.291041  0.912064  0.872814  1
  Er  Er2  1  0.702371  0.093657  0.873474  1
  Er  Er3  1  0.701019  0.911652  0.365365  1
  Er  Er4  1  0.578625  0.789330  0.876032  1
  Er  Er5  1  0.583026  0.209932  0.375722  1
  Er  Er6  1  0.409122  0.790841  0.375956  1
  Er  Er7  1  0.409615  0.209038  0.875820  1
  Er  Er8  1  0.209384  0.411317  0.622780  1
  Er  Er9  1  0.209683  0.588132  0.122566  1
  Er  Er10  1  0.790866  0.414525  0.124950  1
  Er  Er11  1  0.789946  0.579952  0.623960  1
  Er  Er12  1  0.917082  0.705016  0.136901  1
  Er  Er13  1  0.914959  0.291699  0.631213  1
  Er  Er14  1  0.095515  0.704448  0.623144  1
  Er  Er15  1  0.092237  0.294771  0.125505  1
  Er  Er16  1  0.005371  0.001247  0.498789  1
  Er  Er17  1  0.005414  0.004302  0.001205  1
  Er  Er18  1  0.500319  0.498455  0.001147  1
  Er  Er19  1  0.499646  0.501247  0.499889  1
  Ir  Ir20  1  0.154294  0.154850  0.749960  1
  Ir  Ir21  1  0.153399  0.845834  0.250389  1
  Ir  Ir22  1  0.655293  0.346264  0.748235  1
  Ir  Ir23  1  0.655665  0.654401  0.248843  1
  Ir  Ir24  1  0.347013  0.346059  0.251224  1
  Ir  Ir25  1  0.347238  0.653862  0.751787  1
  Ir  Ir26  1  0.499591  0.999546  0.121680  1
  Ir  Ir27  1  0.499773  0.000034  0.622912  1
  Ir  Ir28  1  0.000067  0.500671  0.876959  1
  Ir  Ir29  1  0.999899  0.499415  0.378380  1
  Pt  Pt30  1  0.845449  0.154058  0.249607  1
  Au  Au31  1  0.844965  0.845309  0.750057  1
