# generated using pymatgen
data_LaAg(MoO4)2
_symmetry_space_group_name_H-M   'P 1'
_cell_length_a   7.02952768
_cell_length_b   7.02952682
_cell_length_c   7.02952660
_cell_angle_alpha   134.46857379
_cell_angle_beta   134.46857152
_cell_angle_gamma   66.35705194
_symmetry_Int_Tables_number   1
_chemical_formula_structural   LaAg(MoO4)2
_chemical_formula_sum   'La1 Ag1 Mo2 O8'
_cell_volume   174.13607591
_cell_formula_units_Z   1
loop_
 _symmetry_equiv_pos_site_id
 _symmetry_equiv_pos_as_xyz
  1  'x, y, z'
loop_
 _atom_site_type_symbol
 _atom_site_label
 _atom_site_symmetry_multiplicity
 _atom_site_fract_x
 _atom_site_fract_y
 _atom_site_fract_z
 _atom_site_occupancy
  La  La0  1  0.750000  0.250000  0.500000  1
  Ag  Ag1  1  0.000000  0.000000  0.000000  1
  Mo  Mo2  1  0.500000  0.500000  0.000000  1
  Mo  Mo3  1  0.250000  0.750000  0.500000  1
  O  O4  1  0.647561  0.271608  0.093520  1
  O  O5  1  0.015352  0.431782  0.109651  1
  O  O6  1  0.728392  0.821912  0.375953  1
  O  O7  1  0.094299  0.984648  0.416430  1
  O  O8  1  0.568218  0.677868  0.583570  1
  O  O9  1  0.445959  0.352439  0.624047  1
  O  O10  1  0.322132  0.905701  0.890349  1
  O  O11  1  0.178088  0.554041  0.906480  1
