# generated using pymatgen
data_Eu3MnRuC6
_symmetry_space_group_name_H-M   'P 1'
_cell_length_a   8.21969700
_cell_length_b   8.21969676
_cell_length_c   5.17010900
_cell_angle_alpha   90.00000000
_cell_angle_beta   90.00000000
_cell_angle_gamma   119.99998890
_symmetry_Int_Tables_number   1
_chemical_formula_structural   Eu3MnRuC6
_chemical_formula_sum   'Eu6 Mn2 Ru2 C12'
_cell_volume   302.51156611
_cell_formula_units_Z   2
loop_
 _symmetry_equiv_pos_site_id
 _symmetry_equiv_pos_as_xyz
  1  'x, y, z'
loop_
 _atom_site_type_symbol
 _atom_site_label
 _atom_site_symmetry_multiplicity
 _atom_site_fract_x
 _atom_site_fract_y
 _atom_site_fract_z
 _atom_site_occupancy
  Eu  Eu0  1  0.607607  0.687801  0.750000  1
  Eu  Eu1  1  0.919807  0.607607  0.250000  1
  Eu  Eu2  1  0.687801  0.080193  0.250000  1
  Eu  Eu3  1  0.312199  0.919807  0.750000  1
  Eu  Eu4  1  0.080193  0.392393  0.750000  1
  Eu  Eu5  1  0.392393  0.312199  0.250000  1
  Mn  Mn6  1  0.000000  0.000000  0.500000  1
  Mn  Mn7  1  0.000000  0.000000  0.000000  1
  Ru  Ru8  1  0.666667  0.333333  0.750000  1
  Ru  Ru9  1  0.333333  0.666667  0.250000  1
  C  C10  1  0.955741  0.780100  0.750000  1
  C  C11  1  0.175641  0.955741  0.250000  1
  C  C12  1  0.780100  0.824359  0.250000  1
  C  C13  1  0.219900  0.175641  0.750000  1
  C  C14  1  0.824359  0.044259  0.750000  1
  C  C15  1  0.044259  0.219900  0.250000  1
  C  C16  1  0.866159  0.592309  0.750000  1
  C  C17  1  0.273848  0.866159  0.250000  1
  C  C18  1  0.592309  0.726152  0.250000  1
  C  C19  1  0.407691  0.273848  0.750000  1
  C  C20  1  0.133841  0.407691  0.250000  1
  C  C21  1  0.726152  0.133841  0.750000  1
