# generated using pymatgen
data_Dy3Er4LuIn3Ir
_symmetry_space_group_name_H-M   'P 1'
_cell_length_a   10.34688929
_cell_length_b   10.34688928
_cell_length_c   7.07028420
_cell_angle_alpha   89.97977607
_cell_angle_beta   90.02022269
_cell_angle_gamma   120.03877741
_symmetry_Int_Tables_number   1
_chemical_formula_structural   Dy3Er4LuIn3Ir
_chemical_formula_sum   'Dy6 Er8 Lu2 In6 Ir2'
_cell_volume   655.26540368
_cell_formula_units_Z   2
loop_
 _symmetry_equiv_pos_site_id
 _symmetry_equiv_pos_as_xyz
  1  'x, y, z'
loop_
 _atom_site_type_symbol
 _atom_site_label
 _atom_site_symmetry_multiplicity
 _atom_site_fract_x
 _atom_site_fract_y
 _atom_site_fract_z
 _atom_site_occupancy
  Dy  Dy0  1  0.532852  0.067042  0.792215  1
  Dy  Dy1  1  0.932958  0.467148  0.792215  1
  Dy  Dy2  1  0.533385  0.466615  0.791831  1
  Dy  Dy3  1  0.466266  0.933317  0.293233  1
  Dy  Dy4  1  0.066683  0.533734  0.293233  1
  Dy  Dy5  1  0.466992  0.533008  0.293287  1
  Er  Er6  1  0.823289  0.176711  0.498495  1
  Er  Er7  1  0.176671  0.353549  0.998406  1
  Er  Er8  1  0.646451  0.823329  0.998406  1
  Er  Er9  1  0.176737  0.823263  0.998123  1
  Er  Er10  1  0.666370  0.333630  0.177149  1
  Er  Er11  1  0.333306  0.666694  0.676049  1
  Er  Er12  1  0.000364  0.999636  0.777586  1
  Er  Er13  1  0.000231  0.999769  0.279968  1
  Lu  Lu14  1  0.822648  0.645067  0.498272  1
  Lu  Lu15  1  0.354933  0.177352  0.498272  1
  In  In16  1  0.837055  0.674337  0.042308  1
  In  In17  1  0.325663  0.162945  0.042308  1
  In  In18  1  0.836989  0.163011  0.040158  1
  In  In19  1  0.163418  0.324442  0.539753  1
  In  In20  1  0.675558  0.836582  0.539753  1
  In  In21  1  0.161878  0.838122  0.539685  1
  Ir  Ir22  1  0.665988  0.334012  0.567298  1
  Ir  Ir23  1  0.333316  0.666684  0.067891  1
