# generated using pymatgen
data_CaCo3(BrO3)8
_symmetry_space_group_name_H-M   'P 1'
_cell_length_a   5.75599554
_cell_length_b   10.70957062
_cell_length_c   10.76273800
_cell_angle_alpha   119.23780036
_cell_angle_beta   90.08637180
_cell_angle_gamma   89.34125366
_symmetry_Int_Tables_number   1
_chemical_formula_structural   CaCo3(BrO3)8
_chemical_formula_sum   'Ca1 Co3 Br8 O24'
_cell_volume   578.89124221
_cell_formula_units_Z   1
loop_
 _symmetry_equiv_pos_site_id
 _symmetry_equiv_pos_as_xyz
  1  'x, y, z'
loop_
 _atom_site_type_symbol
 _atom_site_label
 _atom_site_symmetry_multiplicity
 _atom_site_fract_x
 _atom_site_fract_y
 _atom_site_fract_z
 _atom_site_occupancy
  Ca  Ca0  1  0.129778  0.766494  0.506852  1
  Co  Co1  1  0.647825  0.235067  0.492616  1
  Co  Co2  1  0.142417  0.262361  0.005591  1
  Co  Co3  1  0.643719  0.739909  0.992163  1
  Br  Br4  1  0.270020  0.404607  0.343609  1
  Br  Br5  1  0.748295  0.575538  0.652090  1
  Br  Br6  1  0.263339  0.919243  0.862401  1
  Br  Br7  1  0.768345  0.085397  0.151837  1
  Br  Br8  1  0.775688  0.104723  0.704844  1
  Br  Br9  1  0.303949  0.921765  0.302300  1
  Br  Br10  1  0.288313  0.414819  0.812989  1
  Br  Br11  1  0.782802  0.579032  0.172490  1
  O  O12  1  0.432213  0.894658  0.977975  1
  O  O13  1  0.935002  0.117911  0.041432  1
  O  O14  1  0.371537  0.804095  0.700277  1
  O  O15  1  0.874704  0.193592  0.318020  1
  O  O16  1  0.365693  0.289959  0.176243  1
  O  O17  1  0.851416  0.693388  0.816038  1
  O  O18  1  0.936840  0.238215  0.831710  1
  O  O19  1  0.446698  0.777695  0.171090  1
  O  O20  1  0.902689  0.951854  0.679168  1
  O  O21  1  0.447970  0.070907  0.331508  1
  O  O22  1  0.348115  0.080554  0.883534  1
  O  O23  1  0.860680  0.919093  0.115333  1
  O  O24  1  0.431810  0.277186  0.675470  1
  O  O25  1  0.913690  0.720240  0.306456  1
  O  O26  1  0.352716  0.392398  0.955759  1
  O  O27  1  0.844541  0.595190  0.026705  1
  O  O28  1  0.425231  0.567030  0.844515  1
  O  O29  1  0.938454  0.434248  0.152496  1
  O  O30  1  0.367165  0.564660  0.373236  1
  O  O31  1  0.845594  0.413701  0.625576  1
  O  O32  1  0.437756  0.374899  0.456363  1
  O  O33  1  0.916356  0.604290  0.541687  1
  O  O34  1  0.839566  0.107633  0.551455  1
  O  O35  1  0.358672  0.907651  0.448172  1
