# generated using pymatgen
data_Ca3Cd(Ru2O7)2
_symmetry_space_group_name_H-M   'P 1'
_cell_length_a   7.23951121
_cell_length_b   7.23951146
_cell_length_c   7.23951141
_cell_angle_alpha   60.65448704
_cell_angle_beta   60.65448210
_cell_angle_gamma   60.65448429
_symmetry_Int_Tables_number   1
_chemical_formula_structural   Ca3Cd(Ru2O7)2
_chemical_formula_sum   'Ca3 Cd1 Ru4 O14'
_cell_volume   272.25951763
_cell_formula_units_Z   1
loop_
 _symmetry_equiv_pos_site_id
 _symmetry_equiv_pos_as_xyz
  1  'x, y, z'
loop_
 _atom_site_type_symbol
 _atom_site_label
 _atom_site_symmetry_multiplicity
 _atom_site_fract_x
 _atom_site_fract_y
 _atom_site_fract_z
 _atom_site_occupancy
  Ca  Ca0  1  0.125000  0.625000  0.125000  1
  Ca  Ca1  1  0.125000  0.125000  0.625000  1
  Ca  Ca2  1  0.625000  0.125000  0.125000  1
  Cd  Cd3  1  0.125000  0.125000  0.125000  1
  Ru  Ru4  1  0.625000  0.125000  0.625000  1
  Ru  Ru5  1  0.625000  0.625000  0.125000  1
  Ru  Ru6  1  0.125000  0.625000  0.625000  1
  Ru  Ru7  1  0.625000  0.625000  0.625000  1
  O  O8  1  0.695989  0.695989  0.304683  1
  O  O9  1  0.945317  0.554011  0.554011  1
  O  O10  1  0.560078  0.941886  0.941886  1
  O  O11  1  0.941886  0.941886  0.560078  1
  O  O12  1  0.941886  0.560078  0.941886  1
  O  O13  1  0.554011  0.945317  0.554011  1
  O  O14  1  0.308114  0.689922  0.308114  1
  O  O15  1  0.304683  0.695989  0.695989  1
  O  O16  1  0.689922  0.308114  0.308114  1
  O  O17  1  0.695989  0.304683  0.695989  1
  O  O18  1  0.554011  0.554011  0.945317  1
  O  O19  1  0.308114  0.308114  0.689922  1
  O  O20  1  0.244509  0.244509  0.244509  1
  O  O21  1  0.005491  0.005491  0.005491  1
