# generated using pymatgen
data_Tb3Ce(TcB6)2
_symmetry_space_group_name_H-M   'P 1'
_cell_length_a   3.72879100
_cell_length_b   9.20622537
_cell_length_c   11.58914101
_cell_angle_alpha   90.12904351
_cell_angle_beta   90.00000000
_cell_angle_gamma   90.00000000
_symmetry_Int_Tables_number   1
_chemical_formula_structural   Tb3Ce(TcB6)2
_chemical_formula_sum   'Tb6 Ce2 Tc4 B24'
_cell_volume   397.83207006
_cell_formula_units_Z   2
loop_
 _symmetry_equiv_pos_site_id
 _symmetry_equiv_pos_as_xyz
  1  'x, y, z'
loop_
 _atom_site_type_symbol
 _atom_site_label
 _atom_site_symmetry_multiplicity
 _atom_site_fract_x
 _atom_site_fract_y
 _atom_site_fract_z
 _atom_site_occupancy
  Tb  Tb0  1  0.000000  0.824960  0.085600  1
  Tb  Tb1  1  0.000000  0.175040  0.914400  1
  Tb  Tb2  1  0.000000  0.943480  0.369906  1
  Tb  Tb3  1  0.000000  0.056520  0.630094  1
  Tb  Tb4  1  0.000000  0.442941  0.129519  1
  Tb  Tb5  1  0.000000  0.557059  0.870481  1
  Ce  Ce6  1  0.000000  0.323071  0.413574  1
  Ce  Ce7  1  0.000000  0.676929  0.586426  1
  Tc  Tc8  1  0.000000  0.637835  0.322280  1
  Tc  Tc9  1  0.000000  0.362165  0.677720  1
  Tc  Tc10  1  0.000000  0.139580  0.179932  1
  Tc  Tc11  1  0.000000  0.860420  0.820068  1
  B  B12  1  0.500000  0.554247  0.431707  1
  B  B13  1  0.500000  0.445753  0.568293  1
  B  B14  1  0.500000  0.053778  0.067055  1
  B  B15  1  0.500000  0.946222  0.932945  1
  B  B16  1  0.500000  0.748492  0.417799  1
  B  B17  1  0.500000  0.251508  0.582201  1
  B  B18  1  0.500000  0.248041  0.080859  1
  B  B19  1  0.500000  0.751959  0.919141  1
  B  B20  1  0.500000  0.791706  0.265570  1
  B  B21  1  0.500000  0.208294  0.734430  1
  B  B22  1  0.500000  0.291092  0.233430  1
  B  B23  1  0.500000  0.708908  0.766570  1
  B  B24  1  0.500000  0.631911  0.185796  1
  B  B25  1  0.500000  0.368089  0.814204  1
  B  B26  1  0.500000  0.131929  0.313182  1
  B  B27  1  0.500000  0.868071  0.686818  1
  B  B28  1  0.500000  0.983782  0.211424  1
  B  B29  1  0.500000  0.016218  0.788576  1
  B  B30  1  0.500000  0.484552  0.287358  1
  B  B31  1  0.500000  0.515448  0.712642  1
  B  B32  1  0.500000  0.603488  0.028873  1
  B  B33  1  0.500000  0.396512  0.971127  1
  B  B34  1  0.500000  0.104919  0.470771  1
  B  B35  1  0.500000  0.895081  0.529229  1
