# generated using pymatgen
data_Ho2ErAlSi2Ag3
_symmetry_space_group_name_H-M   'P 1'
_cell_length_a   7.09669277
_cell_length_b   7.09669094
_cell_length_c   4.18139600
_cell_angle_alpha   90.00000000
_cell_angle_beta   90.00000000
_cell_angle_gamma   119.93078287
_symmetry_Int_Tables_number   1
_chemical_formula_structural   Ho2ErAlSi2Ag3
_chemical_formula_sum   'Ho2 Er1 Al1 Si2 Ag3'
_cell_volume   182.50144847
_cell_formula_units_Z   1
loop_
 _symmetry_equiv_pos_site_id
 _symmetry_equiv_pos_as_xyz
  1  'x, y, z'
loop_
 _atom_site_type_symbol
 _atom_site_label
 _atom_site_symmetry_multiplicity
 _atom_site_fract_x
 _atom_site_fract_y
 _atom_site_fract_z
 _atom_site_occupancy
  Ho  Ho0  1  0.428794  0.000237  0.500000  1
  Ho  Ho1  1  0.000237  0.428794  0.500000  1
  Er  Er2  1  0.570926  0.570926  0.500000  1
  Al  Al3  1  0.999368  0.999368  0.500000  1
  Si  Si4  1  0.333809  0.666592  0.000000  1
  Si  Si5  1  0.666592  0.333809  0.000000  1
  Ag  Ag6  1  0.749387  0.999852  0.000000  1
  Ag  Ag7  1  0.999852  0.749387  0.000000  1
  Ag  Ag8  1  0.251035  0.251035  0.000000  1
