# generated using pymatgen
data_Tb2DyRuI3
_symmetry_space_group_name_H-M   'P 1'
_cell_length_a   4.23636000
_cell_length_b   8.91659670
_cell_length_c   12.34293740
_cell_angle_alpha   86.17772688
_cell_angle_beta   90.00000000
_cell_angle_gamma   90.00000000
_symmetry_Int_Tables_number   1
_chemical_formula_structural   Tb2DyRuI3
_chemical_formula_sum   'Tb4 Dy2 Ru2 I6'
_cell_volume   465.20395796
_cell_formula_units_Z   2
loop_
 _symmetry_equiv_pos_site_id
 _symmetry_equiv_pos_as_xyz
  1  'x, y, z'
loop_
 _atom_site_type_symbol
 _atom_site_label
 _atom_site_symmetry_multiplicity
 _atom_site_fract_x
 _atom_site_fract_y
 _atom_site_fract_z
 _atom_site_occupancy
  Tb  Tb0  1  0.750000  0.098191  0.684467  1
  Tb  Tb1  1  0.250000  0.901809  0.315533  1
  Tb  Tb2  1  0.250000  0.262361  0.897538  1
  Tb  Tb3  1  0.750000  0.737639  0.102462  1
  Dy  Dy4  1  0.750000  0.130567  0.124799  1
  Dy  Dy5  1  0.250000  0.869433  0.875201  1
  Ru  Ru6  1  0.750000  0.053987  0.907054  1
  Ru  Ru7  1  0.250000  0.946013  0.092946  1
  I  I8  1  0.250000  0.352352  0.637004  1
  I  I9  1  0.750000  0.647648  0.362996  1
  I  I10  1  0.750000  0.141977  0.392576  1
  I  I11  1  0.250000  0.858023  0.607424  1
  I  I12  1  0.250000  0.427119  0.132938  1
  I  I13  1  0.750000  0.572881  0.867062  1
