# generated using pymatgen
data_HoEr3Al4Ir3Au
_symmetry_space_group_name_H-M   'P 1'
_cell_length_a   4.32407100
_cell_length_b   6.83162533
_cell_length_c   7.88794127
_cell_angle_alpha   90.00301305
_cell_angle_beta   90.00000000
_cell_angle_gamma   90.00000000
_symmetry_Int_Tables_number   1
_chemical_formula_structural   HoEr3Al4Ir3Au
_chemical_formula_sum   'Ho1 Er3 Al4 Ir3 Au1'
_cell_volume   233.01320003
_cell_formula_units_Z   1
loop_
 _symmetry_equiv_pos_site_id
 _symmetry_equiv_pos_as_xyz
  1  'x, y, z'
loop_
 _atom_site_type_symbol
 _atom_site_label
 _atom_site_symmetry_multiplicity
 _atom_site_fract_x
 _atom_site_fract_y
 _atom_site_fract_z
 _atom_site_occupancy
  Ho  Ho0  1  0.750000  0.476345  0.813850  1
  Er  Er1  1  0.250000  0.024849  0.326819  1
  Er  Er2  1  0.250000  0.542165  0.182414  1
  Er  Er3  1  0.750000  0.969266  0.677596  1
  Al  Al4  1  0.250000  0.135848  0.931491  1
  Al  Al5  1  0.250000  0.641385  0.562225  1
  Al  Al6  1  0.750000  0.847575  0.059979  1
  Al  Al7  1  0.750000  0.364381  0.445092  1
  Ir  Ir8  1  0.250000  0.266942  0.619658  1
  Ir  Ir9  1  0.250000  0.765951  0.880599  1
  Ir  Ir10  1  0.750000  0.734751  0.377876  1
  Au  Au11  1  0.750000  0.230544  0.122401  1
