# generated using pymatgen
data_Y8Sc12Sn7Sb9
_symmetry_space_group_name_H-M   'P 1'
_cell_length_a   7.82844694
_cell_length_b   7.84463704
_cell_length_c   14.75218600
_cell_angle_alpha   90.00000000
_cell_angle_beta   90.00000000
_cell_angle_gamma   90.15304095
_symmetry_Int_Tables_number   1
_chemical_formula_structural   Y8Sc12Sn7Sb9
_chemical_formula_sum   'Y8 Sc12 Sn7 Sb9'
_cell_volume   905.94805437
_cell_formula_units_Z   1
loop_
 _symmetry_equiv_pos_site_id
 _symmetry_equiv_pos_as_xyz
  1  'x, y, z'
loop_
 _atom_site_type_symbol
 _atom_site_label
 _atom_site_symmetry_multiplicity
 _atom_site_fract_x
 _atom_site_fract_y
 _atom_site_fract_z
 _atom_site_occupancy
  Y  Y0  1  0.525886  0.318879  0.902560  1
  Y  Y1  1  0.024855  0.180104  0.595179  1
  Y  Y2  1  0.475079  0.680843  0.403719  1
  Y  Y3  1  0.975383  0.819931  0.096477  1
  Y  Y4  1  0.475079  0.680843  0.096281  1
  Y  Y5  1  0.975383  0.819931  0.403523  1
  Y  Y6  1  0.525886  0.318879  0.597440  1
  Y  Y7  1  0.024855  0.180104  0.904821  1
  Sc  Sc8  1  0.359910  0.844996  0.875005  1
  Sc  Sc9  1  0.861606  0.655683  0.626357  1
  Sc  Sc10  1  0.638029  0.157473  0.374143  1
  Sc  Sc11  1  0.137660  0.343173  0.126012  1
  Sc  Sc12  1  0.638029  0.157473  0.125857  1
  Sc  Sc13  1  0.137660  0.343173  0.373988  1
  Sc  Sc14  1  0.359910  0.844996  0.624995  1
  Sc  Sc15  1  0.861606  0.655683  0.873643  1
  Sc  Sc16  1  0.188558  0.502188  0.750000  1
  Sc  Sc17  1  0.687658  0.997518  0.750000  1
  Sc  Sc18  1  0.811221  0.497849  0.250000  1
  Sc  Sc19  1  0.311503  0.002683  0.250000  1
  Sn  Sn20  1  0.053587  0.874403  0.750000  1
  Sn  Sn21  1  0.445756  0.373859  0.250000  1
  Sn  Sn22  1  0.945636  0.126488  0.250000  1
  Sn  Sn23  1  0.329512  0.148441  0.750000  1
  Sn  Sn24  1  0.835978  0.346285  0.750000  1
  Sn  Sn25  1  0.669098  0.851257  0.250000  1
  Sn  Sn26  1  0.169522  0.649098  0.250000  1
  Sb  Sb27  1  0.294994  0.044350  0.044300  1
  Sb  Sb28  1  0.794104  0.456893  0.456507  1
  Sb  Sb29  1  0.705383  0.955292  0.544355  1
  Sb  Sb30  1  0.206691  0.542963  0.955319  1
  Sb  Sb31  1  0.705383  0.955292  0.955645  1
  Sb  Sb32  1  0.206691  0.542963  0.544681  1
  Sb  Sb33  1  0.294994  0.044350  0.455700  1
  Sb  Sb34  1  0.794104  0.456893  0.043493  1
  Sb  Sb35  1  0.552809  0.628770  0.750000  1
