# generated using pymatgen
data_Nd7Dy3(InTe)4
_symmetry_space_group_name_H-M   'P 1'
_cell_length_a   9.12352593
_cell_length_b   8.84505251
_cell_length_c   8.34207700
_cell_angle_alpha   90.10971322
_cell_angle_beta   90.13920899
_cell_angle_gamma   124.98656714
_symmetry_Int_Tables_number   1
_chemical_formula_structural   Nd7Dy3(InTe)4
_chemical_formula_sum   'Nd7 Dy3 In4 Te4'
_cell_volume   551.52892566
_cell_formula_units_Z   1
loop_
 _symmetry_equiv_pos_site_id
 _symmetry_equiv_pos_as_xyz
  1  'x, y, z'
loop_
 _atom_site_type_symbol
 _atom_site_label
 _atom_site_symmetry_multiplicity
 _atom_site_fract_x
 _atom_site_fract_y
 _atom_site_fract_z
 _atom_site_occupancy
  Nd  Nd0  1  0.038534  0.318620  0.331691  1
  Nd  Nd1  1  0.958284  0.675073  0.668126  1
  Nd  Nd2  1  0.462665  0.179203  0.830238  1
  Nd  Nd3  1  0.798732  0.526140  0.165036  1
  Nd  Nd4  1  0.541213  0.824011  0.170282  1
  Nd  Nd5  1  0.206150  0.478301  0.834227  1
  Nd  Nd6  1  0.704603  0.973379  0.665599  1
  Dy  Dy7  1  0.288245  0.025976  0.336972  1
  Dy  Dy8  1  0.002366  0.001415  0.000358  1
  Dy  Dy9  1  0.498179  0.498888  0.499109  1
  In  In10  1  0.372160  0.370722  0.127567  1
  In  In11  1  0.629302  0.627351  0.874529  1
  In  In12  1  0.130020  0.127542  0.626660  1
  In  In13  1  0.871897  0.870837  0.373982  1
  Te  Te14  1  0.812222  0.208098  0.991486  1
  Te  Te15  1  0.195370  0.798595  0.013643  1
  Te  Te16  1  0.682554  0.284733  0.486369  1
  Te  Te17  1  0.307505  0.711117  0.504126  1
