# generated using pymatgen
data_Cs2Li4Pr4Se9
_symmetry_space_group_name_H-M   'P 1'
_cell_length_a   4.41156817
_cell_length_b   8.06129500
_cell_length_c   16.97398100
_cell_angle_alpha   94.40730166
_cell_angle_beta   97.46675170
_cell_angle_gamma   105.88019204
_symmetry_Int_Tables_number   1
_chemical_formula_structural   Cs2Li4Pr4Se9
_chemical_formula_sum   'Cs2 Li4 Pr4 Se9'
_cell_volume   571.67142422
_cell_formula_units_Z   1
loop_
 _symmetry_equiv_pos_site_id
 _symmetry_equiv_pos_as_xyz
  1  'x, y, z'
loop_
 _atom_site_type_symbol
 _atom_site_label
 _atom_site_symmetry_multiplicity
 _atom_site_fract_x
 _atom_site_fract_y
 _atom_site_fract_z
 _atom_site_occupancy
  Cs  Cs0  1  0.252947  0.279207  0.226424  1
  Cs  Cs1  1  0.747050  0.720795  0.773577  1
  Li  Li2  1  0.974945  0.720126  0.229888  1
  Li  Li3  1  0.891522  0.327543  0.455782  1
  Li  Li4  1  0.108475  0.672462  0.544217  1
  Li  Li5  1  0.025067  0.279874  0.770111  1
  Pr  Pr6  1  0.398869  0.746377  0.051128  1
  Pr  Pr7  1  0.628582  0.861240  0.395620  1
  Pr  Pr8  1  0.371420  0.138762  0.604380  1
  Pr  Pr9  1  0.601135  0.253624  0.948873  1
  Se  Se10  1  0.000002  0.000001  0.000000  1
  Se  Se11  1  0.806850  0.517123  0.096473  1
  Se  Se12  1  0.555740  0.888941  0.221721  1
  Se  Se13  1  0.991187  0.602133  0.379946  1
  Se  Se14  1  0.280750  0.136336  0.425453  1
  Se  Se15  1  0.719245  0.863652  0.574545  1
  Se  Se16  1  0.008813  0.397869  0.620055  1
  Se  Se17  1  0.444256  0.111059  0.778280  1
  Se  Se18  1  0.193149  0.482878  0.903528  1
