# generated using pymatgen
data_Th3Mg2AlIrPt2
_symmetry_space_group_name_H-M   'P 1'
_cell_length_a   7.52185127
_cell_length_b   7.53681999
_cell_length_c   4.08638600
_cell_angle_alpha   90.00000000
_cell_angle_beta   90.00000000
_cell_angle_gamma   120.38351573
_symmetry_Int_Tables_number   1
_chemical_formula_structural   Th3Mg2AlIrPt2
_chemical_formula_sum   'Th3 Mg2 Al1 Ir1 Pt2'
_cell_volume   199.84419690
_cell_formula_units_Z   1
loop_
 _symmetry_equiv_pos_site_id
 _symmetry_equiv_pos_as_xyz
  1  'x, y, z'
loop_
 _atom_site_type_symbol
 _atom_site_label
 _atom_site_symmetry_multiplicity
 _atom_site_fract_x
 _atom_site_fract_y
 _atom_site_fract_z
 _atom_site_occupancy
  Th  Th0  1  0.417010  0.008065  0.500000  1
  Th  Th1  1  0.995950  0.410523  0.500000  1
  Th  Th2  1  0.580024  0.573381  0.500000  1
  Mg  Mg3  1  0.763738  0.000840  0.000000  1
  Mg  Mg4  1  0.001154  0.763126  0.000000  1
  Al  Al5  1  0.237304  0.235113  0.000000  1
  Ir  Ir6  1  0.652937  0.331894  0.000000  1
  Pt  Pt7  1  0.333790  0.658657  0.000000  1
  Pt  Pt8  1  0.018093  0.018400  0.500000  1
