# generated using pymatgen
data_Lu2Al8SiIr2Rh
_symmetry_space_group_name_H-M   'P 1'
_cell_length_a   7.51391313
_cell_length_b   7.51391472
_cell_length_c   9.29942100
_cell_angle_alpha   90.00000000
_cell_angle_beta   90.00000000
_cell_angle_gamma   119.60792620
_symmetry_Int_Tables_number   1
_chemical_formula_structural   Lu2Al8SiIr2Rh
_chemical_formula_sum   'Lu4 Al16 Si2 Ir4 Rh2'
_cell_volume   456.47947976
_cell_formula_units_Z   2
loop_
 _symmetry_equiv_pos_site_id
 _symmetry_equiv_pos_as_xyz
  1  'x, y, z'
loop_
 _atom_site_type_symbol
 _atom_site_label
 _atom_site_symmetry_multiplicity
 _atom_site_fract_x
 _atom_site_fract_y
 _atom_site_fract_z
 _atom_site_occupancy
  Lu  Lu0  1  0.995306  0.674140  0.250000  1
  Lu  Lu1  1  0.004694  0.325860  0.750000  1
  Lu  Lu2  1  0.674140  0.995306  0.250000  1
  Lu  Lu3  1  0.325860  0.004694  0.750000  1
  Al  Al4  1  0.000654  0.335608  0.077099  1
  Al  Al5  1  0.999346  0.664392  0.922901  1
  Al  Al6  1  0.999346  0.664392  0.577099  1
  Al  Al7  1  0.335608  0.000654  0.422901  1
  Al  Al8  1  0.000654  0.335608  0.422901  1
  Al  Al9  1  0.664392  0.999346  0.577099  1
  Al  Al10  1  0.664392  0.999346  0.922901  1
  Al  Al11  1  0.335608  0.000654  0.077099  1
  Al  Al12  1  0.334527  0.334527  0.559088  1
  Al  Al13  1  0.665473  0.665473  0.440912  1
  Al  Al14  1  0.665473  0.665473  0.059088  1
  Al  Al15  1  0.334527  0.334527  0.940912  1
  Al  Al16  1  0.335497  0.548420  0.250000  1
  Al  Al17  1  0.664503  0.451580  0.750000  1
  Al  Al18  1  0.548420  0.335497  0.250000  1
  Al  Al19  1  0.451580  0.664503  0.750000  1
  Si  Si20  1  0.126879  0.126879  0.250000  1
  Si  Si21  1  0.873121  0.873121  0.750000  1
  Ir  Ir22  1  0.672268  0.327732  0.000000  1
  Ir  Ir23  1  0.327732  0.672268  0.000000  1
  Ir  Ir24  1  0.327732  0.672268  0.500000  1
  Ir  Ir25  1  0.672268  0.327732  0.500000  1
  Rh  Rh26  1  0.000000  0.000000  0.000000  1
  Rh  Rh27  1  0.000000  0.000000  0.500000  1
