# generated using pymatgen
data_Pr3CdCu(PdAu)2
_symmetry_space_group_name_H-M   'P 1'
_cell_length_a   7.73140497
_cell_length_b   7.67565854
_cell_length_c   3.90903600
_cell_angle_alpha   90.00000000
_cell_angle_beta   90.00000000
_cell_angle_gamma   119.76177090
_symmetry_Int_Tables_number   1
_chemical_formula_structural   Pr3CdCu(PdAu)2
_chemical_formula_sum   'Pr3 Cd1 Cu1 Pd2 Au2'
_cell_volume   201.37795224
_cell_formula_units_Z   1
loop_
 _symmetry_equiv_pos_site_id
 _symmetry_equiv_pos_as_xyz
  1  'x, y, z'
loop_
 _atom_site_type_symbol
 _atom_site_label
 _atom_site_symmetry_multiplicity
 _atom_site_fract_x
 _atom_site_fract_y
 _atom_site_fract_z
 _atom_site_occupancy
  Pr  Pr0  1  0.415438  0.403501  0.500000  1
  Pr  Pr1  1  0.000000  0.612738  0.500000  1
  Pr  Pr2  1  0.584562  0.988063  0.500000  1
  Cd  Cd3  1  0.000000  0.247986  0.000000  1
  Cu  Cu4  1  0.000000  0.001892  0.500000  1
  Pd  Pd5  1  0.673239  0.331123  0.000000  1
  Pd  Pd6  1  0.326761  0.657886  0.000000  1
  Au  Au7  1  0.748998  0.752906  0.000000  1
  Au  Au8  1  0.251002  0.003907  0.000000  1
