# generated using pymatgen
data_Zr10Zn2(SnSb)3
_symmetry_space_group_name_H-M   'P 1'
_cell_length_a   8.69505400
_cell_length_b   8.69505344
_cell_length_c   5.86876800
_cell_angle_alpha   90.00000000
_cell_angle_beta   90.00000000
_cell_angle_gamma   120.00000215
_symmetry_Int_Tables_number   1
_chemical_formula_structural   Zr10Zn2(SnSb)3
_chemical_formula_sum   'Zr10 Zn2 Sn3 Sb3'
_cell_volume   384.25727870
_cell_formula_units_Z   1
loop_
 _symmetry_equiv_pos_site_id
 _symmetry_equiv_pos_as_xyz
  1  'x, y, z'
loop_
 _atom_site_type_symbol
 _atom_site_label
 _atom_site_symmetry_multiplicity
 _atom_site_fract_x
 _atom_site_fract_y
 _atom_site_fract_z
 _atom_site_occupancy
  Zr  Zr0  1  0.666667  0.333333  0.000946  1
  Zr  Zr1  1  0.333333  0.666667  0.000946  1
  Zr  Zr2  1  0.333333  0.666667  0.499054  1
  Zr  Zr3  1  0.666667  0.333333  0.499054  1
  Zr  Zr4  1  0.730997  0.730997  0.750000  1
  Zr  Zr5  1  0.269003  0.000000  0.750000  1
  Zr  Zr6  1  0.000000  0.269003  0.750000  1
  Zr  Zr7  1  0.269162  0.269162  0.250000  1
  Zr  Zr8  1  0.730838  0.000000  0.250000  1
  Zr  Zr9  1  0.000000  0.730838  0.250000  1
  Zn  Zn10  1  0.000000  0.000000  0.001218  1
  Zn  Zn11  1  0.000000  0.000000  0.498782  1
  Sn  Sn12  1  0.616190  0.616190  0.250000  1
  Sn  Sn13  1  0.383810  0.000000  0.250000  1
  Sn  Sn14  1  0.000000  0.383810  0.250000  1
  Sb  Sb15  1  0.384863  0.384863  0.750000  1
  Sb  Sb16  1  0.615137  0.000000  0.750000  1
  Sb  Sb17  1  0.000000  0.615137  0.750000  1
