# generated using pymatgen
data_Nd12RuRhAu2
_symmetry_space_group_name_H-M   'P 1'
_cell_length_a   6.63241055
_cell_length_b   7.40854130
_cell_length_c   10.04548300
_cell_angle_alpha   90.00000000
_cell_angle_beta   90.00000000
_cell_angle_gamma   90.10434148
_symmetry_Int_Tables_number   1
_chemical_formula_structural   Nd12RuRhAu2
_chemical_formula_sum   'Nd12 Ru1 Rh1 Au2'
_cell_volume   493.59893131
_cell_formula_units_Z   1
loop_
 _symmetry_equiv_pos_site_id
 _symmetry_equiv_pos_as_xyz
  1  'x, y, z'
loop_
 _atom_site_type_symbol
 _atom_site_label
 _atom_site_symmetry_multiplicity
 _atom_site_fract_x
 _atom_site_fract_y
 _atom_site_fract_z
 _atom_site_occupancy
  Nd  Nd0  1  0.325660  0.686998  0.057929  1
  Nd  Nd1  1  0.160908  0.169558  0.437012  1
  Nd  Nd2  1  0.662511  0.331683  0.564498  1
  Nd  Nd3  1  0.821922  0.812105  0.939314  1
  Nd  Nd4  1  0.662511  0.331683  0.935502  1
  Nd  Nd5  1  0.821922  0.812105  0.560686  1
  Nd  Nd6  1  0.325660  0.686998  0.442071  1
  Nd  Nd7  1  0.160908  0.169558  0.062988  1
  Nd  Nd8  1  0.873934  0.540558  0.250000  1
  Nd  Nd9  1  0.651284  0.024428  0.250000  1
  Nd  Nd10  1  0.149322  0.477866  0.750000  1
  Nd  Nd11  1  0.375637  0.956005  0.750000  1
  Ru  Ru12  1  0.563995  0.615803  0.750000  1
  Rh  Rh13  1  0.067972  0.883881  0.250000  1
  Au  Au14  1  0.435419  0.388375  0.250000  1
  Au  Au15  1  0.940431  0.112395  0.750000  1
