# generated using pymatgen
data_Rb6ErBiSe3
_symmetry_space_group_name_H-M   'P 1'
_cell_length_a   11.10639600
_cell_length_b   11.10639680
_cell_length_c   9.08793700
_cell_angle_alpha   90.00000000
_cell_angle_beta   90.00000000
_cell_angle_gamma   119.99999763
_symmetry_Int_Tables_number   1
_chemical_formula_structural   Rb6ErBiSe3
_chemical_formula_sum   'Rb12 Er2 Bi2 Se6'
_cell_volume   970.82799092
_cell_formula_units_Z   2
loop_
 _symmetry_equiv_pos_site_id
 _symmetry_equiv_pos_as_xyz
  1  'x, y, z'
loop_
 _atom_site_type_symbol
 _atom_site_label
 _atom_site_symmetry_multiplicity
 _atom_site_fract_x
 _atom_site_fract_y
 _atom_site_fract_z
 _atom_site_occupancy
  Rb  Rb0  1  0.142313  0.857687  0.535874  1
  Rb  Rb1  1  0.284626  0.142313  0.035874  1
  Rb  Rb2  1  0.857687  0.715374  0.035874  1
  Rb  Rb3  1  0.142313  0.284626  0.535874  1
  Rb  Rb4  1  0.715374  0.857687  0.535874  1
  Rb  Rb5  1  0.857687  0.142313  0.035874  1
  Rb  Rb6  1  0.529582  0.470418  0.372445  1
  Rb  Rb7  1  0.059164  0.529582  0.872445  1
  Rb  Rb8  1  0.470418  0.940836  0.872445  1
  Rb  Rb9  1  0.529582  0.059164  0.372445  1
  Rb  Rb10  1  0.940836  0.470418  0.372445  1
  Rb  Rb11  1  0.470418  0.529582  0.872445  1
  Er  Er12  1  0.333333  0.666667  0.243786  1
  Er  Er13  1  0.666667  0.333333  0.743786  1
  Bi  Bi14  1  0.333333  0.666667  0.576032  1
  Bi  Bi15  1  0.666667  0.333333  0.076032  1
  Se  Se16  1  0.195978  0.804022  0.154975  1
  Se  Se17  1  0.391955  0.195978  0.654975  1
  Se  Se18  1  0.804022  0.608045  0.654975  1
  Se  Se19  1  0.195978  0.391955  0.154975  1
  Se  Se20  1  0.608045  0.804022  0.154975  1
  Se  Se21  1  0.804022  0.195978  0.654975  1
