# generated using pymatgen
data_KTcAs2Pd
_symmetry_space_group_name_H-M   'P 1'
_cell_length_a   7.32614611
_cell_length_b   7.32614648
_cell_length_c   7.32614657
_cell_angle_alpha   147.35355521
_cell_angle_beta   147.35355190
_cell_angle_gamma   46.84056583
_symmetry_Int_Tables_number   1
_chemical_formula_structural   KTcAs2Pd
_chemical_formula_sum   'K1 Tc1 As2 Pd1'
_cell_volume   114.00702983
_cell_formula_units_Z   1
loop_
 _symmetry_equiv_pos_site_id
 _symmetry_equiv_pos_as_xyz
  1  'x, y, z'
loop_
 _atom_site_type_symbol
 _atom_site_label
 _atom_site_symmetry_multiplicity
 _atom_site_fract_x
 _atom_site_fract_y
 _atom_site_fract_z
 _atom_site_occupancy
  K  K0  1  0.000000  0.000000  0.000000  1
  Tc  Tc1  1  0.250000  0.750000  0.500000  1
  As  As2  1  0.352721  0.352721  0.000000  1
  As  As3  1  0.647279  0.647279  0.000000  1
  Pd  Pd4  1  0.750000  0.250000  0.500000  1
