# generated using pymatgen
data_Ho4C2Br3
_symmetry_space_group_name_H-M   'P 1'
_cell_length_a   3.67191100
_cell_length_b   10.68709400
_cell_length_c   20.29627600
_cell_angle_alpha   90.00000000
_cell_angle_beta   90.00000000
_cell_angle_gamma   90.00000000
_symmetry_Int_Tables_number   1
_chemical_formula_structural   Ho4C2Br3
_chemical_formula_sum   'Ho16 C8 Br12'
_cell_volume   796.46764031
_cell_formula_units_Z   4
loop_
 _symmetry_equiv_pos_site_id
 _symmetry_equiv_pos_as_xyz
  1  'x, y, z'
loop_
 _atom_site_type_symbol
 _atom_site_label
 _atom_site_symmetry_multiplicity
 _atom_site_fract_x
 _atom_site_fract_y
 _atom_site_fract_z
 _atom_site_occupancy
  Ho  Ho0  1  0.250000  0.863963  0.579633  1
  Ho  Ho1  1  0.750000  0.136037  0.420367  1
  Ho  Ho2  1  0.750000  0.636037  0.079633  1
  Ho  Ho3  1  0.250000  0.363963  0.920367  1
  Ho  Ho4  1  0.250000  0.862733  0.743670  1
  Ho  Ho5  1  0.750000  0.137267  0.256330  1
  Ho  Ho6  1  0.750000  0.637267  0.243670  1
  Ho  Ho7  1  0.250000  0.362733  0.756330  1
  Ho  Ho8  1  0.250000  0.870497  0.168188  1
  Ho  Ho9  1  0.750000  0.129503  0.831812  1
  Ho  Ho10  1  0.750000  0.629503  0.668188  1
  Ho  Ho11  1  0.250000  0.370497  0.331812  1
  Ho  Ho12  1  0.250000  0.902886  0.328126  1
  Ho  Ho13  1  0.750000  0.097114  0.671874  1
  Ho  Ho14  1  0.750000  0.597114  0.828126  1
  Ho  Ho15  1  0.250000  0.402886  0.171874  1
  C  C16  1  0.250000  0.612346  0.749900  1
  C  C17  1  0.750000  0.387654  0.250100  1
  C  C18  1  0.750000  0.887654  0.249900  1
  C  C19  1  0.250000  0.112346  0.750100  1
  C  C20  1  0.250000  0.635445  0.155436  1
  C  C21  1  0.750000  0.364555  0.844564  1
  C  C22  1  0.750000  0.864555  0.655436  1
  C  C23  1  0.250000  0.135445  0.344564  1
  Br  Br24  1  0.250000  0.610720  0.553556  1
  Br  Br25  1  0.750000  0.389280  0.446444  1
  Br  Br26  1  0.750000  0.889280  0.053556  1
  Br  Br27  1  0.250000  0.110720  0.946444  1
  Br  Br28  1  0.250000  0.626984  0.952516  1
  Br  Br29  1  0.750000  0.373016  0.047484  1
  Br  Br30  1  0.750000  0.873016  0.452516  1
  Br  Br31  1  0.250000  0.126984  0.547484  1
  Br  Br32  1  0.250000  0.638412  0.356868  1
  Br  Br33  1  0.750000  0.361588  0.643132  1
  Br  Br34  1  0.750000  0.861588  0.856868  1
  Br  Br35  1  0.250000  0.138412  0.143132  1
