# generated using pymatgen
data_Eu4Tc3B16Mo
_symmetry_space_group_name_H-M   'P 1'
_cell_length_a   6.10674607
_cell_length_b   11.82239446
_cell_length_c   3.65376700
_cell_angle_alpha   90.00000000
_cell_angle_beta   90.00000000
_cell_angle_gamma   89.94000533
_symmetry_Int_Tables_number   1
_chemical_formula_structural   Eu4Tc3B16Mo
_chemical_formula_sum   'Eu4 Tc3 B16 Mo1'
_cell_volume   263.78853623
_cell_formula_units_Z   1
loop_
 _symmetry_equiv_pos_site_id
 _symmetry_equiv_pos_as_xyz
  1  'x, y, z'
loop_
 _atom_site_type_symbol
 _atom_site_label
 _atom_site_symmetry_multiplicity
 _atom_site_fract_x
 _atom_site_fract_y
 _atom_site_fract_z
 _atom_site_occupancy
  Eu  Eu0  1  0.625458  0.348411  0.000000  1
  Eu  Eu1  1  0.373311  0.651105  0.000000  1
  Eu  Eu2  1  0.126506  0.150781  0.000000  1
  Eu  Eu3  1  0.873931  0.850369  0.000000  1
  Tc  Tc4  1  0.628452  0.083588  0.000000  1
  Tc  Tc5  1  0.371408  0.917390  0.000000  1
  Tc  Tc6  1  0.126875  0.416295  0.000000  1
  B  B7  1  0.781865  0.183369  0.500000  1
  B  B8  1  0.218993  0.817016  0.500000  1
  B  B9  1  0.281656  0.316148  0.500000  1
  B  B10  1  0.715042  0.685702  0.500000  1
  B  B11  1  0.861748  0.032527  0.500000  1
  B  B12  1  0.138590  0.967816  0.500000  1
  B  B13  1  0.362386  0.466578  0.500000  1
  B  B14  1  0.635026  0.531490  0.500000  1
  B  B15  1  0.888501  0.451760  0.500000  1
  B  B16  1  0.115430  0.545244  0.500000  1
  B  B17  1  0.388092  0.046609  0.500000  1
  B  B18  1  0.612305  0.953861  0.500000  1
  B  B19  1  0.977186  0.308569  0.500000  1
  B  B20  1  0.025362  0.691977  0.500000  1
  B  B21  1  0.476798  0.190275  0.500000  1
  B  B22  1  0.523029  0.810005  0.500000  1
  Mo  Mo23  1  0.872051  0.583115  0.000000  1
