# generated using pymatgen
data_Ce(PrIr)4
_symmetry_space_group_name_H-M   'P 1'
_cell_length_a   7.54487512
_cell_length_b   7.73439999
_cell_length_c   15.02721823
_cell_angle_alpha   90.35809787
_cell_angle_beta   89.99300868
_cell_angle_gamma   89.77775634
_symmetry_Int_Tables_number   1
_chemical_formula_structural   Ce(PrIr)4
_chemical_formula_sum   'Ce4 Pr16 Ir16'
_cell_volume   876.89081885
_cell_formula_units_Z   4
loop_
 _symmetry_equiv_pos_site_id
 _symmetry_equiv_pos_as_xyz
  1  'x, y, z'
loop_
 _atom_site_type_symbol
 _atom_site_label
 _atom_site_symmetry_multiplicity
 _atom_site_fract_x
 _atom_site_fract_y
 _atom_site_fract_z
 _atom_site_occupancy
  Ce  Ce0  1  0.683308  0.978861  0.249678  1
  Ce  Ce1  1  0.338301  0.168415  0.122670  1
  Ce  Ce2  1  0.186290  0.522624  0.248968  1
  Ce  Ce3  1  0.160456  0.669824  0.623491  1
  Pr  Pr4  1  0.514537  0.317811  0.907785  1
  Pr  Pr5  1  0.325792  0.012980  0.750293  1
  Pr  Pr6  1  0.338309  0.169806  0.377800  1
  Pr  Pr7  1  0.659249  0.832273  0.877900  1
  Pr  Pr8  1  0.012031  0.186393  0.906183  1
  Pr  Pr9  1  0.158943  0.670799  0.878911  1
  Pr  Pr10  1  0.989729  0.817485  0.410332  1
  Pr  Pr11  1  0.822374  0.490191  0.749503  1
  Pr  Pr12  1  0.840012  0.332018  0.375939  1
  Pr  Pr13  1  0.491880  0.681119  0.089853  1
  Pr  Pr14  1  0.490738  0.683806  0.409355  1
  Pr  Pr15  1  0.657986  0.830784  0.620578  1
  Pr  Pr16  1  0.840840  0.330951  0.123689  1
  Pr  Pr17  1  0.513114  0.318556  0.591891  1
  Pr  Pr18  1  0.012765  0.181988  0.593133  1
  Pr  Pr19  1  0.989376  0.818618  0.090243  1
  Ir  Ir20  1  0.708130  0.135127  0.750350  1
  Ir  Ir21  1  0.317759  0.976803  0.967133  1
  Ir  Ir22  1  0.661298  0.031984  0.049706  1
  Ir  Ir23  1  0.836536  0.531634  0.542482  1
  Ir  Ir24  1  0.301663  0.854582  0.247826  1
  Ir  Ir25  1  0.184480  0.457200  0.045345  1
  Ir  Ir26  1  0.445523  0.608821  0.745005  1
  Ir  Ir27  1  0.043230  0.094333  0.246538  1
  Ir  Ir28  1  0.957858  0.889613  0.746503  1
  Ir  Ir29  1  0.312774  0.955565  0.539744  1
  Ir  Ir30  1  0.530957  0.403121  0.247338  1
  Ir  Ir31  1  0.793872  0.645542  0.249763  1
  Ir  Ir32  1  0.672808  0.030371  0.453174  1
  Ir  Ir33  1  0.200186  0.364073  0.746872  1
  Ir  Ir34  1  0.825783  0.531008  0.959865  1
  Ir  Ir35  1  0.181113  0.474921  0.464158  1
