# generated using pymatgen
data_Er16Tl3In(PtRh)2
_symmetry_space_group_name_H-M   'P 1'
_cell_length_a   9.61242696
_cell_length_b   9.62567447
_cell_length_c   9.62567403
_cell_angle_alpha   60.09878889
_cell_angle_beta   60.07919330
_cell_angle_gamma   60.07920073
_symmetry_Int_Tables_number   1
_chemical_formula_structural   Er16Tl3In(PtRh)2
_chemical_formula_sum   'Er16 Tl3 In1 Pt2 Rh2'
_cell_volume   630.99103229
_cell_formula_units_Z   1
loop_
 _symmetry_equiv_pos_site_id
 _symmetry_equiv_pos_as_xyz
  1  'x, y, z'
loop_
 _atom_site_type_symbol
 _atom_site_label
 _atom_site_symmetry_multiplicity
 _atom_site_fract_x
 _atom_site_fract_y
 _atom_site_fract_z
 _atom_site_occupancy
  Er  Er0  1  0.192296  0.186462  0.809361  1
  Er  Er1  1  0.438131  0.061376  0.061376  1
  Er  Er2  1  0.436590  0.064097  0.437927  1
  Er  Er3  1  0.060950  0.439044  0.061427  1
  Er  Er4  1  0.648038  0.050071  0.651672  1
  Er  Er5  1  0.188352  0.811624  0.811624  1
  Er  Er6  1  0.060950  0.061427  0.439044  1
  Er  Er7  1  0.808547  0.190114  0.190114  1
  Er  Er8  1  0.810948  0.810905  0.186425  1
  Er  Er9  1  0.648038  0.651672  0.050071  1
  Er  Er10  1  0.647108  0.651460  0.651460  1
  Er  Er11  1  0.063935  0.437594  0.437594  1
  Er  Er12  1  0.053531  0.649858  0.649858  1
  Er  Er13  1  0.810948  0.186425  0.810905  1
  Er  Er14  1  0.436590  0.437927  0.064097  1
  Er  Er15  1  0.192296  0.809361  0.186462  1
  Tl  Tl16  1  0.414817  0.755560  0.414252  1
  Tl  Tl17  1  0.414817  0.414252  0.755560  1
  Tl  Tl18  1  0.756137  0.414342  0.414342  1
  In  In19  1  0.416171  0.415715  0.415715  1
  Pt  Pt20  1  0.857907  0.427883  0.857586  1
  Pt  Pt21  1  0.857907  0.857586  0.427883  1
  Rh  Rh22  1  0.427279  0.857811  0.857811  1
  Rh  Rh23  1  0.857718  0.857433  0.857433  1
