# generated using pymatgen
data_Nb12AlGa3(PtN)4
_symmetry_space_group_name_H-M   'P 1'
_cell_length_a   7.05920273
_cell_length_b   7.05920273
_cell_length_c   7.05920273
_cell_angle_alpha   89.91669481
_cell_angle_beta   89.91669481
_cell_angle_gamma   89.91669481
_symmetry_Int_Tables_number   1
_chemical_formula_structural   Nb12AlGa3(PtN)4
_chemical_formula_sum   'Nb12 Al1 Ga3 Pt4 N4'
_cell_volume   351.77549836
_cell_formula_units_Z   1
loop_
 _symmetry_equiv_pos_site_id
 _symmetry_equiv_pos_as_xyz
  1  'x, y, z'
loop_
 _atom_site_type_symbol
 _atom_site_label
 _atom_site_symmetry_multiplicity
 _atom_site_fract_x
 _atom_site_fract_y
 _atom_site_fract_z
 _atom_site_occupancy
  Nb  Nb0  1  0.789523  0.954785  0.377031  1
  Nb  Nb1  1  0.709604  0.044895  0.877659  1
  Nb  Nb2  1  0.210341  0.455424  0.123233  1
  Nb  Nb3  1  0.290503  0.544857  0.623006  1
  Nb  Nb4  1  0.954785  0.377031  0.789523  1
  Nb  Nb5  1  0.044895  0.877659  0.709604  1
  Nb  Nb6  1  0.455424  0.123233  0.210341  1
  Nb  Nb7  1  0.544857  0.623006  0.290503  1
  Nb  Nb8  1  0.377031  0.789523  0.954785  1
  Nb  Nb9  1  0.877659  0.709604  0.044895  1
  Nb  Nb10  1  0.123233  0.210341  0.455424  1
  Nb  Nb11  1  0.623006  0.290503  0.544857  1
  Al  Al12  1  0.071622  0.071622  0.071622  1
  Ga  Ga13  1  0.570263  0.429200  0.929760  1
  Ga  Ga14  1  0.429200  0.929760  0.570263  1
  Ga  Ga15  1  0.929760  0.570263  0.429200  1
  Pt  Pt16  1  0.177851  0.823503  0.318808  1
  Pt  Pt17  1  0.318808  0.177851  0.823503  1
  Pt  Pt18  1  0.823503  0.318808  0.177851  1
  Pt  Pt19  1  0.678974  0.678974  0.678974  1
  N  N20  1  0.874602  0.124837  0.624183  1
  N  N21  1  0.624183  0.874602  0.124837  1
  N  N22  1  0.124837  0.624183  0.874602  1
  N  N23  1  0.375536  0.375536  0.375536  1
