# generated using pymatgen
data_Nd12Hg(IrI4)3
_symmetry_space_group_name_H-M   'P 1'
_cell_length_a   10.99835764
_cell_length_b   10.99835851
_cell_length_c   10.99835706
_cell_angle_alpha   110.01381755
_cell_angle_beta   110.01381520
_cell_angle_gamma   110.01381984
_symmetry_Int_Tables_number   1
_chemical_formula_structural   Nd12Hg(IrI4)3
_chemical_formula_sum   'Nd12 Hg1 Ir3 I12'
_cell_volume   1003.04412922
_cell_formula_units_Z   1
loop_
 _symmetry_equiv_pos_site_id
 _symmetry_equiv_pos_as_xyz
  1  'x, y, z'
loop_
 _atom_site_type_symbol
 _atom_site_label
 _atom_site_symmetry_multiplicity
 _atom_site_fract_x
 _atom_site_fract_y
 _atom_site_fract_z
 _atom_site_occupancy
  Nd  Nd0  1  0.462124  0.493035  0.221457  1
  Nd  Nd1  1  0.750000  0.227519  0.272481  1
  Nd  Nd2  1  0.750000  0.019415  0.480585  1
  Nd  Nd3  1  0.221457  0.462124  0.493035  1
  Nd  Nd4  1  0.272481  0.750000  0.227519  1
  Nd  Nd5  1  0.037876  0.278543  0.006965  1
  Nd  Nd6  1  0.006965  0.037876  0.278543  1
  Nd  Nd7  1  0.480585  0.750000  0.019415  1
  Nd  Nd8  1  0.493035  0.221457  0.462124  1
  Nd  Nd9  1  0.019415  0.480585  0.750000  1
  Nd  Nd10  1  0.278543  0.006965  0.037876  1
  Nd  Nd11  1  0.227519  0.272481  0.750000  1
  Hg  Hg12  1  0.250000  0.250000  0.250000  1
  Ir  Ir13  1  0.502509  0.997491  0.250000  1
  Ir  Ir14  1  0.997491  0.250000  0.502509  1
  Ir  Ir15  1  0.250000  0.502509  0.997491  1
  I  I16  1  0.250000  0.761781  0.738219  1
  I  I17  1  0.514593  0.504843  0.754653  1
  I  I18  1  0.985407  0.745347  0.995157  1
  I  I19  1  0.738219  0.250000  0.761781  1
  I  I20  1  0.995157  0.985407  0.745347  1
  I  I21  1  0.250000  0.994874  0.505126  1
  I  I22  1  0.754653  0.514593  0.504843  1
  I  I23  1  0.505126  0.250000  0.994874  1
  I  I24  1  0.761781  0.738219  0.250000  1
  I  I25  1  0.745347  0.995157  0.985407  1
  I  I26  1  0.994874  0.505126  0.250000  1
  I  I27  1  0.504843  0.754653  0.514593  1
