# generated using pymatgen
data_RbTa(SeO3)3
_symmetry_space_group_name_H-M   'P 1'
_cell_length_a   8.25732900
_cell_length_b   8.25726877
_cell_length_c   9.99908500
_cell_angle_alpha   90.00000000
_cell_angle_beta   90.00000000
_cell_angle_gamma   120.00022927
_symmetry_Int_Tables_number   1
_chemical_formula_structural   RbTa(SeO3)3
_chemical_formula_sum   'Rb2 Ta2 Se6 O18'
_cell_volume   590.42657694
_cell_formula_units_Z   2
loop_
 _symmetry_equiv_pos_site_id
 _symmetry_equiv_pos_as_xyz
  1  'x, y, z'
loop_
 _atom_site_type_symbol
 _atom_site_label
 _atom_site_symmetry_multiplicity
 _atom_site_fract_x
 _atom_site_fract_y
 _atom_site_fract_z
 _atom_site_occupancy
  Rb  Rb0  1  0.666667  0.333335  0.000000  1
  Rb  Rb1  1  0.666667  0.333335  0.500001  1
  Ta  Ta2  1  0.333333  0.666666  0.000000  1
  Ta  Ta3  1  0.333333  0.666666  0.500001  1
  Se  Se4  1  0.090613  0.330888  0.250000  1
  Se  Se5  1  0.669107  0.759729  0.250000  1
  Se  Se6  1  0.240276  0.909388  0.250000  1
  Se  Se7  1  0.240275  0.330888  0.750000  1
  Se  Se8  1  0.090623  0.759729  0.750000  1
  Se  Se9  1  0.669112  0.909388  0.750000  1
  O  O10  1  0.121210  0.485375  0.114024  1
  O  O11  1  0.514625  0.635836  0.114024  1
  O  O12  1  0.364163  0.878789  0.114024  1
  O  O13  1  0.861633  0.193438  0.250000  1
  O  O14  1  0.331799  0.138362  0.250000  1
  O  O15  1  0.806565  0.668191  0.250000  1
  O  O16  1  0.514625  0.635836  0.385976  1
  O  O17  1  0.364163  0.878789  0.385976  1
  O  O18  1  0.121210  0.485375  0.385976  1
  O  O19  1  0.364164  0.485375  0.614024  1
  O  O20  1  0.514625  0.878789  0.614023  1
  O  O21  1  0.121211  0.635836  0.614024  1
  O  O22  1  0.331805  0.193438  0.750000  1
  O  O23  1  0.806561  0.138362  0.750000  1
  O  O24  1  0.861626  0.668191  0.750000  1
  O  O25  1  0.121211  0.635836  0.885976  1
  O  O26  1  0.514625  0.878789  0.885976  1
  O  O27  1  0.364164  0.485375  0.885976  1
