# generated using pymatgen
data_Zr3Sc5Ta11VSi16
_symmetry_space_group_name_H-M   'P 1'
_cell_length_a   6.87429186
_cell_length_b   6.87894948
_cell_length_c   12.67980523
_cell_angle_alpha   90.14873817
_cell_angle_beta   89.88282100
_cell_angle_gamma   89.99442895
_symmetry_Int_Tables_number   1
_chemical_formula_structural   Zr3Sc5Ta11VSi16
_chemical_formula_sum   'Zr3 Sc5 Ta11 V1 Si16'
_cell_volume   599.59816572
_cell_formula_units_Z   1
loop_
 _symmetry_equiv_pos_site_id
 _symmetry_equiv_pos_as_xyz
  1  'x, y, z'
loop_
 _atom_site_type_symbol
 _atom_site_label
 _atom_site_symmetry_multiplicity
 _atom_site_fract_x
 _atom_site_fract_y
 _atom_site_fract_z
 _atom_site_occupancy
  Zr  Zr0  1  0.000857  0.659469  0.031440  1
  Zr  Zr1  1  0.840474  0.503444  0.280671  1
  Zr  Zr2  1  0.158338  0.497952  0.780800  1
  Sc  Sc3  1  0.500588  0.839736  0.718633  1
  Sc  Sc4  1  0.498617  0.160437  0.220568  1
  Sc  Sc5  1  0.999652  0.340936  0.528715  1
  Sc  Sc6  1  0.661082  0.999848  0.969920  1
  Sc  Sc7  1  0.339301  0.000203  0.469480  1
  Ta  Ta8  1  0.328855  0.331427  0.000012  1
  Ta  Ta9  1  0.167789  0.830782  0.250754  1
  Ta  Ta10  1  0.831656  0.170526  0.749040  1
  Ta  Ta11  1  0.671500  0.669015  0.499512  1
  Ta  Ta12  1  0.004539  0.152870  0.126227  1
  Ta  Ta13  1  0.348107  0.504647  0.375879  1
  Ta  Ta14  1  0.652648  0.495110  0.875985  1
  Ta  Ta15  1  0.507535  0.348019  0.623018  1
  Ta  Ta16  1  0.495207  0.653674  0.124610  1
  Ta  Ta17  1  0.995031  0.847197  0.626942  1
  Ta  Ta18  1  0.151774  0.004946  0.873774  1
  V  V19  1  0.846887  0.990329  0.373169  1
  Si  Si20  1  0.302390  0.958221  0.064195  1
  Si  Si21  1  0.545011  0.805866  0.315976  1
  Si  Si22  1  0.458694  0.196807  0.813245  1
  Si  Si23  1  0.801063  0.543215  0.685117  1
  Si  Si24  1  0.201969  0.454100  0.187711  1
  Si  Si25  1  0.701915  0.041388  0.559547  1
  Si  Si26  1  0.954093  0.298380  0.936638  1
  Si  Si27  1  0.041546  0.706259  0.436167  1
  Si  Si28  1  0.704689  0.361780  0.073265  1
  Si  Si29  1  0.128639  0.202207  0.323997  1
  Si  Si30  1  0.860684  0.794372  0.822258  1
  Si  Si31  1  0.207349  0.137226  0.676777  1
  Si  Si32  1  0.792751  0.867154  0.181439  1
  Si  Si33  1  0.294428  0.637427  0.571374  1
  Si  Si34  1  0.365068  0.707948  0.927694  1
  Si  Si35  1  0.639273  0.287083  0.425456  1
