# generated using pymatgen
data_La3Pt5Rh4
_symmetry_space_group_name_H-M   'P 1'
_cell_length_a   9.47899908
_cell_length_b   9.47899916
_cell_length_c   9.46515936
_cell_angle_alpha   33.39242435
_cell_angle_beta   33.39242371
_cell_angle_gamma   33.40928085
_symmetry_Int_Tables_number   1
_chemical_formula_structural   La3Pt5Rh4
_chemical_formula_sum   'La3 Pt5 Rh4'
_cell_volume   229.46767382
_cell_formula_units_Z   1
loop_
 _symmetry_equiv_pos_site_id
 _symmetry_equiv_pos_as_xyz
  1  'x, y, z'
loop_
 _atom_site_type_symbol
 _atom_site_label
 _atom_site_symmetry_multiplicity
 _atom_site_fract_x
 _atom_site_fract_y
 _atom_site_fract_z
 _atom_site_occupancy
  La  La0  1  0.138445  0.137610  0.139011  1
  La  La1  1  0.999819  0.000181  0.000000  1
  La  La2  1  0.862390  0.861555  0.860989  1
  Pt  Pt3  1  0.416147  0.418147  0.920325  1
  Pt  Pt4  1  0.415727  0.920227  0.418010  1
  Pt  Pt5  1  0.079773  0.584273  0.581990  1
  Pt  Pt6  1  0.581853  0.583853  0.079675  1
  Pt  Pt7  1  0.502372  0.497628  0.500000  1
  Rh  Rh8  1  0.918570  0.418149  0.418534  1
  Rh  Rh9  1  0.581851  0.081430  0.581466  1
  Rh  Rh10  1  0.331790  0.328736  0.336845  1
  Rh  Rh11  1  0.671264  0.668210  0.663155  1
