# generated using pymatgen
data_Y3Ir7Rh2
_symmetry_space_group_name_H-M   'P 1'
_cell_length_a   5.31418000
_cell_length_b   5.31418097
_cell_length_c   17.48528600
_cell_angle_alpha   90.00000000
_cell_angle_beta   90.00000000
_cell_angle_gamma   119.99999396
_symmetry_Int_Tables_number   1
_chemical_formula_structural   Y3Ir7Rh2
_chemical_formula_sum   'Y6 Ir14 Rh4'
_cell_volume   427.63771354
_cell_formula_units_Z   2
loop_
 _symmetry_equiv_pos_site_id
 _symmetry_equiv_pos_as_xyz
  1  'x, y, z'
loop_
 _atom_site_type_symbol
 _atom_site_label
 _atom_site_symmetry_multiplicity
 _atom_site_fract_x
 _atom_site_fract_y
 _atom_site_fract_z
 _atom_site_occupancy
  Y  Y0  1  0.333333  0.666667  0.958895  1
  Y  Y1  1  0.666667  0.333333  0.041105  1
  Y  Y2  1  0.666667  0.333333  0.458895  1
  Y  Y3  1  0.333333  0.666667  0.541105  1
  Y  Y4  1  0.333333  0.666667  0.750000  1
  Y  Y5  1  0.666667  0.333333  0.250000  1
  Ir  Ir6  1  0.167512  0.832488  0.374168  1
  Ir  Ir7  1  0.167512  0.335024  0.374168  1
  Ir  Ir8  1  0.664976  0.832488  0.374168  1
  Ir  Ir9  1  0.832488  0.167512  0.625832  1
  Ir  Ir10  1  0.832488  0.664976  0.625832  1
  Ir  Ir11  1  0.335024  0.167512  0.625832  1
  Ir  Ir12  1  0.832488  0.167512  0.874168  1
  Ir  Ir13  1  0.832488  0.664976  0.874168  1
  Ir  Ir14  1  0.335024  0.167512  0.874168  1
  Ir  Ir15  1  0.167512  0.832488  0.125832  1
  Ir  Ir16  1  0.167512  0.335024  0.125832  1
  Ir  Ir17  1  0.664976  0.832488  0.125832  1
  Ir  Ir18  1  0.000000  0.000000  0.500000  1
  Ir  Ir19  1  0.000000  0.000000  0.000000  1
  Rh  Rh20  1  0.333333  0.666667  0.250000  1
  Rh  Rh21  1  0.666667  0.333333  0.750000  1
  Rh  Rh22  1  0.000000  0.000000  0.250000  1
  Rh  Rh23  1  0.000000  0.000000  0.750000  1
