# generated using pymatgen
data_Tm5Th3(Pt2Pb)4
_symmetry_space_group_name_H-M   'P 1'
_cell_length_a   8.04437860
_cell_length_b   8.04437907
_cell_length_c   7.18666700
_cell_angle_alpha   90.00000000
_cell_angle_beta   90.00000000
_cell_angle_gamma   90.16203373
_symmetry_Int_Tables_number   1
_chemical_formula_structural   Tm5Th3(Pt2Pb)4
_chemical_formula_sum   'Tm5 Th3 Pt8 Pb4'
_cell_volume   465.06195702
_cell_formula_units_Z   1
loop_
 _symmetry_equiv_pos_site_id
 _symmetry_equiv_pos_as_xyz
  1  'x, y, z'
loop_
 _atom_site_type_symbol
 _atom_site_label
 _atom_site_symmetry_multiplicity
 _atom_site_fract_x
 _atom_site_fract_y
 _atom_site_fract_z
 _atom_site_occupancy
  Tm  Tm0  1  0.340068  0.343552  0.500000  1
  Tm  Tm1  1  0.656448  0.659932  0.500000  1
  Tm  Tm2  1  0.172279  0.827721  0.500000  1
  Tm  Tm3  1  0.842560  0.157440  0.000000  1
  Tm  Tm4  1  0.160329  0.839671  0.000000  1
  Th  Th5  1  0.674149  0.674506  0.000000  1
  Th  Th6  1  0.827030  0.172970  0.500000  1
  Th  Th7  1  0.325494  0.325851  0.000000  1
  Pt  Pt8  1  0.872476  0.870510  0.735121  1
  Pt  Pt9  1  0.129490  0.127524  0.735121  1
  Pt  Pt10  1  0.629962  0.370038  0.762835  1
  Pt  Pt11  1  0.629962  0.370038  0.237165  1
  Pt  Pt12  1  0.371521  0.628479  0.240066  1
  Pt  Pt13  1  0.129490  0.127524  0.264879  1
  Pt  Pt14  1  0.872476  0.870510  0.264879  1
  Pt  Pt15  1  0.371521  0.628479  0.759934  1
  Pb  Pb16  1  0.494317  0.996944  0.745192  1
  Pb  Pb17  1  0.494317  0.996944  0.254808  1
  Pb  Pb18  1  0.003056  0.505683  0.745192  1
  Pb  Pb19  1  0.003056  0.505683  0.254808  1
