# generated using pymatgen
data_TaMn8Os3
_symmetry_space_group_name_H-M   'P 1'
_cell_length_a   4.69073000
_cell_length_b   4.69072747
_cell_length_c   7.68770300
_cell_angle_alpha   90.00000000
_cell_angle_beta   90.00000000
_cell_angle_gamma   120.00000373
_symmetry_Int_Tables_number   1
_chemical_formula_structural   TaMn8Os3
_chemical_formula_sum   'Ta1 Mn8 Os3'
_cell_volume   146.48995621
_cell_formula_units_Z   1
loop_
 _symmetry_equiv_pos_site_id
 _symmetry_equiv_pos_as_xyz
  1  'x, y, z'
loop_
 _atom_site_type_symbol
 _atom_site_label
 _atom_site_symmetry_multiplicity
 _atom_site_fract_x
 _atom_site_fract_y
 _atom_site_fract_z
 _atom_site_occupancy
  Ta  Ta0  1  0.333333  0.666667  0.063709  1
  Mn  Mn1  1  0.174132  0.348262  0.747433  1
  Mn  Mn2  1  0.825052  0.174948  0.255104  1
  Mn  Mn3  1  0.349896  0.174948  0.255104  1
  Mn  Mn4  1  0.651738  0.825868  0.747433  1
  Mn  Mn5  1  0.000000  0.000000  0.999984  1
  Mn  Mn6  1  0.000000  0.000000  0.500065  1
  Mn  Mn7  1  0.825052  0.650104  0.255104  1
  Mn  Mn8  1  0.174132  0.825868  0.747433  1
  Os  Os9  1  0.333333  0.666667  0.432622  1
  Os  Os10  1  0.666667  0.333333  0.925974  1
  Os  Os11  1  0.666667  0.333333  0.570033  1
