# generated using pymatgen
data_CaIn2(SeO3)4
_symmetry_space_group_name_H-M   'P 1'
_cell_length_a   4.90167800
_cell_length_b   8.83381150
_cell_length_c   16.43283456
_cell_angle_alpha   71.27647685
_cell_angle_beta   90.00000000
_cell_angle_gamma   90.00000000
_symmetry_Int_Tables_number   1
_chemical_formula_structural   CaIn2(SeO3)4
_chemical_formula_sum   'Ca2 In4 Se8 O24'
_cell_volume   673.89370218
_cell_formula_units_Z   2
loop_
 _symmetry_equiv_pos_site_id
 _symmetry_equiv_pos_as_xyz
  1  'x, y, z'
loop_
 _atom_site_type_symbol
 _atom_site_label
 _atom_site_symmetry_multiplicity
 _atom_site_fract_x
 _atom_site_fract_y
 _atom_site_fract_z
 _atom_site_occupancy
  Ca  Ca0  1  0.000000  0.000000  0.000000  1
  Ca  Ca1  1  0.500000  0.000000  0.500000  1
  In  In2  1  0.527998  0.154046  0.787270  1
  In  In3  1  0.972002  0.154046  0.287270  1
  In  In4  1  0.472002  0.845954  0.212730  1
  In  In5  1  0.027998  0.845954  0.712730  1
  Se  Se6  1  0.554108  0.785271  0.878278  1
  Se  Se7  1  0.945892  0.785271  0.378278  1
  Se  Se8  1  0.445892  0.214729  0.121722  1
  Se  Se9  1  0.054108  0.214729  0.621722  1
  Se  Se10  1  0.005487  0.351534  0.865627  1
  Se  Se11  1  0.494513  0.351534  0.365627  1
  Se  Se12  1  0.994513  0.648466  0.134373  1
  Se  Se13  1  0.505487  0.648466  0.634373  1
  O  O14  1  0.767354  0.353554  0.786996  1
  O  O15  1  0.732646  0.353554  0.286996  1
  O  O16  1  0.232646  0.646446  0.213004  1
  O  O17  1  0.267354  0.646446  0.713004  1
  O  O18  1  0.819315  0.720264  0.830810  1
  O  O19  1  0.680685  0.720264  0.330810  1
  O  O20  1  0.180685  0.279736  0.169190  1
  O  O21  1  0.319315  0.279736  0.669190  1
  O  O22  1  0.205551  0.179655  0.870901  1
  O  O23  1  0.294449  0.179655  0.370901  1
  O  O24  1  0.794449  0.820345  0.129099  1
  O  O25  1  0.705551  0.820345  0.629099  1
  O  O26  1  0.682583  0.950995  0.901464  1
  O  O27  1  0.817417  0.950995  0.401464  1
  O  O28  1  0.317417  0.049005  0.098536  1
  O  O29  1  0.182583  0.049005  0.598536  1
  O  O30  1  0.360069  0.910453  0.792085  1
  O  O31  1  0.139931  0.910453  0.292085  1
  O  O32  1  0.639931  0.089547  0.207915  1
  O  O33  1  0.860069  0.089547  0.707915  1
  O  O34  1  0.840162  0.265166  0.959915  1
  O  O35  1  0.659838  0.265166  0.459915  1
  O  O36  1  0.159838  0.734834  0.040085  1
  O  O37  1  0.340162  0.734834  0.540085  1
