# generated using pymatgen
data_Rb3LaV2O8
_symmetry_space_group_name_H-M   'P 1'
_cell_length_a   6.24059200
_cell_length_b   6.24059132
_cell_length_c   8.12149500
_cell_angle_alpha   90.00000000
_cell_angle_beta   90.00000000
_cell_angle_gamma   119.99999300
_symmetry_Int_Tables_number   1
_chemical_formula_structural   Rb3LaV2O8
_chemical_formula_sum   'Rb3 La1 V2 O8'
_cell_volume   273.91648904
_cell_formula_units_Z   1
loop_
 _symmetry_equiv_pos_site_id
 _symmetry_equiv_pos_as_xyz
  1  'x, y, z'
loop_
 _atom_site_type_symbol
 _atom_site_label
 _atom_site_symmetry_multiplicity
 _atom_site_fract_x
 _atom_site_fract_y
 _atom_site_fract_z
 _atom_site_occupancy
  Rb  Rb0  1  0.333333  0.666667  0.706231  1
  Rb  Rb1  1  0.666667  0.333333  0.293769  1
  Rb  Rb2  1  0.000000  0.000000  0.000000  1
  La  La3  1  0.000000  0.000000  0.500000  1
  V  V4  1  0.333333  0.666667  0.249530  1
  V  V5  1  0.666667  0.333333  0.750470  1
  O  O6  1  0.333333  0.666667  0.042169  1
  O  O7  1  0.666667  0.333333  0.957831  1
  O  O8  1  0.179187  0.820813  0.323551  1
  O  O9  1  0.820813  0.179187  0.676449  1
  O  O10  1  0.179187  0.358373  0.323551  1
  O  O11  1  0.820813  0.641627  0.676449  1
  O  O12  1  0.641627  0.820813  0.323551  1
  O  O13  1  0.358373  0.179187  0.676449  1
