# generated using pymatgen
data_Dy3ErCd2Si3Ge
_symmetry_space_group_name_H-M   'P 1'
_cell_length_a   7.19297410
_cell_length_b   7.19297482
_cell_length_c   4.19238000
_cell_angle_alpha   90.00000000
_cell_angle_beta   90.00000000
_cell_angle_gamma   90.00432527
_symmetry_Int_Tables_number   1
_chemical_formula_structural   Dy3ErCd2Si3Ge
_chemical_formula_sum   'Dy3 Er1 Cd2 Si3 Ge1'
_cell_volume   216.90905176
_cell_formula_units_Z   1
loop_
 _symmetry_equiv_pos_site_id
 _symmetry_equiv_pos_as_xyz
  1  'x, y, z'
loop_
 _atom_site_type_symbol
 _atom_site_label
 _atom_site_symmetry_multiplicity
 _atom_site_fract_x
 _atom_site_fract_y
 _atom_site_fract_z
 _atom_site_occupancy
  Dy  Dy0  1  0.680199  0.177699  0.500000  1
  Dy  Dy1  1  0.322301  0.819801  0.500000  1
  Dy  Dy2  1  0.175689  0.324311  0.500000  1
  Er  Er3  1  0.822787  0.677213  0.500000  1
  Cd  Cd4  1  0.501570  0.503228  0.000000  1
  Cd  Cd5  1  0.996772  0.998430  0.000000  1
  Si  Si6  1  0.116478  0.617614  0.000000  1
  Si  Si7  1  0.882386  0.383522  0.000000  1
  Si  Si8  1  0.620914  0.879086  0.000000  1
  Ge  Ge9  1  0.380903  0.119097  0.000000  1
