# generated using pymatgen
data_Lu7Co6Sn23
_symmetry_space_group_name_H-M   'P 1'
_cell_length_a   9.63294500
_cell_length_b   9.63294604
_cell_length_c   9.93155100
_cell_angle_alpha   90.00000000
_cell_angle_beta   90.00000000
_cell_angle_gamma   119.99999985
_symmetry_Int_Tables_number   1
_chemical_formula_structural   Lu7Co6Sn23
_chemical_formula_sum   'Lu7 Co6 Sn23'
_cell_volume   798.11581725
_cell_formula_units_Z   1
loop_
 _symmetry_equiv_pos_site_id
 _symmetry_equiv_pos_as_xyz
  1  'x, y, z'
loop_
 _atom_site_type_symbol
 _atom_site_label
 _atom_site_symmetry_multiplicity
 _atom_site_fract_x
 _atom_site_fract_y
 _atom_site_fract_z
 _atom_site_occupancy
  Lu  Lu0  1  0.000000  0.000000  0.000000  1
  Lu  Lu1  1  0.479434  0.520566  0.305897  1
  Lu  Lu2  1  0.520566  0.479434  0.694103  1
  Lu  Lu3  1  0.479434  0.958867  0.305897  1
  Lu  Lu4  1  0.520566  0.041133  0.694103  1
  Lu  Lu5  1  0.041133  0.520566  0.305897  1
  Lu  Lu6  1  0.958867  0.479434  0.694103  1
  Co  Co7  1  0.832084  0.167916  0.197571  1
  Co  Co8  1  0.167916  0.832084  0.802429  1
  Co  Co9  1  0.832084  0.664167  0.197571  1
  Co  Co10  1  0.167916  0.335833  0.802429  1
  Co  Co11  1  0.335833  0.167916  0.197571  1
  Co  Co12  1  0.664167  0.832084  0.802429  1
  Sn  Sn13  1  0.345935  0.000000  0.000000  1
  Sn  Sn14  1  0.654065  0.000000  0.000000  1
  Sn  Sn15  1  0.000000  0.345935  0.000000  1
  Sn  Sn16  1  0.000000  0.654065  0.000000  1
  Sn  Sn17  1  0.654065  0.654065  0.000000  1
  Sn  Sn18  1  0.345935  0.345935  0.000000  1
  Sn  Sn19  1  0.333333  0.666667  0.816891  1
  Sn  Sn20  1  0.666667  0.333333  0.183109  1
  Sn  Sn21  1  0.000000  0.000000  0.500000  1
  Sn  Sn22  1  0.780731  0.219269  0.452531  1
  Sn  Sn23  1  0.219269  0.780731  0.547469  1
  Sn  Sn24  1  0.780731  0.561462  0.452531  1
  Sn  Sn25  1  0.219269  0.438538  0.547469  1
  Sn  Sn26  1  0.438538  0.219269  0.452531  1
  Sn  Sn27  1  0.561462  0.780731  0.547469  1
  Sn  Sn28  1  0.333333  0.666667  0.121236  1
  Sn  Sn29  1  0.666667  0.333333  0.878764  1
  Sn  Sn30  1  0.118918  0.881082  0.274649  1
  Sn  Sn31  1  0.881082  0.118918  0.725351  1
  Sn  Sn32  1  0.118918  0.237835  0.274649  1
  Sn  Sn33  1  0.881082  0.762165  0.725351  1
  Sn  Sn34  1  0.762165  0.881082  0.274649  1
  Sn  Sn35  1  0.237835  0.118918  0.725351  1
