# generated using pymatgen
data_Ca10LaPr(GaRh)8
_symmetry_space_group_name_H-M   'P 1'
_cell_length_a   5.80119533
_cell_length_b   7.86206325
_cell_length_c   13.90995202
_cell_angle_alpha   89.85997335
_cell_angle_beta   90.27218116
_cell_angle_gamma   90.08114008
_symmetry_Int_Tables_number   1
_chemical_formula_structural   Ca10LaPr(GaRh)8
_chemical_formula_sum   'Ca10 La1 Pr1 Ga8 Rh8'
_cell_volume   634.41439454
_cell_formula_units_Z   1
loop_
 _symmetry_equiv_pos_site_id
 _symmetry_equiv_pos_as_xyz
  1  'x, y, z'
loop_
 _atom_site_type_symbol
 _atom_site_label
 _atom_site_symmetry_multiplicity
 _atom_site_fract_x
 _atom_site_fract_y
 _atom_site_fract_z
 _atom_site_occupancy
  Ca  Ca0  1  0.373467  0.753267  0.749143  1
  Ca  Ca1  1  0.371778  0.746059  0.253729  1
  Ca  Ca2  1  0.629450  0.253258  0.748366  1
  Ca  Ca3  1  0.137449  0.397806  0.094958  1
  Ca  Ca4  1  0.853202  0.595770  0.899098  1
  Ca  Ca5  1  0.859751  0.605159  0.597097  1
  Ca  Ca6  1  0.858999  0.896033  0.405300  1
  Ca  Ca7  1  0.141057  0.397581  0.406703  1
  Ca  Ca8  1  0.144273  0.102189  0.596856  1
  Ca  Ca9  1  0.152886  0.106781  0.899389  1
  La  La10  1  0.852178  0.894261  0.089731  1
  Pr  Pr11  1  0.617830  0.250698  0.253245  1
  Ga  Ga12  1  0.133934  0.092484  0.251566  1
  Ga  Ga13  1  0.849831  0.908468  0.750457  1
  Ga  Ga14  1  0.856123  0.601104  0.252239  1
  Ga  Ga15  1  0.154070  0.406329  0.748030  1
  Ga  Ga16  1  0.604322  0.253396  0.998714  1
  Ga  Ga17  1  0.378337  0.746417  0.997408  1
  Ga  Ga18  1  0.391395  0.749823  0.499667  1
  Ga  Ga19  1  0.608015  0.249560  0.503384  1
  Rh  Rh20  1  0.366768  0.026912  0.094663  1
  Rh  Rh21  1  0.650771  0.967435  0.910459  1
  Rh  Rh22  1  0.642120  0.967707  0.593040  1
  Rh  Rh23  1  0.642130  0.524840  0.406443  1
  Rh  Rh24  1  0.368702  0.032378  0.406513  1
  Rh  Rh25  1  0.363141  0.472183  0.592703  1
  Rh  Rh26  1  0.359710  0.469936  0.906034  1
  Rh  Rh27  1  0.638309  0.532167  0.095066  1
