# generated using pymatgen
data_SrAl6Cu7
_symmetry_space_group_name_H-M   'P 1'
_cell_length_a   8.44705616
_cell_length_b   8.44705595
_cell_length_c   8.44705581
_cell_angle_alpha   121.76565851
_cell_angle_beta   118.75162397
_cell_angle_gamma   89.57257106
_symmetry_Int_Tables_number   1
_chemical_formula_structural   SrAl6Cu7
_chemical_formula_sum   'Sr2 Al12 Cu14'
_cell_volume   424.13841851
_cell_formula_units_Z   2
loop_
 _symmetry_equiv_pos_site_id
 _symmetry_equiv_pos_as_xyz
  1  'x, y, z'
loop_
 _atom_site_type_symbol
 _atom_site_label
 _atom_site_symmetry_multiplicity
 _atom_site_fract_x
 _atom_site_fract_y
 _atom_site_fract_z
 _atom_site_occupancy
  Sr  Sr0  1  0.250000  0.750000  0.500000  1
  Sr  Sr1  1  0.750000  0.250000  0.500000  1
  Al  Al2  1  0.555757  0.547753  0.359025  1
  Al  Al3  1  0.444243  0.452247  0.640975  1
  Al  Al4  1  0.188728  0.196732  0.640975  1
  Al  Al5  1  0.311272  0.952247  0.008003  1
  Al  Al6  1  0.811272  0.803268  0.359025  1
  Al  Al7  1  0.688728  0.047753  0.991997  1
  Al  Al8  1  0.944243  0.303268  0.991997  1
  Al  Al9  1  0.055757  0.696732  0.008003  1
  Al  Al10  1  0.053303  0.307596  0.360899  1
  Al  Al11  1  0.946697  0.692404  0.639101  1
  Al  Al12  1  0.553303  0.192404  0.745706  1
  Al  Al13  1  0.446697  0.807596  0.254294  1
  Cu  Cu14  1  0.283872  0.295497  0.228845  1
  Cu  Cu15  1  0.716128  0.704503  0.771155  1
  Cu  Cu16  1  0.066652  0.055027  0.771155  1
  Cu  Cu17  1  0.433348  0.204503  0.988375  1
  Cu  Cu18  1  0.933348  0.944973  0.228845  1
  Cu  Cu19  1  0.566652  0.795497  0.011625  1
  Cu  Cu20  1  0.216128  0.444973  0.011625  1
  Cu  Cu21  1  0.783872  0.555027  0.988375  1
  Cu  Cu22  1  0.000000  0.000000  0.000000  1
  Cu  Cu23  1  0.500000  0.500000  0.000000  1
  Cu  Cu24  1  0.286048  0.064903  0.350952  1
  Cu  Cu25  1  0.713952  0.935097  0.649048  1
  Cu  Cu26  1  0.786048  0.435097  0.221145  1
  Cu  Cu27  1  0.213952  0.564903  0.778855  1
