# generated using pymatgen
data_Pr4Nd2IrCl11
_symmetry_space_group_name_H-M   'P 1'
_cell_length_a   8.32046920
_cell_length_b   8.35070702
_cell_length_c   7.40476465
_cell_angle_alpha   87.16230977
_cell_angle_beta   87.08121691
_cell_angle_gamma   101.28999411
_symmetry_Int_Tables_number   1
_chemical_formula_structural   Pr4Nd2IrCl11
_chemical_formula_sum   'Pr4 Nd2 Ir1 Cl11'
_cell_volume   502.95575958
_cell_formula_units_Z   1
loop_
 _symmetry_equiv_pos_site_id
 _symmetry_equiv_pos_as_xyz
  1  'x, y, z'
loop_
 _atom_site_type_symbol
 _atom_site_label
 _atom_site_symmetry_multiplicity
 _atom_site_fract_x
 _atom_site_fract_y
 _atom_site_fract_z
 _atom_site_occupancy
  Pr  Pr0  1  0.981435  0.291163  0.227785  1
  Pr  Pr1  1  0.018682  0.709173  0.772112  1
  Pr  Pr2  1  0.805393  0.806532  0.241166  1
  Pr  Pr3  1  0.291877  0.982509  0.227432  1
  Nd  Nd4  1  0.710396  0.018189  0.773100  1
  Nd  Nd5  1  0.192750  0.192398  0.759545  1
  Ir  Ir6  1  0.999713  0.000057  0.000099  1
  Cl  Cl7  1  0.000409  0.000326  0.500980  1
  Cl  Cl8  1  0.661246  0.092926  0.366622  1
  Cl  Cl9  1  0.488894  0.200171  0.939327  1
  Cl  Cl10  1  0.302814  0.302641  0.367270  1
  Cl  Cl11  1  0.906332  0.336165  0.636517  1
  Cl  Cl12  1  0.202062  0.486636  0.941145  1
  Cl  Cl13  1  0.798223  0.510948  0.056369  1
  Cl  Cl14  1  0.093530  0.661781  0.364995  1
  Cl  Cl15  1  0.696540  0.699947  0.636669  1
  Cl  Cl16  1  0.511311  0.799997  0.053528  1
  Cl  Cl17  1  0.338394  0.908441  0.635337  1
