# generated using pymatgen
data_NaLa(MoO4)2
_symmetry_space_group_name_H-M   'P 1'
_cell_length_a   7.02010584
_cell_length_b   7.02010579
_cell_length_c   7.02010549
_cell_angle_alpha   134.71150293
_cell_angle_beta   134.71149985
_cell_angle_gamma   65.97879324
_symmetry_Int_Tables_number   1
_chemical_formula_structural   NaLa(MoO4)2
_chemical_formula_sum   'Na1 La1 Mo2 O8'
_cell_volume   172.05784948
_cell_formula_units_Z   1
loop_
 _symmetry_equiv_pos_site_id
 _symmetry_equiv_pos_as_xyz
  1  'x, y, z'
loop_
 _atom_site_type_symbol
 _atom_site_label
 _atom_site_symmetry_multiplicity
 _atom_site_fract_x
 _atom_site_fract_y
 _atom_site_fract_z
 _atom_site_occupancy
  Na  Na0  1  0.750000  0.250000  0.500000  1
  La  La1  1  0.500000  0.500000  0.000000  1
  Mo  Mo2  1  0.000000  0.000000  0.000000  1
  Mo  Mo3  1  0.250000  0.750000  0.500000  1
  O  O4  1  0.475492  0.074790  0.877948  1
  O  O5  1  0.196841  0.597543  0.122052  1
  O  O6  1  0.925210  0.803159  0.400703  1
  O  O7  1  0.402457  0.524508  0.599297  1
  O  O8  1  0.322478  0.932966  0.092099  1
  O  O9  1  0.840867  0.230379  0.907901  1
  O  O10  1  0.067034  0.159133  0.389512  1
  O  O11  1  0.769621  0.677522  0.610488  1
