# generated using pymatgen
data_NaNb8RuSe16
_symmetry_space_group_name_H-M   'P 1'
_cell_length_a   6.99846200
_cell_length_b   6.99842121
_cell_length_c   14.25419900
_cell_angle_alpha   90.00013924
_cell_angle_beta   89.99901745
_cell_angle_gamma   120.00012362
_symmetry_Int_Tables_number   1
_chemical_formula_structural   NaNb8RuSe16
_chemical_formula_sum   'Na1 Nb8 Ru1 Se16'
_cell_volume   604.61037376
_cell_formula_units_Z   1
loop_
 _symmetry_equiv_pos_site_id
 _symmetry_equiv_pos_as_xyz
  1  'x, y, z'
loop_
 _atom_site_type_symbol
 _atom_site_label
 _atom_site_symmetry_multiplicity
 _atom_site_fract_x
 _atom_site_fract_y
 _atom_site_fract_z
 _atom_site_occupancy
  Na  Na0  1  0.000000  0.000000  0.500000  1
  Nb  Nb1  1  0.999997  0.000005  0.220581  1
  Nb  Nb2  1  0.000003  0.999995  0.779419  1
  Nb  Nb3  1  0.506774  0.013556  0.219232  1
  Nb  Nb4  1  0.986434  0.493218  0.219229  1
  Nb  Nb5  1  0.506771  0.493220  0.219232  1
  Nb  Nb6  1  0.493226  0.986444  0.780768  1
  Nb  Nb7  1  0.013566  0.506782  0.780771  1
  Nb  Nb8  1  0.493229  0.506780  0.780768  1
  Ru  Ru9  1  0.000000  0.000000  0.000000  1
  Se  Se10  1  0.333337  0.666667  0.901956  1
  Se  Se11  1  0.666663  0.333333  0.098044  1
  Se  Se12  1  0.666659  0.333334  0.341454  1
  Se  Se13  1  0.333341  0.666666  0.658546  1
  Se  Se14  1  0.167747  0.832240  0.337089  1
  Se  Se15  1  0.167748  0.335515  0.337089  1
  Se  Se16  1  0.664475  0.832241  0.337089  1
  Se  Se17  1  0.832253  0.167760  0.662911  1
  Se  Se18  1  0.832252  0.664485  0.662911  1
  Se  Se19  1  0.335525  0.167759  0.662911  1
  Se  Se20  1  0.832844  0.167158  0.894865  1
  Se  Se21  1  0.832845  0.665680  0.894867  1
  Se  Se22  1  0.334317  0.167157  0.894867  1
  Se  Se23  1  0.167156  0.832842  0.105135  1
  Se  Se24  1  0.167155  0.334320  0.105133  1
  Se  Se25  1  0.665683  0.832843  0.105133  1
