# generated using pymatgen
data_TmNb2B2Ru5
_symmetry_space_group_name_H-M   'P 1'
_cell_length_a   9.54242382
_cell_length_b   9.54242382
_cell_length_c   3.09103900
_cell_angle_alpha   90.00000000
_cell_angle_beta   90.00000000
_cell_angle_gamma   90.49163534
_symmetry_Int_Tables_number   1
_chemical_formula_structural   TmNb2B2Ru5
_chemical_formula_sum   'Tm2 Nb4 B4 Ru10'
_cell_volume   281.45301141
_cell_formula_units_Z   2
loop_
 _symmetry_equiv_pos_site_id
 _symmetry_equiv_pos_as_xyz
  1  'x, y, z'
loop_
 _atom_site_type_symbol
 _atom_site_label
 _atom_site_symmetry_multiplicity
 _atom_site_fract_x
 _atom_site_fract_y
 _atom_site_fract_z
 _atom_site_occupancy
  Tm  Tm0  1  0.824284  0.675716  0.000000  1
  Tm  Tm1  1  0.175716  0.324284  0.000000  1
  Nb  Nb2  1  0.324147  0.824147  0.000000  1
  Nb  Nb3  1  0.675853  0.175853  0.000000  1
  Nb  Nb4  1  0.500000  0.500000  0.000000  1
  Nb  Nb5  1  0.000000  0.000000  0.000000  1
  B  B6  1  0.621581  0.878419  0.000000  1
  B  B7  1  0.378419  0.121581  0.000000  1
  B  B8  1  0.120703  0.620703  0.000000  1
  B  B9  1  0.879297  0.379297  0.000000  1
  Ru  Ru10  1  0.560960  0.722561  0.500000  1
  Ru  Ru11  1  0.439040  0.277439  0.500000  1
  Ru  Ru12  1  0.080005  0.784634  0.500000  1
  Ru  Ru13  1  0.919995  0.215366  0.500000  1
  Ru  Ru14  1  0.284634  0.580005  0.500000  1
  Ru  Ru15  1  0.715366  0.419995  0.500000  1
  Ru  Ru16  1  0.222561  0.060960  0.500000  1
  Ru  Ru17  1  0.777439  0.939040  0.500000  1
  Ru  Ru18  1  0.500000  0.000000  0.500000  1
  Ru  Ru19  1  0.000000  0.500000  0.500000  1
