# generated using pymatgen
data_Y4Ge2As4Ir7
_symmetry_space_group_name_H-M   'P 1'
_cell_length_a   7.29835721
_cell_length_b   7.29835813
_cell_length_c   7.30468155
_cell_angle_alpha   109.29448658
_cell_angle_beta   109.29448739
_cell_angle_gamma   109.79039679
_symmetry_Int_Tables_number   1
_chemical_formula_structural   Y4Ge2As4Ir7
_chemical_formula_sum   'Y4 Ge2 As4 Ir7'
_cell_volume   299.64372925
_cell_formula_units_Z   1
loop_
 _symmetry_equiv_pos_site_id
 _symmetry_equiv_pos_as_xyz
  1  'x, y, z'
loop_
 _atom_site_type_symbol
 _atom_site_label
 _atom_site_symmetry_multiplicity
 _atom_site_fract_x
 _atom_site_fract_y
 _atom_site_fract_z
 _atom_site_occupancy
  Y  Y0  1  0.000245  0.000245  0.500131  1
  Y  Y1  1  0.000197  0.500197  0.000394  1
  Y  Y2  1  0.500197  0.000197  0.000394  1
  Y  Y3  1  0.499887  0.499887  0.500131  1
  Ge  Ge4  1  0.681550  0.998494  0.680044  1
  Ge  Ge5  1  0.998494  0.681550  0.680044  1
  As  As6  1  0.680400  0.680400  0.998016  1
  As  As7  1  0.323558  0.999072  0.322630  1
  As  As8  1  0.999072  0.323558  0.322630  1
  As  As9  1  0.317616  0.317616  0.998016  1
  Ir  Ir10  1  0.751418  0.251418  0.502835  1
  Ir  Ir11  1  0.748797  0.501421  0.250217  1
  Ir  Ir12  1  0.501757  0.250401  0.752158  1
  Ir  Ir13  1  0.250401  0.501757  0.752158  1
  Ir  Ir14  1  0.251418  0.751418  0.502835  1
  Ir  Ir15  1  0.501421  0.748797  0.250217  1
  Ir  Ir16  1  0.993577  0.993577  0.987153  1
