# generated using pymatgen
data_Tb2TmSn3IrRh2
_symmetry_space_group_name_H-M   'P 1'
_cell_length_a   7.69170211
_cell_length_b   7.67075215
_cell_length_c   3.73666100
_cell_angle_alpha   90.00000000
_cell_angle_beta   90.00000000
_cell_angle_gamma   120.11011749
_symmetry_Int_Tables_number   1
_chemical_formula_structural   Tb2TmSn3IrRh2
_chemical_formula_sum   'Tb2 Tm1 Sn3 Ir1 Rh2'
_cell_volume   190.71803660
_cell_formula_units_Z   1
loop_
 _symmetry_equiv_pos_site_id
 _symmetry_equiv_pos_as_xyz
  1  'x, y, z'
loop_
 _atom_site_type_symbol
 _atom_site_label
 _atom_site_symmetry_multiplicity
 _atom_site_fract_x
 _atom_site_fract_y
 _atom_site_fract_z
 _atom_site_occupancy
  Tb  Tb0  1  0.998115  0.402516  0.000000  1
  Tb  Tb1  1  0.597914  0.595175  0.000000  1
  Tm  Tm2  1  0.404438  0.003051  0.000000  1
  Sn  Sn3  1  0.264843  0.264618  0.500000  1
  Sn  Sn4  1  0.004583  0.737407  0.500000  1
  Sn  Sn5  1  0.731961  0.997779  0.500000  1
  Ir  Ir6  1  0.663888  0.329901  0.500000  1
  Rh  Rh7  1  0.333817  0.669594  0.500000  1
  Rh  Rh8  1  0.000441  0.999959  0.000000  1
