# generated using pymatgen
data_Zr5Zn6SnRh12
_symmetry_space_group_name_H-M   'P 1'
_cell_length_a   4.48990400
_cell_length_b   6.31841200
_cell_length_c   13.37884700
_cell_angle_alpha   90.00000000
_cell_angle_beta   89.99984635
_cell_angle_gamma   90.00000000
_symmetry_Int_Tables_number   1
_chemical_formula_structural   Zr5Zn6SnRh12
_chemical_formula_sum   'Zr5 Zn6 Sn1 Rh12'
_cell_volume   379.54535759
_cell_formula_units_Z   1
loop_
 _symmetry_equiv_pos_site_id
 _symmetry_equiv_pos_as_xyz
  1  'x, y, z'
loop_
 _atom_site_type_symbol
 _atom_site_label
 _atom_site_symmetry_multiplicity
 _atom_site_fract_x
 _atom_site_fract_y
 _atom_site_fract_z
 _atom_site_occupancy
  Zr  Zr0  1  0.000008  0.500000  0.997648  1
  Zr  Zr1  1  0.500050  0.000000  0.167637  1
  Zr  Zr2  1  0.000009  0.500000  0.333345  1
  Zr  Zr3  1  0.500006  0.000000  0.499060  1
  Zr  Zr4  1  0.999981  0.500000  0.669007  1
  Zn  Zn5  1  0.000003  0.000000  0.004983  1
  Zn  Zn6  1  0.500047  0.500000  0.163949  1
  Zn  Zn7  1  0.000022  0.000000  0.333366  1
  Zn  Zn8  1  0.500006  0.500000  0.502733  1
  Zn  Zn9  1  0.999975  0.000000  0.661636  1
  Zn  Zn10  1  0.499971  0.500000  0.833323  1
  Sn  Sn11  1  0.499939  0.000000  0.833428  1
  Rh  Rh12  1  0.500010  0.246016  0.996762  1
  Rh  Rh13  1  0.500010  0.753984  0.996762  1
  Rh  Rh14  1  0.000050  0.250653  0.166479  1
  Rh  Rh15  1  0.000050  0.749346  0.166479  1
  Rh  Rh16  1  0.500028  0.251695  0.333390  1
  Rh  Rh17  1  0.500028  0.748304  0.333390  1
  Rh  Rh18  1  0.000001  0.250704  0.500231  1
  Rh  Rh19  1  0.000001  0.749295  0.500231  1
  Rh  Rh20  1  0.499984  0.246093  0.669784  1
  Rh  Rh21  1  0.499984  0.753906  0.669784  1
  Rh  Rh22  1  0.999922  0.240787  0.833295  1
  Rh  Rh23  1  0.999922  0.759212  0.833295  1
