# generated using pymatgen
data_Tb8Y2Ga3NiBi2
_symmetry_space_group_name_H-M   'P 1'
_cell_length_a   8.58622037
_cell_length_b   8.58622041
_cell_length_c   8.77449552
_cell_angle_alpha   123.99731409
_cell_angle_beta   123.99731231
_cell_angle_gamma   81.78836504
_symmetry_Int_Tables_number   1
_chemical_formula_structural   Tb8Y2Ga3NiBi2
_chemical_formula_sum   'Tb8 Y2 Ga3 Ni1 Bi2'
_cell_volume   430.84866091
_cell_formula_units_Z   1
loop_
 _symmetry_equiv_pos_site_id
 _symmetry_equiv_pos_as_xyz
  1  'x, y, z'
loop_
 _atom_site_type_symbol
 _atom_site_label
 _atom_site_symmetry_multiplicity
 _atom_site_fract_x
 _atom_site_fract_y
 _atom_site_fract_z
 _atom_site_occupancy
  Tb  Tb0  1  0.780000  0.297114  0.795122  1
  Tb  Tb1  1  0.202886  0.720000  0.204878  1
  Tb  Tb2  1  0.484878  0.001992  0.204878  1
  Tb  Tb3  1  0.304134  0.460172  0.500000  1
  Tb  Tb4  1  0.039828  0.195866  0.500000  1
  Tb  Tb5  1  0.498008  0.015122  0.795122  1
  Tb  Tb6  1  0.705753  0.515588  0.500000  1
  Tb  Tb7  1  0.984412  0.794247  0.500000  1
  Y  Y8  1  0.993666  0.996556  0.990223  1
  Y  Y9  1  0.503444  0.506334  0.009777  1
  Ga  Ga10  1  0.147949  0.645022  0.792970  1
  Ga  Ga11  1  0.854978  0.352051  0.207030  1
  Ga  Ga12  1  0.634598  0.865402  0.500000  1
  Ni  Ni13  1  0.376865  0.123135  0.500000  1
  Bi  Bi14  1  0.244298  0.255702  0.000000  1
  Bi  Bi15  1  0.744298  0.755702  0.000000  1
