# generated using pymatgen
data_Zr6Ni20GeP12
_symmetry_space_group_name_H-M   'P 1'
_cell_length_a   12.53380200
_cell_length_b   12.53380205
_cell_length_c   3.63971600
_cell_angle_alpha   90.00000000
_cell_angle_beta   90.00000000
_cell_angle_gamma   119.99999986
_symmetry_Int_Tables_number   1
_chemical_formula_structural   Zr6Ni20GeP12
_chemical_formula_sum   'Zr6 Ni20 Ge1 P12'
_cell_volume   495.18079356
_cell_formula_units_Z   1
loop_
 _symmetry_equiv_pos_site_id
 _symmetry_equiv_pos_as_xyz
  1  'x, y, z'
loop_
 _atom_site_type_symbol
 _atom_site_label
 _atom_site_symmetry_multiplicity
 _atom_site_fract_x
 _atom_site_fract_y
 _atom_site_fract_z
 _atom_site_occupancy
  Zr  Zr0  1  0.808501  0.282756  0.500000  1
  Zr  Zr1  1  0.717244  0.525745  0.500000  1
  Zr  Zr2  1  0.474255  0.191499  0.500000  1
  Zr  Zr3  1  0.192018  0.716017  0.000000  1
  Zr  Zr4  1  0.283983  0.476001  0.000000  1
  Zr  Zr5  1  0.523999  0.807982  0.000000  1
  Ni  Ni6  1  0.417398  0.980056  0.000000  1
  Ni  Ni7  1  0.019944  0.437343  0.000000  1
  Ni  Ni8  1  0.584162  0.021016  0.500000  1
  Ni  Ni9  1  0.562657  0.582602  0.000000  1
  Ni  Ni10  1  0.978984  0.563147  0.500000  1
  Ni  Ni11  1  0.915756  0.089699  0.500000  1
  Ni  Ni12  1  0.173943  0.084244  0.500000  1
  Ni  Ni13  1  0.910301  0.826057  0.500000  1
  Ni  Ni14  1  0.097941  0.889215  0.000000  1
  Ni  Ni15  1  0.791274  0.902059  0.000000  1
  Ni  Ni16  1  0.110785  0.208726  0.000000  1
  Ni  Ni17  1  0.333333  0.666667  0.500000  1
  Ni  Ni18  1  0.666667  0.333333  0.000000  1
  Ni  Ni19  1  0.674713  0.748263  0.500000  1
  Ni  Ni20  1  0.251737  0.926449  0.500000  1
  Ni  Ni21  1  0.919808  0.673540  0.000000  1
  Ni  Ni22  1  0.326460  0.246269  0.000000  1
  Ni  Ni23  1  0.753731  0.080192  0.000000  1
  Ni  Ni24  1  0.436853  0.415838  0.500000  1
  Ni  Ni25  1  0.073551  0.325287  0.500000  1
  Ge  Ge26  1  0.000000  0.000000  0.000000  1
  P  P27  1  0.234666  0.287262  0.500000  1
  P  P28  1  0.712738  0.947403  0.500000  1
  P  P29  1  0.052597  0.765334  0.500000  1
  P  P30  1  0.766779  0.713677  0.000000  1
  P  P31  1  0.286323  0.053103  0.000000  1
  P  P32  1  0.472847  0.613186  0.500000  1
  P  P33  1  0.386814  0.859660  0.500000  1
  P  P34  1  0.859752  0.472707  0.000000  1
  P  P35  1  0.527293  0.387046  0.000000  1
  P  P36  1  0.612954  0.140248  0.000000  1
  P  P37  1  0.946897  0.233221  0.000000  1
  P  P38  1  0.140340  0.527153  0.500000  1
