# generated using pymatgen
data_Ca3Nd2Tc5(P6Ir7)2
_symmetry_space_group_name_H-M   'P 1'
_cell_length_a   12.71089900
_cell_length_b   12.79363414
_cell_length_c   4.00152200
_cell_angle_alpha   90.00000000
_cell_angle_beta   90.00000000
_cell_angle_gamma   120.17821230
_symmetry_Int_Tables_number   1
_chemical_formula_structural   Ca3Nd2Tc5(P6Ir7)2
_chemical_formula_sum   'Ca3 Nd2 Tc5 P12 Ir14'
_cell_volume   562.52694672
_cell_formula_units_Z   1
loop_
 _symmetry_equiv_pos_site_id
 _symmetry_equiv_pos_as_xyz
  1  'x, y, z'
loop_
 _atom_site_type_symbol
 _atom_site_label
 _atom_site_symmetry_multiplicity
 _atom_site_fract_x
 _atom_site_fract_y
 _atom_site_fract_z
 _atom_site_occupancy
  Ca  Ca0  1  0.332966  0.665521  0.500000  1
  Ca  Ca1  1  0.667402  0.334325  0.500000  1
  Ca  Ca2  1  0.812218  0.998617  0.000000  1
  Nd  Nd3  1  0.999921  0.812952  0.000000  1
  Nd  Nd4  1  0.184942  0.184531  0.000000  1
  Tc  Tc5  1  0.995900  0.447759  0.500000  1
  Tc  Tc6  1  0.550309  0.545522  0.500000  1
  Tc  Tc7  1  0.456378  0.010694  0.500000  1
  Tc  Tc8  1  0.616605  0.797495  0.500000  1
  Tc  Tc9  1  0.203636  0.821295  0.500000  1
  P  P10  1  0.006273  0.634256  0.500000  1
  P  P11  1  0.366694  0.368782  0.500000  1
  P  P12  1  0.630571  0.994531  0.500000  1
  P  P13  1  0.519204  0.694131  0.000000  1
  P  P14  1  0.309480  0.829709  0.000000  1
  P  P15  1  0.170464  0.482690  0.000000  1
  P  P16  1  0.485106  0.171247  0.000000  1
  P  P17  1  0.686799  0.516565  0.000000  1
  P  P18  1  0.832217  0.314973  0.000000  1
  P  P19  1  0.995073  0.176555  0.500000  1
  P  P20  1  0.812490  0.818882  0.500000  1
  P  P21  1  0.181177  0.994590  0.500000  1
  Ir  Ir22  1  0.511536  0.878830  0.000000  1
  Ir  Ir23  1  0.126275  0.635301  0.000000  1
  Ir  Ir24  1  0.362531  0.492904  0.000000  1
  Ir  Ir25  1  0.491536  0.359687  0.000000  1
  Ir  Ir26  1  0.868311  0.508273  0.000000  1
  Ir  Ir27  1  0.643089  0.136274  0.000000  1
  Ir  Ir28  1  0.999456  0.286249  0.000000  1
  Ir  Ir29  1  0.714114  0.709716  0.000000  1
  Ir  Ir30  1  0.290453  0.005050  0.000000  1
  Ir  Ir31  1  0.178613  0.376038  0.500000  1
  Ir  Ir32  1  0.377022  0.184208  0.500000  1
  Ir  Ir33  1  0.805261  0.620791  0.500000  1
  Ir  Ir34  1  0.816818  0.192466  0.500000  1
  Ir  Ir35  1  0.999161  0.998590  0.500000  1
