# generated using pymatgen
data_Hf6Ti4CuSiSb6
_symmetry_space_group_name_H-M   'P 1'
_cell_length_a   8.46602400
_cell_length_b   8.46602276
_cell_length_c   5.63648400
_cell_angle_alpha   90.00000000
_cell_angle_beta   90.00000000
_cell_angle_gamma   119.99999703
_symmetry_Int_Tables_number   1
_chemical_formula_structural   Hf6Ti4CuSiSb6
_chemical_formula_sum   'Hf6 Ti4 Cu1 Si1 Sb6'
_cell_volume   349.86286668
_cell_formula_units_Z   1
loop_
 _symmetry_equiv_pos_site_id
 _symmetry_equiv_pos_as_xyz
  1  'x, y, z'
loop_
 _atom_site_type_symbol
 _atom_site_label
 _atom_site_symmetry_multiplicity
 _atom_site_fract_x
 _atom_site_fract_y
 _atom_site_fract_z
 _atom_site_occupancy
  Hf  Hf0  1  0.736580  0.736580  0.249556  1
  Hf  Hf1  1  0.263420  0.000000  0.249556  1
  Hf  Hf2  1  0.000000  0.263420  0.249556  1
  Hf  Hf3  1  0.263420  0.263420  0.750444  1
  Hf  Hf4  1  0.736580  0.000000  0.750444  1
  Hf  Hf5  1  0.000000  0.736580  0.750444  1
  Ti  Ti6  1  0.666667  0.333333  0.500000  1
  Ti  Ti7  1  0.333333  0.666667  0.500000  1
  Ti  Ti8  1  0.333333  0.666667  0.000000  1
  Ti  Ti9  1  0.666667  0.333333  0.000000  1
  Cu  Cu10  1  0.000000  0.000000  0.500000  1
  Si  Si11  1  0.000000  0.000000  0.000000  1
  Sb  Sb12  1  0.393707  0.393707  0.252073  1
  Sb  Sb13  1  0.606293  0.000000  0.252073  1
  Sb  Sb14  1  0.000000  0.606293  0.252073  1
  Sb  Sb15  1  0.606293  0.606293  0.747927  1
  Sb  Sb16  1  0.393707  0.000000  0.747927  1
  Sb  Sb17  1  0.000000  0.393707  0.747927  1
