# generated using pymatgen
data_DyYTm(Co3P2)3
_symmetry_space_group_name_H-M   'P 1'
_cell_length_a   3.69766700
_cell_length_b   10.51072900
_cell_length_c   12.16609800
_cell_angle_alpha   90.00000000
_cell_angle_beta   90.00000000
_cell_angle_gamma   90.00000000
_symmetry_Int_Tables_number   1
_chemical_formula_structural   DyYTm(Co3P2)3
_chemical_formula_sum   'Dy2 Y2 Tm2 Co18 P12'
_cell_volume   472.83753720
_cell_formula_units_Z   2
loop_
 _symmetry_equiv_pos_site_id
 _symmetry_equiv_pos_as_xyz
  1  'x, y, z'
loop_
 _atom_site_type_symbol
 _atom_site_label
 _atom_site_symmetry_multiplicity
 _atom_site_fract_x
 _atom_site_fract_y
 _atom_site_fract_z
 _atom_site_occupancy
  Dy  Dy0  1  0.000000  0.682736  0.794349  1
  Dy  Dy1  1  0.000000  0.317264  0.794349  1
  Y  Y2  1  0.000000  0.500000  0.521806  1
  Y  Y3  1  0.500000  0.000000  0.477619  1
  Tm  Tm4  1  0.500000  0.817631  0.205749  1
  Tm  Tm5  1  0.500000  0.182369  0.205749  1
  Co  Co6  1  0.500000  0.500000  0.158718  1
  Co  Co7  1  0.000000  0.000000  0.841535  1
  Co  Co8  1  0.500000  0.500000  0.703725  1
  Co  Co9  1  0.000000  0.000000  0.295582  1
  Co  Co10  1  0.000000  0.500000  0.986974  1
  Co  Co11  1  0.500000  0.000000  0.014774  1
  Co  Co12  1  0.500000  0.332903  0.995408  1
  Co  Co13  1  0.500000  0.667097  0.995408  1
  Co  Co14  1  0.000000  0.166304  0.006129  1
  Co  Co15  1  0.000000  0.833696  0.006129  1
  Co  Co16  1  0.500000  0.296958  0.429645  1
  Co  Co17  1  0.500000  0.703042  0.429645  1
  Co  Co18  1  0.000000  0.202684  0.569008  1
  Co  Co19  1  0.000000  0.797316  0.569008  1
  Co  Co20  1  0.500000  0.879459  0.709936  1
  Co  Co21  1  0.500000  0.120541  0.709936  1
  Co  Co22  1  0.000000  0.621279  0.289431  1
  Co  Co23  1  0.000000  0.378721  0.289431  1
  P  P24  1  0.500000  0.500000  0.883204  1
  P  P25  1  0.000000  0.000000  0.118310  1
  P  P26  1  0.500000  0.500000  0.343076  1
  P  P27  1  0.000000  0.000000  0.656693  1
  P  P28  1  0.500000  0.310113  0.615857  1
  P  P29  1  0.500000  0.689887  0.615857  1
  P  P30  1  0.000000  0.189429  0.382595  1
  P  P31  1  0.000000  0.810571  0.382595  1
  P  P32  1  0.500000  0.847723  0.893581  1
  P  P33  1  0.500000  0.152277  0.893581  1
  P  P34  1  0.000000  0.653686  0.107306  1
  P  P35  1  0.000000  0.346314  0.107306  1
