# generated using pymatgen
data_Ce(TaS2)5
_symmetry_space_group_name_H-M   'P 1'
_cell_length_a   5.82094411
_cell_length_b   7.93094285
_cell_length_c   8.65521600
_cell_angle_alpha   115.47463860
_cell_angle_beta   96.63521948
_cell_angle_gamma   103.95743479
_symmetry_Int_Tables_number   1
_chemical_formula_structural   Ce(TaS2)5
_chemical_formula_sum   'Ce1 Ta5 S10'
_cell_volume   338.93126707
_cell_formula_units_Z   1
loop_
 _symmetry_equiv_pos_site_id
 _symmetry_equiv_pos_as_xyz
  1  'x, y, z'
loop_
 _atom_site_type_symbol
 _atom_site_label
 _atom_site_symmetry_multiplicity
 _atom_site_fract_x
 _atom_site_fract_y
 _atom_site_fract_z
 _atom_site_occupancy
  Ce  Ce0  1  0.667969  0.511399  0.992055  1
  Ta  Ta1  1  0.003292  0.995875  0.000490  1
  Ta  Ta2  1  0.598223  0.204753  0.203445  1
  Ta  Ta3  1  0.196915  0.399027  0.398458  1
  Ta  Ta4  1  0.797592  0.599033  0.602792  1
  Ta  Ta5  1  0.403071  0.796026  0.798802  1
  S  S6  1  0.236923  0.066018  0.290066  1
  S  S7  1  0.051474  0.660889  0.890730  1
  S  S8  1  0.836158  0.264767  0.488126  1
  S  S9  1  0.637166  0.875374  0.099385  1
  S  S10  1  0.425021  0.450195  0.678894  1
  S  S11  1  0.897494  0.542283  0.315278  1
  S  S12  1  0.697905  0.131882  0.909765  1
  S  S13  1  0.496393  0.733889  0.512017  1
  S  S14  1  0.289792  0.334955  0.108201  1
  S  S15  1  0.097413  0.931231  0.713099  1
