# generated using pymatgen
data_La8Pr2Ru3Rh
_symmetry_space_group_name_H-M   'P 1'
_cell_length_a   9.17217885
_cell_length_b   9.20357153
_cell_length_c   7.35719919
_cell_angle_alpha   85.48438902
_cell_angle_beta   85.48818287
_cell_angle_gamma   42.68962097
_symmetry_Int_Tables_number   1
_chemical_formula_structural   La8Pr2Ru3Rh
_chemical_formula_sum   'La8 Pr2 Ru3 Rh1'
_cell_volume   419.59693229
_cell_formula_units_Z   1
loop_
 _symmetry_equiv_pos_site_id
 _symmetry_equiv_pos_as_xyz
  1  'x, y, z'
loop_
 _atom_site_type_symbol
 _atom_site_label
 _atom_site_symmetry_multiplicity
 _atom_site_fract_x
 _atom_site_fract_y
 _atom_site_fract_z
 _atom_site_occupancy
  La  La0  1  0.010787  0.806696  0.912782  1
  La  La1  1  0.197521  0.988009  0.593126  1
  La  La2  1  0.986700  0.197928  0.092636  1
  La  La3  1  0.797417  0.020102  0.405817  1
  La  La4  1  0.363631  0.207848  0.818514  1
  La  La5  1  0.784634  0.639344  0.683259  1
  La  La6  1  0.642354  0.786091  0.184079  1
  La  La7  1  0.211557  0.357643  0.314988  1
  Pr  Pr8  1  0.572811  0.427396  0.749740  1
  Pr  Pr9  1  0.426716  0.575472  0.247788  1
  Ru  Ru10  1  0.396464  0.830409  0.916704  1
  Ru  Ru11  1  0.830845  0.395945  0.420518  1
  Ru  Ru12  1  0.603456  0.168774  0.081114  1
  Rh  Rh13  1  0.175107  0.598342  0.578938  1
