# generated using pymatgen
data_Nd6Ho10Cd4RuPt3
_symmetry_space_group_name_H-M   'P 1'
_cell_length_a   9.75963270
_cell_length_b   9.75963316
_cell_length_c   9.75963364
_cell_angle_alpha   59.86901737
_cell_angle_beta   59.86902449
_cell_angle_gamma   59.86902467
_symmetry_Int_Tables_number   1
_chemical_formula_structural   Nd6Ho10Cd4RuPt3
_chemical_formula_sum   'Nd6 Ho10 Cd4 Ru1 Pt3'
_cell_volume   655.37945953
_cell_formula_units_Z   1
loop_
 _symmetry_equiv_pos_site_id
 _symmetry_equiv_pos_as_xyz
  1  'x, y, z'
loop_
 _atom_site_type_symbol
 _atom_site_label
 _atom_site_symmetry_multiplicity
 _atom_site_fract_x
 _atom_site_fract_y
 _atom_site_fract_z
 _atom_site_occupancy
  Nd  Nd0  1  0.938159  0.562179  0.562179  1
  Nd  Nd1  1  0.557945  0.939267  0.939267  1
  Nd  Nd2  1  0.562179  0.938159  0.562179  1
  Nd  Nd3  1  0.939267  0.557945  0.939267  1
  Nd  Nd4  1  0.562179  0.562179  0.938159  1
  Nd  Nd5  1  0.939267  0.939267  0.557945  1
  Ho  Ho6  1  0.350887  0.350887  0.350887  1
  Ho  Ho7  1  0.347376  0.347376  0.953721  1
  Ho  Ho8  1  0.347376  0.953721  0.347376  1
  Ho  Ho9  1  0.953721  0.347376  0.347376  1
  Ho  Ho10  1  0.816988  0.186704  0.186704  1
  Ho  Ho11  1  0.185511  0.811846  0.811846  1
  Ho  Ho12  1  0.186704  0.816988  0.186704  1
  Ho  Ho13  1  0.811846  0.185511  0.811846  1
  Ho  Ho14  1  0.186704  0.186704  0.816988  1
  Ho  Ho15  1  0.811846  0.811846  0.185511  1
  Cd  Cd16  1  0.579195  0.579195  0.579195  1
  Cd  Cd17  1  0.579664  0.579664  0.259931  1
  Cd  Cd18  1  0.579664  0.259931  0.579664  1
  Cd  Cd19  1  0.259931  0.579664  0.579664  1
  Ru  Ru20  1  0.142732  0.142732  0.142732  1
  Pt  Pt21  1  0.143789  0.143789  0.573279  1
  Pt  Pt22  1  0.143789  0.573279  0.143789  1
  Pt  Pt23  1  0.573279  0.143789  0.143789  1
