# generated using pymatgen
data_DyY(TiIr)2
_symmetry_space_group_name_H-M   'P 1'
_cell_length_a   4.34495400
_cell_length_b   6.94397600
_cell_length_c   8.15315300
_cell_angle_alpha   90.00000000
_cell_angle_beta   90.00000000
_cell_angle_gamma   90.00000000
_symmetry_Int_Tables_number   1
_chemical_formula_structural   DyY(TiIr)2
_chemical_formula_sum   'Dy2 Y2 Ti4 Ir4'
_cell_volume   245.99086879
_cell_formula_units_Z   2
loop_
 _symmetry_equiv_pos_site_id
 _symmetry_equiv_pos_as_xyz
  1  'x, y, z'
loop_
 _atom_site_type_symbol
 _atom_site_label
 _atom_site_symmetry_multiplicity
 _atom_site_fract_x
 _atom_site_fract_y
 _atom_site_fract_z
 _atom_site_occupancy
  Dy  Dy0  1  0.250000  0.984882  0.317939  1
  Dy  Dy1  1  0.250000  0.484882  0.182061  1
  Y  Y2  1  0.750000  0.015048  0.682803  1
  Y  Y3  1  0.750000  0.515048  0.817197  1
  Ti  Ti4  1  0.250000  0.361392  0.567337  1
  Ti  Ti5  1  0.250000  0.861392  0.932663  1
  Ti  Ti6  1  0.750000  0.638554  0.431573  1
  Ti  Ti7  1  0.750000  0.138554  0.068427  1
  Ir  Ir8  1  0.250000  0.220818  0.909210  1
  Ir  Ir9  1  0.250000  0.720818  0.590790  1
  Ir  Ir10  1  0.750000  0.779304  0.092878  1
  Ir  Ir11  1  0.750000  0.279304  0.407122  1
