# generated using pymatgen
data_Li4CaDy(ThSi3)2
_symmetry_space_group_name_H-M   'P 1'
_cell_length_a   9.39057928
_cell_length_b   9.39057889
_cell_length_c   6.81472400
_cell_angle_alpha   90.00000000
_cell_angle_beta   90.00000000
_cell_angle_gamma   153.08636224
_symmetry_Int_Tables_number   1
_chemical_formula_structural   Li4CaDy(ThSi3)2
_chemical_formula_sum   'Li4 Ca1 Dy1 Th2 Si6'
_cell_volume   272.01486233
_cell_formula_units_Z   1
loop_
 _symmetry_equiv_pos_site_id
 _symmetry_equiv_pos_as_xyz
  1  'x, y, z'
loop_
 _atom_site_type_symbol
 _atom_site_label
 _atom_site_symmetry_multiplicity
 _atom_site_fract_x
 _atom_site_fract_y
 _atom_site_fract_z
 _atom_site_occupancy
  Li  Li0  1  0.190335  0.809665  0.059839  1
  Li  Li1  1  0.190335  0.809665  0.440161  1
  Li  Li2  1  0.809347  0.190653  0.942397  1
  Li  Li3  1  0.809347  0.190653  0.557603  1
  Ca  Ca4  1  0.343111  0.656889  0.250000  1
  Dy  Dy5  1  0.656053  0.343947  0.750000  1
  Th  Th6  1  0.552735  0.447265  0.250000  1
  Th  Th7  1  0.447007  0.552993  0.750000  1
  Si  Si8  1  0.716923  0.283077  0.250000  1
  Si  Si9  1  0.277314  0.722686  0.750000  1
  Si  Si10  1  0.060894  0.939106  0.926232  1
  Si  Si11  1  0.942855  0.057145  0.071242  1
  Si  Si12  1  0.942855  0.057145  0.428758  1
  Si  Si13  1  0.060894  0.939106  0.573768  1
