# generated using pymatgen
data_Zr10Tl5Zn2Sn
_symmetry_space_group_name_H-M   'P 1'
_cell_length_a   8.85711500
_cell_length_b   8.82532164
_cell_length_c   5.92566500
_cell_angle_alpha   90.00000000
_cell_angle_beta   90.00000000
_cell_angle_gamma   119.88132687
_symmetry_Int_Tables_number   1
_chemical_formula_structural   Zr10Tl5Zn2Sn
_chemical_formula_sum   'Zr10 Tl5 Zn2 Sn1'
_cell_volume   401.61382453
_cell_formula_units_Z   1
loop_
 _symmetry_equiv_pos_site_id
 _symmetry_equiv_pos_as_xyz
  1  'x, y, z'
loop_
 _atom_site_type_symbol
 _atom_site_label
 _atom_site_symmetry_multiplicity
 _atom_site_fract_x
 _atom_site_fract_y
 _atom_site_fract_z
 _atom_site_occupancy
  Zr  Zr0  1  0.670339  0.334548  0.001185  1
  Zr  Zr1  1  0.329661  0.664209  0.001185  1
  Zr  Zr2  1  0.329661  0.664209  0.498815  1
  Zr  Zr3  1  0.670339  0.334548  0.498815  1
  Zr  Zr4  1  0.733431  0.733449  0.750000  1
  Zr  Zr5  1  0.266569  0.000019  0.750000  1
  Zr  Zr6  1  0.000000  0.266088  0.750000  1
  Zr  Zr7  1  0.263314  0.268408  0.250000  1
  Zr  Zr8  1  0.736686  0.005094  0.250000  1
  Zr  Zr9  1  0.000000  0.730221  0.250000  1
  Tl  Tl10  1  0.383761  0.382158  0.750000  1
  Tl  Tl11  1  0.616239  0.998396  0.750000  1
  Tl  Tl12  1  0.000000  0.617890  0.750000  1
  Tl  Tl13  1  0.617668  0.619512  0.250000  1
  Tl  Tl14  1  0.382332  0.001844  0.250000  1
  Zn  Zn15  1  0.000000  0.997981  0.000379  1
  Zn  Zn16  1  0.000000  0.997981  0.499621  1
  Sn  Sn17  1  0.000000  0.383447  0.250000  1
