# generated using pymatgen
data_Nb5Ga2SiB
_symmetry_space_group_name_H-M   'P 1'
_cell_length_a   7.77932831
_cell_length_b   7.77932776
_cell_length_c   5.34033500
_cell_angle_alpha   90.00000000
_cell_angle_beta   90.00000000
_cell_angle_gamma   119.96767729
_symmetry_Int_Tables_number   1
_chemical_formula_structural   Nb5Ga2SiB
_chemical_formula_sum   'Nb10 Ga4 Si2 B2'
_cell_volume   279.97848715
_cell_formula_units_Z   2
loop_
 _symmetry_equiv_pos_site_id
 _symmetry_equiv_pos_as_xyz
  1  'x, y, z'
loop_
 _atom_site_type_symbol
 _atom_site_label
 _atom_site_symmetry_multiplicity
 _atom_site_fract_x
 _atom_site_fract_y
 _atom_site_fract_z
 _atom_site_occupancy
  Nb  Nb0  1  0.667222  0.330223  0.500847  1
  Nb  Nb1  1  0.330223  0.667222  0.500847  1
  Nb  Nb2  1  0.330223  0.667222  0.999153  1
  Nb  Nb3  1  0.667222  0.330223  0.999153  1
  Nb  Nb4  1  0.756825  0.756825  0.250000  1
  Nb  Nb5  1  0.245208  0.999529  0.250000  1
  Nb  Nb6  1  0.999529  0.245208  0.250000  1
  Nb  Nb7  1  0.241654  0.241654  0.750000  1
  Nb  Nb8  1  0.757494  0.004856  0.750000  1
  Nb  Nb9  1  0.004856  0.757494  0.750000  1
  Ga  Ga10  1  0.401373  0.401373  0.250000  1
  Ga  Ga11  1  0.599196  0.997665  0.250000  1
  Ga  Ga12  1  0.997665  0.599196  0.250000  1
  Ga  Ga13  1  0.600820  0.600820  0.750000  1
  Si  Si14  1  0.402118  0.000537  0.750000  1
  Si  Si15  1  0.000537  0.402118  0.750000  1
  B  B16  1  0.998916  0.998916  0.499673  1
  B  B17  1  0.998916  0.998916  0.000327  1
