# generated using pymatgen
data_Tm2Ga9TcRu4
_symmetry_space_group_name_H-M   'P 1'
_cell_length_a   7.99967191
_cell_length_b   7.99967177
_cell_length_c   7.99967251
_cell_angle_alpha   134.46397849
_cell_angle_beta   134.46397611
_cell_angle_gamma   66.36420736
_symmetry_Int_Tables_number   1
_chemical_formula_structural   Tm2Ga9TcRu4
_chemical_formula_sum   'Tm2 Ga9 Tc1 Ru4'
_cell_volume   256.68013172
_cell_formula_units_Z   1
loop_
 _symmetry_equiv_pos_site_id
 _symmetry_equiv_pos_as_xyz
  1  'x, y, z'
loop_
 _atom_site_type_symbol
 _atom_site_label
 _atom_site_symmetry_multiplicity
 _atom_site_fract_x
 _atom_site_fract_y
 _atom_site_fract_z
 _atom_site_occupancy
  Tm  Tm0  1  0.000195  0.500195  0.500000  1
  Tm  Tm1  1  0.500195  0.000195  0.500000  1
  Ga  Ga2  1  0.436114  0.857607  0.000000  1
  Ga  Ga3  1  0.142238  0.142238  0.579759  1
  Ga  Ga4  1  0.857607  0.436114  0.000000  1
  Ga  Ga5  1  0.857607  0.857607  0.421492  1
  Ga  Ga6  1  0.562477  0.142238  0.000000  1
  Ga  Ga7  1  0.142238  0.562477  0.000000  1
  Ga  Ga8  1  0.562477  0.562477  0.420241  1
  Ga  Ga9  1  0.000030  0.000030  0.000000  1
  Ga  Ga10  1  0.436114  0.436114  0.578508  1
  Tc  Tc11  1  0.182700  0.182700  0.000000  1
  Ru  Ru12  1  0.818222  0.818222  0.000000  1
  Ru  Ru13  1  0.250615  0.750615  0.500000  1
  Ru  Ru14  1  0.750615  0.250615  0.500000  1
  Ru  Ru15  1  0.500558  0.500558  0.000000  1
