# generated using pymatgen
data_SbCl30
_symmetry_space_group_name_H-M   'P 1'
_cell_length_a   13.78272500
_cell_length_b   13.78272548
_cell_length_c   16.16789101
_cell_angle_alpha   83.78497705
_cell_angle_beta   83.78497921
_cell_angle_gamma   124.94737546
_symmetry_Int_Tables_number   1
_chemical_formula_structural   SbCl30
_chemical_formula_sum   'Sb1 Cl30'
_cell_volume   2447.44080315
_cell_formula_units_Z   1
loop_
 _symmetry_equiv_pos_site_id
 _symmetry_equiv_pos_as_xyz
  1  'x, y, z'
loop_
 _atom_site_type_symbol
 _atom_site_label
 _atom_site_symmetry_multiplicity
 _atom_site_fract_x
 _atom_site_fract_y
 _atom_site_fract_z
 _atom_site_occupancy
  Sb  Sb0  1  0.000000  0.000000  0.000000  1
  Cl  Cl1  1  0.943921  0.943921  0.157481  1
  Cl  Cl2  1  0.056079  0.056079  0.842519  1
  Cl  Cl3  1  0.062001  0.199753  0.005564  1
  Cl  Cl4  1  0.937999  0.800247  0.994436  1
  Cl  Cl5  1  0.199753  0.062001  0.005564  1
  Cl  Cl6  1  0.800247  0.937999  0.994436  1
  Cl  Cl7  1  0.203730  0.743428  0.063206  1
  Cl  Cl8  1  0.796270  0.256572  0.936794  1
  Cl  Cl9  1  0.701148  0.077193  0.262540  1
  Cl  Cl10  1  0.256572  0.796270  0.936794  1
  Cl  Cl11  1  0.298852  0.922807  0.737460  1
  Cl  Cl12  1  0.743428  0.203730  0.063206  1
  Cl  Cl13  1  0.977577  0.198672  0.780919  1
  Cl  Cl14  1  0.922807  0.298852  0.737460  1
  Cl  Cl15  1  0.022423  0.801328  0.219081  1
  Cl  Cl16  1  0.077193  0.701148  0.262540  1
  Cl  Cl17  1  0.801328  0.022423  0.219081  1
  Cl  Cl18  1  0.198672  0.977577  0.780919  1
  Cl  Cl19  1  0.465125  0.546462  0.259242  1
  Cl  Cl20  1  0.534875  0.453538  0.740758  1
  Cl  Cl21  1  0.507543  0.206383  0.451362  1
  Cl  Cl22  1  0.453538  0.534875  0.740758  1
  Cl  Cl23  1  0.492457  0.793617  0.548638  1
  Cl  Cl24  1  0.546462  0.465125  0.259242  1
  Cl  Cl25  1  0.239767  0.429533  0.543645  1
  Cl  Cl26  1  0.793617  0.492457  0.548638  1
  Cl  Cl27  1  0.760233  0.570467  0.456355  1
  Cl  Cl28  1  0.206383  0.507543  0.451362  1
  Cl  Cl29  1  0.570467  0.760233  0.456355  1
  Cl  Cl30  1  0.429533  0.239767  0.543645  1
