# generated using pymatgen
data_Dy3Zn3Ag2Ir
_symmetry_space_group_name_H-M   'P 1'
_cell_length_a   7.60297100
_cell_length_b   7.60297159
_cell_length_c   3.72730100
_cell_angle_alpha   90.00000000
_cell_angle_beta   90.00000000
_cell_angle_gamma   119.99999308
_symmetry_Int_Tables_number   1
_chemical_formula_structural   Dy3Zn3Ag2Ir
_chemical_formula_sum   'Dy3 Zn3 Ag2 Ir1'
_cell_volume   186.59148858
_cell_formula_units_Z   1
loop_
 _symmetry_equiv_pos_site_id
 _symmetry_equiv_pos_as_xyz
  1  'x, y, z'
loop_
 _atom_site_type_symbol
 _atom_site_label
 _atom_site_symmetry_multiplicity
 _atom_site_fract_x
 _atom_site_fract_y
 _atom_site_fract_z
 _atom_site_occupancy
  Dy  Dy0  1  0.583848  0.609151  0.000000  1
  Dy  Dy1  1  0.390849  0.974697  0.000000  1
  Dy  Dy2  1  0.025303  0.416152  0.000000  1
  Zn  Zn3  1  0.000507  0.730813  0.500000  1
  Zn  Zn4  1  0.269187  0.269695  0.500000  1
  Zn  Zn5  1  0.730305  0.999493  0.500000  1
  Ag  Ag6  1  0.000000  0.000000  0.000000  1
  Ag  Ag7  1  0.666667  0.333333  0.500000  1
  Ir  Ir8  1  0.333333  0.666667  0.500000  1
