# generated using pymatgen
data_Nd3MgCd2Sn2Pd
_symmetry_space_group_name_H-M   'P 1'
_cell_length_a   7.57386624
_cell_length_b   7.57386720
_cell_length_c   4.68325300
_cell_angle_alpha   90.00000000
_cell_angle_beta   90.00000000
_cell_angle_gamma   120.53402810
_symmetry_Int_Tables_number   1
_chemical_formula_structural   Nd3MgCd2Sn2Pd
_chemical_formula_sum   'Nd3 Mg1 Cd2 Sn2 Pd1'
_cell_volume   231.39357217
_cell_formula_units_Z   1
loop_
 _symmetry_equiv_pos_site_id
 _symmetry_equiv_pos_as_xyz
  1  'x, y, z'
loop_
 _atom_site_type_symbol
 _atom_site_label
 _atom_site_symmetry_multiplicity
 _atom_site_fract_x
 _atom_site_fract_y
 _atom_site_fract_z
 _atom_site_occupancy
  Nd  Nd0  1  0.598486  0.001595  0.000000  1
  Nd  Nd1  1  0.001595  0.598486  0.000000  1
  Nd  Nd2  1  0.396510  0.396510  0.000000  1
  Mg  Mg3  1  0.776776  0.776776  0.500000  1
  Cd  Cd4  1  0.232860  0.998518  0.500000  1
  Cd  Cd5  1  0.998518  0.232860  0.500000  1
  Sn  Sn6  1  0.338471  0.667357  0.500000  1
  Sn  Sn7  1  0.667357  0.338471  0.500000  1
  Pd  Pd8  1  0.989427  0.989427  0.000000  1
