# generated using pymatgen
data_Be2Nb6GaAs
_symmetry_space_group_name_H-M   'P 1'
_cell_length_a   6.70418743
_cell_length_b   6.74504857
_cell_length_c   3.45583000
_cell_angle_alpha   90.00000000
_cell_angle_beta   90.00000000
_cell_angle_gamma   89.71022427
_symmetry_Int_Tables_number   1
_chemical_formula_structural   Be2Nb6GaAs
_chemical_formula_sum   'Be2 Nb6 Ga1 As1'
_cell_volume   156.27087536
_cell_formula_units_Z   1
loop_
 _symmetry_equiv_pos_site_id
 _symmetry_equiv_pos_as_xyz
  1  'x, y, z'
loop_
 _atom_site_type_symbol
 _atom_site_label
 _atom_site_symmetry_multiplicity
 _atom_site_fract_x
 _atom_site_fract_y
 _atom_site_fract_z
 _atom_site_occupancy
  Be  Be0  1  0.619991  0.876253  0.000000  1
  Be  Be1  1  0.121284  0.625417  0.000000  1
  Nb  Nb2  1  0.995727  0.989676  0.000000  1
  Nb  Nb3  1  0.494930  0.509438  0.000000  1
  Nb  Nb4  1  0.685222  0.165636  0.500000  1
  Nb  Nb5  1  0.178824  0.337488  0.500000  1
  Nb  Nb6  1  0.821133  0.687254  0.500000  1
  Nb  Nb7  1  0.319719  0.808947  0.500000  1
  Ga  Ga8  1  0.381474  0.114140  0.000000  1
  As  As9  1  0.881696  0.385751  0.000000  1
