# generated using pymatgen
data_LiPr2Dy4Co17P12
_symmetry_space_group_name_H-M   'P 1'
_cell_length_a   3.72526600
_cell_length_b   10.57592100
_cell_length_c   12.21612900
_cell_angle_alpha   90.00000000
_cell_angle_beta   90.00000000
_cell_angle_gamma   90.00000000
_symmetry_Int_Tables_number   1
_chemical_formula_structural   LiPr2Dy4Co17P12
_chemical_formula_sum   'Li1 Pr2 Dy4 Co17 P12'
_cell_volume   481.29250308
_cell_formula_units_Z   1
loop_
 _symmetry_equiv_pos_site_id
 _symmetry_equiv_pos_as_xyz
  1  'x, y, z'
loop_
 _atom_site_type_symbol
 _atom_site_label
 _atom_site_symmetry_multiplicity
 _atom_site_fract_x
 _atom_site_fract_y
 _atom_site_fract_z
 _atom_site_occupancy
  Li  Li0  1  0.500000  0.500000  0.148345  1
  Pr  Pr1  1  0.000000  0.500000  0.523045  1
  Pr  Pr2  1  0.500000  0.000000  0.477962  1
  Dy  Dy3  1  0.500000  0.819346  0.205243  1
  Dy  Dy4  1  0.500000  0.180654  0.205243  1
  Dy  Dy5  1  0.000000  0.682291  0.795520  1
  Dy  Dy6  1  0.000000  0.317709  0.795520  1
  Co  Co7  1  0.000000  0.000000  0.843361  1
  Co  Co8  1  0.500000  0.500000  0.707849  1
  Co  Co9  1  0.000000  0.000000  0.293078  1
  Co  Co10  1  0.000000  0.500000  0.986322  1
  Co  Co11  1  0.500000  0.000000  0.011693  1
  Co  Co12  1  0.500000  0.330776  0.995226  1
  Co  Co13  1  0.500000  0.669224  0.995226  1
  Co  Co14  1  0.000000  0.164975  0.002994  1
  Co  Co15  1  0.000000  0.835025  0.002994  1
  Co  Co16  1  0.500000  0.295776  0.430290  1
  Co  Co17  1  0.500000  0.704224  0.430290  1
  Co  Co18  1  0.000000  0.202808  0.572350  1
  Co  Co19  1  0.000000  0.797192  0.572350  1
  Co  Co20  1  0.500000  0.880296  0.712725  1
  Co  Co21  1  0.500000  0.119704  0.712725  1
  Co  Co22  1  0.000000  0.621855  0.289387  1
  Co  Co23  1  0.000000  0.378145  0.289387  1
  P  P24  1  0.500000  0.500000  0.885924  1
  P  P25  1  0.000000  0.000000  0.115323  1
  P  P26  1  0.500000  0.500000  0.339678  1
  P  P27  1  0.000000  0.000000  0.661015  1
  P  P28  1  0.500000  0.306206  0.618505  1
  P  P29  1  0.500000  0.693794  0.618505  1
  P  P30  1  0.000000  0.193478  0.383417  1
  P  P31  1  0.000000  0.806522  0.383417  1
  P  P32  1  0.500000  0.846860  0.893091  1
  P  P33  1  0.500000  0.153140  0.893091  1
  P  P34  1  0.000000  0.657681  0.104455  1
  P  P35  1  0.000000  0.342319  0.104455  1
