# generated using pymatgen
data_Yb4Ag2SnSb
_symmetry_space_group_name_H-M   'P 1'
_cell_length_a   5.28464400
_cell_length_b   5.27747600
_cell_length_c   7.40157000
_cell_angle_alpha   90.00000000
_cell_angle_beta   90.00000000
_cell_angle_gamma   90.00000000
_symmetry_Int_Tables_number   1
_chemical_formula_structural   Yb4Ag2SnSb
_chemical_formula_sum   'Yb4 Ag2 Sn1 Sb1'
_cell_volume   206.42669254
_cell_formula_units_Z   1
loop_
 _symmetry_equiv_pos_site_id
 _symmetry_equiv_pos_as_xyz
  1  'x, y, z'
loop_
 _atom_site_type_symbol
 _atom_site_label
 _atom_site_symmetry_multiplicity
 _atom_site_fract_x
 _atom_site_fract_y
 _atom_site_fract_z
 _atom_site_occupancy
  Yb  Yb0  1  0.500000  0.248918  0.750555  1
  Yb  Yb1  1  0.500000  0.248918  0.249445  1
  Yb  Yb2  1  0.000000  0.751598  0.750165  1
  Yb  Yb3  1  0.000000  0.751598  0.249835  1
  Ag  Ag4  1  0.000000  0.253021  0.500000  1
  Ag  Ag5  1  0.500000  0.745517  0.000000  1
  Sn  Sn6  1  0.000000  0.251835  0.000000  1
  Sb  Sb7  1  0.500000  0.748597  0.500000  1
