# generated using pymatgen
data_Tb20Co3Bi8Os
_symmetry_space_group_name_H-M   'P 1'
_cell_length_a   8.05137593
_cell_length_b   8.93487200
_cell_length_c   12.48774788
_cell_angle_alpha   90.00000000
_cell_angle_beta   90.30107894
_cell_angle_gamma   90.00000000
_symmetry_Int_Tables_number   1
_chemical_formula_structural   Tb20Co3Bi8Os
_chemical_formula_sum   'Tb20 Co3 Bi8 Os1'
_cell_volume   898.33137132
_cell_formula_units_Z   1
loop_
 _symmetry_equiv_pos_site_id
 _symmetry_equiv_pos_as_xyz
  1  'x, y, z'
loop_
 _atom_site_type_symbol
 _atom_site_label
 _atom_site_symmetry_multiplicity
 _atom_site_fract_x
 _atom_site_fract_y
 _atom_site_fract_z
 _atom_site_occupancy
  Tb  Tb0  1  0.847178  0.750000  0.800443  1
  Tb  Tb1  1  0.151784  0.250000  0.197810  1
  Tb  Tb2  1  0.348759  0.250000  0.698497  1
  Tb  Tb3  1  0.653818  0.750000  0.294571  1
  Tb  Tb4  1  0.378153  0.750000  0.695240  1
  Tb  Tb5  1  0.618812  0.250000  0.309628  1
  Tb  Tb6  1  0.880908  0.250000  0.810783  1
  Tb  Tb7  1  0.118474  0.750000  0.187650  1
  Tb  Tb8  1  0.945185  0.750000  0.504220  1
  Tb  Tb9  1  0.049092  0.250000  0.496510  1
  Tb  Tb10  1  0.453460  0.250000  0.997227  1
  Tb  Tb11  1  0.545980  0.750000  0.002480  1
  Tb  Tb12  1  0.677672  0.041123  0.564805  1
  Tb  Tb13  1  0.323749  0.964802  0.436761  1
  Tb  Tb14  1  0.176578  0.966704  0.936976  1
  Tb  Tb15  1  0.323749  0.535198  0.436761  1
  Tb  Tb16  1  0.822674  0.035178  0.062816  1
  Tb  Tb17  1  0.677672  0.458877  0.564805  1
  Tb  Tb18  1  0.822674  0.464822  0.062816  1
  Tb  Tb19  1  0.176578  0.533296  0.936976  1
  Co  Co20  1  0.434735  0.250000  0.490548  1
  Co  Co21  1  0.059014  0.250000  0.991932  1
  Co  Co22  1  0.939294  0.750000  0.007282  1
  Bi  Bi23  1  0.572599  0.491474  0.827392  1
  Bi  Bi24  1  0.426987  0.507317  0.173253  1
  Bi  Bi25  1  0.072112  0.507239  0.674762  1
  Bi  Bi26  1  0.426987  0.992683  0.173253  1
  Bi  Bi27  1  0.929964  0.492097  0.325467  1
  Bi  Bi28  1  0.572599  0.008526  0.827392  1
  Bi  Bi29  1  0.929964  0.007903  0.325467  1
  Bi  Bi30  1  0.072112  0.992761  0.674762  1
  Os  Os31  1  0.570685  0.750000  0.510712  1
