# generated using pymatgen
data_Zr3Ti7BeSiSn6
_symmetry_space_group_name_H-M   'P 1'
_cell_length_a   8.36679200
_cell_length_b   8.36679164
_cell_length_c   5.60494400
_cell_angle_alpha   90.00000000
_cell_angle_beta   90.00000000
_cell_angle_gamma   120.00000144
_symmetry_Int_Tables_number   1
_chemical_formula_structural   Zr3Ti7BeSiSn6
_chemical_formula_sum   'Zr3 Ti7 Be1 Si1 Sn6'
_cell_volume   339.79722616
_cell_formula_units_Z   1
loop_
 _symmetry_equiv_pos_site_id
 _symmetry_equiv_pos_as_xyz
  1  'x, y, z'
loop_
 _atom_site_type_symbol
 _atom_site_label
 _atom_site_symmetry_multiplicity
 _atom_site_fract_x
 _atom_site_fract_y
 _atom_site_fract_z
 _atom_site_occupancy
  Zr  Zr0  1  0.243880  0.243880  0.243332  1
  Zr  Zr1  1  0.756120  0.000000  0.243332  1
  Zr  Zr2  1  0.000000  0.756120  0.243332  1
  Ti  Ti3  1  0.666667  0.333333  0.994802  1
  Ti  Ti4  1  0.333333  0.666667  0.994802  1
  Ti  Ti5  1  0.333333  0.666667  0.504669  1
  Ti  Ti6  1  0.666667  0.333333  0.504669  1
  Ti  Ti7  1  0.733443  0.733443  0.758768  1
  Ti  Ti8  1  0.266557  0.000000  0.758768  1
  Ti  Ti9  1  0.000000  0.266557  0.758768  1
  Be  Be10  1  0.000000  0.000000  0.954132  1
  Si  Si11  1  0.000000  0.000000  0.545571  1
  Sn  Sn12  1  0.389142  0.389142  0.747634  1
  Sn  Sn13  1  0.610858  0.000000  0.747634  1
  Sn  Sn14  1  0.000000  0.610858  0.747634  1
  Sn  Sn15  1  0.598933  0.598933  0.250718  1
  Sn  Sn16  1  0.401067  0.000000  0.250718  1
  Sn  Sn17  1  0.000000  0.401067  0.250718  1
