# generated using pymatgen
data_Sr6Zr2TcH27
_symmetry_space_group_name_H-M   'P 1'
_cell_length_a   9.30795200
_cell_length_b   9.30795210
_cell_length_c   5.38946200
_cell_angle_alpha   90.00000000
_cell_angle_beta   90.00000000
_cell_angle_gamma   119.99999966
_symmetry_Int_Tables_number   1
_chemical_formula_structural   Sr6Zr2TcH27
_chemical_formula_sum   'Sr6 Zr2 Tc1 H27'
_cell_volume   404.37502219
_cell_formula_units_Z   1
loop_
 _symmetry_equiv_pos_site_id
 _symmetry_equiv_pos_as_xyz
  1  'x, y, z'
loop_
 _atom_site_type_symbol
 _atom_site_label
 _atom_site_symmetry_multiplicity
 _atom_site_fract_x
 _atom_site_fract_y
 _atom_site_fract_z
 _atom_site_occupancy
  Sr  Sr0  1  0.257732  0.999036  0.500000  1
  Sr  Sr1  1  0.000964  0.258696  0.500000  1
  Sr  Sr2  1  0.741304  0.742268  0.500000  1
  Sr  Sr3  1  0.587424  0.943706  0.000000  1
  Sr  Sr4  1  0.056294  0.643718  0.000000  1
  Sr  Sr5  1  0.356282  0.412576  0.000000  1
  Zr  Zr6  1  0.000000  0.000000  0.000000  1
  Zr  Zr7  1  0.333333  0.666667  0.500000  1
  Tc  Tc8  1  0.666667  0.333333  0.500000  1
  H  H9  1  0.843009  0.999571  0.255826  1
  H  H10  1  0.000429  0.843437  0.255826  1
  H  H11  1  0.843009  0.999571  0.744174  1
  H  H12  1  0.000429  0.843437  0.744174  1
  H  H13  1  0.156563  0.156991  0.255826  1
  H  H14  1  0.156563  0.156991  0.744174  1
  H  H15  1  0.215608  0.996584  0.000000  1
  H  H16  1  0.003416  0.219024  0.000000  1
  H  H17  1  0.780976  0.784392  0.000000  1
  H  H18  1  0.184082  0.509042  0.236993  1
  H  H19  1  0.490958  0.675040  0.236993  1
  H  H20  1  0.184082  0.509042  0.763007  1
  H  H21  1  0.535044  0.212899  0.727563  1
  H  H22  1  0.324960  0.815918  0.236993  1
  H  H23  1  0.490958  0.675040  0.763007  1
  H  H24  1  0.677855  0.464956  0.727563  1
  H  H25  1  0.535044  0.212899  0.272437  1
  H  H26  1  0.324960  0.815918  0.763007  1
  H  H27  1  0.677855  0.464956  0.272437  1
  H  H28  1  0.787101  0.322145  0.727563  1
  H  H29  1  0.787101  0.322145  0.272437  1
  H  H30  1  0.332655  0.452096  0.500000  1
  H  H31  1  0.547904  0.880559  0.500000  1
  H  H32  1  0.497538  0.351557  0.500000  1
  H  H33  1  0.119441  0.667345  0.500000  1
  H  H34  1  0.854018  0.502462  0.500000  1
  H  H35  1  0.648443  0.145982  0.500000  1
