# generated using pymatgen
data_KRb7Cr8P8(O4F)8
_symmetry_space_group_name_H-M   'P 1'
_cell_length_a   6.43128300
_cell_length_b   10.71823100
_cell_length_c   12.95030400
_cell_angle_alpha   90.00000000
_cell_angle_beta   90.00000000
_cell_angle_gamma   90.00000000
_symmetry_Int_Tables_number   1
_chemical_formula_structural   KRb7Cr8P8(O4F)8
_chemical_formula_sum   'K1 Rb7 Cr8 P8 O32 F8'
_cell_volume   892.69005514
_cell_formula_units_Z   1
loop_
 _symmetry_equiv_pos_site_id
 _symmetry_equiv_pos_as_xyz
  1  'x, y, z'
loop_
 _atom_site_type_symbol
 _atom_site_label
 _atom_site_symmetry_multiplicity
 _atom_site_fract_x
 _atom_site_fract_y
 _atom_site_fract_z
 _atom_site_occupancy
  K  K0  1  0.275611  0.447420  0.119021  1
  Rb  Rb1  1  0.189906  0.690381  0.395749  1
  Rb  Rb2  1  0.809886  0.190653  0.603947  1
  Rb  Rb3  1  0.309615  0.689820  0.896128  1
  Rb  Rb4  1  0.689097  0.191130  0.104059  1
  Rb  Rb5  1  0.779255  0.941437  0.384103  1
  Rb  Rb6  1  0.220675  0.441139  0.615713  1
  Rb  Rb7  1  0.720598  0.941395  0.884334  1
  Cr  Cr8  1  0.998431  0.747877  0.114786  1
  Cr  Cr9  1  0.002573  0.248545  0.886346  1
  Cr  Cr10  1  0.501666  0.748230  0.614528  1
  Cr  Cr11  1  0.497782  0.248596  0.384657  1
  Cr  Cr12  1  0.751456  0.499326  0.252618  1
  Cr  Cr13  1  0.247426  0.000360  0.746670  1
  Cr  Cr14  1  0.747941  0.500073  0.753365  1
  Cr  Cr15  1  0.252447  0.000067  0.246464  1
  P  P16  1  0.671691  0.498606  0.499866  1
  P  P17  1  0.328433  0.998895  0.499676  1
  P  P18  1  0.828763  0.497468  0.001155  1
  P  P19  1  0.171783  0.998479  0.999812  1
  P  P20  1  0.502429  0.747764  0.181342  1
  P  P21  1  0.497915  0.248649  0.818804  1
  P  P22  1  0.997531  0.748565  0.681428  1
  P  P23  1  0.003308  0.249125  0.317644  1
  O  O24  1  0.036404  0.879150  0.012556  1
  O  O25  1  0.310047  0.275668  0.889788  1
  O  O26  1  0.809481  0.775535  0.610528  1
  O  O27  1  0.190478  0.275575  0.389321  1
  O  O28  1  0.309536  0.716638  0.113740  1
  O  O29  1  0.691037  0.219172  0.886631  1
  O  O30  1  0.190401  0.718569  0.613623  1
  O  O31  1  0.809279  0.220272  0.384953  1
  O  O32  1  0.518812  0.609618  0.514123  1
  O  O33  1  0.481479  0.109893  0.485287  1
  O  O34  1  0.982134  0.608130  0.016283  1
  O  O35  1  0.018465  0.109248  0.985927  1
  O  O36  1  0.535729  0.379612  0.487052  1
  O  O37  1  0.464077  0.879813  0.512460  1
  O  O38  1  0.968520  0.379503  0.990212  1
  O  O39  1  0.690523  0.775028  0.110490  1
  O  O40  1  0.813265  0.519588  0.405140  1
  O  O41  1  0.186722  0.020360  0.594239  1
  O  O42  1  0.689653  0.518971  0.905620  1
  O  O43  1  0.455265  0.860581  0.253094  1
  O  O44  1  0.803711  0.480475  0.598916  1
  O  O45  1  0.196230  0.980647  0.400742  1
  O  O46  1  0.690240  0.479630  0.098418  1
  O  O47  1  0.303730  0.980501  0.900837  1
  O  O48  1  0.043752  0.135999  0.244758  1
  O  O49  1  0.956637  0.636075  0.755003  1
  O  O50  1  0.456955  0.136077  0.745346  1
  O  O51  1  0.543472  0.635404  0.255076  1
  O  O52  1  0.959493  0.362097  0.245109  1
  O  O53  1  0.044074  0.861238  0.753413  1
  O  O54  1  0.544216  0.361267  0.746611  1
  O  O55  1  0.313824  0.019759  0.094313  1
  F  F56  1  0.030140  0.874452  0.225560  1
  F  F57  1  0.970210  0.374764  0.775000  1
  F  F58  1  0.469607  0.874622  0.725544  1
  F  F59  1  0.525877  0.374803  0.272054  1
  F  F60  1  0.475964  0.120294  0.273738  1
  F  F61  1  0.524178  0.620531  0.726190  1
  F  F62  1  0.024189  0.121001  0.774291  1
  F  F63  1  0.975975  0.619443  0.225798  1
