# generated using pymatgen
data_Ce3ErMg2(AlIr2)2
_symmetry_space_group_name_H-M   'P 1'
_cell_length_a   6.98890936
_cell_length_b   4.18690700
_cell_length_c   8.31472642
_cell_angle_alpha   90.00000000
_cell_angle_beta   89.85701631
_cell_angle_gamma   90.00000000
_symmetry_Int_Tables_number   1
_chemical_formula_structural   Ce3ErMg2(AlIr2)2
_chemical_formula_sum   'Ce3 Er1 Mg2 Al2 Ir4'
_cell_volume   243.30404778
_cell_formula_units_Z   1
loop_
 _symmetry_equiv_pos_site_id
 _symmetry_equiv_pos_as_xyz
  1  'x, y, z'
loop_
 _atom_site_type_symbol
 _atom_site_label
 _atom_site_symmetry_multiplicity
 _atom_site_fract_x
 _atom_site_fract_y
 _atom_site_fract_z
 _atom_site_occupancy
  Ce  Ce0  1  0.464194  0.250000  0.316990  1
  Ce  Ce1  1  0.036450  0.750000  0.818989  1
  Ce  Ce2  1  0.537051  0.750000  0.685722  1
  Er  Er3  1  0.961860  0.250000  0.179452  1
  Mg  Mg4  1  0.132299  0.750000  0.436849  1
  Mg  Mg5  1  0.641746  0.750000  0.062031  1
  Al  Al6  1  0.866994  0.250000  0.555387  1
  Al  Al7  1  0.366441  0.250000  0.943562  1
  Ir  Ir8  1  0.747438  0.250000  0.863236  1
  Ir  Ir9  1  0.246332  0.250000  0.637770  1
  Ir  Ir10  1  0.251646  0.750000  0.111726  1
  Ir  Ir11  1  0.747547  0.750000  0.388287  1
