# generated using pymatgen
data_Sm8TmLu11Si16
_symmetry_space_group_name_H-M   'P 1'
_cell_length_a   7.35470925
_cell_length_b   7.65959523
_cell_length_c   14.52492323
_cell_angle_alpha   89.98729659
_cell_angle_beta   90.01617432
_cell_angle_gamma   90.02517939
_symmetry_Int_Tables_number   1
_chemical_formula_structural   Sm8TmLu11Si16
_chemical_formula_sum   'Sm8 Tm1 Lu11 Si16'
_cell_volume   818.24828683
_cell_formula_units_Z   1
loop_
 _symmetry_equiv_pos_site_id
 _symmetry_equiv_pos_as_xyz
  1  'x, y, z'
loop_
 _atom_site_type_symbol
 _atom_site_label
 _atom_site_symmetry_multiplicity
 _atom_site_fract_x
 _atom_site_fract_y
 _atom_site_fract_z
 _atom_site_occupancy
  Sm  Sm0  1  0.013988  0.175624  0.097783  1
  Sm  Sm1  1  0.986006  0.824327  0.902250  1
  Sm  Sm2  1  0.486016  0.675578  0.902280  1
  Sm  Sm3  1  0.985860  0.824344  0.597739  1
  Sm  Sm4  1  0.513932  0.324377  0.097794  1
  Sm  Sm5  1  0.013953  0.175596  0.402194  1
  Sm  Sm6  1  0.514003  0.324399  0.402142  1
  Sm  Sm7  1  0.486037  0.675630  0.597727  1
  Tm  Tm8  1  0.329050  0.177303  0.623634  1
  Lu  Lu9  1  0.161386  0.508042  0.750107  1
  Lu  Lu10  1  0.838591  0.492224  0.249987  1
  Lu  Lu11  1  0.338586  0.007823  0.250010  1
  Lu  Lu12  1  0.661531  0.992140  0.750059  1
  Lu  Lu13  1  0.670997  0.822781  0.376199  1
  Lu  Lu14  1  0.171048  0.677190  0.376203  1
  Lu  Lu15  1  0.670982  0.822820  0.123772  1
  Lu  Lu16  1  0.828951  0.322884  0.623742  1
  Lu  Lu17  1  0.329011  0.177198  0.876314  1
  Lu  Lu18  1  0.828977  0.322829  0.876298  1
  Lu  Lu19  1  0.170996  0.677157  0.123769  1
  Si  Si20  1  0.033718  0.115137  0.750264  1
  Si  Si21  1  0.965788  0.884780  0.249974  1
  Si  Si22  1  0.465802  0.615211  0.249980  1
  Si  Si23  1  0.534626  0.385156  0.750222  1
  Si  Si24  1  0.282591  0.874610  0.750184  1
  Si  Si25  1  0.717289  0.125065  0.249987  1
  Si  Si26  1  0.217294  0.374919  0.249977  1
  Si  Si27  1  0.782647  0.624984  0.750012  1
  Si  Si28  1  0.155277  0.466851  0.538915  1
  Si  Si29  1  0.844286  0.533656  0.460907  1
  Si  Si30  1  0.344407  0.966031  0.460607  1
  Si  Si31  1  0.844224  0.533605  0.039103  1
  Si  Si32  1  0.656340  0.033356  0.538908  1
  Si  Si33  1  0.155832  0.466388  0.960935  1
  Si  Si34  1  0.655717  0.033632  0.960968  1
  Si  Si35  1  0.344259  0.966354  0.039054  1
