# generated using pymatgen
data_Dy2Er18Si15As
_symmetry_space_group_name_H-M   'P 1'
_cell_length_a   7.43772120
_cell_length_b   7.60265035
_cell_length_c   14.49740353
_cell_angle_alpha   90.11298094
_cell_angle_beta   93.71694440
_cell_angle_gamma   90.04647421
_symmetry_Int_Tables_number   1
_chemical_formula_structural   Dy2Er18Si15As
_chemical_formula_sum   'Dy2 Er18 Si15 As1'
_cell_volume   818.04952780
_cell_formula_units_Z   1
loop_
 _symmetry_equiv_pos_site_id
 _symmetry_equiv_pos_as_xyz
  1  'x, y, z'
loop_
 _atom_site_type_symbol
 _atom_site_label
 _atom_site_symmetry_multiplicity
 _atom_site_fract_x
 _atom_site_fract_y
 _atom_site_fract_z
 _atom_site_occupancy
  Dy  Dy0  1  0.002248  0.816846  0.599446  1
  Dy  Dy1  1  0.498855  0.676941  0.599298  1
  Er  Er2  1  0.322331  0.824183  0.122689  1
  Er  Er3  1  0.822764  0.676329  0.122837  1
  Er  Er4  1  0.833488  0.505664  0.745936  1
  Er  Er5  1  0.471865  0.315082  0.101910  1
  Er  Er6  1  0.028277  0.815289  0.898619  1
  Er  Er7  1  0.498035  0.321265  0.400917  1
  Er  Er8  1  0.665324  0.005722  0.251759  1
  Er  Er9  1  0.528670  0.686072  0.898656  1
  Er  Er10  1  0.676863  0.176639  0.878340  1
  Er  Er11  1  0.148963  0.333868  0.621088  1
  Er  Er12  1  0.177030  0.323589  0.878261  1
  Er  Er13  1  0.851486  0.664273  0.378336  1
  Er  Er14  1  0.349661  0.833487  0.380272  1
  Er  Er15  1  0.334124  0.994622  0.745314  1
  Er  Er16  1  0.647926  0.165993  0.619358  1
  Er  Er17  1  0.166417  0.494039  0.253668  1
  Er  Er18  1  0.972522  0.184966  0.101453  1
  Er  Er19  1  0.004195  0.182149  0.400350  1
  Si  Si20  1  0.218061  0.629632  0.752649  1
  Si  Si21  1  0.294196  0.036731  0.542064  1
  Si  Si22  1  0.038710  0.891604  0.248994  1
  Si  Si23  1  0.717570  0.871013  0.751769  1
  Si  Si24  1  0.284384  0.130559  0.249035  1
  Si  Si25  1  0.800692  0.462726  0.541120  1
  Si  Si26  1  0.460788  0.390622  0.752726  1
  Si  Si27  1  0.197943  0.534815  0.457173  1
  Si  Si28  1  0.144357  0.528347  0.043053  1
  Si  Si29  1  0.959699  0.108850  0.752034  1
  Si  Si30  1  0.783802  0.368296  0.248456  1
  Si  Si31  1  0.354665  0.028727  0.958083  1
  Si  Si32  1  0.855248  0.472616  0.957421  1
  Si  Si33  1  0.644801  0.972138  0.042724  1
  Si  Si34  1  0.538638  0.609668  0.248382  1
  As  As35  1  0.705400  0.966638  0.455812  1
