# generated using pymatgen
data_PrNd2In3CuPt2
_symmetry_space_group_name_H-M   'P 1'
_cell_length_a   7.78326722
_cell_length_b   7.78008690
_cell_length_c   4.02344300
_cell_angle_alpha   90.00000000
_cell_angle_beta   90.00000000
_cell_angle_gamma   119.98650502
_symmetry_Int_Tables_number   1
_chemical_formula_structural   PrNd2In3CuPt2
_chemical_formula_sum   'Pr1 Nd2 In3 Cu1 Pt2'
_cell_volume   211.02500276
_cell_formula_units_Z   1
loop_
 _symmetry_equiv_pos_site_id
 _symmetry_equiv_pos_as_xyz
  1  'x, y, z'
loop_
 _atom_site_type_symbol
 _atom_site_label
 _atom_site_symmetry_multiplicity
 _atom_site_fract_x
 _atom_site_fract_y
 _atom_site_fract_z
 _atom_site_occupancy
  Pr  Pr0  1  0.000000  0.584726  0.500000  1
  Nd  Nd1  1  0.415323  0.415234  0.500000  1
  Nd  Nd2  1  0.584677  0.999910  0.500000  1
  In  In3  1  0.754664  0.755335  0.000000  1
  In  In4  1  0.245336  0.000670  0.000000  1
  In  In5  1  0.000000  0.244342  0.000000  1
  Cu  Cu6  1  0.000000  0.000354  0.500000  1
  Pt  Pt7  1  0.665585  0.332506  0.000000  1
  Pt  Pt8  1  0.334415  0.666922  0.000000  1
