# generated using pymatgen
data_Hf6Al16Cu2Ni2Ir2Ru
_symmetry_space_group_name_H-M   'P 1'
_cell_length_a   8.63375065
_cell_length_b   8.61645475
_cell_length_c   8.57313566
_cell_angle_alpha   60.29947590
_cell_angle_beta   60.09884695
_cell_angle_gamma   59.60167112
_symmetry_Int_Tables_number   1
_chemical_formula_structural   Hf6Al16Cu2Ni2Ir2Ru
_chemical_formula_sum   'Hf6 Al16 Cu2 Ni2 Ir2 Ru1'
_cell_volume   450.93997452
_cell_formula_units_Z   1
loop_
 _symmetry_equiv_pos_site_id
 _symmetry_equiv_pos_as_xyz
  1  'x, y, z'
loop_
 _atom_site_type_symbol
 _atom_site_label
 _atom_site_symmetry_multiplicity
 _atom_site_fract_x
 _atom_site_fract_y
 _atom_site_fract_z
 _atom_site_occupancy
  Hf  Hf0  1  0.687377  0.312623  0.312623  1
  Hf  Hf1  1  0.312623  0.687377  0.687377  1
  Hf  Hf2  1  0.315632  0.684368  0.315632  1
  Hf  Hf3  1  0.684368  0.315632  0.684368  1
  Hf  Hf4  1  0.306881  0.306881  0.693119  1
  Hf  Hf5  1  0.693119  0.693119  0.306881  1
  Al  Al6  1  0.329816  0.334901  0.339709  1
  Al  Al7  1  0.670184  0.665099  0.660291  1
  Al  Al8  1  0.334901  0.329816  0.995573  1
  Al  Al9  1  0.339709  0.995573  0.329816  1
  Al  Al10  1  0.665099  0.670184  0.004427  1
  Al  Al11  1  0.660291  0.004427  0.670184  1
  Al  Al12  1  0.995573  0.339709  0.334901  1
  Al  Al13  1  0.004427  0.660291  0.665099  1
  Al  Al14  1  0.121346  0.113532  0.122403  1
  Al  Al15  1  0.878654  0.886468  0.877597  1
  Al  Al16  1  0.113532  0.121346  0.642717  1
  Al  Al17  1  0.122403  0.642717  0.121346  1
  Al  Al18  1  0.886468  0.878654  0.357283  1
  Al  Al19  1  0.877597  0.357283  0.878654  1
  Al  Al20  1  0.642717  0.122403  0.113532  1
  Al  Al21  1  0.357283  0.877597  0.886468  1
  Cu  Cu22  1  0.000000  0.500000  0.000000  1
  Cu  Cu23  1  0.500000  0.000000  0.500000  1
  Ni  Ni24  1  0.500000  0.000000  0.000000  1
  Ni  Ni25  1  0.000000  0.500000  0.500000  1
  Ir  Ir26  1  0.000000  0.000000  0.500000  1
  Ir  Ir27  1  0.500000  0.500000  0.000000  1
  Ru  Ru28  1  0.000000  0.000000  0.000000  1
