# generated using pymatgen
data_Er5Tl2In2PdAu
_symmetry_space_group_name_H-M   'P 1'
_cell_length_a   3.64007600
_cell_length_b   8.15903530
_cell_length_c   18.30366148
_cell_angle_alpha   89.92170714
_cell_angle_beta   90.00000000
_cell_angle_gamma   90.00000000
_symmetry_Int_Tables_number   1
_chemical_formula_structural   Er5Tl2In2PdAu
_chemical_formula_sum   'Er10 Tl4 In4 Pd2 Au2'
_cell_volume   543.60924322
_cell_formula_units_Z   2
loop_
 _symmetry_equiv_pos_site_id
 _symmetry_equiv_pos_as_xyz
  1  'x, y, z'
loop_
 _atom_site_type_symbol
 _atom_site_label
 _atom_site_symmetry_multiplicity
 _atom_site_fract_x
 _atom_site_fract_y
 _atom_site_fract_z
 _atom_site_occupancy
  Er  Er0  1  0.000000  0.500000  0.500000  1
  Er  Er1  1  0.000000  0.000000  0.000000  1
  Er  Er2  1  0.000000  0.751710  0.284646  1
  Er  Er3  1  0.000000  0.248290  0.715354  1
  Er  Er4  1  0.000000  0.762607  0.780608  1
  Er  Er5  1  0.000000  0.237393  0.219392  1
  Er  Er6  1  0.000000  0.620564  0.082817  1
  Er  Er7  1  0.000000  0.379436  0.917183  1
  Er  Er8  1  0.000000  0.884402  0.583964  1
  Er  Er9  1  0.000000  0.115598  0.416036  1
  Tl  Tl10  1  0.500000  0.710073  0.934602  1
  Tl  Tl11  1  0.500000  0.289927  0.065398  1
  Tl  Tl12  1  0.500000  0.791254  0.435206  1
  Tl  Tl13  1  0.500000  0.208746  0.564794  1
  In  In14  1  0.500000  0.583708  0.647260  1
  In  In15  1  0.500000  0.416292  0.352740  1
  In  In16  1  0.500000  0.921448  0.148831  1
  In  In17  1  0.500000  0.078552  0.851169  1
  Pd  Pd18  1  0.500000  0.966953  0.697084  1
  Pd  Pd19  1  0.500000  0.033047  0.302916  1
  Au  Au20  1  0.500000  0.534611  0.199819  1
  Au  Au21  1  0.500000  0.465389  0.800181  1
