# generated using pymatgen
data_La2SmTh(Zn5Sn)2
_symmetry_space_group_name_H-M   'P 1'
_cell_length_a   8.61808952
_cell_length_b   8.61808994
_cell_length_c   9.11118600
_cell_angle_alpha   90.00000000
_cell_angle_beta   90.00000000
_cell_angle_gamma   149.57495596
_symmetry_Int_Tables_number   1
_chemical_formula_structural   La2SmTh(Zn5Sn)2
_chemical_formula_sum   'La2 Sm1 Th1 Zn10 Sn2'
_cell_volume   342.68873404
_cell_formula_units_Z   1
loop_
 _symmetry_equiv_pos_site_id
 _symmetry_equiv_pos_as_xyz
  1  'x, y, z'
loop_
 _atom_site_type_symbol
 _atom_site_label
 _atom_site_symmetry_multiplicity
 _atom_site_fract_x
 _atom_site_fract_y
 _atom_site_fract_z
 _atom_site_occupancy
  La  La0  1  0.999926  0.000074  0.498316  1
  La  La1  1  0.999926  0.000074  0.001684  1
  Sm  Sm2  1  0.206276  0.793724  0.250000  1
  Th  Th3  1  0.793663  0.206337  0.750000  1
  Zn  Zn4  1  0.813751  0.186249  0.390423  1
  Zn  Zn5  1  0.186857  0.813143  0.608037  1
  Zn  Zn6  1  0.813751  0.186249  0.109577  1
  Zn  Zn7  1  0.186857  0.813143  0.891963  1
  Zn  Zn8  1  0.658747  0.341253  0.483109  1
  Zn  Zn9  1  0.340429  0.659571  0.516331  1
  Zn  Zn10  1  0.658747  0.341253  0.016891  1
  Zn  Zn11  1  0.340429  0.659571  0.983669  1
  Zn  Zn12  1  0.395541  0.604459  0.250000  1
  Zn  Zn13  1  0.604013  0.395987  0.750000  1
  Sn  Sn14  1  0.558449  0.441551  0.250000  1
  Sn  Sn15  1  0.442636  0.557364  0.750000  1
