# generated using pymatgen
data_Lu2HgPtPb
_symmetry_space_group_name_H-M   'P 1'
_cell_length_a   8.24715900
_cell_length_b   8.09442500
_cell_length_c   3.57598300
_cell_angle_alpha   90.00000000
_cell_angle_beta   90.00000000
_cell_angle_gamma   90.00000000
_symmetry_Int_Tables_number   1
_chemical_formula_structural   Lu2HgPtPb
_chemical_formula_sum   'Lu4 Hg2 Pt2 Pb2'
_cell_volume   238.71835687
_cell_formula_units_Z   2
loop_
 _symmetry_equiv_pos_site_id
 _symmetry_equiv_pos_as_xyz
  1  'x, y, z'
loop_
 _atom_site_type_symbol
 _atom_site_label
 _atom_site_symmetry_multiplicity
 _atom_site_fract_x
 _atom_site_fract_y
 _atom_site_fract_z
 _atom_site_occupancy
  Lu  Lu0  1  0.691107  0.164700  0.500000  1
  Lu  Lu1  1  0.126423  0.324289  0.500000  1
  Lu  Lu2  1  0.808893  0.664700  0.500000  1
  Lu  Lu3  1  0.373577  0.824289  0.500000  1
  Hg  Hg4  1  0.372173  0.134049  0.000000  1
  Hg  Hg5  1  0.127827  0.634049  0.000000  1
  Pt  Pt6  1  0.629279  0.880534  0.000000  1
  Pt  Pt7  1  0.870721  0.380534  0.000000  1
  Pb  Pb8  1  0.993883  0.996427  0.000000  1
  Pb  Pb9  1  0.506117  0.496427  0.000000  1
