# generated using pymatgen
data_BaNi3Sn2(AsRh2)3
_symmetry_space_group_name_H-M   'P 1'
_cell_length_a   7.40012600
_cell_length_b   7.40012677
_cell_length_c   11.41637000
_cell_angle_alpha   90.00000000
_cell_angle_beta   90.00000000
_cell_angle_gamma   119.99999654
_symmetry_Int_Tables_number   1
_chemical_formula_structural   BaNi3Sn2(AsRh2)3
_chemical_formula_sum   'Ba2 Ni6 Sn4 As6 Rh12'
_cell_volume   541.42331881
_cell_formula_units_Z   2
loop_
 _symmetry_equiv_pos_site_id
 _symmetry_equiv_pos_as_xyz
  1  'x, y, z'
loop_
 _atom_site_type_symbol
 _atom_site_label
 _atom_site_symmetry_multiplicity
 _atom_site_fract_x
 _atom_site_fract_y
 _atom_site_fract_z
 _atom_site_occupancy
  Ba  Ba0  1  0.000000  0.000000  0.000000  1
  Ba  Ba1  1  0.000000  0.000000  0.500000  1
  Ni  Ni2  1  0.201647  0.798353  0.250000  1
  Ni  Ni3  1  0.403295  0.201647  0.750000  1
  Ni  Ni4  1  0.798353  0.596705  0.750000  1
  Ni  Ni5  1  0.201647  0.403295  0.250000  1
  Ni  Ni6  1  0.596705  0.798353  0.250000  1
  Ni  Ni7  1  0.798353  0.201647  0.750000  1
  Sn  Sn8  1  0.333333  0.666667  0.062466  1
  Sn  Sn9  1  0.666667  0.333333  0.562466  1
  Sn  Sn10  1  0.666667  0.333333  0.937534  1
  Sn  Sn11  1  0.333333  0.666667  0.437534  1
  As  As12  1  0.837898  0.162102  0.250000  1
  As  As13  1  0.675795  0.837898  0.750000  1
  As  As14  1  0.162102  0.324205  0.750000  1
  As  As15  1  0.837898  0.675795  0.250000  1
  As  As16  1  0.324205  0.162102  0.250000  1
  As  As17  1  0.162102  0.837898  0.750000  1
  Rh  Rh18  1  0.534961  0.465039  0.125356  1
  Rh  Rh19  1  0.069923  0.534961  0.625356  1
  Rh  Rh20  1  0.465039  0.930077  0.625356  1
  Rh  Rh21  1  0.534961  0.069923  0.125356  1
  Rh  Rh22  1  0.930077  0.465039  0.125356  1
  Rh  Rh23  1  0.069923  0.534961  0.874644  1
  Rh  Rh24  1  0.465039  0.930077  0.874644  1
  Rh  Rh25  1  0.465039  0.534961  0.625356  1
  Rh  Rh26  1  0.465039  0.534961  0.874644  1
  Rh  Rh27  1  0.534961  0.465039  0.374644  1
  Rh  Rh28  1  0.930077  0.465039  0.374644  1
  Rh  Rh29  1  0.534961  0.069923  0.374644  1
