# generated using pymatgen
data_Nd5Lu3(As3Pd4)4
_symmetry_space_group_name_H-M   'P 1'
_cell_length_a   13.60494300
_cell_length_b   13.60494216
_cell_length_c   4.16589000
_cell_angle_alpha   90.00000000
_cell_angle_beta   90.00000000
_cell_angle_gamma   120.00000447
_symmetry_Int_Tables_number   1
_chemical_formula_structural   Nd5Lu3(As3Pd4)4
_chemical_formula_sum   'Nd5 Lu3 As12 Pd16'
_cell_volume   667.77758446
_cell_formula_units_Z   1
loop_
 _symmetry_equiv_pos_site_id
 _symmetry_equiv_pos_as_xyz
  1  'x, y, z'
loop_
 _atom_site_type_symbol
 _atom_site_label
 _atom_site_symmetry_multiplicity
 _atom_site_fract_x
 _atom_site_fract_y
 _atom_site_fract_z
 _atom_site_occupancy
  Nd  Nd0  1  0.188497  0.188497  0.500000  1
  Nd  Nd1  1  0.811503  0.000000  0.500000  1
  Nd  Nd2  1  0.000000  0.811503  0.500000  1
  Nd  Nd3  1  0.333333  0.666667  0.000000  1
  Nd  Nd4  1  0.666667  0.333333  0.000000  1
  Lu  Lu5  1  0.560265  0.560265  0.000000  1
  Lu  Lu6  1  0.439735  0.000000  0.000000  1
  Lu  Lu7  1  0.000000  0.439735  0.000000  1
  As  As8  1  0.824660  0.824660  0.000000  1
  As  As9  1  0.175340  0.000000  0.000000  1
  As  As10  1  0.000000  0.175340  0.000000  1
  As  As11  1  0.169819  0.481059  0.500000  1
  As  As12  1  0.518941  0.688760  0.500000  1
  As  As13  1  0.311240  0.830181  0.500000  1
  As  As14  1  0.688760  0.518941  0.500000  1
  As  As15  1  0.830181  0.311240  0.500000  1
  As  As16  1  0.481059  0.169819  0.500000  1
  As  As17  1  0.355440  0.355440  0.000000  1
  As  As18  1  0.644560  0.000000  0.000000  1
  As  As19  1  0.000000  0.644560  0.000000  1
  Pd  Pd20  1  0.723157  0.723157  0.500000  1
  Pd  Pd21  1  0.276843  0.000000  0.500000  1
  Pd  Pd22  1  0.000000  0.276843  0.500000  1
  Pd  Pd23  1  0.184430  0.378305  0.000000  1
  Pd  Pd24  1  0.621695  0.806125  0.000000  1
  Pd  Pd25  1  0.193875  0.815570  0.000000  1
  Pd  Pd26  1  0.806125  0.621695  0.000000  1
  Pd  Pd27  1  0.815570  0.193875  0.000000  1
  Pd  Pd28  1  0.378305  0.184430  0.000000  1
  Pd  Pd29  1  0.359899  0.484239  0.500000  1
  Pd  Pd30  1  0.515761  0.875659  0.500000  1
  Pd  Pd31  1  0.124341  0.640101  0.500000  1
  Pd  Pd32  1  0.875659  0.515761  0.500000  1
  Pd  Pd33  1  0.640101  0.124341  0.500000  1
  Pd  Pd34  1  0.484239  0.359899  0.500000  1
  Pd  Pd35  1  0.000000  0.000000  0.000000  1
