# generated using pymatgen
data_Pr4Co16SiP11Ru4
_symmetry_space_group_name_H-M   'P 1'
_cell_length_a   3.73231700
_cell_length_b   10.55751851
_cell_length_c   11.90564023
_cell_angle_alpha   90.18329510
_cell_angle_beta   90.00000000
_cell_angle_gamma   90.00000000
_symmetry_Int_Tables_number   1
_chemical_formula_structural   Pr4Co16SiP11Ru4
_chemical_formula_sum   'Pr4 Co16 Si1 P11 Ru4'
_cell_volume   469.12751608
_cell_formula_units_Z   1
loop_
 _symmetry_equiv_pos_site_id
 _symmetry_equiv_pos_as_xyz
  1  'x, y, z'
loop_
 _atom_site_type_symbol
 _atom_site_label
 _atom_site_symmetry_multiplicity
 _atom_site_fract_x
 _atom_site_fract_y
 _atom_site_fract_z
 _atom_site_occupancy
  Pr  Pr0  1  0.250000  0.587153  0.702178  1
  Pr  Pr1  1  0.250000  0.913259  0.203019  1
  Pr  Pr2  1  0.750000  0.413374  0.298580  1
  Pr  Pr3  1  0.750000  0.086792  0.797144  1
  Co  Co4  1  0.250000  0.407515  0.492717  1
  Co  Co5  1  0.250000  0.092005  0.992228  1
  Co  Co6  1  0.750000  0.593001  0.507957  1
  Co  Co7  1  0.750000  0.907720  0.007558  1
  Co  Co8  1  0.250000  0.213878  0.177011  1
  Co  Co9  1  0.250000  0.279365  0.675119  1
  Co  Co10  1  0.750000  0.779659  0.824727  1
  Co  Co11  1  0.750000  0.720873  0.325462  1
  Co  Co12  1  0.250000  0.886916  0.701681  1
  Co  Co13  1  0.250000  0.615126  0.201959  1
  Co  Co14  1  0.750000  0.111931  0.299449  1
  Co  Co15  1  0.750000  0.386001  0.798269  1
  Co  Co16  1  0.250000  0.469025  0.927129  1
  Co  Co17  1  0.250000  0.033540  0.432062  1
  Co  Co18  1  0.750000  0.536324  0.065290  1
  Co  Co19  1  0.750000  0.966371  0.568591  1
  Si  Si20  1  0.250000  0.415826  0.107410  1
  P  P21  1  0.250000  0.080659  0.609386  1
  P  P22  1  0.750000  0.581032  0.889241  1
  P  P23  1  0.750000  0.919318  0.390972  1
  P  P24  1  0.250000  0.278518  0.866762  1
  P  P25  1  0.250000  0.221704  0.366631  1
  P  P26  1  0.750000  0.721781  0.134431  1
  P  P27  1  0.750000  0.778022  0.633363  1
  P  P28  1  0.250000  0.600223  0.392057  1
  P  P29  1  0.250000  0.900403  0.892159  1
  P  P30  1  0.750000  0.400353  0.607682  1
  P  P31  1  0.750000  0.099932  0.108265  1
  Ru  Ru32  1  0.250000  0.715812  0.992512  1
  Ru  Ru33  1  0.250000  0.785928  0.491930  1
  Ru  Ru34  1  0.750000  0.286402  0.010209  1
  Ru  Ru35  1  0.750000  0.214260  0.508861  1
