# generated using pymatgen
data_Pr9Nd(InSi2)2
_symmetry_space_group_name_H-M   'P 1'
_cell_length_a   7.94730650
_cell_length_b   7.94730504
_cell_length_c   9.31639410
_cell_angle_alpha   115.24709314
_cell_angle_beta   115.24708866
_cell_angle_gamma   89.99999603
_symmetry_Int_Tables_number   1
_chemical_formula_structural   Pr9Nd(InSi2)2
_chemical_formula_sum   'Pr9 Nd1 In2 Si4'
_cell_volume   469.32070523
_cell_formula_units_Z   1
loop_
 _symmetry_equiv_pos_site_id
 _symmetry_equiv_pos_as_xyz
  1  'x, y, z'
loop_
 _atom_site_type_symbol
 _atom_site_label
 _atom_site_symmetry_multiplicity
 _atom_site_fract_x
 _atom_site_fract_y
 _atom_site_fract_z
 _atom_site_occupancy
  Pr  Pr0  1  0.000000  0.000000  0.000000  1
  Pr  Pr1  1  0.961174  0.814520  0.275797  1
  Pr  Pr2  1  0.314624  0.461277  0.275797  1
  Pr  Pr3  1  0.814520  0.314624  0.275797  1
  Pr  Pr4  1  0.461277  0.961174  0.275797  1
  Pr  Pr5  1  0.038826  0.185480  0.724203  1
  Pr  Pr6  1  0.685376  0.538723  0.724203  1
  Pr  Pr7  1  0.185480  0.685376  0.724203  1
  Pr  Pr8  1  0.538723  0.038826  0.724203  1
  Nd  Nd9  1  0.500000  0.500000  0.000000  1
  In  In10  1  0.749941  0.749941  0.499883  1
  In  In11  1  0.250059  0.250059  0.500117  1
  Si  Si12  1  0.615036  0.884698  0.000000  1
  Si  Si13  1  0.384964  0.115302  0.000000  1
  Si  Si14  1  0.884698  0.384964  0.000000  1
  Si  Si15  1  0.115302  0.615036  0.000000  1
