# generated using pymatgen
data_Sr5GeSb2
_symmetry_space_group_name_H-M   'P 1'
_cell_length_a   8.57743700
_cell_length_b   9.99205500
_cell_length_c   13.65796300
_cell_angle_alpha   90.00000000
_cell_angle_beta   90.00000000
_cell_angle_gamma   90.00000000
_symmetry_Int_Tables_number   1
_chemical_formula_structural   Sr5GeSb2
_chemical_formula_sum   'Sr20 Ge4 Sb8'
_cell_volume   1170.57241254
_cell_formula_units_Z   4
loop_
 _symmetry_equiv_pos_site_id
 _symmetry_equiv_pos_as_xyz
  1  'x, y, z'
loop_
 _atom_site_type_symbol
 _atom_site_label
 _atom_site_symmetry_multiplicity
 _atom_site_fract_x
 _atom_site_fract_y
 _atom_site_fract_z
 _atom_site_occupancy
  Sr  Sr0  1  0.050899  0.750000  0.501624  1
  Sr  Sr1  1  0.949101  0.250000  0.498376  1
  Sr  Sr2  1  0.550899  0.250000  0.998376  1
  Sr  Sr3  1  0.449101  0.750000  0.001624  1
  Sr  Sr4  1  0.847011  0.750000  0.805792  1
  Sr  Sr5  1  0.152989  0.250000  0.194208  1
  Sr  Sr6  1  0.347011  0.250000  0.694208  1
  Sr  Sr7  1  0.652989  0.750000  0.305792  1
  Sr  Sr8  1  0.673183  0.525468  0.581446  1
  Sr  Sr9  1  0.326817  0.474532  0.418554  1
  Sr  Sr10  1  0.173183  0.474532  0.918554  1
  Sr  Sr11  1  0.326817  0.025468  0.418554  1
  Sr  Sr12  1  0.826817  0.525468  0.081446  1
  Sr  Sr13  1  0.673183  0.974532  0.581446  1
  Sr  Sr14  1  0.826817  0.974532  0.081446  1
  Sr  Sr15  1  0.173183  0.025468  0.918554  1
  Sr  Sr16  1  0.327055  0.750000  0.714988  1
  Sr  Sr17  1  0.672945  0.250000  0.285012  1
  Sr  Sr18  1  0.827055  0.250000  0.785012  1
  Sr  Sr19  1  0.172945  0.750000  0.214988  1
  Ge  Ge20  1  0.054908  0.750000  0.992343  1
  Ge  Ge21  1  0.945092  0.250000  0.007657  1
  Ge  Ge22  1  0.554908  0.250000  0.507657  1
  Ge  Ge23  1  0.445092  0.750000  0.492343  1
  Sb  Sb24  1  0.551671  0.505070  0.829919  1
  Sb  Sb25  1  0.448329  0.494930  0.170081  1
  Sb  Sb26  1  0.051671  0.494930  0.670081  1
  Sb  Sb27  1  0.448329  0.005070  0.170081  1
  Sb  Sb28  1  0.948329  0.505070  0.329919  1
  Sb  Sb29  1  0.551671  0.994930  0.829919  1
  Sb  Sb30  1  0.948329  0.994930  0.329919  1
  Sb  Sb31  1  0.051671  0.005070  0.670081  1
