# generated using pymatgen
data_AcAl3Ni2
_symmetry_space_group_name_H-M   'P 1'
_cell_length_a   6.55193003
_cell_length_b   6.55193118
_cell_length_c   5.20747600
_cell_angle_alpha   90.00000000
_cell_angle_beta   90.00000000
_cell_angle_gamma   105.42797561
_symmetry_Int_Tables_number   1
_chemical_formula_structural   AcAl3Ni2
_chemical_formula_sum   'Ac2 Al6 Ni4'
_cell_volume   215.49013974
_cell_formula_units_Z   2
loop_
 _symmetry_equiv_pos_site_id
 _symmetry_equiv_pos_as_xyz
  1  'x, y, z'
loop_
 _atom_site_type_symbol
 _atom_site_label
 _atom_site_symmetry_multiplicity
 _atom_site_fract_x
 _atom_site_fract_y
 _atom_site_fract_z
 _atom_site_occupancy
  Ac  Ac0  1  0.652048  0.652048  0.250000  1
  Ac  Ac1  1  0.347952  0.347952  0.750000  1
  Al  Al2  1  0.062521  0.062521  0.250000  1
  Al  Al3  1  0.937479  0.937479  0.750000  1
  Al  Al4  1  0.077075  0.475334  0.250000  1
  Al  Al5  1  0.922925  0.524666  0.750000  1
  Al  Al6  1  0.475334  0.077075  0.250000  1
  Al  Al7  1  0.524666  0.922925  0.750000  1
  Ni  Ni8  1  0.801160  0.198840  0.000000  1
  Ni  Ni9  1  0.198840  0.801160  0.000000  1
  Ni  Ni10  1  0.198840  0.801160  0.500000  1
  Ni  Ni11  1  0.801160  0.198840  0.500000  1
