# generated using pymatgen
data_HoEr3Al2(Co2B)6
_symmetry_space_group_name_H-M   'P 1'
_cell_length_a   5.11194300
_cell_length_b   5.11194368
_cell_length_c   12.40856300
_cell_angle_alpha   90.00000000
_cell_angle_beta   90.00000000
_cell_angle_gamma   120.00000206
_symmetry_Int_Tables_number   1
_chemical_formula_structural   HoEr3Al2(Co2B)6
_chemical_formula_sum   'Ho1 Er3 Al2 Co12 B6'
_cell_volume   280.81750471
_cell_formula_units_Z   1
loop_
 _symmetry_equiv_pos_site_id
 _symmetry_equiv_pos_as_xyz
  1  'x, y, z'
loop_
 _atom_site_type_symbol
 _atom_site_label
 _atom_site_symmetry_multiplicity
 _atom_site_fract_x
 _atom_site_fract_y
 _atom_site_fract_z
 _atom_site_occupancy
  Ho  Ho0  1  0.000000  0.000000  0.000000  1
  Er  Er1  1  0.000000  0.000000  0.500000  1
  Er  Er2  1  0.000000  0.000000  0.741596  1
  Er  Er3  1  0.000000  0.000000  0.258404  1
  Al  Al4  1  0.666667  0.333333  0.000000  1
  Al  Al5  1  0.333333  0.666667  0.000000  1
  Co  Co6  1  0.500000  0.500000  0.841067  1
  Co  Co7  1  0.500000  0.000000  0.841067  1
  Co  Co8  1  0.000000  0.500000  0.841067  1
  Co  Co9  1  0.500000  0.500000  0.158933  1
  Co  Co10  1  0.500000  0.000000  0.158933  1
  Co  Co11  1  0.000000  0.500000  0.158933  1
  Co  Co12  1  0.500000  0.500000  0.614984  1
  Co  Co13  1  0.500000  0.000000  0.614984  1
  Co  Co14  1  0.000000  0.500000  0.614984  1
  Co  Co15  1  0.500000  0.500000  0.385016  1
  Co  Co16  1  0.500000  0.000000  0.385016  1
  Co  Co17  1  0.000000  0.500000  0.385016  1
  B  B18  1  0.666667  0.333333  0.500000  1
  B  B19  1  0.333333  0.666667  0.500000  1
  B  B20  1  0.666667  0.333333  0.732014  1
  B  B21  1  0.333333  0.666667  0.732014  1
  B  B22  1  0.333333  0.666667  0.267986  1
  B  B23  1  0.666667  0.333333  0.267986  1
