# generated using pymatgen
data_KErSiS4
_symmetry_space_group_name_H-M   'P 1'
_cell_length_a   6.62556300
_cell_length_b   6.38139144
_cell_length_c   8.70270191
_cell_angle_alpha   72.36527467
_cell_angle_beta   90.00000000
_cell_angle_gamma   90.00000000
_symmetry_Int_Tables_number   1
_chemical_formula_structural   KErSiS4
_chemical_formula_sum   'K2 Er2 Si2 S8'
_cell_volume   350.66181739
_cell_formula_units_Z   2
loop_
 _symmetry_equiv_pos_site_id
 _symmetry_equiv_pos_as_xyz
  1  'x, y, z'
loop_
 _atom_site_type_symbol
 _atom_site_label
 _atom_site_symmetry_multiplicity
 _atom_site_fract_x
 _atom_site_fract_y
 _atom_site_fract_z
 _atom_site_occupancy
  K  K0  1  0.978201  0.729570  0.064172  1
  K  K1  1  0.478201  0.270430  0.935828  1
  Er  Er2  1  0.499971  0.229912  0.450809  1
  Er  Er3  1  0.999971  0.770088  0.549191  1
  Si  Si4  1  0.462461  0.779773  0.327852  1
  Si  Si5  1  0.962461  0.220227  0.672148  1
  S  S6  1  0.464130  0.581886  0.172544  1
  S  S7  1  0.230965  0.023290  0.282015  1
  S  S8  1  0.727764  0.978629  0.302055  1
  S  S9  1  0.903509  0.424236  0.432938  1
  S  S10  1  0.403509  0.575764  0.567062  1
  S  S11  1  0.227764  0.021371  0.697945  1
  S  S12  1  0.730965  0.976710  0.717985  1
  S  S13  1  0.964130  0.418114  0.827456  1
