# generated using pymatgen
data_TbDy2Ni6B2Ir
_symmetry_space_group_name_H-M   'P 1'
_cell_length_a   5.08670300
_cell_length_b   5.08670323
_cell_length_c   14.57302900
_cell_angle_alpha   90.00000000
_cell_angle_beta   90.00000000
_cell_angle_gamma   120.00000499
_symmetry_Int_Tables_number   1
_chemical_formula_structural   TbDy2Ni6B2Ir
_chemical_formula_sum   'Tb2 Dy4 Ni12 B4 Ir2'
_cell_volume   326.55265635
_cell_formula_units_Z   2
loop_
 _symmetry_equiv_pos_site_id
 _symmetry_equiv_pos_as_xyz
  1  'x, y, z'
loop_
 _atom_site_type_symbol
 _atom_site_label
 _atom_site_symmetry_multiplicity
 _atom_site_fract_x
 _atom_site_fract_y
 _atom_site_fract_z
 _atom_site_occupancy
  Tb  Tb0  1  0.333333  0.666667  0.469101  1
  Tb  Tb1  1  0.666667  0.333333  0.969101  1
  Dy  Dy2  1  0.666667  0.333333  0.530960  1
  Dy  Dy3  1  0.333333  0.666667  0.030960  1
  Dy  Dy4  1  0.666667  0.333333  0.749900  1
  Dy  Dy5  1  0.333333  0.666667  0.249900  1
  Ni  Ni6  1  0.834691  0.669382  0.347752  1
  Ni  Ni7  1  0.330618  0.165309  0.347752  1
  Ni  Ni8  1  0.834739  0.165261  0.152230  1
  Ni  Ni9  1  0.669479  0.834739  0.652230  1
  Ni  Ni10  1  0.165261  0.330521  0.652230  1
  Ni  Ni11  1  0.834739  0.669479  0.152230  1
  Ni  Ni12  1  0.330521  0.165261  0.152230  1
  Ni  Ni13  1  0.669382  0.834691  0.847752  1
  Ni  Ni14  1  0.165309  0.330618  0.847752  1
  Ni  Ni15  1  0.165261  0.834739  0.652230  1
  Ni  Ni16  1  0.165309  0.834691  0.847752  1
  Ni  Ni17  1  0.834691  0.165309  0.347752  1
  B  B18  1  0.666667  0.333333  0.249983  1
  B  B19  1  0.333333  0.666667  0.749983  1
  B  B20  1  0.000000  0.000000  0.750034  1
  B  B21  1  0.000000  0.000000  0.250034  1
  Ir  Ir22  1  0.000000  0.000000  0.000076  1
  Ir  Ir23  1  0.000000  0.000000  0.500076  1
