# generated using pymatgen
data_Y3Be2(PPd5)4
_symmetry_space_group_name_H-M   'P 1'
_cell_length_a   8.66214697
_cell_length_b   8.58677876
_cell_length_c   8.58677834
_cell_angle_alpha   60.58154071
_cell_angle_beta   59.70922870
_cell_angle_gamma   59.70923286
_symmetry_Int_Tables_number   1
_chemical_formula_structural   Y3Be2(PPd5)4
_chemical_formula_sum   'Y3 Be2 P4 Pd20'
_cell_volume   451.54763376
_cell_formula_units_Z   1
loop_
 _symmetry_equiv_pos_site_id
 _symmetry_equiv_pos_as_xyz
  1  'x, y, z'
loop_
 _atom_site_type_symbol
 _atom_site_label
 _atom_site_symmetry_multiplicity
 _atom_site_fract_x
 _atom_site_fract_y
 _atom_site_fract_z
 _atom_site_occupancy
  Y  Y0  1  0.250000  0.250000  0.250000  1
  Y  Y1  1  0.750000  0.750000  0.750000  1
  Y  Y2  1  0.000000  0.000000  0.000000  1
  Be  Be3  1  0.733422  0.266578  0.266578  1
  Be  Be4  1  0.266578  0.733422  0.733422  1
  P  P5  1  0.266284  0.733716  0.266284  1
  P  P6  1  0.733716  0.266284  0.733716  1
  P  P7  1  0.266284  0.266284  0.733716  1
  P  P8  1  0.733716  0.733716  0.266284  1
  Pd  Pd9  1  0.387769  0.382505  0.382505  1
  Pd  Pd10  1  0.612231  0.617495  0.617495  1
  Pd  Pd11  1  0.382505  0.387769  0.847222  1
  Pd  Pd12  1  0.382505  0.847222  0.387769  1
  Pd  Pd13  1  0.617495  0.612231  0.152778  1
  Pd  Pd14  1  0.617495  0.152778  0.612231  1
  Pd  Pd15  1  0.847222  0.382505  0.382505  1
  Pd  Pd16  1  0.152778  0.617495  0.617495  1
  Pd  Pd17  1  0.344467  0.000000  0.000000  1
  Pd  Pd18  1  0.655533  0.000000  0.000000  1
  Pd  Pd19  1  0.000000  0.344467  0.655533  1
  Pd  Pd20  1  0.000000  0.655533  0.344467  1
  Pd  Pd21  1  0.997145  0.343733  0.002855  1
  Pd  Pd22  1  0.656267  0.002855  0.343733  1
  Pd  Pd23  1  0.002855  0.656267  0.997145  1
  Pd  Pd24  1  0.343733  0.997145  0.656267  1
  Pd  Pd25  1  0.997145  0.002855  0.343733  1
  Pd  Pd26  1  0.002855  0.997145  0.656267  1
  Pd  Pd27  1  0.656267  0.343733  0.002855  1
  Pd  Pd28  1  0.343733  0.656267  0.997145  1
