# generated using pymatgen
data_Na12Fe3RhS8(O4F)8
_symmetry_space_group_name_H-M   'P 1'
_cell_length_a   6.73968800
_cell_length_b   8.94933400
_cell_length_c   14.24180400
_cell_angle_alpha   90.00000000
_cell_angle_beta   90.00000000
_cell_angle_gamma   90.00000000
_symmetry_Int_Tables_number   1
_chemical_formula_structural   Na12Fe3RhS8(O4F)8
_chemical_formula_sum   'Na12 Fe3 Rh1 S8 O32 F8'
_cell_volume   859.00464766
_cell_formula_units_Z   1
loop_
 _symmetry_equiv_pos_site_id
 _symmetry_equiv_pos_as_xyz
  1  'x, y, z'
loop_
 _atom_site_type_symbol
 _atom_site_label
 _atom_site_symmetry_multiplicity
 _atom_site_fract_x
 _atom_site_fract_y
 _atom_site_fract_z
 _atom_site_occupancy
  Na  Na0  1  0.521164  0.666661  0.904539  1
  Na  Na1  1  0.019978  0.834054  0.595812  1
  Na  Na2  1  0.480022  0.165946  0.595812  1
  Na  Na3  1  0.978836  0.333339  0.904539  1
  Na  Na4  1  0.479497  0.334082  0.095452  1
  Na  Na5  1  0.979424  0.165649  0.404314  1
  Na  Na6  1  0.520576  0.834351  0.404314  1
  Na  Na7  1  0.020503  0.665918  0.095452  1
  Na  Na8  1  0.750000  0.000000  0.047513  1
  Na  Na9  1  0.250000  0.500000  0.451633  1
  Na  Na10  1  0.250000  0.000000  0.951891  1
  Na  Na11  1  0.750000  0.500000  0.547952  1
  Fe  Fe12  1  0.250000  0.500000  0.694344  1
  Fe  Fe13  1  0.250000  0.000000  0.194070  1
  Fe  Fe14  1  0.750000  0.500000  0.305742  1
  Rh  Rh15  1  0.750000  0.000000  0.803695  1
  S  S16  1  0.003253  0.693871  0.856874  1
  S  S17  1  0.504103  0.806867  0.643342  1
  S  S18  1  0.995897  0.193133  0.643342  1
  S  S19  1  0.496747  0.306129  0.856874  1
  S  S20  1  0.996291  0.306965  0.143314  1
  S  S21  1  0.496347  0.193017  0.356841  1
  S  S22  1  0.003653  0.806983  0.356841  1
  S  S23  1  0.503709  0.693035  0.143314  1
  O  O24  1  0.447411  0.442793  0.798461  1
  O  O25  1  0.952710  0.051225  0.699332  1
  O  O26  1  0.547290  0.948775  0.699332  1
  O  O27  1  0.052589  0.557207  0.798461  1
  O  O28  1  0.551882  0.556704  0.202188  1
  O  O29  1  0.051995  0.943250  0.298081  1
  O  O30  1  0.448005  0.056750  0.298081  1
  O  O31  1  0.948118  0.443296  0.202188  1
  O  O32  1  0.185161  0.767487  0.888616  1
  O  O33  1  0.687611  0.734778  0.612419  1
  O  O34  1  0.812389  0.265222  0.612419  1
  O  O35  1  0.314839  0.232513  0.888616  1
  O  O36  1  0.813479  0.234174  0.111734  1
  O  O37  1  0.313561  0.265854  0.388607  1
  O  O38  1  0.186439  0.734146  0.388607  1
  O  O39  1  0.686521  0.765826  0.111734  1
  O  O40  1  0.879142  0.642942  0.936034  1
  O  O41  1  0.379471  0.857308  0.564226  1
  O  O42  1  0.120529  0.142692  0.564226  1
  O  O43  1  0.620858  0.357058  0.936034  1
  O  O44  1  0.119974  0.358950  0.064189  1
  O  O45  1  0.620158  0.141241  0.435977  1
  O  O46  1  0.879842  0.858759  0.435977  1
  O  O47  1  0.380026  0.641050  0.064189  1
  O  O48  1  0.385900  0.704467  0.706243  1
  O  O49  1  0.882864  0.791365  0.790515  1
  O  O50  1  0.617136  0.208635  0.790515  1
  O  O51  1  0.114100  0.295533  0.706243  1
  O  O52  1  0.615949  0.295878  0.294719  1
  O  O53  1  0.116051  0.204208  0.205459  1
  O  O54  1  0.383949  0.795792  0.205459  1
  O  O55  1  0.884051  0.704122  0.294719  1
  F  F56  1  0.571619  0.926728  0.908513  1
  F  F57  1  0.076955  0.572377  0.595299  1
  F  F58  1  0.423045  0.427623  0.595299  1
  F  F59  1  0.928381  0.073272  0.908513  1
  F  F60  1  0.423301  0.072854  0.095469  1
  F  F61  1  0.923236  0.427371  0.405011  1
  F  F62  1  0.576764  0.572629  0.405011  1
  F  F63  1  0.076699  0.927146  0.095469  1
