# generated using pymatgen
data_Lu8Ga3Ir
_symmetry_space_group_name_H-M   'P 1'
_cell_length_a   9.85710400
_cell_length_b   9.85710396
_cell_length_c   6.87124300
_cell_angle_alpha   90.00000000
_cell_angle_beta   90.00000000
_cell_angle_gamma   119.99999343
_symmetry_Int_Tables_number   1
_chemical_formula_structural   Lu8Ga3Ir
_chemical_formula_sum   'Lu16 Ga6 Ir2'
_cell_volume   578.18210183
_cell_formula_units_Z   2
loop_
 _symmetry_equiv_pos_site_id
 _symmetry_equiv_pos_as_xyz
  1  'x, y, z'
loop_
 _atom_site_type_symbol
 _atom_site_label
 _atom_site_symmetry_multiplicity
 _atom_site_fract_x
 _atom_site_fract_y
 _atom_site_fract_z
 _atom_site_occupancy
  Lu  Lu0  1  0.171056  0.828944  0.510218  1
  Lu  Lu1  1  0.657889  0.828944  0.510218  1
  Lu  Lu2  1  0.171056  0.342111  0.510218  1
  Lu  Lu3  1  0.828944  0.171056  0.010218  1
  Lu  Lu4  1  0.342111  0.171056  0.010218  1
  Lu  Lu5  1  0.828944  0.657889  0.010218  1
  Lu  Lu6  1  0.333333  0.666667  0.837999  1
  Lu  Lu7  1  0.666667  0.333333  0.337999  1
  Lu  Lu8  1  0.465975  0.534025  0.205460  1
  Lu  Lu9  1  0.068049  0.534025  0.205460  1
  Lu  Lu10  1  0.465975  0.931951  0.205460  1
  Lu  Lu11  1  0.534025  0.465975  0.705460  1
  Lu  Lu12  1  0.931951  0.465975  0.705460  1
  Lu  Lu13  1  0.534025  0.068049  0.705460  1
  Lu  Lu14  1  0.000000  0.000000  0.234761  1
  Lu  Lu15  1  0.000000  0.000000  0.734761  1
  Ga  Ga16  1  0.163600  0.836400  0.957655  1
  Ga  Ga17  1  0.672801  0.836400  0.957655  1
  Ga  Ga18  1  0.163600  0.327199  0.957655  1
  Ga  Ga19  1  0.836400  0.163600  0.457655  1
  Ga  Ga20  1  0.327199  0.163600  0.457655  1
  Ga  Ga21  1  0.836400  0.672801  0.457655  1
  Ir  Ir22  1  0.333333  0.666667  0.444660  1
  Ir  Ir23  1  0.666667  0.333333  0.944660  1
