# generated using pymatgen
data_Tb3Ga6Co4Ni5
_symmetry_space_group_name_H-M   'P 1'
_cell_length_a   8.71784736
_cell_length_b   8.74360853
_cell_length_c   4.08626900
_cell_angle_alpha   90.00000000
_cell_angle_beta   90.00000000
_cell_angle_gamma   120.14776145
_symmetry_Int_Tables_number   1
_chemical_formula_structural   Tb3Ga6Co4Ni5
_chemical_formula_sum   'Tb3 Ga6 Co4 Ni5'
_cell_volume   269.34504083
_cell_formula_units_Z   1
loop_
 _symmetry_equiv_pos_site_id
 _symmetry_equiv_pos_as_xyz
  1  'x, y, z'
loop_
 _atom_site_type_symbol
 _atom_site_label
 _atom_site_symmetry_multiplicity
 _atom_site_fract_x
 _atom_site_fract_y
 _atom_site_fract_z
 _atom_site_occupancy
  Tb  Tb0  1  0.667671  0.334346  0.500000  1
  Tb  Tb1  1  0.331202  0.669130  0.500000  1
  Tb  Tb2  1  0.001666  0.000333  0.000000  1
  Ga  Ga3  1  0.490887  0.487224  0.000000  1
  Ga  Ga4  1  0.510714  0.000816  0.000000  1
  Ga  Ga5  1  0.996047  0.508822  0.000000  1
  Ga  Ga6  1  0.726173  0.726199  0.500000  1
  Ga  Ga7  1  0.274010  0.999210  0.500000  1
  Ga  Ga8  1  0.000545  0.271800  0.500000  1
  Co  Co9  1  0.823797  0.188406  0.000000  1
  Co  Co10  1  0.813196  0.638091  0.000000  1
  Co  Co11  1  0.365586  0.175887  0.000000  1
  Co  Co12  1  0.187193  0.821174  0.000000  1
  Ni  Ni13  1  0.630731  0.809453  0.000000  1
  Ni  Ni14  1  0.178923  0.371473  0.000000  1
  Ni  Ni15  1  0.296941  0.294767  0.500000  1
  Ni  Ni16  1  0.705590  0.001025  0.500000  1
  Ni  Ni17  1  0.999128  0.701845  0.500000  1
