# generated using pymatgen
data_Ta4(MnPt3)3
_symmetry_space_group_name_H-M   'P 1'
_cell_length_a   5.55324100
_cell_length_b   4.88842166
_cell_length_c   9.31855035
_cell_angle_alpha   79.53312813
_cell_angle_beta   90.00000000
_cell_angle_gamma   90.00000000
_symmetry_Int_Tables_number   1
_chemical_formula_structural   Ta4(MnPt3)3
_chemical_formula_sum   'Ta4 Mn3 Pt9'
_cell_volume   248.75746600
_cell_formula_units_Z   1
loop_
 _symmetry_equiv_pos_site_id
 _symmetry_equiv_pos_as_xyz
  1  'x, y, z'
loop_
 _atom_site_type_symbol
 _atom_site_label
 _atom_site_symmetry_multiplicity
 _atom_site_fract_x
 _atom_site_fract_y
 _atom_site_fract_z
 _atom_site_occupancy
  Ta  Ta0  1  0.750000  0.371970  0.374770  1
  Ta  Ta1  1  0.250000  0.623343  0.624288  1
  Ta  Ta2  1  0.750000  0.204439  0.877054  1
  Ta  Ta3  1  0.250000  0.785752  0.125627  1
  Mn  Mn4  1  0.750000  0.796987  0.123369  1
  Mn  Mn5  1  0.250000  0.204940  0.872746  1
  Mn  Mn6  1  0.750000  0.634518  0.626124  1
  Pt  Pt7  1  0.250000  0.379117  0.376408  1
  Pt  Pt8  1  0.995323  0.870607  0.374311  1
  Pt  Pt9  1  0.500563  0.132776  0.628370  1
  Pt  Pt10  1  0.999437  0.132776  0.628370  1
  Pt  Pt11  1  0.504677  0.870607  0.374311  1
  Pt  Pt12  1  0.998513  0.289832  0.121628  1
  Pt  Pt13  1  0.498990  0.706251  0.875498  1
  Pt  Pt14  1  0.001010  0.706251  0.875498  1
  Pt  Pt15  1  0.501487  0.289832  0.121628  1
