# generated using pymatgen
data_CeCoSiH2
_symmetry_space_group_name_H-M   'P 1'
_cell_length_a   4.06203200
_cell_length_b   4.06203258
_cell_length_c   8.18009300
_cell_angle_alpha   90.00000000
_cell_angle_beta   90.00000000
_cell_angle_gamma   120.00001153
_symmetry_Int_Tables_number   1
_chemical_formula_structural   CeCoSiH2
_chemical_formula_sum   'Ce2 Co2 Si2 H4'
_cell_volume   116.88951742
_cell_formula_units_Z   2
loop_
 _symmetry_equiv_pos_site_id
 _symmetry_equiv_pos_as_xyz
  1  'x, y, z'
loop_
 _atom_site_type_symbol
 _atom_site_label
 _atom_site_symmetry_multiplicity
 _atom_site_fract_x
 _atom_site_fract_y
 _atom_site_fract_z
 _atom_site_occupancy
  Ce  Ce0  1  0.000000  0.000000  0.500000  1
  Ce  Ce1  1  0.000000  0.000000  0.000000  1
  Co  Co2  1  0.666667  0.333333  0.750000  1
  Co  Co3  1  0.333333  0.666667  0.250000  1
  Si  Si4  1  0.333333  0.666667  0.750000  1
  Si  Si5  1  0.666667  0.333333  0.250000  1
  H  H6  1  0.333333  0.666667  0.446245  1
  H  H7  1  0.666667  0.333333  0.553755  1
  H  H8  1  0.333333  0.666667  0.053755  1
  H  H9  1  0.666667  0.333333  0.946245  1
