# generated using pymatgen
data_DyEr5(Si3Ru)8
_symmetry_space_group_name_H-M   'P 1'
_cell_length_a   10.10143439
_cell_length_b   10.10143415
_cell_length_c   8.11814537
_cell_angle_alpha   90.03170961
_cell_angle_beta   89.96828763
_cell_angle_gamma   132.63987671
_symmetry_Int_Tables_number   1
_chemical_formula_structural   DyEr5(Si3Ru)8
_chemical_formula_sum   'Dy1 Er5 Si24 Ru8'
_cell_volume   609.36820696
_cell_formula_units_Z   1
loop_
 _symmetry_equiv_pos_site_id
 _symmetry_equiv_pos_as_xyz
  1  'x, y, z'
loop_
 _atom_site_type_symbol
 _atom_site_label
 _atom_site_symmetry_multiplicity
 _atom_site_fract_x
 _atom_site_fract_y
 _atom_site_fract_z
 _atom_site_occupancy
  Dy  Dy0  1  0.497420  0.997420  0.250000  1
  Er  Er1  1  0.002442  0.502442  0.750000  1
  Er  Er2  1  0.502473  0.002473  0.750000  1
  Er  Er3  1  0.997576  0.497576  0.250000  1
  Er  Er4  1  0.500022  0.499985  0.500017  1
  Er  Er5  1  0.999985  0.000022  0.999983  1
  Si  Si6  1  0.388221  0.154496  0.005074  1
  Si  Si7  1  0.654496  0.888221  0.494926  1
  Si  Si8  1  0.111657  0.345312  0.505231  1
  Si  Si9  1  0.845312  0.611657  0.994769  1
  Si  Si10  1  0.611748  0.845545  0.994501  1
  Si  Si11  1  0.345545  0.111748  0.505499  1
  Si  Si12  1  0.888336  0.654676  0.494667  1
  Si  Si13  1  0.154676  0.388336  0.005333  1
  Si  Si14  1  0.612696  0.378263  0.228540  1
  Si  Si15  1  0.878263  0.112696  0.271460  1
  Si  Si16  1  0.887132  0.121513  0.728502  1
  Si  Si17  1  0.621513  0.387132  0.771498  1
  Si  Si18  1  0.387561  0.622041  0.771564  1
  Si  Si19  1  0.122041  0.887561  0.728436  1
  Si  Si20  1  0.705146  0.295173  0.999785  1
  Si  Si21  1  0.795173  0.205146  0.500215  1
  Si  Si22  1  0.294802  0.704823  0.999754  1
  Si  Si23  1  0.204823  0.794802  0.500246  1
  Si  Si24  1  0.167561  0.167519  0.333259  1
  Si  Si25  1  0.667519  0.667561  0.166741  1
  Si  Si26  1  0.332484  0.332439  0.833286  1
  Si  Si27  1  0.832439  0.832484  0.666714  1
  Si  Si28  1  0.378196  0.612666  0.228609  1
  Si  Si29  1  0.112666  0.878196  0.271391  1
  Ru  Ru30  1  0.626622  0.626554  0.872408  1
  Ru  Ru31  1  0.126554  0.126622  0.627592  1
  Ru  Ru32  1  0.873464  0.873436  0.372368  1
  Ru  Ru33  1  0.373436  0.373464  0.127632  1
  Ru  Ru34  1  0.329720  0.668695  0.500653  1
  Ru  Ru35  1  0.168695  0.829720  0.999347  1
  Ru  Ru36  1  0.670312  0.331274  0.500412  1
  Ru  Ru37  1  0.831274  0.170312  0.999588  1
