# generated using pymatgen
data_Ho2Fe10P7W2
_symmetry_space_group_name_H-M   'P 1'
_cell_length_a   9.13256163
_cell_length_b   9.03481680
_cell_length_c   3.66798200
_cell_angle_alpha   90.00000000
_cell_angle_beta   90.00000000
_cell_angle_gamma   119.85932777
_symmetry_Int_Tables_number   1
_chemical_formula_structural   Ho2Fe10P7W2
_chemical_formula_sum   'Ho2 Fe10 P7 W2'
_cell_volume   262.47241161
_cell_formula_units_Z   1
loop_
 _symmetry_equiv_pos_site_id
 _symmetry_equiv_pos_as_xyz
  1  'x, y, z'
loop_
 _atom_site_type_symbol
 _atom_site_label
 _atom_site_symmetry_multiplicity
 _atom_site_fract_x
 _atom_site_fract_y
 _atom_site_fract_z
 _atom_site_occupancy
  Ho  Ho0  1  0.662776  0.333188  0.500000  1
  Ho  Ho1  1  0.338888  0.665296  0.000000  1
  Fe  Fe2  1  0.725473  0.880055  0.000000  1
  Fe  Fe3  1  0.946449  0.378556  0.000000  1
  Fe  Fe4  1  0.155674  0.273116  0.000000  1
  Fe  Fe5  1  0.389116  0.439128  0.500000  1
  Fe  Fe6  1  0.116505  0.837014  0.000000  1
  Fe  Fe7  1  0.427299  0.052251  0.000000  1
  Fe  Fe8  1  0.043134  0.610359  0.500000  1
  Fe  Fe9  1  0.564513  0.949288  0.500000  1
  Fe  Fe10  1  0.632678  0.577194  0.000000  1
  Fe  Fe11  1  0.878363  0.786802  0.500000  1
  P  P12  1  0.415625  0.308409  0.000000  1
  P  P13  1  0.289416  0.875112  0.500000  1
  P  P14  1  0.695341  0.111374  0.000000  1
  P  P15  1  0.600065  0.711924  0.500000  1
  P  P16  1  0.879950  0.590589  0.000000  1
  P  P17  1  0.126552  0.411342  0.500000  1
  P  P18  1  0.995320  0.990590  0.000000  1
  W  W19  1  0.220053  0.100408  0.500000  1
  W  W20  1  0.896810  0.118003  0.500000  1
