# generated using pymatgen
data_DyEr7(SiI6)2
_symmetry_space_group_name_H-M   'P 1'
_cell_length_a   4.18233100
_cell_length_b   13.87080719
_cell_length_c   14.65471021
_cell_angle_alpha   89.98080196
_cell_angle_beta   90.00000000
_cell_angle_gamma   90.00000000
_symmetry_Int_Tables_number   1
_chemical_formula_structural   DyEr7(SiI6)2
_chemical_formula_sum   'Dy1 Er7 Si2 I12'
_cell_volume   850.15349863
_cell_formula_units_Z   1
loop_
 _symmetry_equiv_pos_site_id
 _symmetry_equiv_pos_as_xyz
  1  'x, y, z'
loop_
 _atom_site_type_symbol
 _atom_site_label
 _atom_site_symmetry_multiplicity
 _atom_site_fract_x
 _atom_site_fract_y
 _atom_site_fract_z
 _atom_site_occupancy
  Dy  Dy0  1  0.000000  0.110947  0.574288  1
  Er  Er1  1  0.500000  0.113751  0.347916  1
  Er  Er2  1  0.500000  0.886213  0.652030  1
  Er  Er3  1  0.500000  0.613710  0.151987  1
  Er  Er4  1  0.500000  0.386260  0.847956  1
  Er  Er5  1  0.000000  0.889216  0.425864  1
  Er  Er6  1  0.000000  0.610458  0.926110  1
  Er  Er7  1  0.000000  0.389528  0.073903  1
  Si  Si8  1  0.500000  0.999100  0.499403  1
  Si  Si9  1  0.500000  0.500003  0.999991  1
  I  I10  1  0.500000  0.245806  0.161600  1
  I  I11  1  0.500000  0.754171  0.838381  1
  I  I12  1  0.500000  0.745745  0.338307  1
  I  I13  1  0.500000  0.255203  0.662266  1
  I  I14  1  0.000000  0.259023  0.413488  1
  I  I15  1  0.000000  0.741287  0.585949  1
  I  I16  1  0.000000  0.758657  0.085899  1
  I  I17  1  0.000000  0.241366  0.914125  1
  I  I18  1  0.000000  0.999552  0.240268  1
  I  I19  1  0.000000  0.999965  0.760246  1
  I  I20  1  0.000000  0.499523  0.259658  1
  I  I21  1  0.000000  0.500517  0.740364  1
