# generated using pymatgen
data_K10PrSn12
_symmetry_space_group_name_H-M   'P 1'
_cell_length_a   10.55369039
_cell_length_b   10.55369067
_cell_length_c   10.55369100
_cell_angle_alpha   109.47121550
_cell_angle_beta   109.47121605
_cell_angle_gamma   109.47122195
_symmetry_Int_Tables_number   1
_chemical_formula_structural   K10PrSn12
_chemical_formula_sum   'K10 Pr1 Sn12'
_cell_volume   904.88051949
_cell_formula_units_Z   1
loop_
 _symmetry_equiv_pos_site_id
 _symmetry_equiv_pos_as_xyz
  1  'x, y, z'
loop_
 _atom_site_type_symbol
 _atom_site_label
 _atom_site_symmetry_multiplicity
 _atom_site_fract_x
 _atom_site_fract_y
 _atom_site_fract_z
 _atom_site_occupancy
  K  K0  1  0.500000  0.250000  0.750000  1
  K  K1  1  0.750000  0.250000  0.500000  1
  K  K2  1  0.250000  0.750000  0.500000  1
  K  K3  1  0.500000  0.750000  0.250000  1
  K  K4  1  0.601759  0.000000  0.000000  1
  K  K5  1  0.398241  0.398241  0.398241  1
  K  K6  1  0.000000  0.601759  0.000000  1
  K  K7  1  0.000000  0.000000  0.601759  1
  K  K8  1  0.750000  0.500000  0.250000  1
  K  K9  1  0.250000  0.500000  0.750000  1
  Pr  Pr10  1  0.000000  0.000000  0.000000  1
  Sn  Sn11  1  0.000000  0.176301  0.347233  1
  Sn  Sn12  1  0.823699  0.170932  0.823699  1
  Sn  Sn13  1  0.652767  0.652767  0.829068  1
  Sn  Sn14  1  0.347233  0.176301  0.000000  1
  Sn  Sn15  1  0.176301  0.347233  0.000000  1
  Sn  Sn16  1  0.347233  0.000000  0.176301  1
  Sn  Sn17  1  0.652767  0.829068  0.652767  1
  Sn  Sn18  1  0.829068  0.652767  0.652767  1
  Sn  Sn19  1  0.000000  0.347233  0.176301  1
  Sn  Sn20  1  0.823699  0.823699  0.170932  1
  Sn  Sn21  1  0.170932  0.823699  0.823699  1
  Sn  Sn22  1  0.176301  0.000000  0.347233  1
