# generated using pymatgen
data_La3ZnGa23Pd9
_symmetry_space_group_name_H-M   'P 1'
_cell_length_a   8.58532012
_cell_length_b   8.58126943
_cell_length_c   8.58532076
_cell_angle_alpha   90.12453818
_cell_angle_beta   90.28919958
_cell_angle_gamma   90.12454691
_symmetry_Int_Tables_number   1
_chemical_formula_structural   La3ZnGa23Pd9
_chemical_formula_sum   'La3 Zn1 Ga23 Pd9'
_cell_volume   632.49480419
_cell_formula_units_Z   1
loop_
 _symmetry_equiv_pos_site_id
 _symmetry_equiv_pos_as_xyz
  1  'x, y, z'
loop_
 _atom_site_type_symbol
 _atom_site_label
 _atom_site_symmetry_multiplicity
 _atom_site_fract_x
 _atom_site_fract_y
 _atom_site_fract_z
 _atom_site_occupancy
  La  La0  1  0.999205  0.500000  0.000795  1
  La  La1  1  0.499755  0.999582  0.999986  1
  La  La2  1  0.000014  0.000418  0.500245  1
  Zn  Zn3  1  0.738002  0.500000  0.261998  1
  Ga  Ga4  1  0.986883  0.644552  0.643891  1
  Ga  Ga5  1  0.645036  0.641238  0.990547  1
  Ga  Ga6  1  0.644959  0.986135  0.643096  1
  Ga  Ga7  1  0.009453  0.358762  0.354964  1
  Ga  Ga8  1  0.356109  0.355448  0.013117  1
  Ga  Ga9  1  0.356904  0.013865  0.355041  1
  Ga  Ga10  1  0.261133  0.500000  0.738867  1
  Ga  Ga11  1  0.499870  0.260618  0.738271  1
  Ga  Ga12  1  0.501286  0.737638  0.262109  1
  Ga  Ga13  1  0.261729  0.739382  0.500130  1
  Ga  Ga14  1  0.737891  0.262362  0.498714  1
  Ga  Ga15  1  0.838788  0.143530  0.838801  1
  Ga  Ga16  1  0.143972  0.838988  0.838884  1
  Ga  Ga17  1  0.837860  0.837021  0.144794  1
  Ga  Ga18  1  0.161199  0.856470  0.161212  1
  Ga  Ga19  1  0.855206  0.162979  0.162140  1
  Ga  Ga20  1  0.161116  0.161012  0.856028  1
  Ga  Ga21  1  0.730276  0.484945  0.730535  1
  Ga  Ga22  1  0.485914  0.730522  0.732441  1
  Ga  Ga23  1  0.731578  0.728020  0.479601  1
  Ga  Ga24  1  0.269465  0.515055  0.269724  1
  Ga  Ga25  1  0.520399  0.271980  0.268422  1
  Ga  Ga26  1  0.267559  0.269478  0.514086  1
  Pd  Pd27  1  0.836961  0.837124  0.837664  1
  Pd  Pd28  1  0.162336  0.162876  0.163039  1
  Pd  Pd29  1  0.662174  0.335507  0.997331  1
  Pd  Pd30  1  0.999440  0.337044  0.662999  1
  Pd  Pd31  1  0.337615  0.000000  0.662385  1
  Pd  Pd32  1  0.337001  0.662956  0.000560  1
  Pd  Pd33  1  0.002669  0.664493  0.337826  1
  Pd  Pd34  1  0.663032  0.000000  0.336968  1
  Pd  Pd35  1  0.497211  0.500000  0.502789  1
