# generated using pymatgen
data_Cs2CeHg2Se5
_symmetry_space_group_name_H-M   'P 1'
_cell_length_a   10.46000853
_cell_length_b   4.40858700
_cell_length_c   15.85311787
_cell_angle_alpha   90.00000000
_cell_angle_beta   103.09261470
_cell_angle_gamma   90.00000000
_symmetry_Int_Tables_number   1
_chemical_formula_structural   Cs2CeHg2Se5
_chemical_formula_sum   'Cs4 Ce2 Hg4 Se10'
_cell_volume   712.04494397
_cell_formula_units_Z   2
loop_
 _symmetry_equiv_pos_site_id
 _symmetry_equiv_pos_as_xyz
  1  'x, y, z'
loop_
 _atom_site_type_symbol
 _atom_site_label
 _atom_site_symmetry_multiplicity
 _atom_site_fract_x
 _atom_site_fract_y
 _atom_site_fract_z
 _atom_site_occupancy
  Cs  Cs0  1  0.285464  0.314119  0.054299  1
  Cs  Cs1  1  0.214536  0.314119  0.445701  1
  Cs  Cs2  1  0.785463  0.685882  0.554299  1
  Cs  Cs3  1  0.714537  0.685882  0.945701  1
  Ce  Ce4  1  0.750000  0.205143  0.250000  1
  Ce  Ce5  1  0.250000  0.794856  0.750000  1
  Hg  Hg6  1  0.032183  0.628262  0.202218  1
  Hg  Hg7  1  0.467817  0.628262  0.297782  1
  Hg  Hg8  1  0.532183  0.371737  0.702218  1
  Hg  Hg9  1  0.967816  0.371737  0.797782  1
  Se  Se10  1  0.901037  0.181887  0.117162  1
  Se  Se11  1  0.600814  0.702565  0.156085  1
  Se  Se12  1  0.250000  0.918609  0.250000  1
  Se  Se13  1  0.899187  0.702565  0.343915  1
  Se  Se14  1  0.598964  0.181887  0.382838  1
  Se  Se15  1  0.401037  0.818114  0.617162  1
  Se  Se16  1  0.100814  0.297437  0.656085  1
  Se  Se17  1  0.750000  0.081392  0.750000  1
  Se  Se18  1  0.399186  0.297437  0.843915  1
  Se  Se19  1  0.098964  0.818114  0.882838  1
