# generated using pymatgen
data_Pr10OsRu3
_symmetry_space_group_name_H-M   'P 1'
_cell_length_a   8.93446849
_cell_length_b   8.94381725
_cell_length_c   7.47599019
_cell_angle_alpha   83.78329778
_cell_angle_beta   83.85262389
_cell_angle_gamma   43.88762462
_symmetry_Int_Tables_number   1
_chemical_formula_structural   Pr10OsRu3
_chemical_formula_sum   'Pr10 Os1 Ru3'
_cell_volume   411.33953168
_cell_formula_units_Z   1
loop_
 _symmetry_equiv_pos_site_id
 _symmetry_equiv_pos_as_xyz
  1  'x, y, z'
loop_
 _atom_site_type_symbol
 _atom_site_label
 _atom_site_symmetry_multiplicity
 _atom_site_fract_x
 _atom_site_fract_y
 _atom_site_fract_z
 _atom_site_occupancy
  Pr  Pr0  1  0.018050  0.797429  0.914702  1
  Pr  Pr1  1  0.202444  0.980813  0.586319  1
  Pr  Pr2  1  0.981879  0.202485  0.086335  1
  Pr  Pr3  1  0.796843  0.018558  0.414408  1
  Pr  Pr4  1  0.358630  0.209633  0.814171  1
  Pr  Pr5  1  0.793872  0.640206  0.684441  1
  Pr  Pr6  1  0.640014  0.792082  0.185344  1
  Pr  Pr7  1  0.207975  0.358814  0.314646  1
  Pr  Pr8  1  0.573944  0.425376  0.749585  1
  Pr  Pr9  1  0.424895  0.574859  0.250955  1
  Os  Os10  1  0.177440  0.601138  0.575157  1
  Ru  Ru11  1  0.397801  0.824438  0.925101  1
  Ru  Ru12  1  0.824850  0.397595  0.424101  1
  Ru  Ru13  1  0.601364  0.176574  0.074734  1
