# generated using pymatgen
data_Y4ReTc5B12
_symmetry_space_group_name_H-M   'P 1'
_cell_length_a   6.20912901
_cell_length_b   6.21308606
_cell_length_c   7.51101194
_cell_angle_alpha   89.42626221
_cell_angle_beta   89.30183377
_cell_angle_gamma   113.72288573
_symmetry_Int_Tables_number   1
_chemical_formula_structural   Y4ReTc5B12
_chemical_formula_sum   'Y4 Re1 Tc5 B12'
_cell_volume   265.21976721
_cell_formula_units_Z   1
loop_
 _symmetry_equiv_pos_site_id
 _symmetry_equiv_pos_as_xyz
  1  'x, y, z'
loop_
 _atom_site_type_symbol
 _atom_site_label
 _atom_site_symmetry_multiplicity
 _atom_site_fract_x
 _atom_site_fract_y
 _atom_site_fract_z
 _atom_site_occupancy
  Y  Y0  1  0.899359  0.557931  0.322061  1
  Y  Y1  1  0.440574  0.099995  0.177360  1
  Y  Y2  1  0.100917  0.445022  0.677825  1
  Y  Y3  1  0.561318  0.900446  0.822256  1
  Re  Re4  1  0.193748  0.010184  0.589681  1
  Tc  Tc5  1  0.411767  0.588282  0.249566  1
  Tc  Tc6  1  0.588232  0.412081  0.749684  1
  Tc  Tc7  1  0.009547  0.194691  0.089115  1
  Tc  Tc8  1  0.805659  0.989873  0.410794  1
  Tc  Tc9  1  0.990021  0.804210  0.911795  1
  B  B10  1  0.753151  0.848507  0.129832  1
  B  B11  1  0.152032  0.246363  0.371417  1
  B  B12  1  0.244505  0.151308  0.868860  1
  B  B13  1  0.848588  0.750392  0.629316  1
  B  B14  1  0.415055  0.842066  0.482215  1
  B  B15  1  0.158544  0.584239  0.019075  1
  B  B16  1  0.585267  0.159011  0.518092  1
  B  B17  1  0.841166  0.414778  0.981644  1
  B  B18  1  0.557864  0.650169  0.534193  1
  B  B19  1  0.350370  0.442497  0.965481  1
  B  B20  1  0.442967  0.351050  0.465358  1
  B  B21  1  0.649349  0.556904  0.034378  1
