# generated using pymatgen
data_Rb4TaNb(AgTe4)2
_symmetry_space_group_name_H-M   'P 1'
_cell_length_a   15.23633777
_cell_length_b   13.62947110
_cell_length_c   8.18553295
_cell_angle_alpha   84.69771602
_cell_angle_beta   62.96253873
_cell_angle_gamma   32.33975594
_symmetry_Int_Tables_number   1
_chemical_formula_structural   Rb4TaNb(AgTe4)2
_chemical_formula_sum   'Rb4 Ta1 Nb1 Ag2 Te8'
_cell_volume   640.47041223
_cell_formula_units_Z   1
loop_
 _symmetry_equiv_pos_site_id
 _symmetry_equiv_pos_as_xyz
  1  'x, y, z'
loop_
 _atom_site_type_symbol
 _atom_site_label
 _atom_site_symmetry_multiplicity
 _atom_site_fract_x
 _atom_site_fract_y
 _atom_site_fract_z
 _atom_site_occupancy
  Rb  Rb0  1  0.430191  0.430191  0.069809  1
  Rb  Rb1  1  0.819843  0.819843  0.180157  1
  Rb  Rb2  1  0.069809  0.069809  0.430191  1
  Rb  Rb3  1  0.180157  0.180157  0.819843  1
  Ta  Ta4  1  0.250000  0.250000  0.250000  1
  Nb  Nb5  1  0.000000  0.000000  0.000000  1
  Ag  Ag6  1  0.500000  0.500000  0.500000  1
  Ag  Ag7  1  0.750000  0.750000  0.750000  1
  Te  Te8  1  0.726180  0.391418  0.065956  1
  Te  Te9  1  0.816444  0.065956  0.391418  1
  Te  Te10  1  0.065956  0.816444  0.726180  1
  Te  Te11  1  0.391418  0.726180  0.816444  1
  Te  Te12  1  0.522615  0.859953  0.184801  1
  Te  Te13  1  0.859953  0.522615  0.432633  1
  Te  Te14  1  0.184801  0.432633  0.522615  1
  Te  Te15  1  0.432633  0.184801  0.859953  1
