# generated using pymatgen
data_CsTiAg3S4
_symmetry_space_group_name_H-M   'P 1'
_cell_length_a   6.36907500
_cell_length_b   6.36907500
_cell_length_c   6.36907500
_cell_angle_alpha   90.00000000
_cell_angle_beta   90.00000000
_cell_angle_gamma   90.00000000
_symmetry_Int_Tables_number   1
_chemical_formula_structural   CsTiAg3S4
_chemical_formula_sum   'Cs1 Ti1 Ag3 S4'
_cell_volume   258.36226845
_cell_formula_units_Z   1
loop_
 _symmetry_equiv_pos_site_id
 _symmetry_equiv_pos_as_xyz
  1  'x, y, z'
loop_
 _atom_site_type_symbol
 _atom_site_label
 _atom_site_symmetry_multiplicity
 _atom_site_fract_x
 _atom_site_fract_y
 _atom_site_fract_z
 _atom_site_occupancy
  Cs  Cs0  1  0.500000  0.500000  0.500000  1
  Ti  Ti1  1  0.000000  0.000000  0.000000  1
  Ag  Ag2  1  0.000000  0.500000  0.000000  1
  Ag  Ag3  1  0.000000  0.000000  0.500000  1
  Ag  Ag4  1  0.500000  0.000000  0.000000  1
  S  S5  1  0.207324  0.207324  0.207324  1
  S  S6  1  0.792676  0.792676  0.207324  1
  S  S7  1  0.207324  0.792676  0.792676  1
  S  S8  1  0.792676  0.207324  0.792676  1
