# generated using pymatgen
data_NdYCo3P7Ru9
_symmetry_space_group_name_H-M   'P 1'
_cell_length_a   9.35841700
_cell_length_b   9.35841774
_cell_length_c   3.84400200
_cell_angle_alpha   90.00000000
_cell_angle_beta   90.00000000
_cell_angle_gamma   119.99999386
_symmetry_Int_Tables_number   1
_chemical_formula_structural   NdYCo3P7Ru9
_chemical_formula_sum   'Nd1 Y1 Co3 P7 Ru9'
_cell_volume   291.55405331
_cell_formula_units_Z   1
loop_
 _symmetry_equiv_pos_site_id
 _symmetry_equiv_pos_as_xyz
  1  'x, y, z'
loop_
 _atom_site_type_symbol
 _atom_site_label
 _atom_site_symmetry_multiplicity
 _atom_site_fract_x
 _atom_site_fract_y
 _atom_site_fract_z
 _atom_site_occupancy
  Nd  Nd0  1  0.000000  0.000000  0.000000  1
  Y  Y1  1  0.333333  0.666667  0.500000  1
  Co  Co2  1  0.823785  0.601188  0.000000  1
  Co  Co3  1  0.398812  0.222597  0.000000  1
  Co  Co4  1  0.777403  0.176215  0.000000  1
  P  P5  1  0.779022  0.731082  0.500000  1
  P  P6  1  0.268918  0.047941  0.500000  1
  P  P7  1  0.952059  0.220978  0.500000  1
  P  P8  1  0.666667  0.333333  0.000000  1
  P  P9  1  0.077721  0.635311  0.000000  1
  P  P10  1  0.364689  0.442409  0.000000  1
  P  P11  1  0.557591  0.922279  0.000000  1
  Ru  Ru12  1  0.091467  0.395628  0.000000  1
  Ru  Ru13  1  0.604372  0.695838  0.000000  1
  Ru  Ru14  1  0.304162  0.908533  0.000000  1
  Ru  Ru15  1  0.049417  0.765611  0.500000  1
  Ru  Ru16  1  0.234389  0.283804  0.500000  1
  Ru  Ru17  1  0.716196  0.950583  0.500000  1
  Ru  Ru18  1  0.871758  0.418639  0.500000  1
  Ru  Ru19  1  0.581361  0.453120  0.500000  1
  Ru  Ru20  1  0.546880  0.128242  0.500000  1
