# generated using pymatgen
data_Tb2DySc2Bi3
_symmetry_space_group_name_H-M   'P 1'
_cell_length_a   9.04077425
_cell_length_b   9.03709452
_cell_length_c   6.21273200
_cell_angle_alpha   90.00000000
_cell_angle_beta   90.00000000
_cell_angle_gamma   119.98653827
_symmetry_Int_Tables_number   1
_chemical_formula_structural   Tb2DySc2Bi3
_chemical_formula_sum   'Tb4 Dy2 Sc4 Bi6'
_cell_volume   439.64951324
_cell_formula_units_Z   2
loop_
 _symmetry_equiv_pos_site_id
 _symmetry_equiv_pos_as_xyz
  1  'x, y, z'
loop_
 _atom_site_type_symbol
 _atom_site_label
 _atom_site_symmetry_multiplicity
 _atom_site_fract_x
 _atom_site_fract_y
 _atom_site_fract_z
 _atom_site_occupancy
  Tb  Tb0  1  0.000000  0.243725  0.750000  1
  Tb  Tb1  1  0.244071  0.243935  0.250000  1
  Tb  Tb2  1  0.755929  0.999864  0.250000  1
  Tb  Tb3  1  0.000000  0.756190  0.250000  1
  Dy  Dy4  1  0.756105  0.756128  0.750000  1
  Dy  Dy5  1  0.243895  0.000023  0.750000  1
  Sc  Sc6  1  0.666697  0.333341  0.000059  1
  Sc  Sc7  1  0.333303  0.666645  0.000059  1
  Sc  Sc8  1  0.333303  0.666645  0.499941  1
  Sc  Sc9  1  0.666697  0.333341  0.499941  1
  Bi  Bi10  1  0.395298  0.394954  0.750000  1
  Bi  Bi11  1  0.604702  0.999656  0.750000  1
  Bi  Bi12  1  0.000000  0.605483  0.750000  1
  Bi  Bi13  1  0.605082  0.605078  0.250000  1
  Bi  Bi14  1  0.394918  0.999996  0.250000  1
  Bi  Bi15  1  0.000000  0.394996  0.250000  1
