# generated using pymatgen
data_Nd4TeI6
_symmetry_space_group_name_H-M   'P 1'
_cell_length_a   4.48629100
_cell_length_b   14.50829400
_cell_length_c   15.35537700
_cell_angle_alpha   90.00000000
_cell_angle_beta   90.00000000
_cell_angle_gamma   90.00000000
_symmetry_Int_Tables_number   1
_chemical_formula_structural   Nd4TeI6
_chemical_formula_sum   'Nd8 Te2 I12'
_cell_volume   999.45736252
_cell_formula_units_Z   2
loop_
 _symmetry_equiv_pos_site_id
 _symmetry_equiv_pos_as_xyz
  1  'x, y, z'
loop_
 _atom_site_type_symbol
 _atom_site_label
 _atom_site_symmetry_multiplicity
 _atom_site_fract_x
 _atom_site_fract_y
 _atom_site_fract_z
 _atom_site_occupancy
  Nd  Nd0  1  0.500000  0.119117  0.341050  1
  Nd  Nd1  1  0.500000  0.880883  0.658950  1
  Nd  Nd2  1  0.500000  0.619117  0.158950  1
  Nd  Nd3  1  0.500000  0.380883  0.841050  1
  Nd  Nd4  1  0.000000  0.116277  0.577625  1
  Nd  Nd5  1  0.000000  0.883723  0.422375  1
  Nd  Nd6  1  0.000000  0.616277  0.922375  1
  Nd  Nd7  1  0.000000  0.383723  0.077625  1
  Te  Te8  1  0.500000  0.000000  0.500000  1
  Te  Te9  1  0.500000  0.500000  0.000000  1
  I  I10  1  0.500000  0.244123  0.162499  1
  I  I11  1  0.500000  0.755877  0.837501  1
  I  I12  1  0.500000  0.744123  0.337501  1
  I  I13  1  0.500000  0.255877  0.662499  1
  I  I14  1  0.000000  0.257093  0.413910  1
  I  I15  1  0.000000  0.742907  0.586090  1
  I  I16  1  0.000000  0.757093  0.086090  1
  I  I17  1  0.000000  0.242907  0.913910  1
  I  I18  1  0.000000  0.999540  0.241852  1
  I  I19  1  0.000000  0.000460  0.758148  1
  I  I20  1  0.000000  0.499540  0.258148  1
  I  I21  1  0.000000  0.500460  0.741852  1
