# generated using pymatgen
data_Tb8Y12Si15Pd
_symmetry_space_group_name_H-M   'P 1'
_cell_length_a   7.68462535
_cell_length_b   7.72202034
_cell_length_c   14.18580934
_cell_angle_alpha   89.62734988
_cell_angle_beta   89.72985358
_cell_angle_gamma   90.51264162
_symmetry_Int_Tables_number   1
_chemical_formula_structural   Tb8Y12Si15Pd
_chemical_formula_sum   'Tb8 Y12 Si15 Pd1'
_cell_volume   841.73665859
_cell_formula_units_Z   1
loop_
 _symmetry_equiv_pos_site_id
 _symmetry_equiv_pos_as_xyz
  1  'x, y, z'
loop_
 _atom_site_type_symbol
 _atom_site_label
 _atom_site_symmetry_multiplicity
 _atom_site_fract_x
 _atom_site_fract_y
 _atom_site_fract_z
 _atom_site_occupancy
  Tb  Tb0  1  0.985427  0.365264  0.208922  1
  Tb  Tb1  1  0.008369  0.639832  0.708720  1
  Tb  Tb2  1  0.139118  0.501772  0.457490  1
  Tb  Tb3  1  0.508087  0.859317  0.041398  1
  Tb  Tb4  1  0.859765  0.505080  0.957381  1
  Tb  Tb5  1  0.496783  0.137406  0.545029  1
  Tb  Tb6  1  0.361979  0.993291  0.792336  1
  Tb  Tb7  1  0.643214  0.002441  0.290699  1
  Y  Y8  1  0.183443  0.184885  0.000990  1
  Y  Y9  1  0.821549  0.818790  0.500000  1
  Y  Y10  1  0.316592  0.683629  0.250188  1
  Y  Y11  1  0.684252  0.318729  0.749831  1
  Y  Y12  1  0.145710  0.013315  0.374965  1
  Y  Y13  1  0.860727  0.991086  0.876297  1
  Y  Y14  1  0.490648  0.639634  0.627033  1
  Y  Y15  1  0.364243  0.508667  0.873932  1
  Y  Y16  1  0.506188  0.358047  0.125908  1
  Y  Y17  1  0.629973  0.488584  0.378066  1
  Y  Y18  1  0.010361  0.140792  0.622843  1
  Y  Y19  1  0.989092  0.858635  0.123137  1
  Si  Si20  1  0.656643  0.702982  0.812238  1
  Si  Si21  1  0.205748  0.848729  0.564651  1
  Si  Si22  1  0.152091  0.792380  0.936280  1
  Si  Si23  1  0.796565  0.152826  0.063476  1
  Si  Si24  1  0.846123  0.203661  0.434625  1
  Si  Si25  1  0.297290  0.344823  0.688903  1
  Si  Si26  1  0.699577  0.654129  0.188711  1
  Si  Si27  1  0.298825  0.050955  0.185100  1
  Si  Si28  1  0.706798  0.939455  0.688921  1
  Si  Si29  1  0.439420  0.796319  0.440770  1
  Si  Si30  1  0.205347  0.564854  0.059393  1
  Si  Si31  1  0.562117  0.203713  0.938625  1
  Si  Si32  1  0.795350  0.438628  0.561950  1
  Si  Si33  1  0.063044  0.291736  0.810623  1
  Si  Si34  1  0.932895  0.705847  0.312045  1
  Pd  Pd35  1  0.336645  0.299769  0.308523  1
