# generated using pymatgen
data_Th4BeNiB20
_symmetry_space_group_name_H-M   'P 1'
_cell_length_a   4.17411500
_cell_length_b   5.63502435
_cell_length_c   11.14424469
_cell_angle_alpha   89.80223258
_cell_angle_beta   90.00000000
_cell_angle_gamma   90.00000000
_symmetry_Int_Tables_number   1
_chemical_formula_structural   Th4BeNiB20
_chemical_formula_sum   'Th4 Be1 Ni1 B20'
_cell_volume   262.12488850
_cell_formula_units_Z   1
loop_
 _symmetry_equiv_pos_site_id
 _symmetry_equiv_pos_as_xyz
  1  'x, y, z'
loop_
 _atom_site_type_symbol
 _atom_site_label
 _atom_site_symmetry_multiplicity
 _atom_site_fract_x
 _atom_site_fract_y
 _atom_site_fract_z
 _atom_site_occupancy
  Th  Th0  1  0.500000  0.305509  0.862613  1
  Th  Th1  1  0.500000  0.694491  0.137387  1
  Th  Th2  1  0.500000  0.800863  0.633880  1
  Th  Th3  1  0.500000  0.199137  0.366120  1
  Be  Be4  1  0.000000  0.500000  0.500000  1
  Ni  Ni5  1  0.000000  0.000000  0.000000  1
  B  B6  1  0.000000  0.128117  0.538693  1
  B  B7  1  0.000000  0.871883  0.461307  1
  B  B8  1  0.000000  0.624680  0.959295  1
  B  B9  1  0.000000  0.375320  0.040705  1
  B  B10  1  0.000000  0.156445  0.695737  1
  B  B11  1  0.000000  0.843555  0.304263  1
  B  B12  1  0.300308  0.201841  0.114299  1
  B  B13  1  0.300308  0.798159  0.885701  1
  B  B14  1  0.699574  0.700073  0.389050  1
  B  B15  1  0.699574  0.299927  0.610950  1
  B  B16  1  0.699692  0.798159  0.885701  1
  B  B17  1  0.699692  0.201841  0.114299  1
  B  B18  1  0.300426  0.299927  0.610950  1
  B  B19  1  0.300426  0.700073  0.389050  1
  B  B20  1  0.000000  0.035173  0.189908  1
  B  B21  1  0.000000  0.964827  0.810092  1
  B  B22  1  0.000000  0.533154  0.314719  1
  B  B23  1  0.000000  0.466846  0.685281  1
  B  B24  1  0.000000  0.345984  0.198651  1
  B  B25  1  0.000000  0.654016  0.801349  1
