# generated using pymatgen
data_Pr4Dy2CoCl10
_symmetry_space_group_name_H-M   'P 1'
_cell_length_a   7.30094501
_cell_length_b   9.05475204
_cell_length_c   9.12356729
_cell_angle_alpha   108.83746468
_cell_angle_beta   107.24562883
_cell_angle_gamma   95.87901080
_symmetry_Int_Tables_number   1
_chemical_formula_structural   Pr4Dy2CoCl10
_chemical_formula_sum   'Pr4 Dy2 Co1 Cl10'
_cell_volume   531.91279556
_cell_formula_units_Z   1
loop_
 _symmetry_equiv_pos_site_id
 _symmetry_equiv_pos_as_xyz
  1  'x, y, z'
loop_
 _atom_site_type_symbol
 _atom_site_label
 _atom_site_symmetry_multiplicity
 _atom_site_fract_x
 _atom_site_fract_y
 _atom_site_fract_z
 _atom_site_occupancy
  Pr  Pr0  1  0.134233  0.758342  0.054208  1
  Pr  Pr1  1  0.625732  0.806716  0.849120  1
  Pr  Pr2  1  0.869005  0.242356  0.951441  1
  Pr  Pr3  1  0.979680  0.107232  0.315130  1
  Dy  Dy4  1  0.363780  0.181970  0.135880  1
  Dy  Dy5  1  0.028468  0.902437  0.699284  1
  Co  Co6  1  0.999418  0.998766  0.001354  1
  Cl  Cl7  1  0.439485  0.079397  0.828373  1
  Cl  Cl8  1  0.753743  0.547603  0.921984  1
  Cl  Cl9  1  0.255066  0.443731  0.083051  1
  Cl  Cl10  1  0.918367  0.161366  0.637413  1
  Cl  Cl11  1  0.662529  0.733525  0.540207  1
  Cl  Cl12  1  0.547850  0.927728  0.171526  1
  Cl  Cl13  1  0.089470  0.835043  0.379935  1
  Cl  Cl14  1  0.770723  0.341747  0.249363  1
  Cl  Cl15  1  0.191826  0.654703  0.737156  1
  Cl  Cl16  1  0.370624  0.277337  0.444572  1
