# generated using pymatgen
data_Na16HfTiBi8
_symmetry_space_group_name_H-M   'P 1'
_cell_length_a   10.66298758
_cell_length_b   10.66298876
_cell_length_c   10.66298800
_cell_angle_alpha   60.00000237
_cell_angle_beta   59.99999869
_cell_angle_gamma   59.99999922
_symmetry_Int_Tables_number   1
_chemical_formula_structural   Na16HfTiBi8
_chemical_formula_sum   'Na16 Hf1 Ti1 Bi8'
_cell_volume   857.27819647
_cell_formula_units_Z   1
loop_
 _symmetry_equiv_pos_site_id
 _symmetry_equiv_pos_as_xyz
  1  'x, y, z'
loop_
 _atom_site_type_symbol
 _atom_site_label
 _atom_site_symmetry_multiplicity
 _atom_site_fract_x
 _atom_site_fract_y
 _atom_site_fract_z
 _atom_site_occupancy
  Na  Na0  1  0.626822  0.119534  0.626822  1
  Na  Na1  1  0.626822  0.626822  0.119534  1
  Na  Na2  1  0.119534  0.626822  0.626822  1
  Na  Na3  1  0.626822  0.626822  0.626822  1
  Na  Na4  1  0.024160  0.024160  0.475840  1
  Na  Na5  1  0.770932  0.229068  0.229068  1
  Na  Na6  1  0.229068  0.770932  0.770932  1
  Na  Na7  1  0.770932  0.770932  0.229068  1
  Na  Na8  1  0.770932  0.229068  0.770932  1
  Na  Na9  1  0.229068  0.770932  0.229068  1
  Na  Na10  1  0.475840  0.024160  0.475840  1
  Na  Na11  1  0.475840  0.024160  0.024160  1
  Na  Na12  1  0.024160  0.475840  0.475840  1
  Na  Na13  1  0.024160  0.475840  0.024160  1
  Na  Na14  1  0.229068  0.229068  0.770932  1
  Na  Na15  1  0.475840  0.475840  0.024160  1
  Hf  Hf16  1  0.500000  0.500000  0.500000  1
  Ti  Ti17  1  0.750000  0.750000  0.750000  1
  Bi  Bi18  1  0.428167  0.857278  0.857278  1
  Bi  Bi19  1  0.857278  0.857278  0.857278  1
  Bi  Bi20  1  0.831306  0.389565  0.389565  1
  Bi  Bi21  1  0.389565  0.389565  0.389565  1
  Bi  Bi22  1  0.389565  0.389565  0.831306  1
  Bi  Bi23  1  0.857278  0.428167  0.857278  1
  Bi  Bi24  1  0.857278  0.857278  0.428167  1
  Bi  Bi25  1  0.389565  0.831306  0.389565  1
