# generated using pymatgen
data_BaGe6(As3Pt2)2
_symmetry_space_group_name_H-M   'P 1'
_cell_length_a   7.58715675
_cell_length_b   7.59717482
_cell_length_c   7.58715646
_cell_angle_alpha   109.42824770
_cell_angle_beta   109.51103042
_cell_angle_gamma   109.42103664
_symmetry_Int_Tables_number   1
_chemical_formula_structural   BaGe6(As3Pt2)2
_chemical_formula_sum   'Ba1 Ge6 As6 Pt4'
_cell_volume   336.87879701
_cell_formula_units_Z   1
loop_
 _symmetry_equiv_pos_site_id
 _symmetry_equiv_pos_as_xyz
  1  'x, y, z'
loop_
 _atom_site_type_symbol
 _atom_site_label
 _atom_site_symmetry_multiplicity
 _atom_site_fract_x
 _atom_site_fract_y
 _atom_site_fract_z
 _atom_site_occupancy
  Ba  Ba0  1  0.000690  0.997681  0.996990  1
  Ge  Ge1  1  0.146073  0.349273  0.500358  1
  Ge  Ge2  1  0.509001  0.155450  0.358408  1
  Ge  Ge3  1  0.848916  0.349273  0.203200  1
  Ge  Ge4  1  0.642169  0.490206  0.848038  1
  Ge  Ge5  1  0.356856  0.207906  0.851050  1
  Ge  Ge6  1  0.797042  0.155450  0.646450  1
  As  As7  1  0.851121  0.641327  0.497276  1
  As  As8  1  0.352426  0.497737  0.145311  1
  As  As9  1  0.210121  0.858282  0.356721  1
  As  As10  1  0.144050  0.641327  0.790205  1
  As  As11  1  0.646292  0.793081  0.146789  1
  As  As12  1  0.501560  0.858282  0.648161  1
  Pt  Pt13  1  0.000553  0.999303  0.506040  1
  Pt  Pt14  1  0.499432  0.503060  0.502624  1
  Pt  Pt15  1  0.000436  0.503060  0.003628  1
  Pt  Pt16  1  0.493264  0.999303  0.998750  1
