# generated using pymatgen
data_SrSc2CuIr8
_symmetry_space_group_name_H-M   'P 1'
_cell_length_a   8.85672700
_cell_length_b   8.85672700
_cell_length_c   5.17434200
_cell_angle_alpha   90.00000000
_cell_angle_beta   90.00000000
_cell_angle_gamma   90.00000000
_symmetry_Int_Tables_number   1
_chemical_formula_structural   SrSc2CuIr8
_chemical_formula_sum   'Sr2 Sc4 Cu2 Ir16'
_cell_volume   405.88373348
_cell_formula_units_Z   2
loop_
 _symmetry_equiv_pos_site_id
 _symmetry_equiv_pos_as_xyz
  1  'x, y, z'
loop_
 _atom_site_type_symbol
 _atom_site_label
 _atom_site_symmetry_multiplicity
 _atom_site_fract_x
 _atom_site_fract_y
 _atom_site_fract_z
 _atom_site_occupancy
  Sr  Sr0  1  0.000000  0.000000  0.000000  1
  Sr  Sr1  1  0.500000  0.500000  0.000000  1
  Sc  Sc2  1  0.124652  0.624652  0.000000  1
  Sc  Sc3  1  0.875348  0.375348  0.000000  1
  Sc  Sc4  1  0.624652  0.875348  0.000000  1
  Sc  Sc5  1  0.375348  0.124652  0.000000  1
  Cu  Cu6  1  0.500000  0.000000  0.500000  1
  Cu  Cu7  1  0.000000  0.500000  0.500000  1
  Ir  Ir8  1  0.208819  0.062308  0.500000  1
  Ir  Ir9  1  0.791181  0.937692  0.500000  1
  Ir  Ir10  1  0.062308  0.791181  0.500000  1
  Ir  Ir11  1  0.708819  0.437692  0.500000  1
  Ir  Ir12  1  0.937692  0.208819  0.500000  1
  Ir  Ir13  1  0.291181  0.562308  0.500000  1
  Ir  Ir14  1  0.562308  0.708819  0.500000  1
  Ir  Ir15  1  0.437692  0.291181  0.500000  1
  Ir  Ir16  1  0.677107  0.177107  0.239798  1
  Ir  Ir17  1  0.322893  0.822893  0.760202  1
  Ir  Ir18  1  0.322893  0.822893  0.239798  1
  Ir  Ir19  1  0.177107  0.322893  0.239798  1
  Ir  Ir20  1  0.177107  0.322893  0.760202  1
  Ir  Ir21  1  0.677107  0.177107  0.760202  1
  Ir  Ir22  1  0.822893  0.677107  0.760202  1
  Ir  Ir23  1  0.822893  0.677107  0.239798  1
