# generated using pymatgen
data_HoEr3(HfRh)4
_symmetry_space_group_name_H-M   'P 1'
_cell_length_a   4.59277000
_cell_length_b   6.98340451
_cell_length_c   8.23113640
_cell_angle_alpha   89.97601001
_cell_angle_beta   90.00000000
_cell_angle_gamma   90.00000000
_symmetry_Int_Tables_number   1
_chemical_formula_structural   HoEr3(HfRh)4
_chemical_formula_sum   'Ho1 Er3 Hf4 Rh4'
_cell_volume   263.99862017
_cell_formula_units_Z   1
loop_
 _symmetry_equiv_pos_site_id
 _symmetry_equiv_pos_as_xyz
  1  'x, y, z'
loop_
 _atom_site_type_symbol
 _atom_site_label
 _atom_site_symmetry_multiplicity
 _atom_site_fract_x
 _atom_site_fract_y
 _atom_site_fract_z
 _atom_site_occupancy
  Ho  Ho0  1  0.250000  0.982100  0.322725  1
  Er  Er1  1  0.250000  0.481517  0.177059  1
  Er  Er2  1  0.750000  0.018427  0.677467  1
  Er  Er3  1  0.750000  0.518395  0.822819  1
  Hf  Hf4  1  0.250000  0.358924  0.573013  1
  Hf  Hf5  1  0.250000  0.858576  0.927074  1
  Hf  Hf6  1  0.750000  0.640926  0.427395  1
  Hf  Hf7  1  0.750000  0.141228  0.072032  1
  Rh  Rh8  1  0.250000  0.231076  0.907338  1
  Rh  Rh9  1  0.250000  0.730895  0.593094  1
  Rh  Rh10  1  0.750000  0.768680  0.092275  1
  Rh  Rh11  1  0.750000  0.269254  0.407709  1
