# generated using pymatgen
data_EuCrRe(Sb6Pt)2
_symmetry_space_group_name_H-M   'P 1'
_cell_length_a   8.23959904
_cell_length_b   8.20418233
_cell_length_c   8.19995201
_cell_angle_alpha   109.07387410
_cell_angle_beta   109.56490405
_cell_angle_gamma   109.39097732
_symmetry_Int_Tables_number   1
_chemical_formula_structural   EuCrRe(Sb6Pt)2
_chemical_formula_sum   'Eu1 Cr1 Re1 Sb12 Pt2'
_cell_volume   428.71172894
_cell_formula_units_Z   1
loop_
 _symmetry_equiv_pos_site_id
 _symmetry_equiv_pos_as_xyz
  1  'x, y, z'
loop_
 _atom_site_type_symbol
 _atom_site_label
 _atom_site_symmetry_multiplicity
 _atom_site_fract_x
 _atom_site_fract_y
 _atom_site_fract_z
 _atom_site_occupancy
  Eu  Eu0  1  0.000000  0.000000  0.000000  1
  Cr  Cr1  1  0.000000  0.500000  0.000000  1
  Re  Re2  1  0.000000  0.000000  0.500000  1
  Sb  Sb3  1  0.662542  0.849846  0.502908  1
  Sb  Sb4  1  0.337458  0.150154  0.497092  1
  Sb  Sb5  1  0.848394  0.187830  0.345224  1
  Sb  Sb6  1  0.826964  0.665377  0.159634  1
  Sb  Sb7  1  0.848267  0.504636  0.665472  1
  Sb  Sb8  1  0.173036  0.334623  0.840366  1
  Sb  Sb9  1  0.151606  0.812170  0.654776  1
  Sb  Sb10  1  0.502506  0.653975  0.848366  1
  Sb  Sb11  1  0.497494  0.346025  0.151634  1
  Sb  Sb12  1  0.151733  0.495364  0.334528  1
  Sb  Sb13  1  0.333843  0.837164  0.182398  1
  Sb  Sb14  1  0.666157  0.162836  0.817602  1
  Pt  Pt15  1  0.500000  0.500000  0.500000  1
  Pt  Pt16  1  0.500000  0.000000  0.000000  1
