# generated using pymatgen
data_Ba2Al5Ag2Au3
_symmetry_space_group_name_H-M   'P 1'
_cell_length_a   6.98292657
_cell_length_b   7.00128977
_cell_length_c   5.65994200
_cell_angle_alpha   90.00000000
_cell_angle_beta   90.00000000
_cell_angle_gamma   105.14501504
_symmetry_Int_Tables_number   1
_chemical_formula_structural   Ba2Al5Ag2Au3
_chemical_formula_sum   'Ba2 Al5 Ag2 Au3'
_cell_volume   267.10084766
_cell_formula_units_Z   1
loop_
 _symmetry_equiv_pos_site_id
 _symmetry_equiv_pos_as_xyz
  1  'x, y, z'
loop_
 _atom_site_type_symbol
 _atom_site_label
 _atom_site_symmetry_multiplicity
 _atom_site_fract_x
 _atom_site_fract_y
 _atom_site_fract_z
 _atom_site_occupancy
  Ba  Ba0  1  0.843164  0.843364  0.000000  1
  Ba  Ba1  1  0.179466  0.173592  0.500000  1
  Al  Al2  1  0.292447  0.701697  0.252133  1
  Al  Al3  1  0.292447  0.701697  0.747867  1
  Al  Al4  1  0.692369  0.285842  0.250221  1
  Al  Al5  1  0.692369  0.285842  0.749779  1
  Al  Al6  1  0.590465  0.586449  0.500000  1
  Ag  Ag7  1  0.018085  0.412674  0.000000  1
  Ag  Ag8  1  0.438515  0.443604  0.000000  1
  Au  Au9  1  0.400497  0.019205  0.000000  1
  Au  Au10  1  0.967486  0.583118  0.500000  1
  Au  Au11  1  0.592690  0.962914  0.500000  1
