# generated using pymatgen
data_Ho2AlZnPtRh
_symmetry_space_group_name_H-M   'P 1'
_cell_length_a   4.16007400
_cell_length_b   6.90963264
_cell_length_c   8.07548796
_cell_angle_alpha   90.94424834
_cell_angle_beta   90.00000000
_cell_angle_gamma   90.00000000
_symmetry_Int_Tables_number   1
_chemical_formula_structural   Ho2AlZnPtRh
_chemical_formula_sum   'Ho4 Al2 Zn2 Pt2 Rh2'
_cell_volume   232.09501271
_cell_formula_units_Z   2
loop_
 _symmetry_equiv_pos_site_id
 _symmetry_equiv_pos_as_xyz
  1  'x, y, z'
loop_
 _atom_site_type_symbol
 _atom_site_label
 _atom_site_symmetry_multiplicity
 _atom_site_fract_x
 _atom_site_fract_y
 _atom_site_fract_z
 _atom_site_occupancy
  Ho  Ho0  1  0.250000  0.538194  0.182012  1
  Ho  Ho1  1  0.750000  0.461806  0.817988  1
  Ho  Ho2  1  0.250000  0.043289  0.318377  1
  Ho  Ho3  1  0.750000  0.956711  0.681623  1
  Al  Al4  1  0.250000  0.134174  0.940914  1
  Al  Al5  1  0.750000  0.865826  0.059086  1
  Zn  Zn6  1  0.250000  0.638110  0.566120  1
  Zn  Zn7  1  0.750000  0.361890  0.433880  1
  Pt  Pt8  1  0.750000  0.745961  0.368510  1
  Pt  Pt9  1  0.250000  0.254039  0.631490  1
  Rh  Rh10  1  0.750000  0.237798  0.110195  1
  Rh  Rh11  1  0.250000  0.762202  0.889805  1
