# generated using pymatgen
data_Tc3Te4Br
_symmetry_space_group_name_H-M   'P 1'
_cell_length_a   12.55109800
_cell_length_b   7.04548084
_cell_length_c   11.93180728
_cell_angle_alpha   66.88960183
_cell_angle_beta   90.00000000
_cell_angle_gamma   90.00000000
_symmetry_Int_Tables_number   1
_chemical_formula_structural   Tc3Te4Br
_chemical_formula_sum   'Tc12 Te16 Br4'
_cell_volume   970.43961759
_cell_formula_units_Z   4
loop_
 _symmetry_equiv_pos_site_id
 _symmetry_equiv_pos_as_xyz
  1  'x, y, z'
loop_
 _atom_site_type_symbol
 _atom_site_label
 _atom_site_symmetry_multiplicity
 _atom_site_fract_x
 _atom_site_fract_y
 _atom_site_fract_z
 _atom_site_occupancy
  Tc  Tc0  1  0.575529  0.020072  0.356212  1
  Tc  Tc1  1  0.924471  0.020072  0.856212  1
  Tc  Tc2  1  0.424471  0.979928  0.643788  1
  Tc  Tc3  1  0.075529  0.979928  0.143788  1
  Tc  Tc4  1  0.366474  0.975223  0.428276  1
  Tc  Tc5  1  0.133526  0.975223  0.928276  1
  Tc  Tc6  1  0.633526  0.024777  0.571724  1
  Tc  Tc7  1  0.866474  0.024777  0.071724  1
  Tc  Tc8  1  0.515003  0.710309  0.561937  1
  Tc  Tc9  1  0.984997  0.710309  0.061937  1
  Tc  Tc10  1  0.484997  0.289691  0.438063  1
  Tc  Tc11  1  0.015003  0.289691  0.938063  1
  Te  Te12  1  0.454090  0.720391  0.333481  1
  Te  Te13  1  0.045910  0.720391  0.833481  1
  Te  Te14  1  0.545910  0.279609  0.666519  1
  Te  Te15  1  0.954090  0.279609  0.166519  1
  Te  Te16  1  0.311335  0.661762  0.637581  1
  Te  Te17  1  0.188665  0.661762  0.137581  1
  Te  Te18  1  0.688665  0.338238  0.362419  1
  Te  Te19  1  0.811335  0.338238  0.862419  1
  Te  Te20  1  0.426872  0.286383  0.220587  1
  Te  Te21  1  0.073128  0.286383  0.720587  1
  Te  Te22  1  0.573128  0.713617  0.779413  1
  Te  Te23  1  0.926872  0.713617  0.279413  1
  Te  Te24  1  0.720621  0.750004  0.495046  1
  Te  Te25  1  0.779379  0.750004  0.995046  1
  Te  Te26  1  0.279379  0.249996  0.504954  1
  Te  Te27  1  0.220621  0.249996  0.004954  1
  Br  Br28  1  0.166852  0.926623  0.358032  1
  Br  Br29  1  0.333148  0.926623  0.858032  1
  Br  Br30  1  0.833148  0.073377  0.641968  1
  Br  Br31  1  0.666852  0.073377  0.141968  1
