# generated using pymatgen
data_Ho2Ga10Tc2Ru
_symmetry_space_group_name_H-M   'P 1'
_cell_length_a   9.04304600
_cell_length_b   9.04304600
_cell_length_c   6.34240900
_cell_angle_alpha   90.00000000
_cell_angle_beta   90.00000000
_cell_angle_gamma   90.00000000
_symmetry_Int_Tables_number   1
_chemical_formula_structural   Ho2Ga10Tc2Ru
_chemical_formula_sum   'Ho4 Ga20 Tc4 Ru2'
_cell_volume   518.66115730
_cell_formula_units_Z   2
loop_
 _symmetry_equiv_pos_site_id
 _symmetry_equiv_pos_as_xyz
  1  'x, y, z'
loop_
 _atom_site_type_symbol
 _atom_site_label
 _atom_site_symmetry_multiplicity
 _atom_site_fract_x
 _atom_site_fract_y
 _atom_site_fract_z
 _atom_site_occupancy
  Ho  Ho0  1  0.183019  0.683019  0.000000  1
  Ho  Ho1  1  0.816981  0.316981  0.000000  1
  Ho  Ho2  1  0.683019  0.816981  0.000000  1
  Ho  Ho3  1  0.316981  0.183019  0.000000  1
  Ga  Ga4  1  0.060085  0.205259  0.707880  1
  Ga  Ga5  1  0.939915  0.794741  0.707880  1
  Ga  Ga6  1  0.560085  0.294741  0.707880  1
  Ga  Ga7  1  0.439915  0.705259  0.707880  1
  Ga  Ga8  1  0.794741  0.060085  0.707880  1
  Ga  Ga9  1  0.205259  0.939915  0.707880  1
  Ga  Ga10  1  0.705259  0.560085  0.707880  1
  Ga  Ga11  1  0.294741  0.439915  0.707880  1
  Ga  Ga12  1  0.939915  0.794741  0.292120  1
  Ga  Ga13  1  0.060085  0.205259  0.292120  1
  Ga  Ga14  1  0.439915  0.705259  0.292120  1
  Ga  Ga15  1  0.560085  0.294741  0.292120  1
  Ga  Ga16  1  0.205259  0.939915  0.292120  1
  Ga  Ga17  1  0.794741  0.060085  0.292120  1
  Ga  Ga18  1  0.294741  0.439915  0.292120  1
  Ga  Ga19  1  0.705259  0.560085  0.292120  1
  Ga  Ga20  1  0.000000  0.500000  0.711487  1
  Ga  Ga21  1  0.500000  0.000000  0.711487  1
  Ga  Ga22  1  0.000000  0.500000  0.288513  1
  Ga  Ga23  1  0.500000  0.000000  0.288513  1
  Tc  Tc24  1  0.179229  0.679229  0.500000  1
  Tc  Tc25  1  0.820771  0.320771  0.500000  1
  Tc  Tc26  1  0.679229  0.820771  0.500000  1
  Tc  Tc27  1  0.320771  0.179229  0.500000  1
  Ru  Ru28  1  0.000000  0.000000  0.000000  1
  Ru  Ru29  1  0.500000  0.500000  0.000000  1
