# generated using pymatgen
data_Sr4YNp2ScO12
_symmetry_space_group_name_H-M   'P 1'
_cell_length_a   6.02206418
_cell_length_b   5.90658734
_cell_length_c   10.31885031
_cell_angle_alpha   55.20552519
_cell_angle_beta   90.15228951
_cell_angle_gamma   89.93500878
_symmetry_Int_Tables_number   1
_chemical_formula_structural   Sr4YNp2ScO12
_chemical_formula_sum   'Sr4 Y1 Np2 Sc1 O12'
_cell_volume   301.41211793
_cell_formula_units_Z   1
loop_
 _symmetry_equiv_pos_site_id
 _symmetry_equiv_pos_as_xyz
  1  'x, y, z'
loop_
 _atom_site_type_symbol
 _atom_site_label
 _atom_site_symmetry_multiplicity
 _atom_site_fract_x
 _atom_site_fract_y
 _atom_site_fract_z
 _atom_site_occupancy
  Sr  Sr0  1  0.461536  0.268977  0.739917  1
  Sr  Sr1  1  0.954339  0.748389  0.741798  1
  Sr  Sr2  1  0.045661  0.251611  0.258202  1
  Sr  Sr3  1  0.538464  0.731023  0.260083  1
  Y  Y4  1  0.000000  0.000000  0.000000  1
  Np  Np5  1  0.000000  0.500000  0.500000  1
  Np  Np6  1  0.500000  0.500000  0.000000  1
  Sc  Sc7  1  0.500000  0.000000  0.500000  1
  O  O8  1  0.210962  0.741720  0.542062  1
  O  O9  1  0.693128  0.263243  0.948879  1
  O  O10  1  0.789038  0.258280  0.457938  1
  O  O11  1  0.306872  0.736757  0.051121  1
  O  O12  1  0.710773  0.670235  0.545670  1
  O  O13  1  0.208940  0.359839  0.946514  1
  O  O14  1  0.289227  0.329765  0.454330  1
  O  O15  1  0.791060  0.640161  0.053486  1
  O  O16  1  0.031736  0.164866  0.742704  1
  O  O17  1  0.529992  0.841449  0.746712  1
  O  O18  1  0.968264  0.835134  0.257296  1
  O  O19  1  0.470008  0.158551  0.253288  1
