# generated using pymatgen
data_ErLu3Ta5TiSi8
_symmetry_space_group_name_H-M   'P 1'
_cell_length_a   6.99924912
_cell_length_b   6.99382246
_cell_length_c   12.85206900
_cell_angle_alpha   90.00000000
_cell_angle_beta   90.00000000
_cell_angle_gamma   89.96867246
_symmetry_Int_Tables_number   1
_chemical_formula_structural   ErLu3Ta5TiSi8
_chemical_formula_sum   'Er2 Lu6 Ta10 Ti2 Si16'
_cell_volume   629.12803476
_cell_formula_units_Z   2
loop_
 _symmetry_equiv_pos_site_id
 _symmetry_equiv_pos_as_xyz
  1  'x, y, z'
loop_
 _atom_site_type_symbol
 _atom_site_label
 _atom_site_symmetry_multiplicity
 _atom_site_fract_x
 _atom_site_fract_y
 _atom_site_fract_z
 _atom_site_occupancy
  Er  Er0  1  0.002655  0.340818  0.531776  1
  Er  Er1  1  0.997346  0.659182  0.031776  1
  Lu  Lu2  1  0.342427  0.001663  0.467867  1
  Lu  Lu3  1  0.498831  0.842181  0.718277  1
  Lu  Lu4  1  0.501169  0.157819  0.218277  1
  Lu  Lu5  1  0.842029  0.499195  0.282055  1
  Lu  Lu6  1  0.157971  0.500805  0.782055  1
  Lu  Lu7  1  0.657573  0.998338  0.967867  1
  Ta  Ta8  1  0.329143  0.328961  0.999719  1
  Ta  Ta9  1  0.172968  0.826894  0.250102  1
  Ta  Ta10  1  0.827032  0.173106  0.750102  1
  Ta  Ta11  1  0.670857  0.671039  0.499719  1
  Ta  Ta12  1  0.152312  0.006394  0.873405  1
  Ta  Ta13  1  0.493594  0.651578  0.123952  1
  Ta  Ta14  1  0.506406  0.348422  0.623952  1
  Ta  Ta15  1  0.651172  0.491919  0.876130  1
  Ta  Ta16  1  0.348828  0.508081  0.376130  1
  Ta  Ta17  1  0.847688  0.993606  0.373405  1
  Ti  Ti18  1  0.007410  0.152696  0.126386  1
  Ti  Ti19  1  0.992590  0.847304  0.626386  1
  Si  Si20  1  0.203441  0.132387  0.680576  1
  Si  Si21  1  0.365113  0.705529  0.930117  1
  Si  Si22  1  0.634887  0.294471  0.430117  1
  Si  Si23  1  0.705321  0.362105  0.070245  1
  Si  Si24  1  0.294679  0.637895  0.570245  1
  Si  Si25  1  0.796559  0.867613  0.180576  1
  Si  Si26  1  0.136083  0.203282  0.318750  1
  Si  Si27  1  0.863917  0.796718  0.818750  1
  Si  Si28  1  0.294525  0.955718  0.064608  1
  Si  Si29  1  0.546278  0.796511  0.313651  1
  Si  Si30  1  0.453722  0.203489  0.813651  1
  Si  Si31  1  0.797323  0.547927  0.685620  1
  Si  Si32  1  0.202677  0.452073  0.185620  1
  Si  Si33  1  0.705475  0.044282  0.564608  1
  Si  Si34  1  0.954364  0.294638  0.936763  1
  Si  Si35  1  0.045636  0.705362  0.436763  1
