# generated using pymatgen
data_Dy4BC2I3
_symmetry_space_group_name_H-M   'P 1'
_cell_length_a   11.08246989
_cell_length_b   3.74472100
_cell_length_c   12.47756356
_cell_angle_alpha   90.00000000
_cell_angle_beta   102.93115118
_cell_angle_gamma   90.00000000
_symmetry_Int_Tables_number   1
_chemical_formula_structural   Dy4BC2I3
_chemical_formula_sum   'Dy8 B2 C4 I6'
_cell_volume   504.69604538
_cell_formula_units_Z   2
loop_
 _symmetry_equiv_pos_site_id
 _symmetry_equiv_pos_as_xyz
  1  'x, y, z'
loop_
 _atom_site_type_symbol
 _atom_site_label
 _atom_site_symmetry_multiplicity
 _atom_site_fract_x
 _atom_site_fract_y
 _atom_site_fract_z
 _atom_site_occupancy
  Dy  Dy0  1  0.705920  0.250000  0.990150  1
  Dy  Dy1  1  0.549733  0.750000  0.196483  1
  Dy  Dy2  1  0.325183  0.250000  0.276764  1
  Dy  Dy3  1  0.607697  0.250000  0.458588  1
  Dy  Dy4  1  0.392302  0.750000  0.541412  1
  Dy  Dy5  1  0.674817  0.750000  0.723236  1
  Dy  Dy6  1  0.450267  0.250000  0.803517  1
  Dy  Dy7  1  0.294080  0.750000  0.009850  1
  B  B8  1  0.476415  0.250000  0.024978  1
  B  B9  1  0.523584  0.750000  0.975022  1
  C  C10  1  0.402987  0.250000  0.117540  1
  C  C11  1  0.466158  0.750000  0.369636  1
  C  C12  1  0.533841  0.250000  0.630365  1
  C  C13  1  0.597014  0.750000  0.882460  1
  I  I14  1  0.101624  0.750000  0.150256  1
  I  I15  1  0.784162  0.250000  0.249821  1
  I  I16  1  0.163946  0.250000  0.455892  1
  I  I17  1  0.836055  0.750000  0.544108  1
  I  I18  1  0.215838  0.750000  0.750178  1
  I  I19  1  0.898376  0.250000  0.849744  1
