# generated using pymatgen
data_Th4Pt11Rh
_symmetry_space_group_name_H-M   'P 1'
_cell_length_a   5.99130120
_cell_length_b   5.96876149
_cell_length_c   9.78243929
_cell_angle_alpha   90.00000230
_cell_angle_beta   89.28671738
_cell_angle_gamma   119.87563008
_symmetry_Int_Tables_number   1
_chemical_formula_structural   Th4Pt11Rh
_chemical_formula_sum   'Th4 Pt11 Rh1'
_cell_volume   303.30622189
_cell_formula_units_Z   1
loop_
 _symmetry_equiv_pos_site_id
 _symmetry_equiv_pos_as_xyz
  1  'x, y, z'
loop_
 _atom_site_type_symbol
 _atom_site_label
 _atom_site_symmetry_multiplicity
 _atom_site_fract_x
 _atom_site_fract_y
 _atom_site_fract_z
 _atom_site_occupancy
  Th  Th0  1  0.000000  0.000000  0.500000  1
  Th  Th1  1  0.000000  0.000000  0.000000  1
  Th  Th2  1  0.326352  0.663176  0.254400  1
  Th  Th3  1  0.673648  0.336824  0.745600  1
  Pt  Pt4  1  0.500000  0.500000  0.500000  1
  Pt  Pt5  1  0.500000  0.000000  0.500000  1
  Pt  Pt6  1  0.500000  0.500000  0.000000  1
  Pt  Pt7  1  0.500000  0.000000  0.000000  1
  Pt  Pt8  1  0.000000  0.500000  0.000000  1
  Pt  Pt9  1  0.821839  0.648315  0.249906  1
  Pt  Pt10  1  0.351517  0.175758  0.248662  1
  Pt  Pt11  1  0.821839  0.173524  0.249906  1
  Pt  Pt12  1  0.178161  0.351685  0.750094  1
  Pt  Pt13  1  0.648483  0.824242  0.751338  1
  Pt  Pt14  1  0.178161  0.826476  0.750094  1
  Rh  Rh15  1  0.000000  0.500000  0.500000  1
