# generated using pymatgen
data_Ho2ZnSiRu2C
_symmetry_space_group_name_H-M   'P 1'
_cell_length_a   5.96172308
_cell_length_b   5.96172269
_cell_length_c   6.96662980
_cell_angle_alpha   126.89482200
_cell_angle_beta   126.89481506
_cell_angle_gamma   39.18182240
_symmetry_Int_Tables_number   1
_chemical_formula_structural   Ho2ZnSiRu2C
_chemical_formula_sum   'Ho2 Zn1 Si1 Ru2 C1'
_cell_volume   120.55957877
_cell_formula_units_Z   1
loop_
 _symmetry_equiv_pos_site_id
 _symmetry_equiv_pos_as_xyz
  1  'x, y, z'
loop_
 _atom_site_type_symbol
 _atom_site_label
 _atom_site_symmetry_multiplicity
 _atom_site_fract_x
 _atom_site_fract_y
 _atom_site_fract_z
 _atom_site_occupancy
  Ho  Ho0  1  0.437298  0.437298  0.164116  1
  Ho  Ho1  1  0.564979  0.564979  0.830867  1
  Zn  Zn2  1  0.860188  0.860188  0.399998  1
  Si  Si3  1  0.152354  0.152354  0.608360  1
  Ru  Ru4  1  0.194357  0.194357  0.307916  1
  Ru  Ru5  1  0.792740  0.792740  0.694539  1
  C  C6  1  0.998084  0.998084  0.994206  1
