# generated using pymatgen
data_Ho4Al4Ga13SiIr6
_symmetry_space_group_name_H-M   'P 1'
_cell_length_a   7.57445072
_cell_length_b   7.57444337
_cell_length_c   9.40641200
_cell_angle_alpha   90.00000000
_cell_angle_beta   90.00000000
_cell_angle_gamma   119.87021410
_symmetry_Int_Tables_number   1
_chemical_formula_structural   Ho4Al4Ga13SiIr6
_chemical_formula_sum   'Ho4 Al4 Ga13 Si1 Ir6'
_cell_volume   467.97535907
_cell_formula_units_Z   1
loop_
 _symmetry_equiv_pos_site_id
 _symmetry_equiv_pos_as_xyz
  1  'x, y, z'
loop_
 _atom_site_type_symbol
 _atom_site_label
 _atom_site_symmetry_multiplicity
 _atom_site_fract_x
 _atom_site_fract_y
 _atom_site_fract_z
 _atom_site_occupancy
  Ho  Ho0  1  0.998494  0.674128  0.250000  1
  Ho  Ho1  1  0.999616  0.331557  0.750000  1
  Ho  Ho2  1  0.674128  0.998494  0.250000  1
  Ho  Ho3  1  0.331557  0.999615  0.750000  1
  Al  Al4  1  0.330415  0.330415  0.557776  1
  Al  Al5  1  0.664447  0.664447  0.445489  1
  Al  Al6  1  0.664447  0.664447  0.054511  1
  Al  Al7  1  0.330415  0.330415  0.942224  1
  Ga  Ga8  1  0.878447  0.878447  0.750000  1
  Ga  Ga9  1  0.999315  0.337455  0.082374  1
  Ga  Ga10  1  0.999882  0.666412  0.920229  1
  Ga  Ga11  1  0.999882  0.666412  0.579771  1
  Ga  Ga12  1  0.337454  0.999315  0.417626  1
  Ga  Ga13  1  0.999315  0.337455  0.417626  1
  Ga  Ga14  1  0.666413  0.999883  0.579771  1
  Ga  Ga15  1  0.666413  0.999883  0.920229  1
  Ga  Ga16  1  0.337454  0.999315  0.082374  1
  Ga  Ga17  1  0.342973  0.550553  0.250000  1
  Ga  Ga18  1  0.655358  0.451324  0.750000  1
  Ga  Ga19  1  0.550554  0.342974  0.250000  1
  Ga  Ga20  1  0.451325  0.655358  0.750000  1
  Si  Si21  1  0.126094  0.126094  0.250000  1
  Ir  Ir22  1  0.668433  0.328836  0.999919  1
  Ir  Ir23  1  0.328836  0.668432  0.999918  1
  Ir  Ir24  1  0.328836  0.668432  0.500082  1
  Ir  Ir25  1  0.668433  0.328836  0.500081  1
  Ir  Ir26  1  0.000530  0.000530  0.011386  1
  Ir  Ir27  1  0.000530  0.000530  0.488614  1
