# generated using pymatgen
data_Pr3Ho2Zr(SnIr)6
_symmetry_space_group_name_H-M   'P 1'
_cell_length_a   7.58411528
_cell_length_b   7.52183278
_cell_length_c   7.98124000
_cell_angle_alpha   90.00000000
_cell_angle_beta   90.00000000
_cell_angle_gamma   120.29073181
_symmetry_Int_Tables_number   1
_chemical_formula_structural   Pr3Ho2Zr(SnIr)6
_chemical_formula_sum   'Pr3 Ho2 Zr1 Sn6 Ir6'
_cell_volume   393.14234258
_cell_formula_units_Z   1
loop_
 _symmetry_equiv_pos_site_id
 _symmetry_equiv_pos_as_xyz
  1  'x, y, z'
loop_
 _atom_site_type_symbol
 _atom_site_label
 _atom_site_symmetry_multiplicity
 _atom_site_fract_x
 _atom_site_fract_y
 _atom_site_fract_z
 _atom_site_occupancy
  Pr  Pr0  1  0.412264  0.000537  0.250000  1
  Pr  Pr1  1  0.589417  0.592360  0.250000  1
  Pr  Pr2  1  0.996407  0.407441  0.250000  1
  Ho  Ho3  1  0.596923  0.596115  0.750000  1
  Ho  Ho4  1  0.003819  0.405176  0.750000  1
  Zr  Zr5  1  0.397896  0.999247  0.750000  1
  Sn  Sn6  1  0.259500  0.261300  0.506056  1
  Sn  Sn7  1  0.259500  0.261300  0.993944  1
  Sn  Sn8  1  0.744239  0.000478  0.985299  1
  Sn  Sn9  1  0.997368  0.738188  0.506250  1
  Sn  Sn10  1  0.744239  0.000478  0.514701  1
  Sn  Sn11  1  0.997368  0.738188  0.993750  1
  Ir  Ir12  1  0.657374  0.321539  0.528604  1
  Ir  Ir13  1  0.657374  0.321539  0.971396  1
  Ir  Ir14  1  0.335623  0.678054  0.974927  1
  Ir  Ir15  1  0.335623  0.678054  0.525073  1
  Ir  Ir16  1  0.013369  0.999917  0.750000  1
  Ir  Ir17  1  0.001699  0.000091  0.250000  1
