# generated using pymatgen
data_Dy5MnCoO12
_symmetry_space_group_name_H-M   'P 1'
_cell_length_a   6.76635236
_cell_length_b   6.76640085
_cell_length_c   7.22509349
_cell_angle_alpha   74.50061844
_cell_angle_beta   74.50043253
_cell_angle_gamma   50.54222703
_symmetry_Int_Tables_number   1
_chemical_formula_structural   Dy5MnCoO12
_chemical_formula_sum   'Dy5 Mn1 Co1 O12'
_cell_volume   243.99629902
_cell_formula_units_Z   1
loop_
 _symmetry_equiv_pos_site_id
 _symmetry_equiv_pos_as_xyz
  1  'x, y, z'
loop_
 _atom_site_type_symbol
 _atom_site_label
 _atom_site_symmetry_multiplicity
 _atom_site_fract_x
 _atom_site_fract_y
 _atom_site_fract_z
 _atom_site_occupancy
  Dy  Dy0  1  0.303014  0.306800  0.357335  1
  Dy  Dy1  1  0.693189  0.696981  0.642668  1
  Dy  Dy2  1  0.309362  0.306494  0.833665  1
  Dy  Dy3  1  0.693510  0.690631  0.166332  1
  Dy  Dy4  1  0.995200  0.004793  0.500003  1
  Mn  Mn5  1  0.246433  0.753637  0.999990  1
  Co  Co6  1  0.759036  0.240960  0.000004  1
  O  O7  1  0.897037  0.413986  0.921776  1
  O  O8  1  0.422874  0.903048  0.920422  1
  O  O9  1  0.096938  0.577117  0.079588  1
  O  O10  1  0.586016  0.102965  0.078230  1
  O  O11  1  0.096164  0.597289  0.577803  1
  O  O12  1  0.597546  0.097791  0.574406  1
  O  O13  1  0.902210  0.402444  0.425588  1
  O  O14  1  0.402706  0.903828  0.422193  1
  O  O15  1  0.996702  0.004051  0.824530  1
  O  O16  1  0.995952  0.003297  0.175467  1
  O  O17  1  0.503134  0.497024  0.821858  1
  O  O18  1  0.502975  0.496865  0.178143  1
