# generated using pymatgen
data_DyHo2In3Hg2Ir
_symmetry_space_group_name_H-M   'P 1'
_cell_length_a   7.95923011
_cell_length_b   7.95623314
_cell_length_c   3.90631500
_cell_angle_alpha   90.00000000
_cell_angle_beta   90.00000000
_cell_angle_gamma   120.03153134
_symmetry_Int_Tables_number   1
_chemical_formula_structural   DyHo2In3Hg2Ir
_chemical_formula_sum   'Dy1 Ho2 In3 Hg2 Ir1'
_cell_volume   214.16000980
_cell_formula_units_Z   1
loop_
 _symmetry_equiv_pos_site_id
 _symmetry_equiv_pos_as_xyz
  1  'x, y, z'
loop_
 _atom_site_type_symbol
 _atom_site_label
 _atom_site_symmetry_multiplicity
 _atom_site_fract_x
 _atom_site_fract_y
 _atom_site_fract_z
 _atom_site_occupancy
  Dy  Dy0  1  0.581372  0.614849  0.000000  1
  Ho  Ho1  1  0.384912  0.965983  0.000000  1
  Ho  Ho2  1  0.033938  0.418995  0.000000  1
  In  In3  1  0.002910  0.728010  0.500000  1
  In  In4  1  0.271864  0.274704  0.500000  1
  In  In5  1  0.725240  0.997386  0.500000  1
  Hg  Hg6  1  0.000124  0.000128  0.000000  1
  Hg  Hg7  1  0.666745  0.333143  0.500000  1
  Ir  Ir8  1  0.332895  0.666802  0.500000  1
