# generated using pymatgen
data_Pu4Tc3WC8
_symmetry_space_group_name_H-M   'P 1'
_cell_length_a   3.30383100
_cell_length_b   5.62524384
_cell_length_c   10.78395556
_cell_angle_alpha   90.05619175
_cell_angle_beta   90.00000000
_cell_angle_gamma   90.00000000
_symmetry_Int_Tables_number   1
_chemical_formula_structural   Pu4Tc3WC8
_chemical_formula_sum   'Pu4 Tc3 W1 C8'
_cell_volume   200.41815373
_cell_formula_units_Z   1
loop_
 _symmetry_equiv_pos_site_id
 _symmetry_equiv_pos_as_xyz
  1  'x, y, z'
loop_
 _atom_site_type_symbol
 _atom_site_label
 _atom_site_symmetry_multiplicity
 _atom_site_fract_x
 _atom_site_fract_y
 _atom_site_fract_z
 _atom_site_occupancy
  Pu  Pu0  1  0.250000  0.584127  0.856945  1
  Pu  Pu1  1  0.750000  0.413946  0.140892  1
  Pu  Pu2  1  0.750000  0.914367  0.361664  1
  Pu  Pu3  1  0.250000  0.084203  0.640898  1
  Tc  Tc4  1  0.750000  0.088017  0.895030  1
  Tc  Tc5  1  0.750000  0.586565  0.603702  1
  Tc  Tc6  1  0.250000  0.410940  0.396510  1
  W  W7  1  0.250000  0.914187  0.104369  1
  C  C8  1  0.250000  0.660730  0.247056  1
  C  C9  1  0.750000  0.341830  0.753191  1
  C  C10  1  0.750000  0.839908  0.746298  1
  C  C11  1  0.250000  0.162674  0.255040  1
  C  C12  1  0.250000  0.731382  0.513840  1
  C  C13  1  0.750000  0.268156  0.487459  1
  C  C14  1  0.750000  0.763873  0.010878  1
  C  C15  1  0.250000  0.235093  0.986227  1
