# generated using pymatgen
data_Gd8Er4Co5Sn
_symmetry_space_group_name_H-M   'P 1'
_cell_length_a   8.35488173
_cell_length_b   8.35488180
_cell_length_c   8.35488200
_cell_angle_alpha   110.89314522
_cell_angle_beta   110.80013445
_cell_angle_gamma   106.75409000
_symmetry_Int_Tables_number   1
_chemical_formula_structural   Gd8Er4Co5Sn
_chemical_formula_sum   'Gd8 Er4 Co5 Sn1'
_cell_volume   448.19808092
_cell_formula_units_Z   1
loop_
 _symmetry_equiv_pos_site_id
 _symmetry_equiv_pos_as_xyz
  1  'x, y, z'
loop_
 _atom_site_type_symbol
 _atom_site_label
 _atom_site_symmetry_multiplicity
 _atom_site_fract_x
 _atom_site_fract_y
 _atom_site_fract_z
 _atom_site_occupancy
  Gd  Gd0  1  0.620262  0.313984  0.306279  1
  Gd  Gd1  1  0.379738  0.686016  0.693721  1
  Gd  Gd2  1  0.007704  0.313984  0.693721  1
  Gd  Gd3  1  0.992296  0.686016  0.306279  1
  Gd  Gd4  1  0.209503  0.402651  0.193149  1
  Gd  Gd5  1  0.790497  0.597349  0.806851  1
  Gd  Gd6  1  0.209503  0.016355  0.806851  1
  Gd  Gd7  1  0.790497  0.983645  0.193149  1
  Er  Er8  1  0.291666  0.183095  0.474761  1
  Er  Er9  1  0.708334  0.816905  0.525239  1
  Er  Er10  1  0.291666  0.816905  0.108571  1
  Er  Er11  1  0.708334  0.183095  0.891429  1
  Co  Co12  1  0.000000  0.375162  0.375162  1
  Co  Co13  1  0.000000  0.624838  0.624838  1
  Co  Co14  1  0.388736  0.888736  0.500000  1
  Co  Co15  1  0.611264  0.111264  0.500000  1
  Co  Co16  1  0.000000  0.000000  0.000000  1
  Sn  Sn17  1  0.500000  0.500000  0.000000  1
