# generated using pymatgen
data_CaTbCuSe3
_symmetry_space_group_name_H-M   'P 1'
_cell_length_a   10.67137400
_cell_length_b   4.01854400
_cell_length_c   13.21955500
_cell_angle_alpha   90.00000000
_cell_angle_beta   90.00000000
_cell_angle_gamma   90.00000000
_symmetry_Int_Tables_number   1
_chemical_formula_structural   CaTbCuSe3
_chemical_formula_sum   'Ca4 Tb4 Cu4 Se12'
_cell_volume   566.89927928
_cell_formula_units_Z   4
loop_
 _symmetry_equiv_pos_site_id
 _symmetry_equiv_pos_as_xyz
  1  'x, y, z'
loop_
 _atom_site_type_symbol
 _atom_site_label
 _atom_site_symmetry_multiplicity
 _atom_site_fract_x
 _atom_site_fract_y
 _atom_site_fract_z
 _atom_site_occupancy
  Ca  Ca0  1  0.269816  0.249999  0.004967  1
  Ca  Ca1  1  0.769815  0.249999  0.495034  1
  Ca  Ca2  1  0.230184  0.750000  0.504966  1
  Ca  Ca3  1  0.730184  0.750000  0.995033  1
  Tb  Tb4  1  0.011906  0.249999  0.244208  1
  Tb  Tb5  1  0.511906  0.249999  0.255793  1
  Tb  Tb6  1  0.488094  0.750000  0.744207  1
  Tb  Tb7  1  0.988094  0.750000  0.755792  1
  Cu  Cu8  1  0.259662  0.750000  0.224666  1
  Cu  Cu9  1  0.759661  0.750000  0.275333  1
  Cu  Cu10  1  0.240339  0.249999  0.724667  1
  Cu  Cu11  1  0.740338  0.249999  0.775334  1
  Se  Se12  1  0.087233  0.750000  0.103029  1
  Se  Se13  1  0.440902  0.750000  0.109616  1
  Se  Se14  1  0.758409  0.249999  0.162562  1
  Se  Se15  1  0.258410  0.249999  0.337438  1
  Se  Se16  1  0.940901  0.750000  0.390384  1
  Se  Se17  1  0.587232  0.750000  0.396971  1
  Se  Se18  1  0.412768  0.249999  0.603029  1
  Se  Se19  1  0.059099  0.249999  0.609616  1
  Se  Se20  1  0.741590  0.750000  0.662562  1
  Se  Se21  1  0.241591  0.750000  0.837438  1
  Se  Se22  1  0.559098  0.249999  0.890384  1
  Se  Se23  1  0.912767  0.249999  0.896971  1
