# generated using pymatgen
data_Dy20Co3Bi8Ru
_symmetry_space_group_name_H-M   'P 1'
_cell_length_a   8.03168470
_cell_length_b   8.92123700
_cell_length_c   12.45840557
_cell_angle_alpha   90.00000000
_cell_angle_beta   90.18694605
_cell_angle_gamma   90.00000000
_symmetry_Int_Tables_number   1
_chemical_formula_structural   Dy20Co3Bi8Ru
_chemical_formula_sum   'Dy20 Co3 Bi8 Ru1'
_cell_volume   892.67193408
_cell_formula_units_Z   1
loop_
 _symmetry_equiv_pos_site_id
 _symmetry_equiv_pos_as_xyz
  1  'x, y, z'
loop_
 _atom_site_type_symbol
 _atom_site_label
 _atom_site_symmetry_multiplicity
 _atom_site_fract_x
 _atom_site_fract_y
 _atom_site_fract_z
 _atom_site_occupancy
  Dy  Dy0  1  0.846525  0.750000  0.800562  1
  Dy  Dy1  1  0.152770  0.250000  0.198247  1
  Dy  Dy2  1  0.347103  0.250000  0.698888  1
  Dy  Dy3  1  0.654233  0.750000  0.296311  1
  Dy  Dy4  1  0.378352  0.750000  0.692838  1
  Dy  Dy5  1  0.618590  0.250000  0.310833  1
  Dy  Dy6  1  0.880964  0.250000  0.811521  1
  Dy  Dy7  1  0.118335  0.750000  0.187162  1
  Dy  Dy8  1  0.949878  0.750000  0.503777  1
  Dy  Dy9  1  0.050254  0.250000  0.496753  1
  Dy  Dy10  1  0.451301  0.250000  0.997234  1
  Dy  Dy11  1  0.549281  0.750000  0.002551  1
  Dy  Dy12  1  0.676383  0.041599  0.564246  1
  Dy  Dy13  1  0.324106  0.966112  0.436353  1
  Dy  Dy14  1  0.175044  0.965540  0.937015  1
  Dy  Dy15  1  0.324106  0.533888  0.436353  1
  Dy  Dy16  1  0.824205  0.036238  0.062976  1
  Dy  Dy17  1  0.676383  0.458401  0.564246  1
  Dy  Dy18  1  0.824205  0.463762  0.062976  1
  Dy  Dy19  1  0.175044  0.534460  0.937015  1
  Co  Co20  1  0.434523  0.250000  0.490969  1
  Co  Co21  1  0.061188  0.250000  0.991925  1
  Co  Co22  1  0.937186  0.750000  0.007511  1
  Bi  Bi23  1  0.570636  0.491914  0.826910  1
  Bi  Bi24  1  0.428814  0.507791  0.173350  1
  Bi  Bi25  1  0.070766  0.507575  0.674486  1
  Bi  Bi26  1  0.428814  0.992209  0.173350  1
  Bi  Bi27  1  0.930557  0.492171  0.325993  1
  Bi  Bi28  1  0.570636  0.008086  0.826910  1
  Bi  Bi29  1  0.930557  0.007829  0.325993  1
  Bi  Bi30  1  0.070766  0.992425  0.674486  1
  Ru  Ru31  1  0.568495  0.750000  0.510260  1
