# generated using pymatgen
data_Sc2CoGe(BIr2)2
_symmetry_space_group_name_H-M   'P 1'
_cell_length_a   9.16198900
_cell_length_b   9.16198900
_cell_length_c   3.12259900
_cell_angle_alpha   90.00000000
_cell_angle_beta   90.00000000
_cell_angle_gamma   90.00000000
_symmetry_Int_Tables_number   1
_chemical_formula_structural   Sc2CoGe(BIr2)2
_chemical_formula_sum   'Sc4 Co2 Ge2 B4 Ir8'
_cell_volume   262.11733777
_cell_formula_units_Z   2
loop_
 _symmetry_equiv_pos_site_id
 _symmetry_equiv_pos_as_xyz
  1  'x, y, z'
loop_
 _atom_site_type_symbol
 _atom_site_label
 _atom_site_symmetry_multiplicity
 _atom_site_fract_x
 _atom_site_fract_y
 _atom_site_fract_z
 _atom_site_occupancy
  Sc  Sc0  1  0.674569  0.174568  0.000000  1
  Sc  Sc1  1  0.174568  0.325431  0.000000  1
  Sc  Sc2  1  0.825431  0.674569  0.000000  1
  Sc  Sc3  1  0.325431  0.825431  0.000000  1
  Co  Co4  1  0.500000  0.000000  0.499999  1
  Co  Co5  1  0.000000  0.500000  0.499999  1
  Ge  Ge6  1  0.000000  0.000000  0.000000  1
  Ge  Ge7  1  0.500000  0.500000  0.000000  1
  B  B8  1  0.387173  0.112827  0.000000  1
  B  B9  1  0.887173  0.387173  0.000000  1
  B  B10  1  0.112827  0.612826  0.000000  1
  B  B11  1  0.612826  0.887173  0.000000  1
  Ir  Ir12  1  0.221464  0.065027  0.499999  1
  Ir  Ir13  1  0.934973  0.221464  0.499999  1
  Ir  Ir14  1  0.434972  0.278536  0.499999  1
  Ir  Ir15  1  0.721463  0.434972  0.499999  1
  Ir  Ir16  1  0.278536  0.565028  0.499999  1
  Ir  Ir17  1  0.565028  0.721463  0.499999  1
  Ir  Ir18  1  0.065027  0.778536  0.499999  1
  Ir  Ir19  1  0.778536  0.934973  0.499999  1
