# generated using pymatgen
data_Sr8CoTc3O16
_symmetry_space_group_name_H-M   'P 1'
_cell_length_a   5.53163860
_cell_length_b   8.89134529
_cell_length_c   8.89195744
_cell_angle_alpha   87.98093456
_cell_angle_beta   71.94878551
_cell_angle_gamma   108.04482219
_symmetry_Int_Tables_number   1
_chemical_formula_structural   Sr8CoTc3O16
_chemical_formula_sum   'Sr8 Co1 Tc3 O16'
_cell_volume   391.17461445
_cell_formula_units_Z   1
loop_
 _symmetry_equiv_pos_site_id
 _symmetry_equiv_pos_as_xyz
  1  'x, y, z'
loop_
 _atom_site_type_symbol
 _atom_site_label
 _atom_site_symmetry_multiplicity
 _atom_site_fract_x
 _atom_site_fract_y
 _atom_site_fract_z
 _atom_site_occupancy
  Sr  Sr0  1  0.256604  0.402440  0.888921  1
  Sr  Sr1  1  0.999929  0.643716  0.643704  1
  Sr  Sr2  1  0.743136  0.888548  0.402469  1
  Sr  Sr3  1  0.500170  0.151775  0.151654  1
  Sr  Sr4  1  0.000249  0.356466  0.356104  1
  Sr  Sr5  1  0.743287  0.597644  0.111287  1
  Sr  Sr6  1  0.499823  0.848078  0.848506  1
  Sr  Sr7  1  0.256672  0.111182  0.597489  1
  Co  Co8  1  0.499901  0.499922  0.500057  1
  Tc  Tc9  1  0.248710  0.749339  0.250856  1
  Tc  Tc10  1  0.000038  0.000026  0.999998  1
  Tc  Tc11  1  0.751316  0.250699  0.749111  1
  O  O12  1  0.249393  0.588448  0.087568  1
  O  O13  1  0.999834  0.837156  0.837473  1
  O  O14  1  0.750969  0.087872  0.587907  1
  O  O15  1  0.499632  0.342296  0.342664  1
  O  O16  1  0.000329  0.163004  0.162398  1
  O  O17  1  0.750607  0.411665  0.912434  1
  O  O18  1  0.500268  0.657653  0.657368  1
  O  O19  1  0.249041  0.912053  0.412045  1
  O  O20  1  0.874361  0.125658  0.874154  1
  O  O21  1  0.613439  0.372663  0.627448  1
  O  O22  1  0.386458  0.627244  0.372558  1
  O  O23  1  0.125679  0.874472  0.125776  1
  O  O24  1  0.376928  0.125125  0.874534  1
  O  O25  1  0.124277  0.379098  0.621648  1
  O  O26  1  0.875717  0.620796  0.378471  1
  O  O27  1  0.623231  0.874962  0.125396  1
