# generated using pymatgen
data_Ce2YSn3IrRh2
_symmetry_space_group_name_H-M   'P 1'
_cell_length_a   7.52740609
_cell_length_b   7.53510493
_cell_length_c   4.02552200
_cell_angle_alpha   90.00000000
_cell_angle_beta   90.00000000
_cell_angle_gamma   120.40528424
_symmetry_Int_Tables_number   1
_chemical_formula_structural   Ce2YSn3IrRh2
_chemical_formula_sum   'Ce2 Y1 Sn3 Ir1 Rh2'
_cell_volume   196.92431324
_cell_formula_units_Z   1
loop_
 _symmetry_equiv_pos_site_id
 _symmetry_equiv_pos_as_xyz
  1  'x, y, z'
loop_
 _atom_site_type_symbol
 _atom_site_label
 _atom_site_symmetry_multiplicity
 _atom_site_fract_x
 _atom_site_fract_y
 _atom_site_fract_z
 _atom_site_occupancy
  Ce  Ce0  1  0.413458  0.997973  0.500000  1
  Ce  Ce1  1  0.001922  0.414954  0.500000  1
  Y  Y2  1  0.590017  0.592917  0.500000  1
  Sn  Sn3  1  0.746057  0.994626  0.000000  1
  Sn  Sn4  1  0.991421  0.744428  0.000000  1
  Sn  Sn5  1  0.261693  0.260050  0.000000  1
  Ir  Ir6  1  0.322457  0.668365  0.000000  1
  Rh  Rh7  1  0.668319  0.322374  0.000000  1
  Rh  Rh8  1  0.004656  0.004312  0.500000  1
