# generated using pymatgen
data_Fe2TeBr2O3
_symmetry_space_group_name_H-M   'P 1'
_cell_length_a   6.91278500
_cell_length_b   5.35901832
_cell_length_c   8.67078362
_cell_angle_alpha   74.64999985
_cell_angle_beta   90.00000000
_cell_angle_gamma   90.00000000
_symmetry_Int_Tables_number   1
_chemical_formula_structural   Fe2TeBr2O3
_chemical_formula_sum   'Fe4 Te2 Br4 O6'
_cell_volume   309.75681225
_cell_formula_units_Z   2
loop_
 _symmetry_equiv_pos_site_id
 _symmetry_equiv_pos_as_xyz
  1  'x, y, z'
loop_
 _atom_site_type_symbol
 _atom_site_label
 _atom_site_symmetry_multiplicity
 _atom_site_fract_x
 _atom_site_fract_y
 _atom_site_fract_z
 _atom_site_occupancy
  Fe  Fe0  1  0.250000  0.738596  0.794563  1
  Fe  Fe1  1  0.750000  0.261404  0.205437  1
  Fe  Fe2  1  0.500000  0.000000  0.000000  1
  Fe  Fe3  1  0.000000  0.000000  0.000000  1
  Te  Te4  1  0.750000  0.599158  0.764027  1
  Te  Te5  1  0.250000  0.400842  0.235973  1
  Br  Br6  1  0.250000  0.835914  0.488105  1
  Br  Br7  1  0.250000  0.252381  0.777780  1
  Br  Br8  1  0.750000  0.747619  0.222220  1
  Br  Br9  1  0.750000  0.164086  0.511895  1
  O  O10  1  0.041821  0.244313  0.150396  1
  O  O11  1  0.541821  0.755687  0.849604  1
  O  O12  1  0.958179  0.755687  0.849604  1
  O  O13  1  0.750000  0.271600  0.932389  1
  O  O14  1  0.250000  0.728400  0.067611  1
  O  O15  1  0.458179  0.244313  0.150396  1
