# generated using pymatgen
data_Tm7Lu2ZrIr6
_symmetry_space_group_name_H-M   'P 1'
_cell_length_a   10.72817812
_cell_length_b   10.73357100
_cell_length_c   6.25149307
_cell_angle_alpha   90.00047309
_cell_angle_beta   89.98257331
_cell_angle_gamma   89.99897488
_symmetry_Int_Tables_number   1
_chemical_formula_structural   Tm7Lu2ZrIr6
_chemical_formula_sum   'Tm14 Lu4 Zr2 Ir12'
_cell_volume   719.86978136
_cell_formula_units_Z   2
loop_
 _symmetry_equiv_pos_site_id
 _symmetry_equiv_pos_as_xyz
  1  'x, y, z'
loop_
 _atom_site_type_symbol
 _atom_site_label
 _atom_site_symmetry_multiplicity
 _atom_site_fract_x
 _atom_site_fract_y
 _atom_site_fract_z
 _atom_site_occupancy
  Tm  Tm0  1  0.710255  0.086308  0.874741  1
  Tm  Tm1  1  0.710253  0.913694  0.374744  1
  Tm  Tm2  1  0.587340  0.792541  0.875127  1
  Tm  Tm3  1  0.587339  0.207457  0.375128  1
  Tm  Tm4  1  0.412303  0.792639  0.375130  1
  Tm  Tm5  1  0.412306  0.207361  0.875124  1
  Tm  Tm6  1  0.207564  0.412432  0.624840  1
  Tm  Tm7  1  0.207565  0.587567  0.124842  1
  Tm  Tm8  1  0.792459  0.412465  0.124870  1
  Tm  Tm9  1  0.792459  0.587535  0.624866  1
  Tm  Tm10  1  0.913695  0.710292  0.125329  1
  Tm  Tm11  1  0.913696  0.289710  0.625331  1
  Tm  Tm12  1  0.086476  0.710421  0.625321  1
  Tm  Tm13  1  0.086474  0.289580  0.125321  1
  Lu  Lu14  1  0.289923  0.086087  0.375087  1
  Lu  Lu15  1  0.289920  0.913917  0.875068  1
  Lu  Lu16  1  0.499960  0.500002  0.999963  1
  Lu  Lu17  1  0.499952  0.500002  0.499946  1
  Zr  Zr18  1  0.000268  0.000049  0.499860  1
  Zr  Zr19  1  0.000272  0.999941  0.999856  1
  Ir  Ir20  1  0.853988  0.146013  0.250050  1
  Ir  Ir21  1  0.853990  0.853988  0.750057  1
  Ir  Ir22  1  0.146446  0.145639  0.749482  1
  Ir  Ir23  1  0.146429  0.854381  0.249512  1
  Ir  Ir24  1  0.653926  0.346096  0.749990  1
  Ir  Ir25  1  0.653932  0.653888  0.249993  1
  Ir  Ir26  1  0.346007  0.345671  0.250282  1
  Ir  Ir27  1  0.346021  0.654319  0.750236  1
  Ir  Ir28  1  0.499364  0.000012  0.122605  1
  Ir  Ir29  1  0.499364  0.000005  0.622563  1
  Ir  Ir30  1  0.000025  0.500038  0.877367  1
  Ir  Ir31  1  0.000029  0.499950  0.377370  1
