# generated using pymatgen
data_Zr7Co16ReSiP11
_symmetry_space_group_name_H-M   'P 1'
_cell_length_a   12.03616263
_cell_length_b   12.05564057
_cell_length_c   3.66793500
_cell_angle_alpha   90.00000000
_cell_angle_beta   90.00000000
_cell_angle_gamma   119.95742538
_symmetry_Int_Tables_number   1
_chemical_formula_structural   Zr7Co16ReSiP11
_chemical_formula_sum   'Zr7 Co16 Re1 Si1 P11'
_cell_volume   461.12297193
_cell_formula_units_Z   1
loop_
 _symmetry_equiv_pos_site_id
 _symmetry_equiv_pos_as_xyz
  1  'x, y, z'
loop_
 _atom_site_type_symbol
 _atom_site_label
 _atom_site_symmetry_multiplicity
 _atom_site_fract_x
 _atom_site_fract_y
 _atom_site_fract_z
 _atom_site_occupancy
  Zr  Zr0  1  0.556872  0.999583  0.000000  1
  Zr  Zr1  1  0.000928  0.556823  0.000000  1
  Zr  Zr2  1  0.669218  0.335287  0.000000  1
  Zr  Zr3  1  0.334793  0.667212  0.000000  1
  Zr  Zr4  1  0.818381  0.818310  0.500000  1
  Zr  Zr5  1  0.176527  0.999407  0.500000  1
  Zr  Zr6  1  0.998133  0.175226  0.500000  1
  Co  Co7  1  0.198371  0.372221  0.000000  1
  Co  Co8  1  0.180683  0.809399  0.000000  1
  Co  Co9  1  0.818557  0.627331  0.000000  1
  Co  Co10  1  0.808722  0.180677  0.000000  1
  Co  Co11  1  0.368509  0.196587  0.000000  1
  Co  Co12  1  0.131311  0.480597  0.500000  1
  Co  Co13  1  0.355074  0.874118  0.500000  1
  Co  Co14  1  0.514026  0.639803  0.500000  1
  Co  Co15  1  0.644464  0.522499  0.500000  1
  Co  Co16  1  0.876495  0.354984  0.500000  1
  Co  Co17  1  0.478956  0.126881  0.500000  1
  Co  Co18  1  0.999428  0.999729  0.000000  1
  Co  Co19  1  0.722949  0.000300  0.500000  1
  Co  Co20  1  0.000733  0.722966  0.500000  1
  Co  Co21  1  0.625307  0.815404  0.000000  1
  Co  Co22  1  0.277346  0.280758  0.500000  1
  Re  Re23  1  0.447015  0.447221  0.000000  1
  Si  Si24  1  0.481529  0.317066  0.500000  1
  P  P25  1  0.640877  0.640510  0.000000  1
  P  P26  1  0.348976  0.005240  0.000000  1
  P  P27  1  0.004248  0.347865  0.000000  1
  P  P28  1  0.692500  0.174445  0.500000  1
  P  P29  1  0.825642  0.518599  0.500000  1
  P  P30  1  0.518429  0.824921  0.500000  1
  P  P31  1  0.174990  0.692831  0.500000  1
  P  P32  1  0.822074  0.996884  0.000000  1
  P  P33  1  0.998098  0.823512  0.000000  1
  P  P34  1  0.315500  0.479755  0.500000  1
  P  P35  1  0.174338  0.175048  0.000000  1
