# generated using pymatgen
data_NaLaFeH6
_symmetry_space_group_name_H-M   'P 1'
_cell_length_a   5.03175641
_cell_length_b   5.03175721
_cell_length_c   5.03175700
_cell_angle_alpha   60.00000798
_cell_angle_beta   60.00000272
_cell_angle_gamma   60.00000707
_symmetry_Int_Tables_number   1
_chemical_formula_structural   NaLaFeH6
_chemical_formula_sum   'Na1 La1 Fe1 H6'
_cell_volume   90.08324182
_cell_formula_units_Z   1
loop_
 _symmetry_equiv_pos_site_id
 _symmetry_equiv_pos_as_xyz
  1  'x, y, z'
loop_
 _atom_site_type_symbol
 _atom_site_label
 _atom_site_symmetry_multiplicity
 _atom_site_fract_x
 _atom_site_fract_y
 _atom_site_fract_z
 _atom_site_occupancy
  Na  Na0  1  0.250000  0.250000  0.250000  1
  La  La1  1  0.750000  0.750000  0.750000  1
  Fe  Fe2  1  0.000000  0.000000  0.000000  1
  H  H3  1  0.774570  0.225430  0.225430  1
  H  H4  1  0.225430  0.774570  0.225430  1
  H  H5  1  0.774570  0.774570  0.225430  1
  H  H6  1  0.225430  0.774570  0.774570  1
  H  H7  1  0.774570  0.225430  0.774570  1
  H  H8  1  0.225430  0.225430  0.774570  1
