# generated using pymatgen
data_Tb8Dy3TmCo4
_symmetry_space_group_name_H-M   'P 1'
_cell_length_a   6.21255636
_cell_length_b   6.94080632
_cell_length_c   9.50993584
_cell_angle_alpha   90.01371328
_cell_angle_beta   89.74443471
_cell_angle_gamma   89.99066421
_symmetry_Int_Tables_number   1
_chemical_formula_structural   Tb8Dy3TmCo4
_chemical_formula_sum   'Tb8 Dy3 Tm1 Co4'
_cell_volume   410.06576763
_cell_formula_units_Z   1
loop_
 _symmetry_equiv_pos_site_id
 _symmetry_equiv_pos_as_xyz
  1  'x, y, z'
loop_
 _atom_site_type_symbol
 _atom_site_label
 _atom_site_symmetry_multiplicity
 _atom_site_fract_x
 _atom_site_fract_y
 _atom_site_fract_z
 _atom_site_occupancy
  Tb  Tb0  1  0.676074  0.325894  0.932353  1
  Tb  Tb1  1  0.822782  0.825206  0.570047  1
  Tb  Tb2  1  0.323311  0.673921  0.428603  1
  Tb  Tb3  1  0.176978  0.174553  0.068928  1
  Tb  Tb4  1  0.857939  0.544664  0.249153  1
  Tb  Tb5  1  0.642400  0.043115  0.250167  1
  Tb  Tb6  1  0.142966  0.456876  0.750126  1
  Tb  Tb7  1  0.356225  0.956208  0.750688  1
  Dy  Dy8  1  0.174519  0.173732  0.431060  1
  Dy  Dy9  1  0.674286  0.326049  0.569750  1
  Dy  Dy10  1  0.824352  0.825740  0.932606  1
  Tm  Tm11  1  0.325742  0.674525  0.068149  1
  Co  Co12  1  0.053402  0.885923  0.247323  1
  Co  Co13  1  0.449965  0.386659  0.247500  1
  Co  Co14  1  0.948533  0.113425  0.748072  1
  Co  Co15  1  0.550524  0.613511  0.755475  1
