# generated using pymatgen
data_Ho2Si14TcIr5
_symmetry_space_group_name_H-M   'P 1'
_cell_length_a   7.99972313
_cell_length_b   7.99972304
_cell_length_c   8.08020256
_cell_angle_alpha   56.84786570
_cell_angle_beta   56.84786611
_cell_angle_gamma   57.06312478
_symmetry_Int_Tables_number   1
_chemical_formula_structural   Ho2Si14TcIr5
_chemical_formula_sum   'Ho2 Si14 Tc1 Ir5'
_cell_volume   339.65874917
_cell_formula_units_Z   1
loop_
 _symmetry_equiv_pos_site_id
 _symmetry_equiv_pos_as_xyz
  1  'x, y, z'
loop_
 _atom_site_type_symbol
 _atom_site_label
 _atom_site_symmetry_multiplicity
 _atom_site_fract_x
 _atom_site_fract_y
 _atom_site_fract_z
 _atom_site_occupancy
  Ho  Ho0  1  0.000819  0.003291  0.996608  1
  Ho  Ho1  1  0.496709  0.499181  0.503392  1
  Si  Si2  1  0.754642  0.745358  0.750000  1
  Si  Si3  1  0.249151  0.250849  0.250000  1
  Si  Si4  1  0.848697  0.065157  0.672806  1
  Si  Si5  1  0.671413  0.853031  0.063384  1
  Si  Si6  1  0.060877  0.671101  0.851865  1
  Si  Si7  1  0.646969  0.828587  0.436616  1
  Si  Si8  1  0.434843  0.651303  0.827194  1
  Si  Si9  1  0.828899  0.439123  0.648135  1
  Si  Si10  1  0.172010  0.561660  0.355598  1
  Si  Si11  1  0.566972  0.350716  0.170511  1
  Si  Si12  1  0.352343  0.174582  0.562813  1
  Si  Si13  1  0.938340  0.327990  0.144402  1
  Si  Si14  1  0.325418  0.147657  0.937187  1
  Si  Si15  1  0.149284  0.933028  0.329489  1
  Tc  Tc16  1  0.078339  0.421661  0.750000  1
  Ir  Ir17  1  0.249881  0.927913  0.571529  1
  Ir  Ir18  1  0.572087  0.250119  0.928471  1
  Ir  Ir19  1  0.924750  0.575250  0.250000  1
  Ir  Ir20  1  0.428015  0.750459  0.071804  1
  Ir  Ir21  1  0.749541  0.071985  0.428196  1
