# generated using pymatgen
data_La9Yb4Pr7Ir12
_symmetry_space_group_name_H-M   'P 1'
_cell_length_a   11.34510138
_cell_length_b   11.35470817
_cell_length_c   6.50067886
_cell_angle_alpha   90.01794994
_cell_angle_beta   89.94407180
_cell_angle_gamma   89.95113848
_symmetry_Int_Tables_number   1
_chemical_formula_structural   La9Yb4Pr7Ir12
_chemical_formula_sum   'La9 Yb4 Pr7 Ir12'
_cell_volume   837.41875543
_cell_formula_units_Z   1
loop_
 _symmetry_equiv_pos_site_id
 _symmetry_equiv_pos_as_xyz
  1  'x, y, z'
loop_
 _atom_site_type_symbol
 _atom_site_label
 _atom_site_symmetry_multiplicity
 _atom_site_fract_x
 _atom_site_fract_y
 _atom_site_fract_z
 _atom_site_occupancy
  La  La0  1  0.286724  0.089500  0.387221  1
  La  La1  1  0.286578  0.910159  0.887513  1
  La  La2  1  0.713474  0.089888  0.887608  1
  La  La3  1  0.713469  0.910007  0.387569  1
  La  La4  1  0.590094  0.786578  0.887537  1
  La  La5  1  0.590348  0.213265  0.387873  1
  La  La6  1  0.410007  0.786678  0.387304  1
  La  La7  1  0.410250  0.213134  0.887884  1
  La  La8  1  0.211413  0.411401  0.612586  1
  Yb  Yb9  1  0.999860  0.000092  0.499515  1
  Yb  Yb10  1  0.999981  0.999956  0.999555  1
  Yb  Yb11  1  0.500042  0.499998  0.999939  1
  Yb  Yb12  1  0.500509  0.500246  0.499362  1
  Pr  Pr13  1  0.211074  0.588624  0.114406  1
  Pr  Pr14  1  0.788835  0.412166  0.114705  1
  Pr  Pr15  1  0.788618  0.587885  0.614668  1
  Pr  Pr16  1  0.912189  0.711224  0.114492  1
  Pr  Pr17  1  0.911257  0.288184  0.615047  1
  Pr  Pr18  1  0.087614  0.712162  0.614897  1
  Pr  Pr19  1  0.087189  0.288159  0.114736  1
  Ir  Ir20  1  0.844239  0.154246  0.247499  1
  Ir  Ir21  1  0.844388  0.845673  0.747930  1
  Ir  Ir22  1  0.155893  0.154359  0.747339  1
  Ir  Ir23  1  0.155654  0.845843  0.247455  1
  Ir  Ir24  1  0.654181  0.344298  0.747872  1
  Ir  Ir25  1  0.654286  0.655555  0.247526  1
  Ir  Ir26  1  0.344738  0.345060  0.249967  1
  Ir  Ir27  1  0.345997  0.656070  0.747716  1
  Ir  Ir28  1  0.499923  0.000161  0.114513  1
  Ir  Ir29  1  0.500045  0.999863  0.614539  1
  Ir  Ir30  1  0.000855  0.499636  0.885801  1
  Ir  Ir31  1  0.000276  0.499931  0.387427  1
