# generated using pymatgen
data_Lu2(P2Pd7)3
_symmetry_space_group_name_H-M   'P 1'
_cell_length_a   8.61282207
_cell_length_b   8.61283115
_cell_length_c   8.61278500
_cell_angle_alpha   60.00008109
_cell_angle_beta   59.99984418
_cell_angle_gamma   60.00031499
_symmetry_Int_Tables_number   1
_chemical_formula_structural   Lu2(P2Pd7)3
_chemical_formula_sum   'Lu2 P6 Pd21'
_cell_volume   451.77355511
_cell_formula_units_Z   1
loop_
 _symmetry_equiv_pos_site_id
 _symmetry_equiv_pos_as_xyz
  1  'x, y, z'
loop_
 _atom_site_type_symbol
 _atom_site_label
 _atom_site_symmetry_multiplicity
 _atom_site_fract_x
 _atom_site_fract_y
 _atom_site_fract_z
 _atom_site_occupancy
  Lu  Lu0  1  0.249984  0.249983  0.250025  1
  Lu  Lu1  1  0.750016  0.750017  0.749975  1
  P  P2  1  0.738948  0.738947  0.261052  1
  P  P3  1  0.261052  0.261053  0.738948  1
  P  P4  1  0.261054  0.738945  0.738948  1
  P  P5  1  0.738946  0.261054  0.738949  1
  P  P6  1  0.261054  0.738946  0.261051  1
  P  P7  1  0.738946  0.261055  0.261052  1
  Pd  Pd8  1  0.000000  0.000000  0.000000  1
  Pd  Pd9  1  0.615628  0.615628  0.615627  1
  Pd  Pd10  1  0.384372  0.846884  0.384372  1
  Pd  Pd11  1  0.655189  0.344811  0.999999  1
  Pd  Pd12  1  0.000000  0.344812  0.655189  1
  Pd  Pd13  1  0.655189  0.000001  0.999999  1
  Pd  Pd14  1  0.615629  0.615630  0.153108  1
  Pd  Pd15  1  0.999999  0.000001  0.655191  1
  Pd  Pd16  1  0.000000  0.344810  0.000000  1
  Pd  Pd17  1  0.655185  0.000000  0.344812  1
  Pd  Pd18  1  0.344811  0.999999  0.000001  1
  Pd  Pd19  1  0.000000  0.655190  0.000000  1
  Pd  Pd20  1  0.344815  0.000000  0.655188  1
  Pd  Pd21  1  0.000000  0.655188  0.344811  1
  Pd  Pd22  1  0.344811  0.655189  0.000001  1
  Pd  Pd23  1  0.153117  0.615627  0.615627  1
  Pd  Pd24  1  0.384372  0.384372  0.384373  1
  Pd  Pd25  1  0.846883  0.384373  0.384373  1
  Pd  Pd26  1  0.384371  0.384370  0.846892  1
  Pd  Pd27  1  0.615628  0.153116  0.615628  1
  Pd  Pd28  1  0.000001  0.999999  0.344809  1
