# generated using pymatgen
data_Ta3Be8Ru
_symmetry_space_group_name_H-M   'P 1'
_cell_length_a   4.53114900
_cell_length_b   4.53114913
_cell_length_c   7.40354100
_cell_angle_alpha   90.00000000
_cell_angle_beta   90.00000000
_cell_angle_gamma   120.00000638
_symmetry_Int_Tables_number   1
_chemical_formula_structural   Ta3Be8Ru
_chemical_formula_sum   'Ta3 Be8 Ru1'
_cell_volume   131.63967118
_cell_formula_units_Z   1
loop_
 _symmetry_equiv_pos_site_id
 _symmetry_equiv_pos_as_xyz
  1  'x, y, z'
loop_
 _atom_site_type_symbol
 _atom_site_label
 _atom_site_symmetry_multiplicity
 _atom_site_fract_x
 _atom_site_fract_y
 _atom_site_fract_z
 _atom_site_occupancy
  Ta  Ta0  1  0.666667  0.333333  0.057207  1
  Ta  Ta1  1  0.666667  0.333333  0.432519  1
  Ta  Ta2  1  0.333333  0.666667  0.573055  1
  Be  Be3  1  0.000000  0.000000  0.503550  1
  Be  Be4  1  0.000000  0.000000  0.000539  1
  Be  Be5  1  0.661024  0.830511  0.248833  1
  Be  Be6  1  0.169489  0.830511  0.248833  1
  Be  Be7  1  0.169489  0.338976  0.248833  1
  Be  Be8  1  0.338899  0.169450  0.750827  1
  Be  Be9  1  0.830550  0.169450  0.750827  1
  Be  Be10  1  0.830550  0.661101  0.750827  1
  Ru  Ru11  1  0.333333  0.666667  0.934152  1
