# generated using pymatgen
data_Tb7Dy9Cd4(NiRu)2
_symmetry_space_group_name_H-M   'P 1'
_cell_length_a   9.57042904
_cell_length_b   9.57042761
_cell_length_c   9.61384000
_cell_angle_alpha   59.84982641
_cell_angle_beta   59.84983136
_cell_angle_gamma   59.73100219
_symmetry_Int_Tables_number   1
_chemical_formula_structural   Tb7Dy9Cd4(NiRu)2
_chemical_formula_sum   'Tb7 Dy9 Cd4 Ni2 Ru2'
_cell_volume   619.96682987
_cell_formula_units_Z   1
loop_
 _symmetry_equiv_pos_site_id
 _symmetry_equiv_pos_as_xyz
  1  'x, y, z'
loop_
 _atom_site_type_symbol
 _atom_site_label
 _atom_site_symmetry_multiplicity
 _atom_site_fract_x
 _atom_site_fract_y
 _atom_site_fract_z
 _atom_site_occupancy
  Tb  Tb0  1  0.810498  0.810498  0.189502  1
  Tb  Tb1  1  0.937955  0.558997  0.566078  1
  Tb  Tb2  1  0.558997  0.937955  0.936970  1
  Tb  Tb3  1  0.558997  0.937955  0.566078  1
  Tb  Tb4  1  0.937955  0.558997  0.936970  1
  Tb  Tb5  1  0.565307  0.565307  0.934693  1
  Tb  Tb6  1  0.939594  0.939594  0.560406  1
  Dy  Dy7  1  0.349231  0.349231  0.344495  1
  Dy  Dy8  1  0.349231  0.349231  0.957045  1
  Dy  Dy9  1  0.351045  0.955119  0.346918  1
  Dy  Dy10  1  0.955119  0.351045  0.346918  1
  Dy  Dy11  1  0.811289  0.187283  0.189441  1
  Dy  Dy12  1  0.187283  0.811289  0.811987  1
  Dy  Dy13  1  0.187283  0.811289  0.189441  1
  Dy  Dy14  1  0.811289  0.187283  0.811987  1
  Dy  Dy15  1  0.188288  0.188288  0.811712  1
  Cd  Cd16  1  0.579699  0.579699  0.582108  1
  Cd  Cd17  1  0.579699  0.579699  0.258494  1
  Cd  Cd18  1  0.580616  0.256620  0.581381  1
  Cd  Cd19  1  0.256620  0.580616  0.581381  1
  Ni  Ni20  1  0.142427  0.575201  0.141186  1
  Ni  Ni21  1  0.575201  0.142427  0.141186  1
  Ru  Ru22  1  0.143187  0.143187  0.138654  1
  Ru  Ru23  1  0.143187  0.143187  0.574971  1
