# generated using pymatgen
data_NpTlCl6
_symmetry_space_group_name_H-M   'P 1'
_cell_length_a   7.82367048
_cell_length_b   7.83770461
_cell_length_c   7.19884580
_cell_angle_alpha   100.22357493
_cell_angle_beta   100.40266554
_cell_angle_gamma   119.95179562
_symmetry_Int_Tables_number   1
_chemical_formula_structural   NpTlCl6
_chemical_formula_sum   'Np1 Tl1 Cl6'
_cell_volume   357.15525463
_cell_formula_units_Z   1
loop_
 _symmetry_equiv_pos_site_id
 _symmetry_equiv_pos_as_xyz
  1  'x, y, z'
loop_
 _atom_site_type_symbol
 _atom_site_label
 _atom_site_symmetry_multiplicity
 _atom_site_fract_x
 _atom_site_fract_y
 _atom_site_fract_z
 _atom_site_occupancy
  Np  Np0  1  0.833938  0.167094  0.000026  1
  Tl  Tl1  1  0.169028  0.835352  0.000215  1
  Cl  Cl2  1  0.905727  0.504573  0.212424  1
  Cl  Cl3  1  0.637139  0.973415  0.214203  1
  Cl  Cl4  1  0.164296  0.228158  0.219646  1
  Cl  Cl5  1  0.768972  0.834386  0.785783  1
  Cl  Cl6  1  0.494898  0.091728  0.781437  1
  Cl  Cl7  1  0.026000  0.365294  0.786267  1
