# generated using pymatgen
data_Th3Mg3OsAu2
_symmetry_space_group_name_H-M   'P 1'
_cell_length_a   7.78744700
_cell_length_b   7.78744681
_cell_length_c   4.05307400
_cell_angle_alpha   90.00000000
_cell_angle_beta   90.00000000
_cell_angle_gamma   119.99999657
_symmetry_Int_Tables_number   1
_chemical_formula_structural   Th3Mg3OsAu2
_chemical_formula_sum   'Th3 Mg3 Os1 Au2'
_cell_volume   212.86554791
_cell_formula_units_Z   1
loop_
 _symmetry_equiv_pos_site_id
 _symmetry_equiv_pos_as_xyz
  1  'x, y, z'
loop_
 _atom_site_type_symbol
 _atom_site_label
 _atom_site_symmetry_multiplicity
 _atom_site_fract_x
 _atom_site_fract_y
 _atom_site_fract_z
 _atom_site_occupancy
  Th  Th0  1  0.023628  0.593644  0.000000  1
  Th  Th1  1  0.406356  0.429982  0.000000  1
  Th  Th2  1  0.570018  0.976372  0.000000  1
  Mg  Mg3  1  0.997045  0.241800  0.500000  1
  Mg  Mg4  1  0.244755  0.002955  0.500000  1
  Mg  Mg5  1  0.758200  0.755245  0.500000  1
  Os  Os6  1  0.333333  0.666667  0.500000  1
  Au  Au7  1  0.000000  0.000000  0.000000  1
  Au  Au8  1  0.666667  0.333333  0.500000  1
