# generated using pymatgen
data_Hf2ScSiGe2Ru3
_symmetry_space_group_name_H-M   'P 1'
_cell_length_a   6.83233887
_cell_length_b   6.82357276
_cell_length_c   3.59699900
_cell_angle_alpha   90.00000000
_cell_angle_beta   90.00000000
_cell_angle_gamma   119.95758138
_symmetry_Int_Tables_number   1
_chemical_formula_structural   Hf2ScSiGe2Ru3
_chemical_formula_sum   'Hf2 Sc1 Si1 Ge2 Ru3'
_cell_volume   145.29064430
_cell_formula_units_Z   1
loop_
 _symmetry_equiv_pos_site_id
 _symmetry_equiv_pos_as_xyz
  1  'x, y, z'
loop_
 _atom_site_type_symbol
 _atom_site_label
 _atom_site_symmetry_multiplicity
 _atom_site_fract_x
 _atom_site_fract_y
 _atom_site_fract_z
 _atom_site_occupancy
  Hf  Hf0  1  0.592611  0.593980  0.500000  1
  Hf  Hf1  1  0.407389  0.001369  0.500000  1
  Sc  Sc2  1  0.000000  0.407365  0.500000  1
  Si  Si3  1  0.000000  0.001231  0.500000  1
  Ge  Ge4  1  0.329607  0.664289  0.000000  1
  Ge  Ge5  1  0.670393  0.334682  0.000000  1
  Ru  Ru6  1  0.000000  0.758170  0.000000  1
  Ru  Ru7  1  0.245669  0.242291  0.000000  1
  Ru  Ru8  1  0.754331  0.996622  0.000000  1
