# generated using pymatgen
data_NdAl3NiHg
_symmetry_space_group_name_H-M   'P 1'
_cell_length_a   4.15705065
_cell_length_b   6.70965000
_cell_length_c   8.30825772
_cell_angle_alpha   90.00000000
_cell_angle_beta   104.48790493
_cell_angle_gamma   90.00000000
_symmetry_Int_Tables_number   1
_chemical_formula_structural   NdAl3NiHg
_chemical_formula_sum   'Nd2 Al6 Ni2 Hg2'
_cell_volume   224.36775046
_cell_formula_units_Z   2
loop_
 _symmetry_equiv_pos_site_id
 _symmetry_equiv_pos_as_xyz
  1  'x, y, z'
loop_
 _atom_site_type_symbol
 _atom_site_label
 _atom_site_symmetry_multiplicity
 _atom_site_fract_x
 _atom_site_fract_y
 _atom_site_fract_z
 _atom_site_occupancy
  Nd  Nd0  1  0.878700  0.750000  0.757400  1
  Nd  Nd1  1  0.121300  0.250000  0.242600  1
  Al  Al2  1  0.080006  0.750000  0.160010  1
  Al  Al3  1  0.919994  0.250000  0.839990  1
  Al  Al4  1  0.693551  0.554135  0.387103  1
  Al  Al5  1  0.306449  0.445865  0.612897  1
  Al  Al6  1  0.693551  0.945865  0.387103  1
  Al  Al7  1  0.306449  0.054135  0.612897  1
  Ni  Ni8  1  0.223996  0.750000  0.447993  1
  Ni  Ni9  1  0.776004  0.250000  0.552007  1
  Hg  Hg10  1  0.500000  0.500000  0.000000  1
  Hg  Hg11  1  0.500000  0.000000  0.000000  1
