# generated using pymatgen
data_Pr5NdCo14(P3Rh)4
_symmetry_space_group_name_H-M   'P 1'
_cell_length_a   3.82088000
_cell_length_b   10.78637304
_cell_length_c   12.62271605
_cell_angle_alpha   90.00962467
_cell_angle_beta   90.00000000
_cell_angle_gamma   90.00000000
_symmetry_Int_Tables_number   1
_chemical_formula_structural   Pr5NdCo14(P3Rh)4
_chemical_formula_sum   'Pr5 Nd1 Co14 P12 Rh4'
_cell_volume   520.22550530
_cell_formula_units_Z   1
loop_
 _symmetry_equiv_pos_site_id
 _symmetry_equiv_pos_as_xyz
  1  'x, y, z'
loop_
 _atom_site_type_symbol
 _atom_site_label
 _atom_site_symmetry_multiplicity
 _atom_site_fract_x
 _atom_site_fract_y
 _atom_site_fract_z
 _atom_site_occupancy
  Pr  Pr0  1  0.000000  0.499989  0.519362  1
  Pr  Pr1  1  0.500000  0.999978  0.480857  1
  Pr  Pr2  1  0.500000  0.813953  0.206100  1
  Pr  Pr3  1  0.500000  0.186331  0.206413  1
  Pr  Pr4  1  0.000000  0.686093  0.793488  1
  Nd  Nd5  1  0.000000  0.313609  0.793933  1
  Co  Co6  1  0.000000  0.499837  0.988571  1
  Co  Co7  1  0.500000  0.000120  0.010637  1
  Co  Co8  1  0.500000  0.332335  0.994690  1
  Co  Co9  1  0.500000  0.667409  0.994700  1
  Co  Co10  1  0.000000  0.168027  0.004516  1
  Co  Co11  1  0.000000  0.832331  0.004864  1
  Co  Co12  1  0.500000  0.300396  0.429266  1
  Co  Co13  1  0.500000  0.699497  0.428694  1
  Co  Co14  1  0.000000  0.199649  0.572015  1
  Co  Co15  1  0.000000  0.800419  0.571270  1
  Co  Co16  1  0.500000  0.884201  0.711888  1
  Co  Co17  1  0.500000  0.116377  0.712693  1
  Co  Co18  1  0.000000  0.615892  0.288003  1
  Co  Co19  1  0.000000  0.384087  0.288111  1
  P  P20  1  0.500000  0.499531  0.893296  1
  P  P21  1  0.000000  0.000103  0.105998  1
  P  P22  1  0.500000  0.499963  0.343840  1
  P  P23  1  0.000000  0.000018  0.656311  1
  P  P24  1  0.500000  0.296989  0.612099  1
  P  P25  1  0.500000  0.702897  0.611072  1
  P  P26  1  0.000000  0.203205  0.389251  1
  P  P27  1  0.000000  0.796987  0.388850  1
  P  P28  1  0.500000  0.846085  0.898147  1
  P  P29  1  0.500000  0.154638  0.897678  1
  P  P30  1  0.000000  0.653749  0.101543  1
  P  P31  1  0.000000  0.346093  0.101703  1
  Rh  Rh32  1  0.500000  0.500125  0.156861  1
  Rh  Rh33  1  0.000000  0.999892  0.842978  1
  Rh  Rh34  1  0.500000  0.499047  0.704807  1
  Rh  Rh35  1  0.000000  0.000147  0.295494  1
