# generated using pymatgen
data_KPaSi2O7
_symmetry_space_group_name_H-M   'P 1'
_cell_length_a   8.35851800
_cell_length_b   9.26162300
_cell_length_c   9.26162300
_cell_angle_alpha   90.00000000
_cell_angle_beta   90.00000000
_cell_angle_gamma   90.00000000
_symmetry_Int_Tables_number   1
_chemical_formula_structural   KPaSi2O7
_chemical_formula_sum   'K4 Pa4 Si8 O28'
_cell_volume   716.97412007
_cell_formula_units_Z   4
loop_
 _symmetry_equiv_pos_site_id
 _symmetry_equiv_pos_as_xyz
  1  'x, y, z'
loop_
 _atom_site_type_symbol
 _atom_site_label
 _atom_site_symmetry_multiplicity
 _atom_site_fract_x
 _atom_site_fract_y
 _atom_site_fract_z
 _atom_site_occupancy
  K  K0  1  0.500000  0.320905  0.179095  1
  K  K1  1  0.500000  0.820905  0.320905  1
  K  K2  1  0.500000  0.679095  0.820905  1
  K  K3  1  0.500000  0.179095  0.679095  1
  Pa  Pa4  1  0.750540  0.000000  0.000000  1
  Pa  Pa5  1  0.750540  0.500000  0.500000  1
  Pa  Pa6  1  0.249460  0.000000  0.000000  1
  Pa  Pa7  1  0.249460  0.500000  0.500000  1
  Si  Si8  1  0.805677  0.619237  0.119237  1
  Si  Si9  1  0.194323  0.119237  0.380763  1
  Si  Si10  1  0.805677  0.880763  0.619237  1
  Si  Si11  1  0.194323  0.619237  0.119237  1
  Si  Si12  1  0.805677  0.119237  0.380763  1
  Si  Si13  1  0.194323  0.880763  0.619237  1
  Si  Si14  1  0.805677  0.380763  0.880763  1
  Si  Si15  1  0.194323  0.380763  0.880763  1
  O  O16  1  0.000000  0.378774  0.878774  1
  O  O17  1  0.732146  0.572946  0.274632  1
  O  O18  1  0.267854  0.725368  0.572946  1
  O  O19  1  0.000000  0.500000  0.500000  1
  O  O20  1  0.000000  0.621226  0.121226  1
  O  O21  1  0.732146  0.225368  0.927054  1
  O  O22  1  0.732146  0.725368  0.572946  1
  O  O23  1  0.732146  0.774632  0.072946  1
  O  O24  1  0.742102  0.000000  0.500000  1
  O  O25  1  0.257898  0.500000  0.000000  1
  O  O26  1  0.742102  0.500000  0.000000  1
  O  O27  1  0.000000  0.878774  0.621226  1
  O  O28  1  0.267854  0.427054  0.725368  1
  O  O29  1  0.267854  0.927054  0.774632  1
  O  O30  1  0.267854  0.072946  0.225368  1
  O  O31  1  0.000000  0.121226  0.378774  1
  O  O32  1  0.732146  0.274632  0.427054  1
  O  O33  1  0.257898  0.000000  0.500000  1
  O  O34  1  0.732146  0.927054  0.774632  1
  O  O35  1  0.267854  0.225368  0.927054  1
  O  O36  1  0.732146  0.072946  0.225368  1
  O  O37  1  0.732146  0.427054  0.725368  1
  O  O38  1  0.267854  0.572946  0.274632  1
  O  O39  1  0.267854  0.274632  0.427054  1
  O  O40  1  0.500000  0.000000  0.000000  1
  O  O41  1  0.267854  0.774632  0.072946  1
  O  O42  1  0.000000  0.000000  0.000000  1
  O  O43  1  0.500000  0.500000  0.500000  1
