# generated using pymatgen
data_La5Sn15Ir8
_symmetry_space_group_name_H-M   'P 1'
_cell_length_a   4.55625600
_cell_length_b   7.38153195
_cell_length_c   18.87039660
_cell_angle_alpha   89.94497956
_cell_angle_beta   90.00000000
_cell_angle_gamma   90.00000000
_symmetry_Int_Tables_number   1
_chemical_formula_structural   La5Sn15Ir8
_chemical_formula_sum   'La5 Sn15 Ir8'
_cell_volume   634.65170166
_cell_formula_units_Z   1
loop_
 _symmetry_equiv_pos_site_id
 _symmetry_equiv_pos_as_xyz
  1  'x, y, z'
loop_
 _atom_site_type_symbol
 _atom_site_label
 _atom_site_symmetry_multiplicity
 _atom_site_fract_x
 _atom_site_fract_y
 _atom_site_fract_z
 _atom_site_occupancy
  La  La0  1  0.500000  0.003934  0.856070  1
  La  La1  1  0.500000  0.498217  0.357753  1
  La  La2  1  0.000000  0.997320  0.144574  1
  La  La3  1  0.000000  0.501457  0.641199  1
  La  La4  1  0.500000  0.495741  0.930397  1
  Sn  Sn5  1  0.000000  0.717953  0.804170  1
  Sn  Sn6  1  0.000000  0.780104  0.307242  1
  Sn  Sn7  1  0.500000  0.276462  0.194404  1
  Sn  Sn8  1  0.500000  0.216897  0.691693  1
  Sn  Sn9  1  0.000000  0.854154  0.971366  1
  Sn  Sn10  1  0.000000  0.633740  0.468013  1
  Sn  Sn11  1  0.500000  0.135437  0.032687  1
  Sn  Sn12  1  0.500000  0.365910  0.530819  1
  Sn  Sn13  1  0.000000  0.305375  0.816770  1
  Sn  Sn14  1  0.000000  0.196651  0.318116  1
  Sn  Sn15  1  0.500000  0.694964  0.187273  1
  Sn  Sn16  1  0.500000  0.808777  0.677948  1
  Sn  Sn17  1  0.500000  0.020085  0.433252  1
  Sn  Sn18  1  0.000000  0.512786  0.069389  1
  Sn  Sn19  1  0.000000  0.981017  0.567205  1
  Ir  Ir20  1  0.000000  0.228722  0.964078  1
  Ir  Ir21  1  0.000000  0.249235  0.464144  1
  Ir  Ir22  1  0.500000  0.766227  0.046436  1
  Ir  Ir23  1  0.500000  0.750534  0.533064  1
  Ir  Ir24  1  0.000000  0.018069  0.714710  1
  Ir  Ir25  1  0.000000  0.482352  0.215639  1
  Ir  Ir26  1  0.500000  0.987260  0.289279  1
  Ir  Ir27  1  0.500000  0.520616  0.772309  1
