# generated using pymatgen
data_Y6Er2TcOsBr8
_symmetry_space_group_name_H-M   'P 1'
_cell_length_a   8.99912276
_cell_length_b   8.93590814
_cell_length_c   6.57275995
_cell_angle_alpha   89.44043710
_cell_angle_beta   89.59376302
_cell_angle_gamma   89.42358940
_symmetry_Int_Tables_number   1
_chemical_formula_structural   Y6Er2TcOsBr8
_chemical_formula_sum   'Y6 Er2 Tc1 Os1 Br8'
_cell_volume   528.48581642
_cell_formula_units_Z   1
loop_
 _symmetry_equiv_pos_site_id
 _symmetry_equiv_pos_as_xyz
  1  'x, y, z'
loop_
 _atom_site_type_symbol
 _atom_site_label
 _atom_site_symmetry_multiplicity
 _atom_site_fract_x
 _atom_site_fract_y
 _atom_site_fract_z
 _atom_site_occupancy
  Y  Y0  1  0.250669  0.899193  0.010565  1
  Y  Y1  1  0.748905  0.100901  0.989943  1
  Y  Y2  1  0.099162  0.749873  0.488848  1
  Y  Y3  1  0.900750  0.250689  0.510469  1
  Y  Y4  1  0.751756  0.902679  0.508078  1
  Y  Y5  1  0.248420  0.097656  0.491207  1
  Er  Er6  1  0.095145  0.244012  0.992163  1
  Er  Er7  1  0.904439  0.755961  0.008330  1
  Tc  Tc8  1  0.994647  0.005525  0.249486  1
  Os  Os9  1  0.005164  0.994718  0.750839  1
  Br  Br10  1  0.419549  0.815493  0.411561  1
  Br  Br11  1  0.580356  0.184096  0.590480  1
  Br  Br12  1  0.180363  0.579181  0.089892  1
  Br  Br13  1  0.819878  0.421087  0.908249  1
  Br  Br14  1  0.412779  0.191341  0.089950  1
  Br  Br15  1  0.587485  0.807853  0.909446  1
  Br  Br16  1  0.810149  0.584839  0.405334  1
  Br  Br17  1  0.190385  0.414905  0.595160  1
