# generated using pymatgen
data_Dy2Tm6Lu4InGaCo4
_symmetry_space_group_name_H-M   'P 1'
_cell_length_a   8.21406734
_cell_length_b   8.21397079
_cell_length_c   8.21874722
_cell_angle_alpha   111.42397992
_cell_angle_beta   110.38915783
_cell_angle_gamma   106.61398735
_symmetry_Int_Tables_number   1
_chemical_formula_structural   Dy2Tm6Lu4InGaCo4
_chemical_formula_sum   'Dy2 Tm6 Lu4 In1 Ga1 Co4'
_cell_volume   426.17969076
_cell_formula_units_Z   1
loop_
 _symmetry_equiv_pos_site_id
 _symmetry_equiv_pos_as_xyz
  1  'x, y, z'
loop_
 _atom_site_type_symbol
 _atom_site_label
 _atom_site_symmetry_multiplicity
 _atom_site_fract_x
 _atom_site_fract_y
 _atom_site_fract_z
 _atom_site_occupancy
  Dy  Dy0  1  0.185131  0.715184  0.900309  1
  Dy  Dy1  1  0.814869  0.284816  0.099691  1
  Tm  Tm2  1  0.433420  0.228966  0.206334  1
  Tm  Tm3  1  0.566580  0.771034  0.793666  1
  Tm  Tm4  1  0.022630  0.227087  0.793663  1
  Tm  Tm5  1  0.977370  0.772913  0.206337  1
  Tm  Tm6  1  0.185246  0.284300  0.469548  1
  Tm  Tm7  1  0.814754  0.715700  0.530452  1
  Lu  Lu8  1  0.317537  0.622771  0.306635  1
  Lu  Lu9  1  0.682463  0.377229  0.693365  1
  Lu  Lu10  1  0.316134  0.010912  0.693374  1
  Lu  Lu11  1  0.683866  0.989088  0.306626  1
  In  In12  1  0.500000  0.500000  0.000000  1
  Ga  Ga13  1  0.000000  0.000000  0.000000  1
  Co  Co14  1  0.374565  0.000831  0.375410  1
  Co  Co15  1  0.625435  0.999169  0.624590  1
  Co  Co16  1  0.114231  0.614210  0.500034  1
  Co  Co17  1  0.885769  0.385790  0.499966  1
