# generated using pymatgen
data_TbY(H2Cl)2
_symmetry_space_group_name_H-M   'P 1'
_cell_length_a   11.11297407
_cell_length_b   11.11297420
_cell_length_c   11.11297311
_cell_angle_alpha   19.33962886
_cell_angle_beta   19.33962815
_cell_angle_gamma   19.33963117
_symmetry_Int_Tables_number   1
_chemical_formula_structural   TbY(H2Cl)2
_chemical_formula_sum   'Tb1 Y1 H4 Cl2'
_cell_volume   131.58877286
_cell_formula_units_Z   1
loop_
 _symmetry_equiv_pos_site_id
 _symmetry_equiv_pos_as_xyz
  1  'x, y, z'
loop_
 _atom_site_type_symbol
 _atom_site_label
 _atom_site_symmetry_multiplicity
 _atom_site_fract_x
 _atom_site_fract_y
 _atom_site_fract_z
 _atom_site_occupancy
  Tb  Tb0  1  0.116954  0.116954  0.116954  1
  Y  Y1  1  0.882895  0.882895  0.882895  1
  H  H2  1  0.815032  0.815032  0.815032  1
  H  H3  1  0.185021  0.185021  0.185021  1
  H  H4  1  0.542800  0.542800  0.542800  1
  H  H5  1  0.457417  0.457417  0.457417  1
  Cl  Cl6  1  0.729514  0.729514  0.729514  1
  Cl  Cl7  1  0.270367  0.270367  0.270367  1
