# generated using pymatgen
data_Tb5ErCoBr10
_symmetry_space_group_name_H-M   'P 1'
_cell_length_a   7.37097013
_cell_length_b   9.07237356
_cell_length_c   9.24513197
_cell_angle_alpha   107.98435336
_cell_angle_beta   97.11739990
_cell_angle_gamma   104.83941278
_symmetry_Int_Tables_number   1
_chemical_formula_structural   Tb5ErCoBr10
_chemical_formula_sum   'Tb5 Er1 Co1 Br10'
_cell_volume   554.39780984
_cell_formula_units_Z   1
loop_
 _symmetry_equiv_pos_site_id
 _symmetry_equiv_pos_as_xyz
  1  'x, y, z'
loop_
 _atom_site_type_symbol
 _atom_site_label
 _atom_site_symmetry_multiplicity
 _atom_site_fract_x
 _atom_site_fract_y
 _atom_site_fract_z
 _atom_site_occupancy
  Tb  Tb0  1  0.643272  0.866888  0.322104  1
  Tb  Tb1  1  0.356610  0.133331  0.678384  1
  Tb  Tb2  1  0.967248  0.284197  0.585519  1
  Tb  Tb3  1  0.032756  0.715458  0.412508  1
  Tb  Tb4  1  0.877074  0.953168  0.744667  1
  Er  Er5  1  0.121585  0.046272  0.259542  1
  Co  Co6  1  0.999847  0.999670  0.500442  1
  Br  Br7  1  0.544587  0.180540  0.413730  1
  Br  Br8  1  0.452745  0.818306  0.583950  1
  Br  Br9  1  0.213485  0.746868  0.153379  1
  Br  Br10  1  0.785467  0.257487  0.845264  1
  Br  Br11  1  0.914694  0.627658  0.671718  1
  Br  Br12  1  0.087484  0.368580  0.324860  1
  Br  Br13  1  0.753170  0.916049  0.043536  1
  Br  Br14  1  0.250580  0.085513  0.961135  1
  Br  Br15  1  0.652561  0.545769  0.227350  1
  Br  Br16  1  0.346836  0.454245  0.771914  1
