# generated using pymatgen
data_YbGa8Pd3
_symmetry_space_group_name_H-M   'P 1'
_cell_length_a   8.51682383
_cell_length_b   8.51682466
_cell_length_c   8.51682472
_cell_angle_alpha   89.85575013
_cell_angle_beta   89.85575356
_cell_angle_gamma   89.85575257
_symmetry_Int_Tables_number   1
_chemical_formula_structural   YbGa8Pd3
_chemical_formula_sum   'Yb3 Ga24 Pd9'
_cell_volume   617.77304840
_cell_formula_units_Z   3
loop_
 _symmetry_equiv_pos_site_id
 _symmetry_equiv_pos_as_xyz
  1  'x, y, z'
loop_
 _atom_site_type_symbol
 _atom_site_label
 _atom_site_symmetry_multiplicity
 _atom_site_fract_x
 _atom_site_fract_y
 _atom_site_fract_z
 _atom_site_occupancy
  Yb  Yb0  1  0.000000  0.500000  0.000000  1
  Yb  Yb1  1  0.500000  0.000000  0.000000  1
  Yb  Yb2  1  0.000000  0.000000  0.500000  1
  Ga  Ga3  1  0.991129  0.643705  0.643705  1
  Ga  Ga4  1  0.643705  0.643705  0.991129  1
  Ga  Ga5  1  0.643705  0.991129  0.643705  1
  Ga  Ga6  1  0.008871  0.356295  0.356295  1
  Ga  Ga7  1  0.356295  0.356295  0.008871  1
  Ga  Ga8  1  0.356295  0.008871  0.356295  1
  Ga  Ga9  1  0.743450  0.500000  0.256550  1
  Ga  Ga10  1  0.256550  0.500000  0.743450  1
  Ga  Ga11  1  0.500000  0.256550  0.743450  1
  Ga  Ga12  1  0.500000  0.743450  0.256550  1
  Ga  Ga13  1  0.256550  0.743450  0.500000  1
  Ga  Ga14  1  0.743450  0.256550  0.500000  1
  Ga  Ga15  1  0.839193  0.141951  0.839193  1
  Ga  Ga16  1  0.141951  0.839193  0.839193  1
  Ga  Ga17  1  0.839193  0.839193  0.141951  1
  Ga  Ga18  1  0.160807  0.858049  0.160807  1
  Ga  Ga19  1  0.858049  0.160807  0.160807  1
  Ga  Ga20  1  0.160807  0.160807  0.858049  1
  Ga  Ga21  1  0.732154  0.486100  0.732154  1
  Ga  Ga22  1  0.486100  0.732154  0.732154  1
  Ga  Ga23  1  0.732154  0.732154  0.486100  1
  Ga  Ga24  1  0.267846  0.513900  0.267846  1
  Ga  Ga25  1  0.513900  0.267846  0.267846  1
  Ga  Ga26  1  0.267846  0.267846  0.513900  1
  Pd  Pd27  1  0.834303  0.834303  0.834303  1
  Pd  Pd28  1  0.165697  0.165697  0.165697  1
  Pd  Pd29  1  0.664385  0.335615  0.000000  1
  Pd  Pd30  1  0.000000  0.335615  0.664385  1
  Pd  Pd31  1  0.335615  0.000000  0.664385  1
  Pd  Pd32  1  0.335615  0.664385  0.000000  1
  Pd  Pd33  1  0.000000  0.664385  0.335615  1
  Pd  Pd34  1  0.664385  0.000000  0.335615  1
  Pd  Pd35  1  0.500000  0.500000  0.500000  1
