# generated using pymatgen
data_Hf4Nb2Zn7
_symmetry_space_group_name_H-M   'P 1'
_cell_length_a   5.21224044
_cell_length_b   5.21224194
_cell_length_c   9.84468404
_cell_angle_alpha   74.64947770
_cell_angle_beta   74.64947182
_cell_angle_gamma   59.99999860
_symmetry_Int_Tables_number   1
_chemical_formula_structural   Hf4Nb2Zn7
_chemical_formula_sum   'Hf4 Nb2 Zn7'
_cell_volume   220.53633703
_cell_formula_units_Z   1
loop_
 _symmetry_equiv_pos_site_id
 _symmetry_equiv_pos_as_xyz
  1  'x, y, z'
loop_
 _atom_site_type_symbol
 _atom_site_label
 _atom_site_symmetry_multiplicity
 _atom_site_fract_x
 _atom_site_fract_y
 _atom_site_fract_z
 _atom_site_occupancy
  Hf  Hf0  1  0.833558  0.833558  0.499327  1
  Hf  Hf1  1  0.166442  0.166442  0.500673  1
  Hf  Hf2  1  0.646549  0.646549  0.060352  1
  Hf  Hf3  1  0.353451  0.353451  0.939648  1
  Nb  Nb4  1  0.543355  0.543355  0.369934  1
  Nb  Nb5  1  0.456645  0.456645  0.630066  1
  Zn  Zn6  1  0.000000  0.000000  0.000000  1
  Zn  Zn7  1  0.905812  0.905812  0.774578  1
  Zn  Zn8  1  0.413796  0.905812  0.774578  1
  Zn  Zn9  1  0.905812  0.413796  0.774578  1
  Zn  Zn10  1  0.094188  0.094188  0.225422  1
  Zn  Zn11  1  0.586204  0.094188  0.225422  1
  Zn  Zn12  1  0.094188  0.586204  0.225422  1
