# generated using pymatgen
data_Tb3Ho7In4(HgPd)4
_symmetry_space_group_name_H-M   'P 1'
_cell_length_a   3.61791600
_cell_length_b   8.01646613
_cell_length_c   18.31895657
_cell_angle_alpha   89.93928031
_cell_angle_beta   90.00000000
_cell_angle_gamma   90.00000000
_symmetry_Int_Tables_number   1
_chemical_formula_structural   Tb3Ho7In4(HgPd)4
_chemical_formula_sum   'Tb3 Ho7 In4 Hg4 Pd4'
_cell_volume   531.30258660
_cell_formula_units_Z   1
loop_
 _symmetry_equiv_pos_site_id
 _symmetry_equiv_pos_as_xyz
  1  'x, y, z'
loop_
 _atom_site_type_symbol
 _atom_site_label
 _atom_site_symmetry_multiplicity
 _atom_site_fract_x
 _atom_site_fract_y
 _atom_site_fract_z
 _atom_site_occupancy
  Tb  Tb0  1  0.000000  0.499930  0.499999  1
  Tb  Tb1  1  0.000000  0.999995  0.999990  1
  Tb  Tb2  1  0.000000  0.742928  0.283441  1
  Ho  Ho3  1  0.000000  0.256966  0.716617  1
  Ho  Ho4  1  0.000000  0.756812  0.783360  1
  Ho  Ho5  1  0.000000  0.243004  0.216645  1
  Ho  Ho6  1  0.000000  0.608759  0.083404  1
  Ho  Ho7  1  0.000000  0.391047  0.916380  1
  Ho  Ho8  1  0.000000  0.891253  0.583690  1
  Ho  Ho9  1  0.000000  0.109098  0.416639  1
  In  In10  1  0.500000  0.580234  0.649139  1
  In  In11  1  0.500000  0.419097  0.350979  1
  In  In12  1  0.500000  0.920559  0.148760  1
  In  In13  1  0.500000  0.080157  0.850856  1
  Hg  Hg14  1  0.500000  0.712392  0.932386  1
  Hg  Hg15  1  0.500000  0.287498  0.067535  1
  Hg  Hg16  1  0.500000  0.787817  0.432798  1
  Hg  Hg17  1  0.500000  0.212255  0.567633  1
  Pd  Pd18  1  0.500000  0.528237  0.197219  1
  Pd  Pd19  1  0.500000  0.470310  0.802363  1
  Pd  Pd20  1  0.500000  0.970336  0.697703  1
  Pd  Pd21  1  0.500000  0.031317  0.302462  1
