# generated using pymatgen
data_TbTaCo2P3Ru2
_symmetry_space_group_name_H-M   'P 1'
_cell_length_a   3.71374700
_cell_length_b   10.84947200
_cell_length_c   12.46394400
_cell_angle_alpha   90.00000000
_cell_angle_beta   90.00000000
_cell_angle_gamma   90.00000000
_symmetry_Int_Tables_number   1
_chemical_formula_structural   TbTaCo2P3Ru2
_chemical_formula_sum   'Tb4 Ta4 Co8 P12 Ru8'
_cell_volume   502.19965079
_cell_formula_units_Z   4
loop_
 _symmetry_equiv_pos_site_id
 _symmetry_equiv_pos_as_xyz
  1  'x, y, z'
loop_
 _atom_site_type_symbol
 _atom_site_label
 _atom_site_symmetry_multiplicity
 _atom_site_fract_x
 _atom_site_fract_y
 _atom_site_fract_z
 _atom_site_occupancy
  Tb  Tb0  1  0.250000  0.580965  0.709811  1
  Tb  Tb1  1  0.250000  0.919035  0.209811  1
  Tb  Tb2  1  0.750000  0.419035  0.290189  1
  Tb  Tb3  1  0.750000  0.080965  0.790189  1
  Ta  Ta4  1  0.250000  0.698996  0.988034  1
  Ta  Ta5  1  0.250000  0.801004  0.488034  1
  Ta  Ta6  1  0.750000  0.301004  0.011966  1
  Ta  Ta7  1  0.750000  0.198996  0.511966  1
  Co  Co8  1  0.250000  0.886405  0.692237  1
  Co  Co9  1  0.250000  0.613595  0.192237  1
  Co  Co10  1  0.750000  0.113595  0.307763  1
  Co  Co11  1  0.750000  0.386405  0.807763  1
  Co  Co12  1  0.250000  0.463028  0.936932  1
  Co  Co13  1  0.250000  0.036972  0.436932  1
  Co  Co14  1  0.750000  0.536972  0.063068  1
  Co  Co15  1  0.750000  0.963028  0.563068  1
  P  P16  1  0.250000  0.427807  0.115389  1
  P  P17  1  0.250000  0.072193  0.615389  1
  P  P18  1  0.750000  0.572193  0.884611  1
  P  P19  1  0.750000  0.927807  0.384611  1
  P  P20  1  0.250000  0.270754  0.865540  1
  P  P21  1  0.250000  0.229246  0.365540  1
  P  P22  1  0.750000  0.729246  0.134460  1
  P  P23  1  0.750000  0.770754  0.634460  1
  P  P24  1  0.250000  0.594499  0.382763  1
  P  P25  1  0.250000  0.905501  0.882763  1
  P  P26  1  0.750000  0.405501  0.617237  1
  P  P27  1  0.750000  0.094499  0.117237  1
  Ru  Ru28  1  0.250000  0.403152  0.486589  1
  Ru  Ru29  1  0.250000  0.096848  0.986589  1
  Ru  Ru30  1  0.750000  0.596848  0.513411  1
  Ru  Ru31  1  0.750000  0.903152  0.013411  1
  Ru  Ru32  1  0.250000  0.221928  0.178555  1
  Ru  Ru33  1  0.250000  0.278072  0.678555  1
  Ru  Ru34  1  0.750000  0.778072  0.821445  1
  Ru  Ru35  1  0.750000  0.721928  0.321445  1
