# generated using pymatgen
data_Y19ErSi15Pd
_symmetry_space_group_name_H-M   'P 1'
_cell_length_a   7.47406538
_cell_length_b   7.69922608
_cell_length_c   14.65538075
_cell_angle_alpha   90.25092205
_cell_angle_beta   90.41094009
_cell_angle_gamma   90.19083024
_symmetry_Int_Tables_number   1
_chemical_formula_structural   Y19ErSi15Pd
_chemical_formula_sum   'Y19 Er1 Si15 Pd1'
_cell_volume   843.30229347
_cell_formula_units_Z   1
loop_
 _symmetry_equiv_pos_site_id
 _symmetry_equiv_pos_as_xyz
  1  'x, y, z'
loop_
 _atom_site_type_symbol
 _atom_site_label
 _atom_site_symmetry_multiplicity
 _atom_site_fract_x
 _atom_site_fract_y
 _atom_site_fract_z
 _atom_site_occupancy
  Y  Y0  1  0.182565  0.321550  0.876889  1
  Y  Y1  1  0.319278  0.819504  0.121943  1
  Y  Y2  1  0.820654  0.681858  0.379488  1
  Y  Y3  1  0.320504  0.824158  0.378012  1
  Y  Y4  1  0.817618  0.679807  0.122436  1
  Y  Y5  1  0.680753  0.180066  0.877435  1
  Y  Y6  1  0.178870  0.320456  0.623028  1
  Y  Y7  1  0.526336  0.680159  0.599895  1
  Y  Y8  1  0.028484  0.817379  0.901392  1
  Y  Y9  1  0.470743  0.317726  0.099082  1
  Y  Y10  1  0.973940  0.180537  0.399575  1
  Y  Y11  1  0.470989  0.319909  0.400577  1
  Y  Y12  1  0.970713  0.182458  0.098780  1
  Y  Y13  1  0.529993  0.682408  0.900368  1
  Y  Y14  1  0.027092  0.818027  0.600015  1
  Y  Y15  1  0.851083  0.507717  0.749365  1
  Y  Y16  1  0.350953  0.989626  0.748124  1
  Y  Y17  1  0.149348  0.488991  0.250504  1
  Y  Y18  1  0.651793  0.011270  0.253302  1
  Er  Er19  1  0.681295  0.170561  0.620543  1
  Si  Si20  1  0.145280  0.528086  0.040149  1
  Si  Si21  1  0.353507  0.029319  0.960076  1
  Si  Si22  1  0.851714  0.471140  0.541656  1
  Si  Si23  1  0.346103  0.028191  0.541912  1
  Si  Si24  1  0.855367  0.471506  0.959546  1
  Si  Si25  1  0.644484  0.971541  0.039457  1
  Si  Si26  1  0.147100  0.529607  0.460433  1
  Si  Si27  1  0.479060  0.393652  0.749196  1
  Si  Si28  1  0.975665  0.104327  0.751236  1
  Si  Si29  1  0.523399  0.605299  0.249023  1
  Si  Si30  1  0.025799  0.895049  0.247746  1
  Si  Si31  1  0.734632  0.872235  0.751331  1
  Si  Si32  1  0.233916  0.626995  0.750846  1
  Si  Si33  1  0.266987  0.126404  0.247296  1
  Si  Si34  1  0.766429  0.375689  0.249092  1
  Pd  Pd35  1  0.647555  0.976797  0.460253  1
