# generated using pymatgen
data_Dy4VRe(B8Rh)2
_symmetry_space_group_name_H-M   'P 1'
_cell_length_a   3.56005000
_cell_length_b   5.97274351
_cell_length_c   11.56660856
_cell_angle_alpha   89.65098728
_cell_angle_beta   90.00000000
_cell_angle_gamma   90.00000000
_symmetry_Int_Tables_number   1
_chemical_formula_structural   Dy4VRe(B8Rh)2
_chemical_formula_sum   'Dy4 V1 Re1 B16 Rh2'
_cell_volume   245.93930643
_cell_formula_units_Z   1
loop_
 _symmetry_equiv_pos_site_id
 _symmetry_equiv_pos_as_xyz
  1  'x, y, z'
loop_
 _atom_site_type_symbol
 _atom_site_label
 _atom_site_symmetry_multiplicity
 _atom_site_fract_x
 _atom_site_fract_y
 _atom_site_fract_z
 _atom_site_occupancy
  Dy  Dy0  1  0.000000  0.625684  0.351265  1
  Dy  Dy1  1  0.000000  0.373923  0.649677  1
  Dy  Dy2  1  0.000000  0.129513  0.149076  1
  Dy  Dy3  1  0.000000  0.870699  0.849416  1
  V  V4  1  0.000000  0.872963  0.583631  1
  Re  Re5  1  0.000000  0.126159  0.415513  1
  B  B6  1  0.500000  0.787538  0.186739  1
  B  B7  1  0.500000  0.212678  0.813304  1
  B  B8  1  0.500000  0.286498  0.314574  1
  B  B9  1  0.500000  0.713571  0.685894  1
  B  B10  1  0.500000  0.864348  0.030543  1
  B  B11  1  0.500000  0.135440  0.968522  1
  B  B12  1  0.500000  0.364650  0.467914  1
  B  B13  1  0.500000  0.635119  0.532307  1
  B  B14  1  0.500000  0.886227  0.453578  1
  B  B15  1  0.500000  0.113533  0.546548  1
  B  B16  1  0.500000  0.386876  0.047044  1
  B  B17  1  0.500000  0.613377  0.952604  1
  B  B18  1  0.500000  0.976214  0.307676  1
  B  B19  1  0.500000  0.023573  0.692298  1
  B  B20  1  0.500000  0.474528  0.192468  1
  B  B21  1  0.500000  0.524948  0.807174  1
  Rh  Rh22  1  0.000000  0.642134  0.094637  1
  Rh  Rh23  1  0.000000  0.359808  0.907597  1
