# generated using pymatgen
data_Y3Ho5(CoAg)2
_symmetry_space_group_name_H-M   'P 1'
_cell_length_a   9.41548818
_cell_length_b   9.41548894
_cell_length_c   9.41549000
_cell_angle_alpha   60.00000329
_cell_angle_beta   60.00000062
_cell_angle_gamma   60.00000511
_symmetry_Int_Tables_number   1
_chemical_formula_structural   Y3Ho5(CoAg)2
_chemical_formula_sum   'Y6 Ho10 Co4 Ag4'
_cell_volume   590.21966856
_cell_formula_units_Z   2
loop_
 _symmetry_equiv_pos_site_id
 _symmetry_equiv_pos_as_xyz
  1  'x, y, z'
loop_
 _atom_site_type_symbol
 _atom_site_label
 _atom_site_symmetry_multiplicity
 _atom_site_fract_x
 _atom_site_fract_y
 _atom_site_fract_z
 _atom_site_occupancy
  Y  Y0  1  0.937860  0.562140  0.562140  1
  Y  Y1  1  0.562140  0.937860  0.937860  1
  Y  Y2  1  0.562140  0.937860  0.562140  1
  Y  Y3  1  0.937860  0.562140  0.937860  1
  Y  Y4  1  0.562140  0.562140  0.937860  1
  Y  Y5  1  0.937860  0.937860  0.562140  1
  Ho  Ho6  1  0.347490  0.347490  0.347490  1
  Ho  Ho7  1  0.347490  0.347490  0.957531  1
  Ho  Ho8  1  0.347490  0.957531  0.347490  1
  Ho  Ho9  1  0.957531  0.347490  0.347490  1
  Ho  Ho10  1  0.812187  0.187813  0.187813  1
  Ho  Ho11  1  0.187813  0.812187  0.812187  1
  Ho  Ho12  1  0.187813  0.812187  0.187813  1
  Ho  Ho13  1  0.812187  0.187813  0.812187  1
  Ho  Ho14  1  0.187813  0.187813  0.812187  1
  Ho  Ho15  1  0.812187  0.812187  0.187813  1
  Co  Co16  1  0.141300  0.141300  0.141300  1
  Co  Co17  1  0.141300  0.141300  0.576100  1
  Co  Co18  1  0.141300  0.576100  0.141300  1
  Co  Co19  1  0.576100  0.141300  0.141300  1
  Ag  Ag20  1  0.580748  0.580748  0.580748  1
  Ag  Ag21  1  0.580748  0.580748  0.257757  1
  Ag  Ag22  1  0.580748  0.257757  0.580748  1
  Ag  Ag23  1  0.257757  0.580748  0.580748  1
