# generated using pymatgen
data_ErIn3B4SbIr9
_symmetry_space_group_name_H-M   'P 1'
_cell_length_a   5.61194800
_cell_length_b   5.61194790
_cell_length_c   10.49608200
_cell_angle_alpha   90.00000000
_cell_angle_beta   90.00000000
_cell_angle_gamma   119.99998877
_symmetry_Int_Tables_number   1
_chemical_formula_structural   ErIn3B4SbIr9
_chemical_formula_sum   'Er1 In3 B4 Sb1 Ir9'
_cell_volume   286.27614796
_cell_formula_units_Z   1
loop_
 _symmetry_equiv_pos_site_id
 _symmetry_equiv_pos_as_xyz
  1  'x, y, z'
loop_
 _atom_site_type_symbol
 _atom_site_label
 _atom_site_symmetry_multiplicity
 _atom_site_fract_x
 _atom_site_fract_y
 _atom_site_fract_z
 _atom_site_occupancy
  Er  Er0  1  0.000000  0.000000  0.919640  1
  In  In1  1  0.666667  0.333333  0.505628  1
  In  In2  1  0.000000  0.000000  0.331289  1
  In  In3  1  0.333333  0.666667  0.505628  1
  B  B4  1  0.666667  0.333333  0.154300  1
  B  B5  1  0.333333  0.666667  0.864375  1
  B  B6  1  0.666667  0.333333  0.864375  1
  B  B7  1  0.333333  0.666667  0.154300  1
  Sb  Sb8  1  0.000000  0.000000  0.630591  1
  Ir  Ir9  1  0.000000  0.496499  0.281640  1
  Ir  Ir10  1  0.449499  0.000000  0.731603  1
  Ir  Ir11  1  0.496499  0.000000  0.281640  1
  Ir  Ir12  1  0.000000  0.493250  0.010049  1
  Ir  Ir13  1  0.550501  0.550501  0.731603  1
  Ir  Ir14  1  0.000000  0.449499  0.731603  1
  Ir  Ir15  1  0.506750  0.506750  0.010049  1
  Ir  Ir16  1  0.493250  0.000000  0.010049  1
  Ir  Ir17  1  0.503501  0.503501  0.281640  1
