# generated using pymatgen
data_NpNi6(BIr)6
_symmetry_space_group_name_H-M   'P 1'
_cell_length_a   6.30739706
_cell_length_b   6.30739732
_cell_length_c   6.30739617
_cell_angle_alpha   103.58016218
_cell_angle_beta   103.58015920
_cell_angle_gamma   103.58017325
_symmetry_Int_Tables_number   1
_chemical_formula_structural   NpNi6(BIr)6
_chemical_formula_sum   'Np1 Ni6 B6 Ir6'
_cell_volume   225.65565674
_cell_formula_units_Z   1
loop_
 _symmetry_equiv_pos_site_id
 _symmetry_equiv_pos_as_xyz
  1  'x, y, z'
loop_
 _atom_site_type_symbol
 _atom_site_label
 _atom_site_symmetry_multiplicity
 _atom_site_fract_x
 _atom_site_fract_y
 _atom_site_fract_z
 _atom_site_occupancy
  Np  Np0  1  0.000000  0.000000  0.000000  1
  Ni  Ni1  1  0.800536  0.546450  0.546450  1
  Ni  Ni2  1  0.546450  0.546450  0.800536  1
  Ni  Ni3  1  0.546450  0.800536  0.546450  1
  Ni  Ni4  1  0.199464  0.453550  0.453550  1
  Ni  Ni5  1  0.453550  0.453550  0.199464  1
  Ni  Ni6  1  0.453550  0.199464  0.453550  1
  B  B7  1  0.347795  0.768407  0.768407  1
  B  B8  1  0.768407  0.768407  0.347795  1
  B  B9  1  0.768407  0.347795  0.768407  1
  B  B10  1  0.652205  0.231593  0.231593  1
  B  B11  1  0.231593  0.231593  0.652205  1
  B  B12  1  0.231593  0.652205  0.231593  1
  Ir  Ir13  1  0.861879  0.138121  0.500000  1
  Ir  Ir14  1  0.138121  0.500000  0.861879  1
  Ir  Ir15  1  0.500000  0.861879  0.138121  1
  Ir  Ir16  1  0.861879  0.500000  0.138121  1
  Ir  Ir17  1  0.500000  0.138121  0.861879  1
  Ir  Ir18  1  0.138121  0.861879  0.500000  1
