# generated using pymatgen
data_Yb5Os3RhO18
_symmetry_space_group_name_H-M   'P 1'
_cell_length_a   8.84817217
_cell_length_b   8.84817159
_cell_length_c   5.20705311
_cell_angle_alpha   92.25098059
_cell_angle_beta   87.74902011
_cell_angle_gamma   120.12887718
_symmetry_Int_Tables_number   1
_chemical_formula_structural   Yb5Os3RhO18
_chemical_formula_sum   'Yb5 Os3 Rh1 O18'
_cell_volume   352.22302805
_cell_formula_units_Z   1
loop_
 _symmetry_equiv_pos_site_id
 _symmetry_equiv_pos_as_xyz
  1  'x, y, z'
loop_
 _atom_site_type_symbol
 _atom_site_label
 _atom_site_symmetry_multiplicity
 _atom_site_fract_x
 _atom_site_fract_y
 _atom_site_fract_z
 _atom_site_occupancy
  Yb  Yb0  1  0.009272  0.264568  0.491718  1
  Yb  Yb1  1  0.264568  0.009272  0.508282  1
  Yb  Yb2  1  0.387997  0.387997  0.000000  1
  Yb  Yb3  1  0.977585  0.604256  0.013050  1
  Yb  Yb4  1  0.604256  0.977585  0.986950  1
  Os  Os5  1  0.672417  0.327791  0.506782  1
  Os  Os6  1  0.327791  0.672417  0.493218  1
  Os  Os7  1  0.998534  0.998534  0.000000  1
  Rh  Rh8  1  0.700227  0.700227  0.500000  1
  O  O9  1  0.767861  0.244119  0.733378  1
  O  O10  1  0.776618  0.555294  0.685883  1
  O  O11  1  0.475528  0.244000  0.723078  1
  O  O12  1  0.555294  0.776618  0.314117  1
  O  O13  1  0.244000  0.475528  0.276922  1
  O  O14  1  0.244119  0.767861  0.266622  1
  O  O15  1  0.607597  0.471587  0.303853  1
  O  O16  1  0.540556  0.145670  0.284923  1
  O  O17  1  0.872114  0.393824  0.303444  1
  O  O18  1  0.075423  0.863873  0.829334  1
  O  O19  1  0.134868  0.182024  0.775082  1
  O  O20  1  0.800815  0.905582  0.757403  1
  O  O21  1  0.182024  0.134868  0.224918  1
  O  O22  1  0.905582  0.800815  0.242597  1
  O  O23  1  0.863873  0.075423  0.170666  1
  O  O24  1  0.471587  0.607597  0.696147  1
  O  O25  1  0.393824  0.872114  0.696556  1
  O  O26  1  0.145670  0.540556  0.715077  1
