# generated using pymatgen
data_Al3Ga2CuNi10
_symmetry_space_group_name_H-M   'P 1'
_cell_length_a   3.66439200
_cell_length_b   5.03262747
_cell_length_c   10.06384373
_cell_angle_alpha   94.06595748
_cell_angle_beta   90.00000000
_cell_angle_gamma   90.00000000
_symmetry_Int_Tables_number   1
_chemical_formula_structural   Al3Ga2CuNi10
_chemical_formula_sum   'Al3 Ga2 Cu1 Ni10'
_cell_volume   185.12545371
_cell_formula_units_Z   1
loop_
 _symmetry_equiv_pos_site_id
 _symmetry_equiv_pos_as_xyz
  1  'x, y, z'
loop_
 _atom_site_type_symbol
 _atom_site_label
 _atom_site_symmetry_multiplicity
 _atom_site_fract_x
 _atom_site_fract_y
 _atom_site_fract_z
 _atom_site_occupancy
  Al  Al0  1  0.500000  0.283902  0.359630  1
  Al  Al1  1  0.500000  0.256286  0.870806  1
  Al  Al2  1  0.500000  0.742955  0.130678  1
  Ga  Ga3  1  0.500000  0.715929  0.640110  1
  Ga  Ga4  1  0.000000  0.002561  0.498333  1
  Cu  Cu5  1  0.000000  0.999994  0.999973  1
  Ni  Ni6  1  0.500000  0.773809  0.382834  1
  Ni  Ni7  1  0.500000  0.753264  0.881377  1
  Ni  Ni8  1  0.500000  0.246033  0.119772  1
  Ni  Ni9  1  0.500000  0.226404  0.615840  1
  Ni  Ni10  1  0.000000  0.008903  0.250997  1
  Ni  Ni11  1  0.000000  0.992020  0.748548  1
  Ni  Ni12  1  0.000000  0.500309  0.000626  1
  Ni  Ni13  1  0.000000  0.500233  0.499186  1
  Ni  Ni14  1  0.000000  0.511045  0.248940  1
  Ni  Ni15  1  0.000000  0.486349  0.752345  1
