# generated using pymatgen
data_La12NiOs2PdI12
_symmetry_space_group_name_H-M   'P 1'
_cell_length_a   11.03910043
_cell_length_b   11.03909944
_cell_length_c   10.91405214
_cell_angle_alpha   109.27264935
_cell_angle_beta   109.27264287
_cell_angle_gamma   109.94957345
_symmetry_Int_Tables_number   1
_chemical_formula_structural   La12NiOs2PdI12
_chemical_formula_sum   'La12 Ni1 Os2 Pd1 I12'
_cell_volume   1022.77543002
_cell_formula_units_Z   1
loop_
 _symmetry_equiv_pos_site_id
 _symmetry_equiv_pos_as_xyz
  1  'x, y, z'
loop_
 _atom_site_type_symbol
 _atom_site_label
 _atom_site_symmetry_multiplicity
 _atom_site_fract_x
 _atom_site_fract_y
 _atom_site_fract_z
 _atom_site_occupancy
  La  La0  1  0.456374  0.481700  0.226674  1
  La  La1  1  0.763070  0.235806  0.275218  1
  La  La2  1  0.763599  0.027786  0.486546  1
  La  La3  1  0.224584  0.454405  0.480977  1
  La  La4  1  0.264194  0.736930  0.224782  1
  La  La5  1  0.045595  0.275416  0.019023  1
  La  La6  1  0.018300  0.043626  0.273326  1
  La  La7  1  0.472214  0.736401  0.013454  1
  La  La8  1  0.473554  0.232648  0.456142  1
  La  La9  1  0.020343  0.479657  0.750000  1
  La  La10  1  0.267352  0.026446  0.043858  1
  La  La11  1  0.229788  0.270212  0.750000  1
  Ni  Ni12  1  0.251862  0.248138  0.250000  1
  Os  Os13  1  0.998902  0.249147  0.498193  1
  Os  Os14  1  0.250853  0.501098  0.001807  1
  Pd  Pd15  1  0.499441  0.000559  0.250000  1
  I  I16  1  0.250282  0.760703  0.741384  1
  I  I17  1  0.520451  0.509100  0.758987  1
  I  I18  1  0.983746  0.742778  0.992562  1
  I  I19  1  0.739297  0.249718  0.758616  1
  I  I20  1  0.990900  0.979549  0.741013  1
  I  I21  1  0.250171  0.991858  0.507815  1
  I  I22  1  0.757222  0.516254  0.507438  1
  I  I23  1  0.508142  0.249829  0.992185  1
  I  I24  1  0.759659  0.740341  0.250000  1
  I  I25  1  0.741755  0.991744  0.982694  1
  I  I26  1  0.990093  0.509907  0.250000  1
  I  I27  1  0.508256  0.758245  0.517306  1
