# generated using pymatgen
data_CeY4CdRu4
_symmetry_space_group_name_H-M   'P 1'
_cell_length_a   3.44515600
_cell_length_b   3.44515600
_cell_length_c   18.02691800
_cell_angle_alpha   90.00000000
_cell_angle_beta   90.00000000
_cell_angle_gamma   90.00000000
_symmetry_Int_Tables_number   1
_chemical_formula_structural   CeY4CdRu4
_chemical_formula_sum   'Ce1 Y4 Cd1 Ru4'
_cell_volume   213.96328999
_cell_formula_units_Z   1
loop_
 _symmetry_equiv_pos_site_id
 _symmetry_equiv_pos_as_xyz
  1  'x, y, z'
loop_
 _atom_site_type_symbol
 _atom_site_label
 _atom_site_symmetry_multiplicity
 _atom_site_fract_x
 _atom_site_fract_y
 _atom_site_fract_z
 _atom_site_occupancy
  Ce  Ce0  1  0.000000  0.000000  0.000000  1
  Y  Y1  1  0.000000  0.000000  0.191584  1
  Y  Y2  1  0.000000  0.000000  0.375832  1
  Y  Y3  1  0.000000  0.000000  0.624168  1
  Y  Y4  1  0.000000  0.000000  0.808416  1
  Cd  Cd5  1  0.500000  0.500000  0.500000  1
  Ru  Ru6  1  0.500000  0.500000  0.085812  1
  Ru  Ru7  1  0.500000  0.500000  0.286733  1
  Ru  Ru8  1  0.500000  0.500000  0.713267  1
  Ru  Ru9  1  0.500000  0.500000  0.914188  1
