# generated using pymatgen
data_Tb3Pr16YSi16
_symmetry_space_group_name_H-M   'P 1'
_cell_length_a   7.84630007
_cell_length_b   7.84630007
_cell_length_c   15.38190904
_cell_angle_alpha   89.99444975
_cell_angle_beta   90.00555025
_cell_angle_gamma   90.01438560
_symmetry_Int_Tables_number   1
_chemical_formula_structural   Tb3Pr16YSi16
_chemical_formula_sum   'Tb3 Pr16 Y1 Si16'
_cell_volume   946.97834347
_cell_formula_units_Z   1
loop_
 _symmetry_equiv_pos_site_id
 _symmetry_equiv_pos_as_xyz
  1  'x, y, z'
loop_
 _atom_site_type_symbol
 _atom_site_label
 _atom_site_symmetry_multiplicity
 _atom_site_fract_x
 _atom_site_fract_y
 _atom_site_fract_z
 _atom_site_occupancy
  Tb  Tb0  1  0.308968  0.308968  0.000000  1
  Tb  Tb1  1  0.190840  0.808948  0.250018  1
  Tb  Tb2  1  0.808948  0.190840  0.749982  1
  Pr  Pr3  1  0.378387  0.013447  0.445147  1
  Pr  Pr4  1  0.486869  0.878887  0.695206  1
  Pr  Pr5  1  0.513104  0.121334  0.195170  1
  Pr  Pr6  1  0.878887  0.486869  0.304794  1
  Pr  Pr7  1  0.121334  0.513104  0.804830  1
  Pr  Pr8  1  0.621229  0.986852  0.945202  1
  Pr  Pr9  1  0.013447  0.378387  0.554853  1
  Pr  Pr10  1  0.986852  0.621229  0.054798  1
  Pr  Pr11  1  0.125168  0.976211  0.878665  1
  Pr  Pr12  1  0.523918  0.625013  0.128632  1
  Pr  Pr13  1  0.476108  0.374481  0.628694  1
  Pr  Pr14  1  0.625013  0.523918  0.871368  1
  Pr  Pr15  1  0.374481  0.476108  0.371306  1
  Pr  Pr16  1  0.875050  0.024209  0.378499  1
  Pr  Pr17  1  0.976211  0.125168  0.121335  1
  Pr  Pr18  1  0.024209  0.875050  0.621501  1
  Y  Y19  1  0.690596  0.690596  0.500000  1
  Si  Si20  1  0.188264  0.171984  0.708778  1
  Si  Si21  1  0.328156  0.688226  0.958723  1
  Si  Si22  1  0.671911  0.311978  0.458719  1
  Si  Si23  1  0.688226  0.328156  0.041277  1
  Si  Si24  1  0.311978  0.671911  0.541281  1
  Si  Si25  1  0.811862  0.828071  0.208840  1
  Si  Si26  1  0.171984  0.188264  0.291222  1
  Si  Si27  1  0.828071  0.811862  0.791160  1
  Si  Si28  1  0.286964  0.921027  0.063189  1
  Si  Si29  1  0.579122  0.786835  0.313500  1
  Si  Si30  1  0.421000  0.213079  0.813135  1
  Si  Si31  1  0.786835  0.579122  0.686500  1
  Si  Si32  1  0.213079  0.421000  0.186865  1
  Si  Si33  1  0.713038  0.078863  0.563179  1
  Si  Si34  1  0.921027  0.286964  0.936811  1
  Si  Si35  1  0.078863  0.713038  0.436821  1
