# generated using pymatgen
data_ErTmNi12P7
_symmetry_space_group_name_H-M   'P 1'
_cell_length_a   9.03467500
_cell_length_b   9.03467556
_cell_length_c   3.66883600
_cell_angle_alpha   90.00000000
_cell_angle_beta   90.00000000
_cell_angle_gamma   119.99999429
_symmetry_Int_Tables_number   1
_chemical_formula_structural   ErTmNi12P7
_chemical_formula_sum   'Er1 Tm1 Ni12 P7'
_cell_volume   259.34868572
_cell_formula_units_Z   1
loop_
 _symmetry_equiv_pos_site_id
 _symmetry_equiv_pos_as_xyz
  1  'x, y, z'
loop_
 _atom_site_type_symbol
 _atom_site_label
 _atom_site_symmetry_multiplicity
 _atom_site_fract_x
 _atom_site_fract_y
 _atom_site_fract_z
 _atom_site_occupancy
  Er  Er0  1  0.000000  0.000000  0.000000  1
  Tm  Tm1  1  0.333333  0.666667  0.500000  1
  Ni  Ni2  1  0.101308  0.394596  0.000000  1
  Ni  Ni3  1  0.293288  0.898692  0.000000  1
  Ni  Ni4  1  0.605404  0.706712  0.000000  1
  Ni  Ni5  1  0.819312  0.608166  0.000000  1
  Ni  Ni6  1  0.788855  0.180688  0.000000  1
  Ni  Ni7  1  0.391834  0.211145  0.000000  1
  Ni  Ni8  1  0.048726  0.764598  0.500000  1
  Ni  Ni9  1  0.715871  0.951274  0.500000  1
  Ni  Ni10  1  0.235402  0.284129  0.500000  1
  Ni  Ni11  1  0.883613  0.427546  0.500000  1
  Ni  Ni12  1  0.543933  0.116387  0.500000  1
  Ni  Ni13  1  0.572454  0.456067  0.500000  1
  P  P14  1  0.074644  0.627140  0.000000  1
  P  P15  1  0.552496  0.925356  0.000000  1
  P  P16  1  0.372860  0.447504  0.000000  1
  P  P17  1  0.778604  0.739428  0.500000  1
  P  P18  1  0.960824  0.221396  0.500000  1
  P  P19  1  0.260572  0.039176  0.500000  1
  P  P20  1  0.666667  0.333333  0.000000  1
