# generated using pymatgen
data_Tb3Er5Tm8(Ga3Co)2
_symmetry_space_group_name_H-M   'P 1'
_cell_length_a   9.88963714
_cell_length_b   9.88963554
_cell_length_c   6.93011201
_cell_angle_alpha   89.99449654
_cell_angle_beta   90.00550531
_cell_angle_gamma   120.01848132
_symmetry_Int_Tables_number   1
_chemical_formula_structural   Tb3Er5Tm8(Ga3Co)2
_chemical_formula_sum   'Tb3 Er5 Tm8 Ga6 Co2'
_cell_volume   586.88176893
_cell_formula_units_Z   1
loop_
 _symmetry_equiv_pos_site_id
 _symmetry_equiv_pos_as_xyz
  1  'x, y, z'
loop_
 _atom_site_type_symbol
 _atom_site_label
 _atom_site_symmetry_multiplicity
 _atom_site_fract_x
 _atom_site_fract_y
 _atom_site_fract_z
 _atom_site_occupancy
  Tb  Tb0  1  0.463697  0.536303  0.291621  1
  Tb  Tb1  1  0.999958  0.000042  0.769090  1
  Tb  Tb2  1  0.000011  0.999989  0.269059  1
  Er  Er3  1  0.536567  0.073158  0.791713  1
  Er  Er4  1  0.926842  0.463433  0.791713  1
  Er  Er5  1  0.536695  0.463305  0.791660  1
  Er  Er6  1  0.463430  0.927087  0.291768  1
  Er  Er7  1  0.072913  0.536570  0.291768  1
  Tm  Tm8  1  0.826617  0.652688  0.487942  1
  Tm  Tm9  1  0.347312  0.173383  0.487942  1
  Tm  Tm10  1  0.826280  0.173720  0.487694  1
  Tm  Tm11  1  0.173391  0.347149  0.987408  1
  Tm  Tm12  1  0.652851  0.826609  0.987408  1
  Tm  Tm13  1  0.173745  0.826255  0.987691  1
  Tm  Tm14  1  0.666808  0.333192  0.173691  1
  Tm  Tm15  1  0.333168  0.666832  0.673992  1
  Ga  Ga16  1  0.836149  0.672216  0.042552  1
  Ga  Ga17  1  0.327784  0.163851  0.042552  1
  Ga  Ga18  1  0.836096  0.163904  0.042760  1
  Ga  Ga19  1  0.163616  0.327594  0.542974  1
  Ga  Ga20  1  0.672406  0.836384  0.542974  1
  Ga  Ga21  1  0.163917  0.836083  0.542653  1
  Co  Co22  1  0.666682  0.333318  0.553894  1
  Co  Co23  1  0.333063  0.666937  0.053561  1
