# generated using pymatgen
data_DyEr3Cd2Cu3Ni
_symmetry_space_group_name_H-M   'P 1'
_cell_length_a   7.47474505
_cell_length_b   7.47474464
_cell_length_c   3.66859900
_cell_angle_alpha   90.00000000
_cell_angle_beta   90.00000000
_cell_angle_gamma   90.83361689
_symmetry_Int_Tables_number   1
_chemical_formula_structural   DyEr3Cd2Cu3Ni
_chemical_formula_sum   'Dy1 Er3 Cd2 Cu3 Ni1'
_cell_volume   204.94957383
_cell_formula_units_Z   1
loop_
 _symmetry_equiv_pos_site_id
 _symmetry_equiv_pos_as_xyz
  1  'x, y, z'
loop_
 _atom_site_type_symbol
 _atom_site_label
 _atom_site_symmetry_multiplicity
 _atom_site_fract_x
 _atom_site_fract_y
 _atom_site_fract_z
 _atom_site_occupancy
  Dy  Dy0  1  0.670804  0.170804  0.500000  1
  Er  Er1  1  0.317406  0.817406  0.500000  1
  Er  Er2  1  0.176276  0.340215  0.500000  1
  Er  Er3  1  0.840215  0.676276  0.500000  1
  Cd  Cd4  1  0.000955  0.002403  0.000000  1
  Cd  Cd5  1  0.502403  0.500955  0.000000  1
  Cu  Cu6  1  0.880402  0.380402  0.000000  1
  Cu  Cu7  1  0.616956  0.875976  0.000000  1
  Cu  Cu8  1  0.375976  0.116956  0.000000  1
  Ni  Ni9  1  0.118604  0.618604  0.000000  1
