# generated using pymatgen
data_Sr3TmSb3
_symmetry_space_group_name_H-M   'P 1'
_cell_length_a   8.42926315
_cell_length_b   8.42926303
_cell_length_c   9.74672567
_cell_angle_alpha   55.45492387
_cell_angle_beta   55.45492606
_cell_angle_gamma   71.08750495
_symmetry_Int_Tables_number   1
_chemical_formula_structural   Sr3TmSb3
_chemical_formula_sum   'Sr6 Tm2 Sb6'
_cell_volume   469.84243125
_cell_formula_units_Z   2
loop_
 _symmetry_equiv_pos_site_id
 _symmetry_equiv_pos_as_xyz
  1  'x, y, z'
loop_
 _atom_site_type_symbol
 _atom_site_label
 _atom_site_symmetry_multiplicity
 _atom_site_fract_x
 _atom_site_fract_y
 _atom_site_fract_z
 _atom_site_occupancy
  Sr  Sr0  1  0.001508  0.138192  0.110282  1
  Sr  Sr1  1  0.861808  0.998492  0.889718  1
  Sr  Sr2  1  0.499449  0.853575  0.751765  1
  Sr  Sr3  1  0.146425  0.500551  0.248235  1
  Sr  Sr4  1  0.997637  0.646419  0.604003  1
  Sr  Sr5  1  0.353581  0.002363  0.395997  1
  Tm  Tm6  1  0.632942  0.498325  0.253853  1
  Tm  Tm7  1  0.501675  0.367058  0.746147  1
  Sb  Sb8  1  0.853824  0.146176  0.500000  1
  Sb  Sb9  1  0.624241  0.375759  0.000000  1
  Sb  Sb10  1  0.275276  0.266312  0.613728  1
  Sb  Sb11  1  0.733688  0.724724  0.386272  1
  Sb  Sb12  1  0.128469  0.610524  0.878621  1
  Sb  Sb13  1  0.389476  0.871531  0.121379  1
