# generated using pymatgen
data_Ho3Er3(Sc2Sb3)2
_symmetry_space_group_name_H-M   'P 1'
_cell_length_a   8.76986531
_cell_length_b   8.76092083
_cell_length_c   6.08869400
_cell_angle_alpha   90.00000000
_cell_angle_beta   90.00000000
_cell_angle_gamma   120.00338485
_symmetry_Int_Tables_number   1
_chemical_formula_structural   Ho3Er3(Sc2Sb3)2
_chemical_formula_sum   'Ho3 Er3 Sc4 Sb6'
_cell_volume   405.11903071
_cell_formula_units_Z   1
loop_
 _symmetry_equiv_pos_site_id
 _symmetry_equiv_pos_as_xyz
  1  'x, y, z'
loop_
 _atom_site_type_symbol
 _atom_site_label
 _atom_site_symmetry_multiplicity
 _atom_site_fract_x
 _atom_site_fract_y
 _atom_site_fract_z
 _atom_site_occupancy
  Ho  Ho0  1  0.000192  0.755231  0.750000  1
  Ho  Ho1  1  0.000011  0.244839  0.250000  1
  Ho  Ho2  1  0.754623  0.754779  0.250000  1
  Er  Er3  1  0.754372  0.000042  0.750000  1
  Er  Er4  1  0.245209  0.245037  0.750000  1
  Er  Er5  1  0.245851  0.000195  0.250000  1
  Sc  Sc6  1  0.333190  0.666558  0.500007  1
  Sc  Sc7  1  0.666766  0.333465  0.000049  1
  Sc  Sc8  1  0.666766  0.333465  0.499951  1
  Sc  Sc9  1  0.333190  0.666558  0.999993  1
  Sb  Sb10  1  0.395345  0.000445  0.750000  1
  Sb  Sb11  1  0.394901  0.394464  0.250000  1
  Sb  Sb12  1  0.000354  0.605503  0.250000  1
  Sb  Sb13  1  0.999938  0.394326  0.750000  1
  Sb  Sb14  1  0.604685  0.605052  0.750000  1
  Sb  Sb15  1  0.604607  0.000041  0.250000  1
