# generated using pymatgen
data_Sr2LaCu7(Ni3B)2
_symmetry_space_group_name_H-M   'P 1'
_cell_length_a   5.19619030
_cell_length_b   5.19434891
_cell_length_c   10.94010408
_cell_angle_alpha   89.99375241
_cell_angle_beta   90.01247973
_cell_angle_gamma   120.01171469
_symmetry_Int_Tables_number   1
_chemical_formula_structural   Sr2LaCu7(Ni3B)2
_chemical_formula_sum   'Sr2 La1 Cu7 Ni6 B2'
_cell_volume   255.69189581
_cell_formula_units_Z   1
loop_
 _symmetry_equiv_pos_site_id
 _symmetry_equiv_pos_as_xyz
  1  'x, y, z'
loop_
 _atom_site_type_symbol
 _atom_site_label
 _atom_site_symmetry_multiplicity
 _atom_site_fract_x
 _atom_site_fract_y
 _atom_site_fract_z
 _atom_site_occupancy
  Sr  Sr0  1  0.000103  0.000000  0.320634  1
  Sr  Sr1  1  0.999745  0.000000  0.679571  1
  La  La2  1  0.000104  0.000000  0.999972  1
  Cu  Cu3  1  0.499916  0.000000  0.499975  1
  Cu  Cu4  1  0.499884  0.499997  0.499982  1
  Cu  Cu5  1  0.999887  0.500003  0.499982  1
  Cu  Cu6  1  0.333539  0.666905  0.313145  1
  Cu  Cu7  1  0.666634  0.333095  0.313145  1
  Cu  Cu8  1  0.666329  0.333083  0.686850  1
  Cu  Cu9  1  0.333246  0.666917  0.686850  1
  Ni  Ni10  1  0.500198  0.000000  0.126453  1
  Ni  Ni11  1  0.500176  0.500039  0.126486  1
  Ni  Ni12  1  0.000137  0.499961  0.126486  1
  Ni  Ni13  1  0.499917  0.000000  0.873429  1
  Ni  Ni14  1  0.499955  0.499965  0.873493  1
  Ni  Ni15  1  0.999990  0.500035  0.873493  1
  B  B16  1  0.333295  0.666450  0.000026  1
  B  B17  1  0.666845  0.333550  0.000026  1
