# generated using pymatgen
data_PSeF34
_symmetry_space_group_name_H-M   'P 1'
_cell_length_a   8.76761773
_cell_length_b   8.48282302
_cell_length_c   10.12760687
_cell_angle_alpha   80.66674503
_cell_angle_beta   87.14249145
_cell_angle_gamma   65.86267381
_symmetry_Int_Tables_number   1
_chemical_formula_structural   PSeF34
_chemical_formula_sum   'P1 Se1 F34'
_cell_volume   678.16248260
_cell_formula_units_Z   1
loop_
 _symmetry_equiv_pos_site_id
 _symmetry_equiv_pos_as_xyz
  1  'x, y, z'
loop_
 _atom_site_type_symbol
 _atom_site_label
 _atom_site_symmetry_multiplicity
 _atom_site_fract_x
 _atom_site_fract_y
 _atom_site_fract_z
 _atom_site_occupancy
  P  P0  1  0.138275  0.747833  0.242478  1
  Se  Se1  1  0.864215  0.247579  0.762568  1
  F  F2  1  0.615115  0.200963  0.479023  1
  F  F3  1  0.386374  0.790244  0.516530  1
  F  F4  1  0.831355  0.713136  0.718886  1
  F  F5  1  0.162322  0.315470  0.306784  1
  F  F6  1  0.105587  0.738539  0.870809  1
  F  F7  1  0.915231  0.239608  0.142448  1
  F  F8  1  0.558378  0.146239  0.372320  1
  F  F9  1  0.441775  0.854427  0.618116  1
  F  F10  1  0.659442  0.324203  0.703394  1
  F  F11  1  0.328599  0.679358  0.300733  1
  F  F12  1  0.924628  0.078954  0.668234  1
  F  F13  1  0.076108  0.908090  0.330523  1
  F  F14  1  0.906429  0.378465  0.628295  1
  F  F15  1  0.096248  0.627366  0.370519  1
  F  F16  1  0.869011  0.797857  0.596744  1
  F  F17  1  0.155264  0.162103  0.381709  1
  F  F18  1  0.804317  0.417252  0.856246  1
  F  F19  1  0.197711  0.584295  0.158720  1
  F  F20  1  0.211854  0.691488  0.759989  1
  F  F21  1  0.779124  0.319868  0.225859  1
  F  F22  1  0.948605  0.815472  0.184105  1
  F  F23  1  0.067800  0.171926  0.822767  1
  F  F24  1  0.820265  0.116725  0.895844  1
  F  F25  1  0.179968  0.869729  0.117476  1
  F  F26  1  0.489898  0.596757  0.985028  1
  F  F27  1  0.499725  0.423068  0.012382  1
  F  F28  1  0.445483  0.094951  0.866904  1
  F  F29  1  0.529333  0.923026  0.137134  1
  F  F30  1  0.288031  0.253228  0.601933  1
  F  F31  1  0.710526  0.743100  0.389143  1
  F  F32  1  0.256776  0.399969  0.667032  1
  F  F33  1  0.744475  0.599778  0.319620  1
  F  F34  1  0.554087  0.929479  0.832564  1
  F  F35  1  0.437670  0.099456  0.157142  1
