# generated using pymatgen
data_Tm5In3Hg
_symmetry_space_group_name_H-M   'P 1'
_cell_length_a   9.14610200
_cell_length_b   9.14610315
_cell_length_c   6.63230700
_cell_angle_alpha   90.00000000
_cell_angle_beta   90.00000000
_cell_angle_gamma   119.99999586
_symmetry_Int_Tables_number   1
_chemical_formula_structural   Tm5In3Hg
_chemical_formula_sum   'Tm10 In6 Hg2'
_cell_volume   480.47125013
_cell_formula_units_Z   2
loop_
 _symmetry_equiv_pos_site_id
 _symmetry_equiv_pos_as_xyz
  1  'x, y, z'
loop_
 _atom_site_type_symbol
 _atom_site_label
 _atom_site_symmetry_multiplicity
 _atom_site_fract_x
 _atom_site_fract_y
 _atom_site_fract_z
 _atom_site_occupancy
  Tm  Tm0  1  0.333333  0.666667  0.500000  1
  Tm  Tm1  1  0.666667  0.333333  0.500000  1
  Tm  Tm2  1  0.666667  0.333333  0.000000  1
  Tm  Tm3  1  0.333333  0.666667  0.000000  1
  Tm  Tm4  1  0.287990  0.000000  0.750000  1
  Tm  Tm5  1  0.712010  0.000000  0.250000  1
  Tm  Tm6  1  0.000000  0.287990  0.750000  1
  Tm  Tm7  1  0.000000  0.712010  0.250000  1
  Tm  Tm8  1  0.712010  0.712010  0.750000  1
  Tm  Tm9  1  0.287990  0.287990  0.250000  1
  In  In10  1  0.625570  0.000000  0.750000  1
  In  In11  1  0.374430  0.000000  0.250000  1
  In  In12  1  0.000000  0.625570  0.750000  1
  In  In13  1  0.000000  0.374430  0.250000  1
  In  In14  1  0.374430  0.374430  0.750000  1
  In  In15  1  0.625570  0.625570  0.250000  1
  Hg  Hg16  1  0.000000  0.000000  0.500000  1
  Hg  Hg17  1  0.000000  0.000000  0.000000  1
