# generated using pymatgen
data_Th2Mn3V2(PRh)7
_symmetry_space_group_name_H-M   'P 1'
_cell_length_a   9.48366781
_cell_length_b   9.49731153
_cell_length_c   3.85752400
_cell_angle_alpha   90.00000000
_cell_angle_beta   90.00000000
_cell_angle_gamma   119.96171130
_symmetry_Int_Tables_number   1
_chemical_formula_structural   Th2Mn3V2(PRh)7
_chemical_formula_sum   'Th2 Mn3 V2 P7 Rh7'
_cell_volume   301.01193599
_cell_formula_units_Z   1
loop_
 _symmetry_equiv_pos_site_id
 _symmetry_equiv_pos_as_xyz
  1  'x, y, z'
loop_
 _atom_site_type_symbol
 _atom_site_label
 _atom_site_symmetry_multiplicity
 _atom_site_fract_x
 _atom_site_fract_y
 _atom_site_fract_z
 _atom_site_occupancy
  Th  Th0  1  0.336013  0.669674  0.000000  1
  Th  Th1  1  0.001260  0.998638  0.500000  1
  Mn  Mn2  1  0.554784  0.066695  0.000000  1
  Mn  Mn3  1  0.932373  0.485093  0.000000  1
  Mn  Mn4  1  0.507027  0.446013  0.000000  1
  V  V5  1  0.767304  0.541772  0.500000  1
  V  V6  1  0.454780  0.223408  0.500000  1
  P  P7  1  0.769953  0.034181  0.000000  1
  P  P8  1  0.959274  0.729808  0.000000  1
  P  P9  1  0.267107  0.226174  0.000000  1
  P  P10  1  0.392807  0.947612  0.500000  1
  P  P11  1  0.058744  0.451521  0.500000  1
  P  P12  1  0.554800  0.605658  0.500000  1
  P  P13  1  0.662859  0.336214  0.000000  1
  Rh  Rh14  1  0.029467  0.269109  0.000000  1
  Rh  Rh15  1  0.731410  0.762433  0.000000  1
  Rh  Rh16  1  0.234669  0.965902  0.000000  1
  Rh  Rh17  1  0.613555  0.894704  0.500000  1
  Rh  Rh18  1  0.106716  0.718380  0.500000  1
  Rh  Rh19  1  0.276032  0.387580  0.500000  1
  Rh  Rh20  1  0.789066  0.239429  0.500000  1
