# generated using pymatgen
data_TbDy2Lu3(Al3Ru)8
_symmetry_space_group_name_H-M   'P 1'
_cell_length_a   8.77493200
_cell_length_b   8.76983314
_cell_length_c   9.58490700
_cell_angle_alpha   90.00021633
_cell_angle_beta   89.99961936
_cell_angle_gamma   120.01909499
_symmetry_Int_Tables_number   1
_chemical_formula_structural   TbDy2Lu3(Al3Ru)8
_chemical_formula_sum   'Tb1 Dy2 Lu3 Al24 Ru8'
_cell_volume   638.66045879
_cell_formula_units_Z   1
loop_
 _symmetry_equiv_pos_site_id
 _symmetry_equiv_pos_as_xyz
  1  'x, y, z'
loop_
 _atom_site_type_symbol
 _atom_site_label
 _atom_site_symmetry_multiplicity
 _atom_site_fract_x
 _atom_site_fract_y
 _atom_site_fract_z
 _atom_site_occupancy
  Tb  Tb0  1  0.192087  0.384168  0.749945  1
  Dy  Dy1  1  0.612648  0.806217  0.749981  1
  Dy  Dy2  1  0.193572  0.806216  0.749983  1
  Lu  Lu3  1  0.389887  0.195205  0.250007  1
  Lu  Lu4  1  0.805307  0.195221  0.249996  1
  Lu  Lu5  1  0.805532  0.611059  0.249999  1
  Al  Al6  1  0.439284  0.878565  0.249987  1
  Al  Al7  1  0.121870  0.561425  0.250039  1
  Al  Al8  1  0.439558  0.561422  0.250037  1
  Al  Al9  1  0.562014  0.124028  0.749993  1
  Al  Al10  1  0.875696  0.437912  0.750045  1
  Al  Al11  1  0.562219  0.437915  0.750047  1
  Al  Al12  1  0.162705  0.837752  0.421351  1
  Al  Al13  1  0.162639  0.325278  0.420689  1
  Al  Al14  1  0.675050  0.837754  0.421350  1
  Al  Al15  1  0.836597  0.163014  0.576095  1
  Al  Al16  1  0.836991  0.673982  0.576029  1
  Al  Al17  1  0.326420  0.163016  0.576096  1
  Al  Al18  1  0.836588  0.162958  0.923887  1
  Al  Al19  1  0.836976  0.673952  0.924020  1
  Al  Al20  1  0.326374  0.162962  0.923891  1
  Al  Al21  1  0.162700  0.837692  0.078637  1
  Al  Al22  1  0.162633  0.325259  0.079305  1
  Al  Al23  1  0.674994  0.837690  0.078636  1
  Al  Al24  1  0.333193  0.666390  0.516964  1
  Al  Al25  1  0.666797  0.333597  0.478454  1
  Al  Al26  1  0.666744  0.333491  0.021534  1
  Al  Al27  1  0.333142  0.666277  0.982952  1
  Al  Al28  1  0.000327  0.000661  0.249974  1
  Al  Al29  1  0.998554  0.997110  0.749972  1
  Ru  Ru30  1  0.000164  0.000326  0.499913  1
  Ru  Ru31  1  0.000158  0.000311  0.000007  1
  Ru  Ru32  1  0.500587  0.001173  0.498771  1
  Ru  Ru33  1  0.998820  0.499766  0.498590  1
  Ru  Ru34  1  0.500944  0.499775  0.498596  1
  Ru  Ru35  1  0.500532  0.001065  0.001184  1
  Ru  Ru36  1  0.998805  0.499699  0.001523  1
  Ru  Ru37  1  0.500893  0.499698  0.001516  1
