# generated using pymatgen
data_La2Al20TcRh3
_symmetry_space_group_name_H-M   'P 1'
_cell_length_a   6.92122730
_cell_length_b   6.93636295
_cell_length_c   9.24182686
_cell_angle_alpha   90.21495067
_cell_angle_beta   90.24154542
_cell_angle_gamma   97.39877070
_symmetry_Int_Tables_number   1
_chemical_formula_structural   La2Al20TcRh3
_chemical_formula_sum   'La2 Al20 Tc1 Rh3'
_cell_volume   439.98078701
_cell_formula_units_Z   1
loop_
 _symmetry_equiv_pos_site_id
 _symmetry_equiv_pos_as_xyz
  1  'x, y, z'
loop_
 _atom_site_type_symbol
 _atom_site_label
 _atom_site_symmetry_multiplicity
 _atom_site_fract_x
 _atom_site_fract_y
 _atom_site_fract_z
 _atom_site_occupancy
  La  La0  1  0.873152  0.122479  0.749874  1
  La  La1  1  0.126848  0.877521  0.250126  1
  Al  Al2  1  0.619869  0.376486  0.548282  1
  Al  Al3  1  0.380131  0.623514  0.451718  1
  Al  Al4  1  0.379185  0.621582  0.050076  1
  Al  Al5  1  0.620815  0.378418  0.949924  1
  Al  Al6  1  0.225777  0.224314  0.499020  1
  Al  Al7  1  0.774223  0.775686  0.500980  1
  Al  Al8  1  0.773591  0.774016  0.999616  1
  Al  Al9  1  0.226409  0.225984  0.000384  1
  Al  Al10  1  0.840061  0.161093  0.104371  1
  Al  Al11  1  0.159939  0.838907  0.895629  1
  Al  Al12  1  0.160541  0.840458  0.602792  1
  Al  Al13  1  0.839459  0.159542  0.397208  1
  Al  Al14  1  0.858651  0.591726  0.749611  1
  Al  Al15  1  0.141349  0.408274  0.250389  1
  Al  Al16  1  0.408916  0.141046  0.749433  1
  Al  Al17  1  0.591084  0.858954  0.250567  1
  Al  Al18  1  0.225770  0.482105  0.750321  1
  Al  Al19  1  0.774230  0.517895  0.249679  1
  Al  Al20  1  0.517402  0.775939  0.746490  1
  Al  Al21  1  0.482598  0.224061  0.253510  1
  Tc  Tc22  1  0.500000  0.000000  0.500000  1
  Rh  Rh23  1  0.000000  0.500000  0.500000  1
  Rh  Rh24  1  0.000000  0.500000  0.000000  1
  Rh  Rh25  1  0.500000  0.000000  0.000000  1
