# generated using pymatgen
data_V5CrO10
_symmetry_space_group_name_H-M   'P 1'
_cell_length_a   5.74333260
_cell_length_b   5.70652642
_cell_length_c   7.07791604
_cell_angle_alpha   70.73364140
_cell_angle_beta   70.23615133
_cell_angle_gamma   53.43290818
_symmetry_Int_Tables_number   1
_chemical_formula_structural   V5CrO10
_chemical_formula_sum   'V5 Cr1 O10'
_cell_volume   172.78542293
_cell_formula_units_Z   1
loop_
 _symmetry_equiv_pos_site_id
 _symmetry_equiv_pos_as_xyz
  1  'x, y, z'
loop_
 _atom_site_type_symbol
 _atom_site_label
 _atom_site_symmetry_multiplicity
 _atom_site_fract_x
 _atom_site_fract_y
 _atom_site_fract_z
 _atom_site_occupancy
  V  V0  1  0.635036  0.628745  0.775489  1
  V  V1  1  0.627782  0.634709  0.275951  1
  V  V2  1  0.364964  0.371255  0.224511  1
  V  V3  1  0.372218  0.365291  0.724049  1
  V  V4  1  0.000000  0.000000  0.500000  1
  Cr  Cr5  1  0.000000  0.000000  0.000000  1
  O  O6  1  0.052351  0.343701  0.333905  1
  O  O7  1  0.347660  0.025801  0.839068  1
  O  O8  1  0.947649  0.656299  0.666095  1
  O  O9  1  0.652340  0.974199  0.160932  1
  O  O10  1  0.734041  0.425282  0.050991  1
  O  O11  1  0.418032  0.734604  0.562309  1
  O  O12  1  0.265959  0.574718  0.949009  1
  O  O13  1  0.581968  0.265396  0.437691  1
  O  O14  1  0.192774  0.797994  0.252322  1
  O  O15  1  0.807226  0.202006  0.747678  1
