# generated using pymatgen
data_Tb3YbLu2(Si3Ru)8
_symmetry_space_group_name_H-M   'P 1'
_cell_length_a   10.11551040
_cell_length_b   10.11551093
_cell_length_c   8.13249508
_cell_angle_alpha   89.89586479
_cell_angle_beta   90.10413371
_cell_angle_gamma   132.59895409
_symmetry_Int_Tables_number   1
_chemical_formula_structural   Tb3YbLu2(Si3Ru)8
_chemical_formula_sum   'Tb3 Yb1 Lu2 Si24 Ru8'
_cell_volume   612.54918659
_cell_formula_units_Z   1
loop_
 _symmetry_equiv_pos_site_id
 _symmetry_equiv_pos_as_xyz
  1  'x, y, z'
loop_
 _atom_site_type_symbol
 _atom_site_label
 _atom_site_symmetry_multiplicity
 _atom_site_fract_x
 _atom_site_fract_y
 _atom_site_fract_z
 _atom_site_occupancy
  Tb  Tb0  1  0.998108  0.498108  0.250000  1
  Tb  Tb1  1  0.497187  0.997187  0.250000  1
  Tb  Tb2  1  0.002596  0.502596  0.750000  1
  Yb  Yb3  1  0.502263  0.002263  0.750000  1
  Lu  Lu4  1  0.500238  0.500372  0.500495  1
  Lu  Lu5  1  0.000372  0.000238  0.999505  1
  Si  Si6  1  0.793689  0.204215  0.500531  1
  Si  Si7  1  0.295623  0.706446  0.998402  1
  Si  Si8  1  0.206446  0.795623  0.501598  1
  Si  Si9  1  0.704215  0.293689  0.999469  1
  Si  Si10  1  0.332071  0.333578  0.832746  1
  Si  Si11  1  0.667244  0.668857  0.167227  1
  Si  Si12  1  0.168857  0.167244  0.332773  1
  Si  Si13  1  0.833578  0.832071  0.667254  1
  Si  Si14  1  0.120645  0.886848  0.728624  1
  Si  Si15  1  0.110649  0.877623  0.271754  1
  Si  Si16  1  0.611990  0.379039  0.228928  1
  Si  Si17  1  0.622798  0.389375  0.771686  1
  Si  Si18  1  0.879039  0.111990  0.271072  1
  Si  Si19  1  0.889375  0.122798  0.728314  1
  Si  Si20  1  0.386848  0.620645  0.771376  1
  Si  Si21  1  0.377623  0.610649  0.228246  1
  Si  Si22  1  0.344648  0.111870  0.503454  1
  Si  Si23  1  0.887466  0.654753  0.494734  1
  Si  Si24  1  0.387923  0.154983  0.005025  1
  Si  Si25  1  0.844867  0.612556  0.995121  1
  Si  Si26  1  0.654983  0.887923  0.494975  1
  Si  Si27  1  0.112556  0.344867  0.504879  1
  Si  Si28  1  0.611870  0.844648  0.996546  1
  Si  Si29  1  0.154753  0.387466  0.005266  1
  Ru  Ru30  1  0.668605  0.330816  0.500109  1
  Ru  Ru31  1  0.168115  0.830958  0.001124  1
  Ru  Ru32  1  0.330958  0.668115  0.498876  1
  Ru  Ru33  1  0.830816  0.168605  0.999891  1
  Ru  Ru34  1  0.126718  0.126683  0.627081  1
  Ru  Ru35  1  0.873447  0.874136  0.373033  1
  Ru  Ru36  1  0.374136  0.373447  0.126967  1
  Ru  Ru37  1  0.626683  0.626718  0.872919  1
