# generated using pymatgen
data_Ba4CdWO8
_symmetry_space_group_name_H-M   'P 1'
_cell_length_a   7.36092867
_cell_length_b   7.36092893
_cell_length_c   6.08905200
_cell_angle_alpha   90.00000000
_cell_angle_beta   90.00000000
_cell_angle_gamma   131.61323386
_symmetry_Int_Tables_number   1
_chemical_formula_structural   Ba4CdWO8
_chemical_formula_sum   'Ba4 Cd1 W1 O8'
_cell_volume   246.66650913
_cell_formula_units_Z   1
loop_
 _symmetry_equiv_pos_site_id
 _symmetry_equiv_pos_as_xyz
  1  'x, y, z'
loop_
 _atom_site_type_symbol
 _atom_site_label
 _atom_site_symmetry_multiplicity
 _atom_site_fract_x
 _atom_site_fract_y
 _atom_site_fract_z
 _atom_site_occupancy
  Ba  Ba0  1  0.354530  0.645470  0.000000  1
  Ba  Ba1  1  0.856190  0.143810  0.500000  1
  Ba  Ba2  1  0.143810  0.856190  0.500000  1
  Ba  Ba3  1  0.645470  0.354530  0.000000  1
  Cd  Cd4  1  0.000000  0.000000  0.000000  1
  W  W5  1  0.500000  0.500000  0.500000  1
  O  O6  1  0.271278  0.271278  0.722789  1
  O  O7  1  0.728722  0.728722  0.277211  1
  O  O8  1  0.728722  0.728722  0.722789  1
  O  O9  1  0.271278  0.271278  0.277211  1
  O  O10  1  0.167372  0.832628  0.000000  1
  O  O11  1  0.649558  0.350442  0.500000  1
  O  O12  1  0.350442  0.649558  0.500000  1
  O  O13  1  0.832628  0.167372  0.000000  1
