# generated using pymatgen
data_HfZr9Zn2BiPb5
_symmetry_space_group_name_H-M   'P 1'
_cell_length_a   8.83432508
_cell_length_b   8.82747920
_cell_length_c   5.95748006
_cell_angle_alpha   89.98750950
_cell_angle_beta   89.99730996
_cell_angle_gamma   120.01019350
_symmetry_Int_Tables_number   1
_chemical_formula_structural   HfZr9Zn2BiPb5
_chemical_formula_sum   'Hf1 Zr9 Zn2 Bi1 Pb5'
_cell_volume   402.30800337
_cell_formula_units_Z   1
loop_
 _symmetry_equiv_pos_site_id
 _symmetry_equiv_pos_as_xyz
  1  'x, y, z'
loop_
 _atom_site_type_symbol
 _atom_site_label
 _atom_site_symmetry_multiplicity
 _atom_site_fract_x
 _atom_site_fract_y
 _atom_site_fract_z
 _atom_site_occupancy
  Hf  Hf0  1  0.332573  0.666015  0.999271  1
  Zr  Zr1  1  0.666580  0.333808  0.500536  1
  Zr  Zr2  1  0.666563  0.333742  0.999498  1
  Zr  Zr3  1  0.332943  0.666348  0.500481  1
  Zr  Zr4  1  0.264631  0.999864  0.250107  1
  Zr  Zr5  1  0.264823  0.265085  0.749927  1
  Zr  Zr6  1  0.999993  0.735047  0.749915  1
  Zr  Zr7  1  0.001481  0.265483  0.250115  1
  Zr  Zr8  1  0.735892  0.734739  0.250107  1
  Zr  Zr9  1  0.734910  0.999866  0.749905  1
  Zn  Zn10  1  0.000622  0.000009  0.999327  1
  Zn  Zn11  1  0.000590  0.000006  0.500660  1
  Bi  Bi12  1  0.614368  0.999783  0.249922  1
  Pb  Pb13  1  0.614679  0.614973  0.750198  1
  Pb  Pb14  1  0.000105  0.385224  0.750159  1
  Pb  Pb15  1  0.000229  0.615037  0.249835  1
  Pb  Pb16  1  0.384974  0.385191  0.249812  1
  Pb  Pb17  1  0.384048  0.999780  0.750225  1
