# generated using pymatgen
data_Li4Pr7NdSi12
_symmetry_space_group_name_H-M   'P 1'
_cell_length_a   11.07510602
_cell_length_b   9.36206610
_cell_length_c   8.35351015
_cell_angle_alpha   77.15545213
_cell_angle_beta   55.50467430
_cell_angle_gamma   47.35488837
_symmetry_Int_Tables_number   1
_chemical_formula_structural   Li4Pr7NdSi12
_chemical_formula_sum   'Li4 Pr7 Nd1 Si12'
_cell_volume   506.13968406
_cell_formula_units_Z   1
loop_
 _symmetry_equiv_pos_site_id
 _symmetry_equiv_pos_as_xyz
  1  'x, y, z'
loop_
 _atom_site_type_symbol
 _atom_site_label
 _atom_site_symmetry_multiplicity
 _atom_site_fract_x
 _atom_site_fract_y
 _atom_site_fract_z
 _atom_site_occupancy
  Li  Li0  1  0.832750  0.167122  0.832985  1
  Li  Li1  1  0.167122  0.832750  0.167143  1
  Li  Li2  1  0.417066  0.083059  0.417047  1
  Li  Li3  1  0.083059  0.417066  0.082827  1
  Pr  Pr4  1  0.622610  0.622610  0.377390  1
  Pr  Pr5  1  0.377288  0.377288  0.622712  1
  Pr  Pr6  1  0.627382  0.627382  0.872618  1
  Pr  Pr7  1  0.872724  0.872724  0.627276  1
  Pr  Pr8  1  0.123998  0.123998  0.876002  1
  Pr  Pr9  1  0.876007  0.876007  0.123993  1
  Pr  Pr10  1  0.126024  0.126024  0.373976  1
  Nd  Nd11  1  0.374000  0.374000  0.126000  1
  Si  Si12  1  0.172305  0.834505  0.661771  1
  Si  Si13  1  0.331434  0.661464  0.834734  1
  Si  Si14  1  0.661464  0.331434  0.172367  1
  Si  Si15  1  0.834505  0.172305  0.331418  1
  Si  Si16  1  0.077946  0.415361  0.587921  1
  Si  Si17  1  0.918965  0.588142  0.415247  1
  Si  Si18  1  0.588142  0.918965  0.077647  1
  Si  Si19  1  0.415361  0.077946  0.918773  1
  Si  Si20  1  0.666390  0.333456  0.666831  1
  Si  Si21  1  0.333456  0.666390  0.333323  1
  Si  Si22  1  0.583454  0.916549  0.583510  1
  Si  Si23  1  0.916549  0.583454  0.916487  1
