# generated using pymatgen
data_ZnGa4Cu5
_symmetry_space_group_name_H-M   'P 1'
_cell_length_a   4.11677356
_cell_length_b   6.37844814
_cell_length_c   6.44434907
_cell_angle_alpha   101.82729822
_cell_angle_beta   108.45306895
_cell_angle_gamma   108.89759752
_symmetry_Int_Tables_number   1
_chemical_formula_structural   ZnGa4Cu5
_chemical_formula_sum   'Zn1 Ga4 Cu5'
_cell_volume   142.67541842
_cell_formula_units_Z   1
loop_
 _symmetry_equiv_pos_site_id
 _symmetry_equiv_pos_as_xyz
  1  'x, y, z'
loop_
 _atom_site_type_symbol
 _atom_site_label
 _atom_site_symmetry_multiplicity
 _atom_site_fract_x
 _atom_site_fract_y
 _atom_site_fract_z
 _atom_site_occupancy
  Zn  Zn0  1  0.000000  0.499999  0.500000  1
  Ga  Ga1  1  0.375906  0.756132  0.995624  1
  Ga  Ga2  1  0.306357  0.148487  0.462741  1
  Ga  Ga3  1  0.693643  0.851513  0.537259  1
  Ga  Ga4  1  0.624095  0.243869  0.004376  1
  Cu  Cu5  1  0.000000  0.000000  0.000000  1
  Cu  Cu6  1  0.338233  0.448747  0.227993  1
  Cu  Cu7  1  0.977432  0.722381  0.233356  1
  Cu  Cu8  1  0.022568  0.277619  0.766643  1
  Cu  Cu9  1  0.661767  0.551253  0.772006  1
