# generated using pymatgen
data_Ca11Pr8YSn16
_symmetry_space_group_name_H-M   'P 1'
_cell_length_a   8.00111022
_cell_length_b   8.55127523
_cell_length_c   16.11916445
_cell_angle_alpha   90.01600804
_cell_angle_beta   90.10095578
_cell_angle_gamma   89.97868726
_symmetry_Int_Tables_number   1
_chemical_formula_structural   Ca11Pr8YSn16
_chemical_formula_sum   'Ca11 Pr8 Y1 Sn16'
_cell_volume   1102.86649522
_cell_formula_units_Z   1
loop_
 _symmetry_equiv_pos_site_id
 _symmetry_equiv_pos_as_xyz
  1  'x, y, z'
loop_
 _atom_site_type_symbol
 _atom_site_label
 _atom_site_symmetry_multiplicity
 _atom_site_fract_x
 _atom_site_fract_y
 _atom_site_fract_z
 _atom_site_occupancy
  Ca  Ca0  1  0.833739  0.673821  0.623317  1
  Ca  Ca1  1  0.665783  0.174026  0.376420  1
  Ca  Ca2  1  0.165239  0.326384  0.123318  1
  Ca  Ca3  1  0.666452  0.173985  0.123478  1
  Ca  Ca4  1  0.165700  0.326050  0.376425  1
  Ca  Ca5  1  0.334594  0.826079  0.623344  1
  Ca  Ca6  1  0.834275  0.674286  0.877188  1
  Ca  Ca7  1  0.162473  0.501092  0.749512  1
  Ca  Ca8  1  0.663981  0.998912  0.749572  1
  Ca  Ca9  1  0.836849  0.497992  0.250154  1
  Ca  Ca10  1  0.336869  0.001670  0.249982  1
  Pr  Pr11  1  0.494620  0.316161  0.904059  1
  Pr  Pr12  1  0.993705  0.185526  0.595259  1
  Pr  Pr13  1  0.505704  0.685618  0.403623  1
  Pr  Pr14  1  0.005338  0.814276  0.096651  1
  Pr  Pr15  1  0.506627  0.684910  0.096533  1
  Pr  Pr16  1  0.005677  0.814403  0.403845  1
  Pr  Pr17  1  0.494432  0.315125  0.595857  1
  Pr  Pr18  1  0.994049  0.185814  0.905026  1
  Y  Y19  1  0.334831  0.824900  0.875722  1
  Sn  Sn20  1  0.327454  0.032482  0.036369  1
  Sn  Sn21  1  0.828830  0.466229  0.461865  1
  Sn  Sn22  1  0.670615  0.966639  0.538347  1
  Sn  Sn23  1  0.174159  0.536843  0.960813  1
  Sn  Sn24  1  0.667355  0.965190  0.960475  1
  Sn  Sn25  1  0.171047  0.533607  0.538454  1
  Sn  Sn26  1  0.329426  0.033642  0.461815  1
  Sn  Sn27  1  0.828646  0.465955  0.038080  1
  Sn  Sn28  1  0.534028  0.603348  0.751224  1
  Sn  Sn29  1  0.038178  0.897099  0.752207  1
  Sn  Sn30  1  0.464384  0.398660  0.249834  1
  Sn  Sn31  1  0.964432  0.100762  0.250065  1
  Sn  Sn32  1  0.290510  0.140690  0.751446  1
  Sn  Sn33  1  0.789770  0.357920  0.750312  1
  Sn  Sn34  1  0.710362  0.857383  0.249731  1
  Sn  Sn35  1  0.209867  0.642522  0.249676  1
