# generated using pymatgen
data_Y6Zn4Pd12Pt
_symmetry_space_group_name_H-M   'P 1'
_cell_length_a   8.26926529
_cell_length_b   8.26926548
_cell_length_c   8.26926500
_cell_angle_alpha   109.47122190
_cell_angle_beta   109.47122237
_cell_angle_gamma   109.47121843
_symmetry_Int_Tables_number   1
_chemical_formula_structural   Y6Zn4Pd12Pt
_chemical_formula_sum   'Y6 Zn4 Pd12 Pt1'
_cell_volume   435.29018509
_cell_formula_units_Z   1
loop_
 _symmetry_equiv_pos_site_id
 _symmetry_equiv_pos_as_xyz
  1  'x, y, z'
loop_
 _atom_site_type_symbol
 _atom_site_label
 _atom_site_symmetry_multiplicity
 _atom_site_fract_x
 _atom_site_fract_y
 _atom_site_fract_z
 _atom_site_occupancy
  Y  Y0  1  0.701648  0.701648  0.000000  1
  Y  Y1  1  0.298352  0.000000  0.298352  1
  Y  Y2  1  0.000000  0.298352  0.298352  1
  Y  Y3  1  0.298352  0.298352  0.000000  1
  Y  Y4  1  0.701648  0.000000  0.701648  1
  Y  Y5  1  0.000000  0.701648  0.701648  1
  Zn  Zn6  1  0.000000  0.000000  0.500000  1
  Zn  Zn7  1  0.000000  0.500000  0.000000  1
  Zn  Zn8  1  0.500000  0.000000  0.000000  1
  Zn  Zn9  1  0.500000  0.500000  0.500000  1
  Pd  Pd10  1  0.332791  0.332791  0.665583  1
  Pd  Pd11  1  0.667209  0.000000  0.332791  1
  Pd  Pd12  1  0.000000  0.667209  0.332791  1
  Pd  Pd13  1  0.667209  0.332791  0.000000  1
  Pd  Pd14  1  0.332791  0.665583  0.332791  1
  Pd  Pd15  1  0.000000  0.332791  0.667209  1
  Pd  Pd16  1  0.332791  0.667209  0.000000  1
  Pd  Pd17  1  0.332791  0.000000  0.667209  1
  Pd  Pd18  1  0.665583  0.332791  0.332791  1
  Pd  Pd19  1  0.667209  0.667209  0.334417  1
  Pd  Pd20  1  0.667209  0.334417  0.667209  1
  Pd  Pd21  1  0.334417  0.667209  0.667209  1
  Pt  Pt22  1  0.000000  0.000000  0.000000  1
