# generated using pymatgen
data_La7Pr10(NdIr4)3
_symmetry_space_group_name_H-M   'P 1'
_cell_length_a   11.36827579
_cell_length_b   11.37343637
_cell_length_c   6.65416411
_cell_angle_alpha   89.93660804
_cell_angle_beta   89.98079655
_cell_angle_gamma   90.03823940
_symmetry_Int_Tables_number   1
_chemical_formula_structural   La7Pr10(NdIr4)3
_chemical_formula_sum   'La7 Pr10 Nd3 Ir12'
_cell_volume   860.35844116
_cell_formula_units_Z   1
loop_
 _symmetry_equiv_pos_site_id
 _symmetry_equiv_pos_as_xyz
  1  'x, y, z'
loop_
 _atom_site_type_symbol
 _atom_site_label
 _atom_site_symmetry_multiplicity
 _atom_site_fract_x
 _atom_site_fract_y
 _atom_site_fract_z
 _atom_site_occupancy
  La  La0  1  0.707813  0.090964  0.885601  1
  La  La1  1  0.292039  0.909620  0.885528  1
  La  La2  1  0.590765  0.791526  0.885833  1
  La  La3  1  0.091006  0.708517  0.614134  1
  La  La4  1  0.908986  0.291456  0.614110  1
  La  La5  1  0.208887  0.408712  0.614529  1
  La  La6  1  0.791350  0.590949  0.614321  1
  Pr  Pr7  1  0.090441  0.291755  0.115621  1
  Pr  Pr8  1  0.791517  0.409985  0.115354  1
  Pr  Pr9  1  0.208468  0.589883  0.115696  1
  Pr  Pr10  1  0.909783  0.708149  0.116006  1
  Pr  Pr11  1  0.409850  0.791473  0.384058  1
  Pr  Pr12  1  0.589736  0.208411  0.384225  1
  Pr  Pr13  1  0.291983  0.090695  0.384525  1
  Pr  Pr14  1  0.708341  0.909669  0.384503  1
  Pr  Pr15  1  0.409495  0.208847  0.885002  1
  Pr  Pr16  1  0.000022  0.000114  0.001058  1
  Nd  Nd17  1  0.499821  0.499656  0.000992  1
  Nd  Nd18  1  0.500046  0.499860  0.499133  1
  Nd  Nd19  1  0.999916  0.999971  0.498703  1
  Ir  Ir20  1  0.153571  0.846465  0.250404  1
  Ir  Ir21  1  0.346619  0.347385  0.250892  1
  Ir  Ir22  1  0.653237  0.653095  0.250023  1
  Ir  Ir23  1  0.846527  0.153554  0.250398  1
  Ir  Ir24  1  0.346662  0.653235  0.750065  1
  Ir  Ir25  1  0.153462  0.153526  0.749485  1
  Ir  Ir26  1  0.846401  0.846341  0.749806  1
  Ir  Ir27  1  0.653176  0.346700  0.750182  1
  Ir  Ir28  1  0.999892  0.500060  0.381730  1
  Ir  Ir29  1  0.499933  0.999931  0.118506  1
  Ir  Ir30  1  0.500174  0.999518  0.621335  1
  Ir  Ir31  1  0.000080  0.499979  0.878242  1
