# generated using pymatgen
data_La3ThZn9AgSn2
_symmetry_space_group_name_H-M   'P 1'
_cell_length_a   8.72906467
_cell_length_b   8.72906441
_cell_length_c   9.15992100
_cell_angle_alpha   90.00000000
_cell_angle_beta   90.00000000
_cell_angle_gamma   149.71984047
_symmetry_Int_Tables_number   1
_chemical_formula_structural   La3ThZn9AgSn2
_chemical_formula_sum   'La3 Th1 Zn9 Ag1 Sn2'
_cell_volume   351.92865184
_cell_formula_units_Z   1
loop_
 _symmetry_equiv_pos_site_id
 _symmetry_equiv_pos_as_xyz
  1  'x, y, z'
loop_
 _atom_site_type_symbol
 _atom_site_label
 _atom_site_symmetry_multiplicity
 _atom_site_fract_x
 _atom_site_fract_y
 _atom_site_fract_z
 _atom_site_occupancy
  La  La0  1  0.792489  0.207511  0.750000  1
  La  La1  1  0.001288  0.998712  0.502795  1
  La  La2  1  0.001288  0.998712  0.997205  1
  Th  Th3  1  0.208024  0.791976  0.250000  1
  Zn  Zn4  1  0.813822  0.186178  0.390024  1
  Zn  Zn5  1  0.185323  0.814677  0.606274  1
  Zn  Zn6  1  0.813822  0.186178  0.109976  1
  Zn  Zn7  1  0.185323  0.814677  0.893726  1
  Zn  Zn8  1  0.658787  0.341213  0.480125  1
  Zn  Zn9  1  0.342389  0.657611  0.513692  1
  Zn  Zn10  1  0.658787  0.341213  0.019875  1
  Zn  Zn11  1  0.342389  0.657611  0.986308  1
  Zn  Zn12  1  0.397374  0.602626  0.250000  1
  Ag  Ag13  1  0.602156  0.397844  0.750000  1
  Sn  Sn14  1  0.557768  0.442232  0.250000  1
  Sn  Sn15  1  0.438972  0.561028  0.750000  1
