# generated using pymatgen
data_Ti8Al14GaFe3Rh4
_symmetry_space_group_name_H-M   'P 1'
_cell_length_a   8.57670818
_cell_length_b   8.56075746
_cell_length_c   8.57670787
_cell_angle_alpha   119.99040531
_cell_angle_beta   119.95356655
_cell_angle_gamma   90.10198914
_symmetry_Int_Tables_number   1
_chemical_formula_structural   Ti8Al14GaFe3Rh4
_chemical_formula_sum   'Ti8 Al14 Ga1 Fe3 Rh4'
_cell_volume   445.26528051
_cell_formula_units_Z   1
loop_
 _symmetry_equiv_pos_site_id
 _symmetry_equiv_pos_as_xyz
  1  'x, y, z'
loop_
 _atom_site_type_symbol
 _atom_site_label
 _atom_site_symmetry_multiplicity
 _atom_site_fract_x
 _atom_site_fract_y
 _atom_site_fract_z
 _atom_site_occupancy
  Ti  Ti0  1  0.781840  0.286279  0.069778  1
  Ti  Ti1  1  0.216502  0.286279  0.504439  1
  Ti  Ti2  1  0.210566  0.721345  0.510778  1
  Ti  Ti3  1  0.224134  0.722340  0.928398  1
  Ti  Ti4  1  0.793942  0.722340  0.498206  1
  Ti  Ti5  1  0.780270  0.271059  0.490790  1
  Ti  Ti6  1  0.377433  0.124706  0.747273  1
  Ti  Ti7  1  0.383336  0.632925  0.249589  1
  Al  Al8  1  0.152642  0.347829  0.195186  1
  Al  Al9  1  0.160914  0.977848  0.816934  1
  Al  Al10  1  0.154890  0.341453  0.806384  1
  Al  Al11  1  0.535068  0.341453  0.186563  1
  Al  Al12  1  0.847234  0.650070  0.802836  1
  Al  Al13  1  0.840417  0.028960  0.188542  1
  Al  Al14  1  0.838468  0.658299  0.185158  1
  Al  Al15  1  0.473142  0.658299  0.819832  1
  Al  Al16  1  0.380135  0.121369  0.255845  1
  Al  Al17  1  0.865525  0.121369  0.741235  1
  Al  Al18  1  0.621951  0.873928  0.251978  1
  Al  Al19  1  0.618713  0.366594  0.747880  1
  Al  Al20  1  0.617816  0.878973  0.744258  1
  Al  Al21  1  0.134714  0.878973  0.261157  1
  Ga  Ga22  1  0.995516  0.494355  0.498839  1
  Fe  Fe23  1  0.002978  0.999124  0.502797  1
  Fe  Fe24  1  0.496327  0.999124  0.996146  1
  Fe  Fe25  1  0.495661  0.498171  0.002510  1
  Rh  Rh26  1  0.499239  0.498932  0.498930  1
  Rh  Rh27  1  0.000001  0.498932  0.999693  1
  Rh  Rh28  1  0.999507  0.999302  0.999795  1
  Rh  Rh29  1  0.501115  0.999369  0.498254  1
