# generated using pymatgen
data_Hf6Zr2Co8Si13Ge
_symmetry_space_group_name_H-M   'P 1'
_cell_length_a   9.47698118
_cell_length_b   9.47621463
_cell_length_c   9.46777102
_cell_angle_alpha   94.13160546
_cell_angle_beta   94.13448451
_cell_angle_gamma   148.86974053
_symmetry_Int_Tables_number   1
_chemical_formula_structural   Hf6Zr2Co8Si13Ge
_chemical_formula_sum   'Hf6 Zr2 Co8 Si13 Ge1'
_cell_volume   423.42024852
_cell_formula_units_Z   1
loop_
 _symmetry_equiv_pos_site_id
 _symmetry_equiv_pos_as_xyz
  1  'x, y, z'
loop_
 _atom_site_type_symbol
 _atom_site_label
 _atom_site_symmetry_multiplicity
 _atom_site_fract_x
 _atom_site_fract_y
 _atom_site_fract_z
 _atom_site_occupancy
  Hf  Hf0  1  0.137299  0.862390  0.999859  1
  Hf  Hf1  1  0.862451  0.137314  0.999883  1
  Hf  Hf2  1  0.303408  0.502661  0.806083  1
  Hf  Hf3  1  0.696389  0.499398  0.195687  1
  Hf  Hf4  1  0.499393  0.696396  0.195675  1
  Hf  Hf5  1  0.502688  0.303481  0.806109  1
  Zr  Zr6  1  0.136744  0.136742  0.273420  1
  Zr  Zr7  1  0.863815  0.863781  0.727536  1
  Co  Co8  1  0.101983  0.601973  0.203913  1
  Co  Co9  1  0.398281  0.898264  0.796528  1
  Co  Co10  1  0.893116  0.100803  0.498141  1
  Co  Co11  1  0.605044  0.397389  0.498163  1
  Co  Co12  1  0.601943  0.101980  0.203914  1
  Co  Co13  1  0.898250  0.398256  0.796552  1
  Co  Co14  1  0.100876  0.893190  0.498182  1
  Co  Co15  1  0.397297  0.604987  0.498146  1
  Si  Si16  1  0.709485  0.709531  0.418918  1
  Si  Si17  1  0.289953  0.710388  0.000797  1
  Si  Si18  1  0.710734  0.290301  0.000799  1
  Si  Si19  1  0.091445  0.500342  0.591729  1
  Si  Si20  1  0.908840  0.499511  0.408093  1
  Si  Si21  1  0.499220  0.908527  0.408106  1
  Si  Si22  1  0.500290  0.091380  0.591746  1
  Si  Si23  1  0.252602  0.252596  0.999962  1
  Si  Si24  1  0.747294  0.747303  0.999914  1
  Si  Si25  1  0.300340  0.999100  0.299679  1
  Si  Si26  1  0.699156  0.000229  0.699360  1
  Si  Si27  1  0.000282  0.699116  0.699362  1
  Si  Si28  1  0.999388  0.300629  0.299687  1
  Ge  Ge29  1  0.291995  0.292045  0.584055  1
