# generated using pymatgen
data_Tb10Pr6Cd3HgIr4
_symmetry_space_group_name_H-M   'P 1'
_cell_length_a   9.78856350
_cell_length_b   9.78856319
_cell_length_c   9.78856406
_cell_angle_alpha   59.98951734
_cell_angle_beta   59.98951527
_cell_angle_gamma   59.98951581
_symmetry_Int_Tables_number   1
_chemical_formula_structural   Tb10Pr6Cd3HgIr4
_chemical_formula_sum   'Tb10 Pr6 Cd3 Hg1 Ir4'
_cell_volume   663.03835543
_cell_formula_units_Z   1
loop_
 _symmetry_equiv_pos_site_id
 _symmetry_equiv_pos_as_xyz
  1  'x, y, z'
loop_
 _atom_site_type_symbol
 _atom_site_label
 _atom_site_symmetry_multiplicity
 _atom_site_fract_x
 _atom_site_fract_y
 _atom_site_fract_z
 _atom_site_occupancy
  Tb  Tb0  1  0.347174  0.347174  0.347174  1
  Tb  Tb1  1  0.348717  0.348717  0.955654  1
  Tb  Tb2  1  0.348717  0.955654  0.348717  1
  Tb  Tb3  1  0.955654  0.348717  0.348717  1
  Tb  Tb4  1  0.811316  0.187985  0.187985  1
  Tb  Tb5  1  0.186715  0.811505  0.811505  1
  Tb  Tb6  1  0.187985  0.811316  0.187985  1
  Tb  Tb7  1  0.811505  0.186715  0.811505  1
  Tb  Tb8  1  0.187985  0.187985  0.811316  1
  Tb  Tb9  1  0.811505  0.811505  0.186715  1
  Pr  Pr10  1  0.940522  0.558792  0.558792  1
  Pr  Pr11  1  0.557269  0.941805  0.941805  1
  Pr  Pr12  1  0.558792  0.940522  0.558792  1
  Pr  Pr13  1  0.941805  0.557269  0.941805  1
  Pr  Pr14  1  0.558792  0.558792  0.940522  1
  Pr  Pr15  1  0.941805  0.941805  0.557269  1
  Cd  Cd16  1  0.579290  0.579290  0.261491  1
  Cd  Cd17  1  0.579290  0.261491  0.579290  1
  Cd  Cd18  1  0.261491  0.579290  0.579290  1
  Hg  Hg19  1  0.581532  0.581532  0.581532  1
  Ir  Ir20  1  0.141605  0.141605  0.141605  1
  Ir  Ir21  1  0.142194  0.142194  0.576144  1
  Ir  Ir22  1  0.142194  0.576144  0.142194  1
  Ir  Ir23  1  0.576144  0.142194  0.142194  1
