# generated using pymatgen
data_TbHo(Er3C5)2
_symmetry_space_group_name_H-M   'P 1'
_cell_length_a   3.64860700
_cell_length_b   6.53600902
_cell_length_c   11.84216400
_cell_angle_alpha   90.93056131
_cell_angle_beta   90.00000000
_cell_angle_gamma   90.00000000
_symmetry_Int_Tables_number   1
_chemical_formula_structural   TbHo(Er3C5)2
_chemical_formula_sum   'Tb1 Ho1 Er6 C10'
_cell_volume   282.36672660
_cell_formula_units_Z   1
loop_
 _symmetry_equiv_pos_site_id
 _symmetry_equiv_pos_as_xyz
  1  'x, y, z'
loop_
 _atom_site_type_symbol
 _atom_site_label
 _atom_site_symmetry_multiplicity
 _atom_site_fract_x
 _atom_site_fract_y
 _atom_site_fract_z
 _atom_site_occupancy
  Tb  Tb0  1  0.500000  0.395104  0.301558  1
  Ho  Ho1  1  0.500000  0.604058  0.698036  1
  Er  Er2  1  0.000000  0.256877  0.542279  1
  Er  Er3  1  0.000000  0.743917  0.458154  1
  Er  Er4  1  0.000000  0.757351  0.956897  1
  Er  Er5  1  0.000000  0.242306  0.042962  1
  Er  Er6  1  0.500000  0.109051  0.804724  1
  Er  Er7  1  0.500000  0.890630  0.195010  1
  C  C8  1  0.500000  0.500959  0.500925  1
  C  C9  1  0.500000  0.999951  0.000002  1
  C  C10  1  0.000000  0.361960  0.734768  1
  C  C11  1  0.000000  0.640531  0.265073  1
  C  C12  1  0.000000  0.858352  0.762959  1
  C  C13  1  0.000000  0.139427  0.236685  1
  C  C14  1  0.000000  0.390208  0.847142  1
  C  C15  1  0.000000  0.609994  0.152980  1
  C  C16  1  0.000000  0.078302  0.343465  1
  C  C17  1  0.000000  0.921022  0.656383  1
