# generated using pymatgen
data_DyLu7(BBr6)2
_symmetry_space_group_name_H-M   'P 1'
_cell_length_a   3.87899900
_cell_length_b   12.92872955
_cell_length_c   13.36910057
_cell_angle_alpha   90.32089762
_cell_angle_beta   90.00000000
_cell_angle_gamma   90.00000000
_symmetry_Int_Tables_number   1
_chemical_formula_structural   DyLu7(BBr6)2
_chemical_formula_sum   'Dy1 Lu7 B2 Br12'
_cell_volume   670.45695013
_cell_formula_units_Z   1
loop_
 _symmetry_equiv_pos_site_id
 _symmetry_equiv_pos_as_xyz
  1  'x, y, z'
loop_
 _atom_site_type_symbol
 _atom_site_label
 _atom_site_symmetry_multiplicity
 _atom_site_fract_x
 _atom_site_fract_y
 _atom_site_fract_z
 _atom_site_occupancy
  Dy  Dy0  1  0.500000  0.123386  0.855118  1
  Lu  Lu1  1  0.000000  0.099232  0.080126  1
  Lu  Lu2  1  0.000000  0.899848  0.920946  1
  Lu  Lu3  1  0.000000  0.599886  0.420288  1
  Lu  Lu4  1  0.000000  0.401355  0.578596  1
  Lu  Lu5  1  0.500000  0.878148  0.142955  1
  Lu  Lu6  1  0.500000  0.622072  0.642750  1
  Lu  Lu7  1  0.500000  0.378437  0.356903  1
  B  B8  1  0.500000  0.999047  0.001080  1
  B  B9  1  0.500000  0.500686  0.499509  1
  Br  Br10  1  0.500000  0.271004  0.679516  1
  Br  Br11  1  0.500000  0.730826  0.317579  1
  Br  Br12  1  0.500000  0.767532  0.818074  1
  Br  Br13  1  0.500000  0.230704  0.183832  1
  Br  Br14  1  0.000000  0.264643  0.936121  1
  Br  Br15  1  0.000000  0.738293  0.069047  1
  Br  Br16  1  0.000000  0.479223  0.238751  1
  Br  Br17  1  0.000000  0.520832  0.760777  1
  Br  Br18  1  0.000000  0.979488  0.261963  1
  Br  Br19  1  0.000000  0.014856  0.736409  1
  Br  Br20  1  0.000000  0.239414  0.430552  1
  Br  Br21  1  0.000000  0.761088  0.569106  1
