# generated using pymatgen
data_ErTm11In20
_symmetry_space_group_name_H-M   'P 1'
_cell_length_a   6.44924719
_cell_length_b   10.37882869
_cell_length_c   12.19637900
_cell_angle_alpha   89.96763913
_cell_angle_beta   89.96521873
_cell_angle_gamma   90.00485491
_symmetry_Int_Tables_number   1
_chemical_formula_structural   ErTm11In20
_chemical_formula_sum   'Er1 Tm11 In20'
_cell_volume   816.37205004
_cell_formula_units_Z   1
loop_
 _symmetry_equiv_pos_site_id
 _symmetry_equiv_pos_as_xyz
  1  'x, y, z'
loop_
 _atom_site_type_symbol
 _atom_site_label
 _atom_site_symmetry_multiplicity
 _atom_site_fract_x
 _atom_site_fract_y
 _atom_site_fract_z
 _atom_site_occupancy
  Er  Er0  1  0.891256  0.007171  0.140355  1
  Tm  Tm1  1  0.608760  0.492895  0.640515  1
  Tm  Tm2  1  0.349898  0.750058  0.053338  1
  Tm  Tm3  1  0.149980  0.749812  0.553368  1
  Tm  Tm4  1  0.650121  0.250364  0.946569  1
  Tm  Tm5  1  0.849760  0.249880  0.446656  1
  Tm  Tm6  1  0.891446  0.492839  0.140272  1
  Tm  Tm7  1  0.608441  0.006897  0.640111  1
  Tm  Tm8  1  0.108792  0.992842  0.859709  1
  Tm  Tm9  1  0.391139  0.507133  0.359623  1
  Tm  Tm10  1  0.108839  0.507073  0.859616  1
  Tm  Tm11  1  0.391505  0.992991  0.359854  1
  In  In12  1  0.615457  0.749987  0.505622  1
  In  In13  1  0.884240  0.749847  0.005864  1
  In  In14  1  0.384147  0.249981  0.493996  1
  In  In15  1  0.115837  0.250006  0.993979  1
  In  In16  1  0.649921  0.749928  0.244401  1
  In  In17  1  0.849942  0.750230  0.744484  1
  In  In18  1  0.349851  0.249827  0.755624  1
  In  In19  1  0.150209  0.249971  0.255651  1
  In  In20  1  0.130316  0.750286  0.283408  1
  In  In21  1  0.369865  0.750054  0.783283  1
  In  In22  1  0.869871  0.249540  0.716681  1
  In  In23  1  0.629969  0.250328  0.216784  1
  In  In24  1  0.875852  0.543005  0.399589  1
  In  In25  1  0.623811  0.957055  0.899519  1
  In  In26  1  0.123784  0.042928  0.600392  1
  In  In27  1  0.375986  0.456958  0.100335  1
  In  In28  1  0.123964  0.456786  0.600278  1
  In  In29  1  0.376558  0.043151  0.100344  1
  In  In30  1  0.876303  0.956827  0.399809  1
  In  In31  1  0.624180  0.543353  0.899965  1
