# generated using pymatgen
data_YHo9Al4(SiC4)2
_symmetry_space_group_name_H-M   'P 1'
_cell_length_a   10.71695105
_cell_length_b   10.71737019
_cell_length_c   3.50530800
_cell_angle_alpha   90.00000000
_cell_angle_beta   90.00000000
_cell_angle_gamma   89.98339489
_symmetry_Int_Tables_number   1
_chemical_formula_structural   YHo9Al4(SiC4)2
_chemical_formula_sum   'Y1 Ho9 Al4 Si2 C8'
_cell_volume   402.61100808
_cell_formula_units_Z   1
loop_
 _symmetry_equiv_pos_site_id
 _symmetry_equiv_pos_as_xyz
  1  'x, y, z'
loop_
 _atom_site_type_symbol
 _atom_site_label
 _atom_site_symmetry_multiplicity
 _atom_site_fract_x
 _atom_site_fract_y
 _atom_site_fract_z
 _atom_site_occupancy
  Y  Y0  1  0.775943  0.949425  0.500000  1
  Ho  Ho1  1  0.550162  0.724807  0.500000  1
  Ho  Ho2  1  0.449206  0.275167  0.500000  1
  Ho  Ho3  1  0.050624  0.774572  0.500000  1
  Ho  Ho4  1  0.949818  0.225495  0.500000  1
  Ho  Ho5  1  0.275040  0.550380  0.500000  1
  Ho  Ho6  1  0.725013  0.449463  0.500000  1
  Ho  Ho7  1  0.225450  0.050462  0.500000  1
  Ho  Ho8  1  0.500170  0.000098  0.000000  1
  Ho  Ho9  1  0.000068  0.499968  0.000000  1
  Al  Al10  1  0.703348  0.204310  0.000000  1
  Al  Al11  1  0.296122  0.796393  0.000000  1
  Al  Al12  1  0.203642  0.296141  0.000000  1
  Al  Al13  1  0.795813  0.703051  0.000000  1
  Si  Si14  1  0.499963  0.499803  0.000000  1
  Si  Si15  1  0.001375  0.000362  0.000000  1
  C  C16  1  0.632029  0.134069  0.500000  1
  C  C17  1  0.366912  0.867049  0.500000  1
  C  C18  1  0.132977  0.367063  0.500000  1
  C  C19  1  0.867177  0.632921  0.500000  1
  C  C20  1  0.162833  0.662718  0.000000  1
  C  C21  1  0.837342  0.337331  0.000000  1
  C  C22  1  0.661706  0.836154  0.000000  1
  C  C23  1  0.337265  0.162796  0.000000  1
