# generated using pymatgen
data_LaEu2Al6CdO14
_symmetry_space_group_name_H-M   'P 1'
_cell_length_a   7.87388246
_cell_length_b   7.87388210
_cell_length_c   5.19781281
_cell_angle_alpha   90.01880177
_cell_angle_beta   89.98119873
_cell_angle_gamma   89.19313999
_symmetry_Int_Tables_number   1
_chemical_formula_structural   LaEu2Al6CdO14
_chemical_formula_sum   'La1 Eu2 Al6 Cd1 O14'
_cell_volume   322.22212504
_cell_formula_units_Z   1
loop_
 _symmetry_equiv_pos_site_id
 _symmetry_equiv_pos_as_xyz
  1  'x, y, z'
loop_
 _atom_site_type_symbol
 _atom_site_label
 _atom_site_symmetry_multiplicity
 _atom_site_fract_x
 _atom_site_fract_y
 _atom_site_fract_z
 _atom_site_occupancy
  La  La0  1  0.344300  0.655700  0.505690  1
  Eu  Eu1  1  0.158090  0.164587  0.488727  1
  Eu  Eu2  1  0.835413  0.841910  0.488727  1
  Al  Al3  1  0.493980  0.992799  0.997397  1
  Al  Al4  1  0.007201  0.506020  0.997397  1
  Al  Al5  1  0.140193  0.859807  0.958825  1
  Al  Al6  1  0.364566  0.350354  0.040331  1
  Al  Al7  1  0.849774  0.150226  0.965106  1
  Al  Al8  1  0.649646  0.635434  0.040331  1
  Cd  Cd9  1  0.667612  0.332388  0.524516  1
  O  O10  1  0.334319  0.907006  0.797096  1
  O  O11  1  0.174350  0.426045  0.195662  1
  O  O12  1  0.657733  0.087628  0.815368  1
  O  O13  1  0.851308  0.612074  0.181805  1
  O  O14  1  0.573955  0.825650  0.195662  1
  O  O15  1  0.912372  0.342267  0.815368  1
  O  O16  1  0.387926  0.148692  0.181805  1
  O  O17  1  0.092994  0.665681  0.797096  1
  O  O18  1  0.139748  0.860252  0.295792  1
  O  O19  1  0.355264  0.364728  0.703658  1
  O  O20  1  0.855147  0.144853  0.303889  1
  O  O21  1  0.635272  0.644736  0.703658  1
  O  O22  1  0.523495  0.476505  0.184287  1
  O  O23  1  0.995343  0.004657  0.821836  1
