# generated using pymatgen
data_Tm4Al18IrRu2Pt3
_symmetry_space_group_name_H-M   'P 1'
_cell_length_a   7.56754389
_cell_length_b   7.56754135
_cell_length_c   9.43717852
_cell_angle_alpha   89.90502980
_cell_angle_beta   89.90504839
_cell_angle_gamma   119.56134683
_symmetry_Int_Tables_number   1
_chemical_formula_structural   Tm4Al18IrRu2Pt3
_chemical_formula_sum   'Tm4 Al18 Ir1 Ru2 Pt3'
_cell_volume   470.09207445
_cell_formula_units_Z   1
loop_
 _symmetry_equiv_pos_site_id
 _symmetry_equiv_pos_as_xyz
  1  'x, y, z'
loop_
 _atom_site_type_symbol
 _atom_site_label
 _atom_site_symmetry_multiplicity
 _atom_site_fract_x
 _atom_site_fract_y
 _atom_site_fract_z
 _atom_site_occupancy
  Tm  Tm0  1  0.995035  0.671309  0.250719  1
  Tm  Tm1  1  0.005001  0.328980  0.749594  1
  Tm  Tm2  1  0.671019  0.994999  0.250406  1
  Tm  Tm3  1  0.328691  0.004964  0.749281  1
  Al  Al4  1  0.124939  0.126107  0.248677  1
  Al  Al5  1  0.873893  0.875061  0.751323  1
  Al  Al6  1  0.999801  0.330146  0.076346  1
  Al  Al7  1  0.999088  0.670724  0.922832  1
  Al  Al8  1  0.994624  0.662194  0.575701  1
  Al  Al9  1  0.337806  0.005376  0.424299  1
  Al  Al10  1  0.994730  0.331443  0.424252  1
  Al  Al11  1  0.668557  0.005271  0.575748  1
  Al  Al12  1  0.669854  0.000199  0.923654  1
  Al  Al13  1  0.329276  0.000912  0.077168  1
  Al  Al14  1  0.334974  0.329077  0.553151  1
  Al  Al15  1  0.670923  0.665027  0.446849  1
  Al  Al16  1  0.671727  0.672161  0.056835  1
  Al  Al17  1  0.327839  0.328273  0.943164  1
  Al  Al18  1  0.340509  0.545819  0.250198  1
  Al  Al19  1  0.658915  0.450087  0.746095  1
  Al  Al20  1  0.549913  0.341085  0.253905  1
  Al  Al21  1  0.454181  0.659491  0.749802  1
  Ir  Ir22  1  0.000334  0.999666  0.500000  1
  Ru  Ru23  1  0.671938  0.328062  0.500000  1
  Ru  Ru24  1  0.999604  0.000397  0.000000  1
  Pt  Pt25  1  0.672164  0.327836  0.000000  1
  Pt  Pt26  1  0.327208  0.672792  0.000000  1
  Pt  Pt27  1  0.327458  0.672542  0.500000  1
