# generated using pymatgen
data_SrY5CuRh17
_symmetry_space_group_name_H-M   'P 1'
_cell_length_a   5.30743900
_cell_length_b   5.30780477
_cell_length_c   17.38669900
_cell_angle_alpha   90.00000000
_cell_angle_beta   90.00000000
_cell_angle_gamma   119.99571998
_symmetry_Int_Tables_number   1
_chemical_formula_structural   SrY5CuRh17
_chemical_formula_sum   'Sr1 Y5 Cu1 Rh17'
_cell_volume   424.19588138
_cell_formula_units_Z   1
loop_
 _symmetry_equiv_pos_site_id
 _symmetry_equiv_pos_as_xyz
  1  'x, y, z'
loop_
 _atom_site_type_symbol
 _atom_site_label
 _atom_site_symmetry_multiplicity
 _atom_site_fract_x
 _atom_site_fract_y
 _atom_site_fract_z
 _atom_site_occupancy
  Sr  Sr0  1  0.666766  0.333391  0.250000  1
  Y  Y1  1  0.333344  0.666683  0.957695  1
  Y  Y2  1  0.666635  0.333326  0.042136  1
  Y  Y3  1  0.666635  0.333326  0.457864  1
  Y  Y4  1  0.333344  0.666683  0.542305  1
  Y  Y5  1  0.333323  0.666658  0.750000  1
  Cu  Cu6  1  0.333443  0.666677  0.250000  1
  Rh  Rh7  1  0.168716  0.831234  0.374904  1
  Rh  Rh8  1  0.168706  0.337438  0.374887  1
  Rh  Rh9  1  0.662495  0.831239  0.374907  1
  Rh  Rh10  1  0.833057  0.166992  0.625008  1
  Rh  Rh11  1  0.833074  0.666096  0.625020  1
  Rh  Rh12  1  0.333929  0.166960  0.624983  1
  Rh  Rh13  1  0.833057  0.166992  0.874992  1
  Rh  Rh14  1  0.833074  0.666096  0.874980  1
  Rh  Rh15  1  0.333929  0.166960  0.875017  1
  Rh  Rh16  1  0.168716  0.831234  0.125096  1
  Rh  Rh17  1  0.168706  0.337438  0.125113  1
  Rh  Rh18  1  0.662495  0.831239  0.125093  1
  Rh  Rh19  1  0.666496  0.333252  0.750000  1
  Rh  Rh20  1  0.999957  0.999945  0.250000  1
  Rh  Rh21  1  0.000145  0.000148  0.750000  1
  Rh  Rh22  1  0.999976  0.999996  0.498273  1
  Rh  Rh23  1  0.999976  0.999996  0.001727  1
