# generated using pymatgen
data_Eu2ScRuO6
_symmetry_space_group_name_H-M   'P 1'
_cell_length_a   5.76506200
_cell_length_b   5.58945072
_cell_length_c   9.72202328
_cell_angle_alpha   55.22854354
_cell_angle_beta   90.00000000
_cell_angle_gamma   90.00000000
_symmetry_Int_Tables_number   1
_chemical_formula_structural   Eu2ScRuO6
_chemical_formula_sum   'Eu4 Sc2 Ru2 O12'
_cell_volume   257.33694499
_cell_formula_units_Z   2
loop_
 _symmetry_equiv_pos_site_id
 _symmetry_equiv_pos_as_xyz
  1  'x, y, z'
loop_
 _atom_site_type_symbol
 _atom_site_label
 _atom_site_symmetry_multiplicity
 _atom_site_fract_x
 _atom_site_fract_y
 _atom_site_fract_z
 _atom_site_occupancy
  Eu  Eu0  1  0.445770  0.263844  0.750297  1
  Eu  Eu1  1  0.945770  0.736156  0.749703  1
  Eu  Eu2  1  0.554230  0.736156  0.249703  1
  Eu  Eu3  1  0.054230  0.263844  0.250297  1
  Sc  Sc4  1  0.000000  0.000000  0.000000  1
  Sc  Sc5  1  0.500000  0.000000  0.500000  1
  Ru  Ru6  1  0.000000  0.500000  0.500000  1
  Ru  Ru7  1  0.500000  0.500000  0.000000  1
  O  O8  1  0.710487  0.648184  0.548935  1
  O  O9  1  0.210487  0.351816  0.951065  1
  O  O10  1  0.298856  0.745101  0.047002  1
  O  O11  1  0.798856  0.254899  0.452998  1
  O  O12  1  0.289513  0.351816  0.451065  1
  O  O13  1  0.789513  0.648184  0.048935  1
  O  O14  1  0.701144  0.254899  0.952998  1
  O  O15  1  0.201144  0.745101  0.547002  1
  O  O16  1  0.026230  0.164512  0.744827  1
  O  O17  1  0.526230  0.835488  0.755173  1
  O  O18  1  0.973770  0.835488  0.255173  1
  O  O19  1  0.473770  0.164512  0.244827  1
