# generated using pymatgen
data_Nb8Fe7Si14Os
_symmetry_space_group_name_H-M   'P 1'
_cell_length_a   9.31011274
_cell_length_b   9.31147784
_cell_length_c   9.28795632
_cell_angle_alpha   94.21870273
_cell_angle_beta   94.21087782
_cell_angle_gamma   148.58004449
_symmetry_Int_Tables_number   1
_chemical_formula_structural   Nb8Fe7Si14Os
_chemical_formula_sum   'Nb8 Fe7 Si14 Os1'
_cell_volume   403.98807791
_cell_formula_units_Z   1
loop_
 _symmetry_equiv_pos_site_id
 _symmetry_equiv_pos_as_xyz
  1  'x, y, z'
loop_
 _atom_site_type_symbol
 _atom_site_label
 _atom_site_symmetry_multiplicity
 _atom_site_fract_x
 _atom_site_fract_y
 _atom_site_fract_z
 _atom_site_occupancy
  Nb  Nb0  1  0.309771  0.498856  0.807991  1
  Nb  Nb1  1  0.691354  0.502040  0.193655  1
  Nb  Nb2  1  0.502300  0.691613  0.193655  1
  Nb  Nb3  1  0.498221  0.309135  0.807991  1
  Nb  Nb4  1  0.135018  0.135018  0.270034  1
  Nb  Nb5  1  0.865029  0.865029  0.730059  1
  Nb  Nb6  1  0.136141  0.868429  0.001332  1
  Nb  Nb7  1  0.865190  0.132903  0.001332  1
  Fe  Fe8  1  0.103390  0.603390  0.206781  1
  Fe  Fe9  1  0.900399  0.098104  0.497511  1
  Fe  Fe10  1  0.597111  0.399407  0.497511  1
  Fe  Fe11  1  0.600211  0.100211  0.200426  1
  Fe  Fe12  1  0.899415  0.399415  0.798829  1
  Fe  Fe13  1  0.100023  0.898807  0.499678  1
  Fe  Fe14  1  0.399656  0.600871  0.499678  1
  Si  Si15  1  0.290343  0.290343  0.580685  1
  Si  Si16  1  0.709353  0.709353  0.418705  1
  Si  Si17  1  0.283857  0.697187  0.006539  1
  Si  Si18  1  0.722682  0.309353  0.006539  1
  Si  Si19  1  0.078914  0.479691  0.585550  1
  Si  Si20  1  0.900446  0.498172  0.407793  1
  Si  Si21  1  0.507346  0.909621  0.407793  1
  Si  Si22  1  0.506636  0.105860  0.585550  1
  Si  Si23  1  0.249250  0.249104  0.000381  1
  Si  Si24  1  0.751132  0.751278  0.000381  1
  Si  Si25  1  0.297266  0.002410  0.297815  1
  Si  Si26  1  0.715117  0.003177  0.700408  1
  Si  Si27  1  0.985291  0.697231  0.700408  1
  Si  Si28  1  0.000549  0.295405  0.297815  1
  Os  Os29  1  0.398588  0.898588  0.797174  1
