# generated using pymatgen
data_Er3Tm(SeO4)6
_symmetry_space_group_name_H-M   'P 1'
_cell_length_a   9.90798262
_cell_length_b   9.90798060
_cell_length_c   9.90798236
_cell_angle_alpha   57.85587187
_cell_angle_beta   57.85588219
_cell_angle_gamma   57.85587696
_symmetry_Int_Tables_number   1
_chemical_formula_structural   Er3Tm(SeO4)6
_chemical_formula_sum   'Er3 Tm1 Se6 O24'
_cell_volume   653.91284007
_cell_formula_units_Z   1
loop_
 _symmetry_equiv_pos_site_id
 _symmetry_equiv_pos_as_xyz
  1  'x, y, z'
loop_
 _atom_site_type_symbol
 _atom_site_label
 _atom_site_symmetry_multiplicity
 _atom_site_fract_x
 _atom_site_fract_y
 _atom_site_fract_z
 _atom_site_occupancy
  Er  Er0  1  0.643578  0.643578  0.643578  1
  Er  Er1  1  0.356225  0.356225  0.356225  1
  Er  Er2  1  0.143706  0.143706  0.143706  1
  Tm  Tm3  1  0.856018  0.856018  0.856018  1
  Se  Se4  1  0.749810  0.036203  0.464436  1
  Se  Se5  1  0.963569  0.537355  0.248764  1
  Se  Se6  1  0.537355  0.248764  0.963570  1
  Se  Se7  1  0.464435  0.749810  0.036204  1
  Se  Se8  1  0.036204  0.464435  0.749810  1
  Se  Se9  1  0.248764  0.963569  0.537355  1
  O  O10  1  0.919167  0.063236  0.291776  1
  O  O11  1  0.774965  0.006593  0.632466  1
  O  O12  1  0.992428  0.369007  0.224771  1
  O  O13  1  0.709554  0.079033  0.936480  1
  O  O14  1  0.580079  0.208632  0.438021  1
  O  O15  1  0.868509  0.493085  0.724970  1
  O  O16  1  0.508413  0.273479  0.131615  1
  O  O17  1  0.791203  0.564582  0.418273  1
  O  O18  1  0.936480  0.709554  0.079033  1
  O  O19  1  0.564582  0.418273  0.791203  1
  O  O20  1  0.369007  0.224771  0.992428  1
  O  O21  1  0.273479  0.131615  0.508413  1
  O  O22  1  0.724970  0.868509  0.493085  1
  O  O23  1  0.632466  0.774965  0.006593  1
  O  O24  1  0.438021  0.580079  0.208632  1
  O  O25  1  0.063236  0.291776  0.919167  1
  O  O26  1  0.208632  0.438021  0.580079  1
  O  O27  1  0.493085  0.724970  0.868509  1
  O  O28  1  0.131615  0.508413  0.273479  1
  O  O29  1  0.418273  0.791203  0.564582  1
  O  O30  1  0.291776  0.919167  0.063236  1
  O  O31  1  0.006593  0.632466  0.774965  1
  O  O32  1  0.224771  0.992428  0.369007  1
  O  O33  1  0.079033  0.936480  0.709554  1
