# generated using pymatgen
data_Dy4YMg3Si3P9Ir16
_symmetry_space_group_name_H-M   'P 1'
_cell_length_a   12.80744000
_cell_length_b   12.80743966
_cell_length_c   3.98294600
_cell_angle_alpha   90.00000000
_cell_angle_beta   90.00000000
_cell_angle_gamma   120.00000089
_symmetry_Int_Tables_number   1
_chemical_formula_structural   Dy4YMg3Si3P9Ir16
_chemical_formula_sum   'Dy4 Y1 Mg3 Si3 P9 Ir16'
_cell_volume   565.79576766
_cell_formula_units_Z   1
loop_
 _symmetry_equiv_pos_site_id
 _symmetry_equiv_pos_as_xyz
  1  'x, y, z'
loop_
 _atom_site_type_symbol
 _atom_site_label
 _atom_site_symmetry_multiplicity
 _atom_site_fract_x
 _atom_site_fract_y
 _atom_site_fract_z
 _atom_site_occupancy
  Dy  Dy0  1  0.666667  0.333333  0.500000  1
  Dy  Dy1  1  0.000009  0.812501  0.000000  1
  Dy  Dy2  1  0.187499  0.187508  0.000000  1
  Dy  Dy3  1  0.812492  0.999991  0.000000  1
  Y  Y4  1  0.333333  0.666667  0.500000  1
  Mg  Mg5  1  0.999869  0.442071  0.500000  1
  Mg  Mg6  1  0.557929  0.557799  0.500000  1
  Mg  Mg7  1  0.442201  0.000131  0.500000  1
  Si  Si8  1  0.000025  0.638247  0.500000  1
  Si  Si9  1  0.361753  0.361778  0.500000  1
  Si  Si10  1  0.638222  0.999975  0.500000  1
  P  P11  1  0.516424  0.690276  0.000000  1
  P  P12  1  0.309724  0.826148  0.000000  1
  P  P13  1  0.173852  0.483576  0.000000  1
  P  P14  1  0.483744  0.174070  0.000000  1
  P  P15  1  0.690325  0.516256  0.000000  1
  P  P16  1  0.825930  0.309675  0.000000  1
  P  P17  1  0.999952  0.177941  0.500000  1
  P  P18  1  0.822059  0.822011  0.500000  1
  P  P19  1  0.177989  0.000048  0.500000  1
  Ir  Ir20  1  0.509265  0.870062  0.000000  1
  Ir  Ir21  1  0.129938  0.639204  0.000000  1
  Ir  Ir22  1  0.360796  0.490735  0.000000  1
  Ir  Ir23  1  0.490981  0.360825  0.000000  1
  Ir  Ir24  1  0.869845  0.509019  0.000000  1
  Ir  Ir25  1  0.639175  0.130155  0.000000  1
  Ir  Ir26  1  0.999938  0.277836  0.000000  1
  Ir  Ir27  1  0.722164  0.722102  0.000000  1
  Ir  Ir28  1  0.277898  0.000062  0.000000  1
  Ir  Ir29  1  0.627571  0.804848  0.500000  1
  Ir  Ir30  1  0.195152  0.822723  0.500000  1
  Ir  Ir31  1  0.177277  0.372429  0.500000  1
  Ir  Ir32  1  0.372561  0.177413  0.500000  1
  Ir  Ir33  1  0.804852  0.627439  0.500000  1
  Ir  Ir34  1  0.822587  0.195148  0.500000  1
  Ir  Ir35  1  0.000000  0.000000  0.500000  1
