# generated using pymatgen
data_Ta4Pd(RhSe6)2
_symmetry_space_group_name_H-M   'P 1'
_cell_length_a   7.52497216
_cell_length_b   7.52497245
_cell_length_c   19.63740209
_cell_angle_alpha   69.34571141
_cell_angle_beta   69.34571084
_cell_angle_gamma   26.79269749
_symmetry_Int_Tables_number   1
_chemical_formula_structural   Ta4Pd(RhSe6)2
_chemical_formula_sum   'Ta4 Pd1 Rh2 Se12'
_cell_volume   467.12605437
_cell_formula_units_Z   1
loop_
 _symmetry_equiv_pos_site_id
 _symmetry_equiv_pos_as_xyz
  1  'x, y, z'
loop_
 _atom_site_type_symbol
 _atom_site_label
 _atom_site_symmetry_multiplicity
 _atom_site_fract_x
 _atom_site_fract_y
 _atom_site_fract_z
 _atom_site_occupancy
  Ta  Ta0  1  0.624566  0.624566  0.847157  1
  Ta  Ta1  1  0.375434  0.375434  0.152843  1
  Ta  Ta2  1  0.749250  0.749250  0.590761  1
  Ta  Ta3  1  0.250750  0.250750  0.409239  1
  Pd  Pd4  1  0.000000  0.000000  0.000000  1
  Rh  Rh5  1  0.231614  0.231614  0.715670  1
  Rh  Rh6  1  0.768386  0.768386  0.284330  1
  Se  Se7  1  0.980539  0.980539  0.879842  1
  Se  Se8  1  0.019461  0.019461  0.120158  1
  Se  Se9  1  0.623884  0.623884  0.403013  1
  Se  Se10  1  0.376116  0.376116  0.596987  1
  Se  Se11  1  0.141517  0.141517  0.551189  1
  Se  Se12  1  0.858483  0.858483  0.448811  1
  Se  Se13  1  0.806935  0.806935  0.768485  1
  Se  Se14  1  0.193065  0.193065  0.231515  1
  Se  Se15  1  0.177759  0.177759  0.925899  1
  Se  Se16  1  0.822241  0.822241  0.074101  1
  Se  Se17  1  0.606518  0.606518  0.716559  1
  Se  Se18  1  0.393482  0.393482  0.283441  1
