# generated using pymatgen
data_Dy2Al9CuRh2
_symmetry_space_group_name_H-M   'P 1'
_cell_length_a   7.56780307
_cell_length_b   7.56780240
_cell_length_c   9.40514800
_cell_angle_alpha   90.00000000
_cell_angle_beta   90.00000000
_cell_angle_gamma   119.75392296
_symmetry_Int_Tables_number   1
_chemical_formula_structural   Dy2Al9CuRh2
_chemical_formula_sum   'Dy4 Al18 Cu2 Rh4'
_cell_volume   467.63545612
_cell_formula_units_Z   2
loop_
 _symmetry_equiv_pos_site_id
 _symmetry_equiv_pos_as_xyz
  1  'x, y, z'
loop_
 _atom_site_type_symbol
 _atom_site_label
 _atom_site_symmetry_multiplicity
 _atom_site_fract_x
 _atom_site_fract_y
 _atom_site_fract_z
 _atom_site_occupancy
  Dy  Dy0  1  0.993835  0.673127  0.250000  1
  Dy  Dy1  1  0.006165  0.326873  0.750000  1
  Dy  Dy2  1  0.673127  0.993835  0.250000  1
  Dy  Dy3  1  0.326873  0.006165  0.750000  1
  Al  Al4  1  0.127695  0.127695  0.250000  1
  Al  Al5  1  0.872305  0.872305  0.750000  1
  Al  Al6  1  0.999627  0.337775  0.075231  1
  Al  Al7  1  0.000373  0.662225  0.924769  1
  Al  Al8  1  0.000373  0.662225  0.575231  1
  Al  Al9  1  0.337775  0.999627  0.424769  1
  Al  Al10  1  0.999627  0.337775  0.424769  1
  Al  Al11  1  0.662225  0.000373  0.575231  1
  Al  Al12  1  0.662225  0.000373  0.924769  1
  Al  Al13  1  0.337775  0.999627  0.075231  1
  Al  Al14  1  0.335171  0.335171  0.553318  1
  Al  Al15  1  0.664829  0.664829  0.446682  1
  Al  Al16  1  0.664829  0.664829  0.053318  1
  Al  Al17  1  0.335171  0.335171  0.946682  1
  Al  Al18  1  0.337551  0.548651  0.250000  1
  Al  Al19  1  0.662449  0.451349  0.750000  1
  Al  Al20  1  0.548651  0.337551  0.250000  1
  Al  Al21  1  0.451349  0.662449  0.750000  1
  Cu  Cu22  1  0.000000  0.000000  0.000000  1
  Cu  Cu23  1  0.000000  0.000000  0.500000  1
  Rh  Rh24  1  0.671399  0.328601  0.000000  1
  Rh  Rh25  1  0.328601  0.671399  0.000000  1
  Rh  Rh26  1  0.328601  0.671399  0.500000  1
  Rh  Rh27  1  0.671399  0.328601  0.500000  1
