# generated using pymatgen
data_K6SbIO5
_symmetry_space_group_name_H-M   'P 1'
_cell_length_a   7.88950273
_cell_length_b   7.88950247
_cell_length_c   7.88950100
_cell_angle_alpha   60.00000196
_cell_angle_beta   60.00000307
_cell_angle_gamma   60.00000336
_symmetry_Int_Tables_number   1
_chemical_formula_structural   K6SbIO5
_chemical_formula_sum   'K6 Sb1 I1 O5'
_cell_volume   347.24325016
_cell_formula_units_Z   1
loop_
 _symmetry_equiv_pos_site_id
 _symmetry_equiv_pos_as_xyz
  1  'x, y, z'
loop_
 _atom_site_type_symbol
 _atom_site_label
 _atom_site_symmetry_multiplicity
 _atom_site_fract_x
 _atom_site_fract_y
 _atom_site_fract_z
 _atom_site_occupancy
  K  K0  1  0.485810  0.014189  0.014189  1
  K  K1  1  0.014189  0.485810  0.014189  1
  K  K2  1  0.485810  0.485810  0.014189  1
  K  K3  1  0.014189  0.014189  0.485810  1
  K  K4  1  0.485810  0.014189  0.485810  1
  K  K5  1  0.014189  0.485810  0.485810  1
  Sb  Sb6  1  0.500000  0.500000  0.500000  1
  I  I7  1  0.000000  0.000000  0.000000  1
  O  O8  1  0.599178  0.599178  0.202467  1
  O  O9  1  0.250000  0.250000  0.250000  1
  O  O10  1  0.599178  0.202467  0.599178  1
  O  O11  1  0.202467  0.599178  0.599178  1
  O  O12  1  0.599178  0.599178  0.599178  1
