# generated using pymatgen
data_Th(Tc2Ge)2
_symmetry_space_group_name_H-M   'P 1'
_cell_length_a   7.61111900
_cell_length_b   7.61111900
_cell_length_c   4.18065200
_cell_angle_alpha   90.00000000
_cell_angle_beta   90.00000000
_cell_angle_gamma   90.00000000
_symmetry_Int_Tables_number   1
_chemical_formula_structural   Th(Tc2Ge)2
_chemical_formula_sum   'Th2 Tc8 Ge4'
_cell_volume   242.18154336
_cell_formula_units_Z   2
loop_
 _symmetry_equiv_pos_site_id
 _symmetry_equiv_pos_as_xyz
  1  'x, y, z'
loop_
 _atom_site_type_symbol
 _atom_site_label
 _atom_site_symmetry_multiplicity
 _atom_site_fract_x
 _atom_site_fract_y
 _atom_site_fract_z
 _atom_site_occupancy
  Th  Th0  1  0.500000  0.500000  0.000000  1
  Th  Th1  1  0.000000  0.000000  0.500000  1
  Tc  Tc2  1  0.148107  0.588500  0.500000  1
  Tc  Tc3  1  0.851893  0.411500  0.500000  1
  Tc  Tc4  1  0.351893  0.088500  0.000000  1
  Tc  Tc5  1  0.648107  0.911500  0.000000  1
  Tc  Tc6  1  0.588500  0.148107  0.500000  1
  Tc  Tc7  1  0.411500  0.851893  0.500000  1
  Tc  Tc8  1  0.088500  0.351893  0.000000  1
  Tc  Tc9  1  0.911500  0.648107  0.000000  1
  Ge  Ge10  1  0.711183  0.711183  0.500000  1
  Ge  Ge11  1  0.288817  0.288817  0.500000  1
  Ge  Ge12  1  0.788817  0.211183  0.000000  1
  Ge  Ge13  1  0.211183  0.788817  0.000000  1
