# generated using pymatgen
data_Tm3Th(ScPt)4
_symmetry_space_group_name_H-M   'P 1'
_cell_length_a   4.62952700
_cell_length_b   6.94548229
_cell_length_c   8.42704811
_cell_angle_alpha   89.42274106
_cell_angle_beta   90.00000000
_cell_angle_gamma   90.00000000
_symmetry_Int_Tables_number   1
_chemical_formula_structural   Tm3Th(ScPt)4
_chemical_formula_sum   'Tm3 Th1 Sc4 Pt4'
_cell_volume   270.95206192
_cell_formula_units_Z   1
loop_
 _symmetry_equiv_pos_site_id
 _symmetry_equiv_pos_as_xyz
  1  'x, y, z'
loop_
 _atom_site_type_symbol
 _atom_site_label
 _atom_site_symmetry_multiplicity
 _atom_site_fract_x
 _atom_site_fract_y
 _atom_site_fract_z
 _atom_site_occupancy
  Tm  Tm0  1  0.250000  0.980772  0.324973  1
  Tm  Tm1  1  0.750000  0.016508  0.672669  1
  Tm  Tm2  1  0.250000  0.482013  0.180291  1
  Th  Th3  1  0.750000  0.516684  0.824379  1
  Sc  Sc4  1  0.750000  0.641054  0.421724  1
  Sc  Sc5  1  0.250000  0.355107  0.565358  1
  Sc  Sc6  1  0.750000  0.141743  0.079569  1
  Sc  Sc7  1  0.250000  0.866037  0.927768  1
  Pt  Pt8  1  0.250000  0.249628  0.904709  1
  Pt  Pt9  1  0.750000  0.752490  0.099299  1
  Pt  Pt10  1  0.250000  0.745936  0.598381  1
  Pt  Pt11  1  0.750000  0.252027  0.400878  1
