# generated using pymatgen
data_YLu2AlGa4Ni
_symmetry_space_group_name_H-M   'P 1'
_cell_length_a   6.75383500
_cell_length_b   6.83118886
_cell_length_c   4.20116300
_cell_angle_alpha   90.00000000
_cell_angle_beta   90.00000000
_cell_angle_gamma   119.62612378
_symmetry_Int_Tables_number   1
_chemical_formula_structural   YLu2AlGa4Ni
_chemical_formula_sum   'Y1 Lu2 Al1 Ga4 Ni1'
_cell_volume   168.48869886
_cell_formula_units_Z   1
loop_
 _symmetry_equiv_pos_site_id
 _symmetry_equiv_pos_as_xyz
  1  'x, y, z'
loop_
 _atom_site_type_symbol
 _atom_site_label
 _atom_site_symmetry_multiplicity
 _atom_site_fract_x
 _atom_site_fract_y
 _atom_site_fract_z
 _atom_site_occupancy
  Y  Y0  1  0.591141  0.000000  0.500000  1
  Lu  Lu1  1  0.406463  0.407730  0.500000  1
  Lu  Lu2  1  0.998733  0.592270  0.500000  1
  Al  Al3  1  0.229056  0.000000  0.000000  1
  Ga  Ga4  1  0.003881  0.239212  0.000000  1
  Ga  Ga5  1  0.665212  0.334258  0.000000  1
  Ga  Ga6  1  0.330954  0.665742  0.000000  1
  Ga  Ga7  1  0.764668  0.760788  0.000000  1
  Ni  Ni8  1  0.009893  0.000000  0.500000  1
