# generated using pymatgen
data_Sc8Cr7Si16W5
_symmetry_space_group_name_H-M   'P 1'
_cell_length_a   6.50960123
_cell_length_b   6.64714577
_cell_length_c   12.36660222
_cell_angle_alpha   89.98482901
_cell_angle_beta   89.95230458
_cell_angle_gamma   90.05280874
_symmetry_Int_Tables_number   1
_chemical_formula_structural   Sc8Cr7Si16W5
_chemical_formula_sum   'Sc8 Cr7 Si16 W5'
_cell_volume   535.10576413
_cell_formula_units_Z   1
loop_
 _symmetry_equiv_pos_site_id
 _symmetry_equiv_pos_as_xyz
  1  'x, y, z'
loop_
 _atom_site_type_symbol
 _atom_site_label
 _atom_site_symmetry_multiplicity
 _atom_site_fract_x
 _atom_site_fract_y
 _atom_site_fract_z
 _atom_site_occupancy
  Sc  Sc0  1  0.492483  0.666461  0.593745  1
  Sc  Sc1  1  0.992617  0.831142  0.907955  1
  Sc  Sc2  1  0.505778  0.331971  0.093551  1
  Sc  Sc3  1  0.006976  0.168290  0.405413  1
  Sc  Sc4  1  0.503177  0.331394  0.405995  1
  Sc  Sc5  1  0.006067  0.168829  0.093913  1
  Sc  Sc6  1  0.495071  0.669515  0.908110  1
  Sc  Sc7  1  0.993755  0.830900  0.594398  1
  Cr  Cr8  1  0.666127  0.163929  0.623869  1
  Cr  Cr9  1  0.170068  0.339879  0.877738  1
  Cr  Cr10  1  0.333371  0.837206  0.123828  1
  Cr  Cr11  1  0.830510  0.663737  0.374516  1
  Cr  Cr12  1  0.337391  0.837939  0.373393  1
  Cr  Cr13  1  0.832339  0.662745  0.123645  1
  Cr  Cr14  1  0.664677  0.161014  0.876487  1
  Si  Si15  1  0.667563  0.955877  0.456325  1
  Si  Si16  1  0.165469  0.545304  0.043162  1
  Si  Si17  1  0.333772  0.044572  0.957165  1
  Si  Si18  1  0.828060  0.457849  0.540417  1
  Si  Si19  1  0.338007  0.034271  0.540251  1
  Si  Si20  1  0.836131  0.454479  0.956605  1
  Si  Si21  1  0.664211  0.956324  0.043938  1
  Si  Si22  1  0.163510  0.550403  0.452606  1
  Si  Si23  1  0.465836  0.369103  0.754107  1
  Si  Si24  1  0.956585  0.129501  0.755303  1
  Si  Si25  1  0.539470  0.632789  0.249170  1
  Si  Si26  1  0.040527  0.866688  0.249454  1
  Si  Si27  1  0.696349  0.867116  0.749825  1
  Si  Si28  1  0.198562  0.636368  0.753331  1
  Si  Si29  1  0.303099  0.131327  0.249187  1
  Si  Si30  1  0.802550  0.368702  0.249821  1
  W  W31  1  0.167430  0.333715  0.623520  1
  W  W32  1  0.831425  0.500836  0.750093  1
  W  W33  1  0.330800  0.999637  0.750616  1
  W  W34  1  0.169846  0.499829  0.248806  1
  W  W35  1  0.670393  0.000357  0.249741  1
