# generated using pymatgen
data_Pr10AsPb6
_symmetry_space_group_name_H-M   'P 1'
_cell_length_a   6.89775900
_cell_length_b   9.52232319
_cell_length_c   9.52228400
_cell_angle_alpha   120.00014178
_cell_angle_beta   90.00019105
_cell_angle_gamma   89.99960964
_symmetry_Int_Tables_number   1
_chemical_formula_structural   Pr10AsPb6
_chemical_formula_sum   'Pr10 As1 Pb6'
_cell_volume   541.65415017
_cell_formula_units_Z   1
loop_
 _symmetry_equiv_pos_site_id
 _symmetry_equiv_pos_as_xyz
  1  'x, y, z'
loop_
 _atom_site_type_symbol
 _atom_site_label
 _atom_site_symmetry_multiplicity
 _atom_site_fract_x
 _atom_site_fract_y
 _atom_site_fract_z
 _atom_site_occupancy
  Pr  Pr0  1  0.500002  0.333360  0.666699  1
  Pr  Pr1  1  0.500002  0.666661  0.333301  1
  Pr  Pr2  1  0.999990  0.666647  0.333340  1
  Pr  Pr3  1  0.999990  0.333308  0.666660  1
  Pr  Pr4  1  0.747978  0.250066  0.000000  1
  Pr  Pr5  1  0.747980  0.749955  0.749939  1
  Pr  Pr6  1  0.747980  0.000016  0.250061  1
  Pr  Pr7  1  0.252009  0.749934  0.000000  1
  Pr  Pr8  1  0.252017  0.250076  0.250079  1
  Pr  Pr9  1  0.252017  0.999997  0.749921  1
  As  As10  1  0.500000  0.000008  0.000000  1
  Pb  Pb11  1  0.749056  0.607930  0.000000  1
  Pb  Pb12  1  0.748990  0.392127  0.392112  1
  Pb  Pb13  1  0.748990  0.000016  0.607888  1
  Pb  Pb14  1  0.250933  0.392065  0.000000  1
  Pb  Pb15  1  0.251035  0.607891  0.607948  1
  Pb  Pb16  1  0.251035  0.999944  0.392052  1
