# generated using pymatgen
data_DyTm3Co18(TcP6)2
_symmetry_space_group_name_H-M   'P 1'
_cell_length_a   3.66845900
_cell_length_b   10.28769939
_cell_length_c   11.74103045
_cell_angle_alpha   89.96838173
_cell_angle_beta   90.00000000
_cell_angle_gamma   90.00000000
_symmetry_Int_Tables_number   1
_chemical_formula_structural   DyTm3Co18(TcP6)2
_chemical_formula_sum   'Dy1 Tm3 Co18 Tc2 P12'
_cell_volume   443.10646178
_cell_formula_units_Z   1
loop_
 _symmetry_equiv_pos_site_id
 _symmetry_equiv_pos_as_xyz
  1  'x, y, z'
loop_
 _atom_site_type_symbol
 _atom_site_label
 _atom_site_symmetry_multiplicity
 _atom_site_fract_x
 _atom_site_fract_y
 _atom_site_fract_z
 _atom_site_occupancy
  Dy  Dy0  1  0.250000  0.917451  0.202996  1
  Tm  Tm1  1  0.250000  0.582330  0.702815  1
  Tm  Tm2  1  0.750000  0.415396  0.295523  1
  Tm  Tm3  1  0.750000  0.084688  0.795467  1
  Co  Co4  1  0.750000  0.284655  0.009186  1
  Co  Co5  1  0.750000  0.215913  0.509745  1
  Co  Co6  1  0.250000  0.406094  0.487549  1
  Co  Co7  1  0.250000  0.094424  0.987226  1
  Co  Co8  1  0.750000  0.591527  0.511697  1
  Co  Co9  1  0.750000  0.908507  0.010177  1
  Co  Co10  1  0.250000  0.221293  0.176938  1
  Co  Co11  1  0.250000  0.279160  0.677027  1
  Co  Co12  1  0.750000  0.778037  0.822342  1
  Co  Co13  1  0.750000  0.720860  0.322891  1
  Co  Co14  1  0.250000  0.886560  0.702066  1
  Co  Co15  1  0.250000  0.612787  0.201748  1
  Co  Co16  1  0.750000  0.117287  0.301069  1
  Co  Co17  1  0.750000  0.383788  0.800314  1
  Co  Co18  1  0.250000  0.463948  0.931978  1
  Co  Co19  1  0.250000  0.036377  0.433005  1
  Co  Co20  1  0.750000  0.532033  0.068653  1
  Co  Co21  1  0.750000  0.967374  0.569508  1
  Tc  Tc22  1  0.250000  0.710587  0.989107  1
  Tc  Tc23  1  0.250000  0.789038  0.489683  1
  P  P24  1  0.250000  0.417219  0.113014  1
  P  P25  1  0.250000  0.082797  0.613533  1
  P  P26  1  0.750000  0.578420  0.885776  1
  P  P27  1  0.750000  0.921492  0.387087  1
  P  P28  1  0.250000  0.268547  0.868234  1
  P  P29  1  0.250000  0.231649  0.368453  1
  P  P30  1  0.750000  0.729046  0.132966  1
  P  P31  1  0.750000  0.769514  0.633469  1
  P  P32  1  0.250000  0.594927  0.390722  1
  P  P33  1  0.250000  0.905153  0.890739  1
  P  P34  1  0.750000  0.398411  0.608854  1
  P  P35  1  0.750000  0.102708  0.108441  1
