# generated using pymatgen
data_Hf8Fe3Co2Si14Ni3
_symmetry_space_group_name_H-M   'P 1'
_cell_length_a   9.46654629
_cell_length_b   9.46617995
_cell_length_c   9.48776185
_cell_angle_alpha   94.21207068
_cell_angle_beta   94.19969737
_cell_angle_gamma   148.83736747
_symmetry_Int_Tables_number   1
_chemical_formula_structural   Hf8Fe3Co2Si14Ni3
_chemical_formula_sum   'Hf8 Fe3 Co2 Si14 Ni3'
_cell_volume   423.24370204
_cell_formula_units_Z   1
loop_
 _symmetry_equiv_pos_site_id
 _symmetry_equiv_pos_as_xyz
  1  'x, y, z'
loop_
 _atom_site_type_symbol
 _atom_site_label
 _atom_site_symmetry_multiplicity
 _atom_site_fract_x
 _atom_site_fract_y
 _atom_site_fract_z
 _atom_site_occupancy
  Hf  Hf0  1  0.139269  0.139553  0.274819  1
  Hf  Hf1  1  0.860659  0.860869  0.725119  1
  Hf  Hf2  1  0.137054  0.862783  0.999964  1
  Hf  Hf3  1  0.861762  0.138207  0.000033  1
  Hf  Hf4  1  0.300014  0.496364  0.803073  1
  Hf  Hf5  1  0.693043  0.497895  0.195342  1
  Hf  Hf6  1  0.503625  0.699961  0.196948  1
  Hf  Hf7  1  0.502198  0.307011  0.804564  1
  Fe  Fe8  1  0.103893  0.600960  0.200592  1
  Fe  Fe9  1  0.398225  0.895290  0.799373  1
  Fe  Fe10  1  0.893925  0.106258  0.499976  1
  Co  Co11  1  0.101597  0.899782  0.500080  1
  Co  Co12  1  0.402199  0.597953  0.499958  1
  Si  Si13  1  0.281947  0.283141  0.580444  1
  Si  Si14  1  0.717298  0.718561  0.419504  1
  Si  Si15  1  0.290538  0.709675  0.000111  1
  Si  Si16  1  0.708806  0.290431  0.000076  1
  Si  Si17  1  0.104631  0.511671  0.589132  1
  Si  Si18  1  0.938421  0.528940  0.406921  1
  Si  Si19  1  0.488233  0.895298  0.410937  1
  Si  Si20  1  0.471502  0.062038  0.593178  1
  Si  Si21  1  0.250523  0.251412  0.999751  1
  Si  Si22  1  0.748651  0.749549  0.000213  1
  Si  Si23  1  0.288632  0.989110  0.298675  1
  Si  Si24  1  0.691359  0.989694  0.698802  1
  Si  Si25  1  0.010605  0.710895  0.701213  1
  Si  Si26  1  0.010174  0.308592  0.301226  1
  Ni  Ni27  1  0.604609  0.396260  0.499512  1
  Ni  Ni28  1  0.604385  0.107200  0.208184  1
  Ni  Ni29  1  0.892222  0.394651  0.792283  1
