# generated using pymatgen
data_YbTh2(InPd)3
_symmetry_space_group_name_H-M   'P 1'
_cell_length_a   7.72951743
_cell_length_b   7.72951812
_cell_length_c   4.07226100
_cell_angle_alpha   90.00000000
_cell_angle_beta   90.00000000
_cell_angle_gamma   120.37970785
_symmetry_Int_Tables_number   1
_chemical_formula_structural   YbTh2(InPd)3
_chemical_formula_sum   'Yb1 Th2 In3 Pd3'
_cell_volume   209.89234340
_cell_formula_units_Z   1
loop_
 _symmetry_equiv_pos_site_id
 _symmetry_equiv_pos_as_xyz
  1  'x, y, z'
loop_
 _atom_site_type_symbol
 _atom_site_label
 _atom_site_symmetry_multiplicity
 _atom_site_fract_x
 _atom_site_fract_y
 _atom_site_fract_z
 _atom_site_occupancy
  Yb  Yb0  1  0.408163  0.408163  0.500000  1
  Th  Th1  1  0.998218  0.587683  0.500000  1
  Th  Th2  1  0.587683  0.998218  0.500000  1
  In  In3  1  0.011827  0.253919  0.000000  1
  In  In4  1  0.253919  0.011827  0.000000  1
  In  In5  1  0.737931  0.737931  0.000000  1
  Pd  Pd6  1  0.992207  0.992207  0.500000  1
  Pd  Pd7  1  0.677105  0.332946  0.000000  1
  Pd  Pd8  1  0.332946  0.677105  0.000000  1
