# generated using pymatgen
data_LiHo3In4Ni
_symmetry_space_group_name_H-M   'P 1'
_cell_length_a   8.08265200
_cell_length_b   8.08265117
_cell_length_c   3.58698000
_cell_angle_alpha   90.00000000
_cell_angle_beta   90.00000000
_cell_angle_gamma   120.00000341
_symmetry_Int_Tables_number   1
_chemical_formula_structural   LiHo3In4Ni
_chemical_formula_sum   'Li1 Ho3 In4 Ni1'
_cell_volume   202.93982818
_cell_formula_units_Z   1
loop_
 _symmetry_equiv_pos_site_id
 _symmetry_equiv_pos_as_xyz
  1  'x, y, z'
loop_
 _atom_site_type_symbol
 _atom_site_label
 _atom_site_symmetry_multiplicity
 _atom_site_fract_x
 _atom_site_fract_y
 _atom_site_fract_z
 _atom_site_occupancy
  Li  Li0  1  0.333333  0.666667  0.500000  1
  Ho  Ho1  1  0.288817  0.243647  0.500000  1
  Ho  Ho2  1  0.756353  0.045169  0.500000  1
  Ho  Ho3  1  0.954831  0.711183  0.500000  1
  In  In4  1  0.066488  0.405307  0.000000  1
  In  In5  1  0.594693  0.661181  0.000000  1
  In  In6  1  0.338819  0.933512  0.000000  1
  In  In7  1  0.666667  0.333333  0.000000  1
  Ni  Ni8  1  0.000000  0.000000  0.000000  1
