# generated using pymatgen
data_Ti9Nb2Sn10Mo
_symmetry_space_group_name_H-M   'P 1'
_cell_length_a   9.33541124
_cell_length_b   9.34636711
_cell_length_c   5.68575524
_cell_angle_alpha   90.00000199
_cell_angle_beta   89.88440628
_cell_angle_gamma   120.03883026
_symmetry_Int_Tables_number   1
_chemical_formula_structural   Ti9Nb2Sn10Mo
_chemical_formula_sum   'Ti9 Nb2 Sn10 Mo1'
_cell_volume   429.46110616
_cell_formula_units_Z   1
loop_
 _symmetry_equiv_pos_site_id
 _symmetry_equiv_pos_as_xyz
  1  'x, y, z'
loop_
 _atom_site_type_symbol
 _atom_site_label
 _atom_site_symmetry_multiplicity
 _atom_site_fract_x
 _atom_site_fract_y
 _atom_site_fract_z
 _atom_site_occupancy
  Ti  Ti0  1  0.846410  0.686119  0.756726  1
  Ti  Ti1  1  0.153590  0.839710  0.243274  1
  Ti  Ti2  1  0.686705  0.843353  0.238812  1
  Ti  Ti3  1  0.313295  0.156647  0.761188  1
  Ti  Ti4  1  0.846410  0.160290  0.756726  1
  Ti  Ti5  1  0.153590  0.313881  0.243274  1
  Ti  Ti6  1  0.500000  0.000000  0.500000  1
  Ti  Ti7  1  0.000000  0.500000  0.500000  1
  Ti  Ti8  1  0.500000  0.500000  0.500000  1
  Nb  Nb9  1  0.500000  0.500000  0.000000  1
  Nb  Nb10  1  0.500000  0.000000  0.000000  1
  Sn  Sn11  1  0.204188  0.411432  0.744143  1
  Sn  Sn12  1  0.795812  0.207244  0.255857  1
  Sn  Sn13  1  0.405807  0.202904  0.261062  1
  Sn  Sn14  1  0.594193  0.797096  0.738938  1
  Sn  Sn15  1  0.204188  0.792756  0.744143  1
  Sn  Sn16  1  0.795812  0.588568  0.255857  1
  Sn  Sn17  1  0.668322  0.334160  0.759630  1
  Sn  Sn18  1  0.331678  0.665840  0.240370  1
  Sn  Sn19  1  0.000000  0.000000  0.500000  1
  Sn  Sn20  1  0.000000  0.000000  0.000000  1
  Mo  Mo21  1  0.000000  0.500000  0.000000  1
