# generated using pymatgen
data_Zn4Ga2Pd7Pt3
_symmetry_space_group_name_H-M   'P 1'
_cell_length_a   4.10862600
_cell_length_b   5.45936961
_cell_length_c   10.64661218
_cell_angle_alpha   89.94589827
_cell_angle_beta   90.00000000
_cell_angle_gamma   90.00000000
_symmetry_Int_Tables_number   1
_chemical_formula_structural   Zn4Ga2Pd7Pt3
_chemical_formula_sum   'Zn4 Ga2 Pd7 Pt3'
_cell_volume   238.80881248
_cell_formula_units_Z   1
loop_
 _symmetry_equiv_pos_site_id
 _symmetry_equiv_pos_as_xyz
  1  'x, y, z'
loop_
 _atom_site_type_symbol
 _atom_site_label
 _atom_site_symmetry_multiplicity
 _atom_site_fract_x
 _atom_site_fract_y
 _atom_site_fract_z
 _atom_site_occupancy
  Zn  Zn0  1  0.000000  0.836045  0.641750  1
  Zn  Zn1  1  0.000000  0.335882  0.858237  1
  Zn  Zn2  1  0.000000  0.164151  0.358426  1
  Zn  Zn3  1  0.000000  0.663849  0.141490  1
  Ga  Ga4  1  0.500000  0.499999  0.499996  1
  Ga  Ga5  1  0.500000  0.000164  0.000264  1
  Pd  Pd6  1  0.500000  0.909319  0.235796  1
  Pd  Pd7  1  0.500000  0.408910  0.263599  1
  Pd  Pd8  1  0.500000  0.590751  0.736397  1
  Pd  Pd9  1  0.500000  0.090941  0.763876  1
  Pd  Pd10  1  0.500000  0.499081  0.000000  1
  Pd  Pd11  1  0.500000  0.000196  0.499853  1
  Pd  Pd12  1  0.000000  0.185636  0.106784  1
  Pt  Pt13  1  0.000000  0.814633  0.893806  1
  Pt  Pt14  1  0.000000  0.686154  0.392993  1
  Pt  Pt15  1  0.000000  0.314287  0.606733  1
