# generated using pymatgen
data_La2Gd2HoSi4
_symmetry_space_group_name_H-M   'P 1'
_cell_length_a   7.57992500
_cell_length_b   7.86730300
_cell_length_c   14.94042100
_cell_angle_alpha   90.00000000
_cell_angle_beta   90.00000000
_cell_angle_gamma   90.00000000
_symmetry_Int_Tables_number   1
_chemical_formula_structural   La2Gd2HoSi4
_chemical_formula_sum   'La8 Gd8 Ho4 Si16'
_cell_volume   890.95059211
_cell_formula_units_Z   4
loop_
 _symmetry_equiv_pos_site_id
 _symmetry_equiv_pos_as_xyz
  1  'x, y, z'
loop_
 _atom_site_type_symbol
 _atom_site_label
 _atom_site_symmetry_multiplicity
 _atom_site_fract_x
 _atom_site_fract_y
 _atom_site_fract_z
 _atom_site_occupancy
  La  La0  1  0.977309  0.821417  0.096727  1
  La  La1  1  0.477309  0.678583  0.403273  1
  La  La2  1  0.522691  0.321417  0.903273  1
  La  La3  1  0.022691  0.178583  0.596727  1
  La  La4  1  0.022691  0.178583  0.903273  1
  La  La5  1  0.522691  0.321417  0.596727  1
  La  La6  1  0.477309  0.678583  0.096727  1
  La  La7  1  0.977309  0.821417  0.403273  1
  Gd  Gd8  1  0.681953  0.821577  0.877483  1
  Gd  Gd9  1  0.181953  0.678423  0.622517  1
  Gd  Gd10  1  0.818047  0.321577  0.122517  1
  Gd  Gd11  1  0.318047  0.178423  0.377483  1
  Gd  Gd12  1  0.318047  0.178423  0.122517  1
  Gd  Gd13  1  0.818047  0.321577  0.377483  1
  Gd  Gd14  1  0.181953  0.678423  0.877483  1
  Gd  Gd15  1  0.681953  0.821577  0.622517  1
  Ho  Ho16  1  0.649424  0.990632  0.250000  1
  Ho  Ho17  1  0.149424  0.509368  0.250000  1
  Ho  Ho18  1  0.850576  0.490632  0.750000  1
  Ho  Ho19  1  0.350576  0.009368  0.750000  1
  Si  Si20  1  0.765422  0.619972  0.250000  1
  Si  Si21  1  0.265422  0.880028  0.250000  1
  Si  Si22  1  0.734578  0.119972  0.750000  1
  Si  Si23  1  0.234578  0.380028  0.750000  1
  Si  Si24  1  0.025225  0.108849  0.250000  1
  Si  Si25  1  0.525225  0.391151  0.250000  1
  Si  Si26  1  0.474775  0.608849  0.750000  1
  Si  Si27  1  0.974775  0.891151  0.750000  1
  Si  Si28  1  0.858511  0.529290  0.959660  1
  Si  Si29  1  0.358511  0.970710  0.540340  1
  Si  Si30  1  0.641489  0.029290  0.040340  1
  Si  Si31  1  0.141489  0.470710  0.459660  1
  Si  Si32  1  0.141489  0.470710  0.040340  1
  Si  Si33  1  0.641489  0.029290  0.459660  1
  Si  Si34  1  0.358511  0.970710  0.959660  1
  Si  Si35  1  0.858511  0.529290  0.540340  1
