# generated using pymatgen
data_TbPr4Dy5Pb6
_symmetry_space_group_name_H-M   'P 1'
_cell_length_a   9.18328800
_cell_length_b   9.18328884
_cell_length_c   6.72418500
_cell_angle_alpha   90.00000000
_cell_angle_beta   90.00000000
_cell_angle_gamma   119.51718586
_symmetry_Int_Tables_number   1
_chemical_formula_structural   TbPr4Dy5Pb6
_chemical_formula_sum   'Tb1 Pr4 Dy5 Pb6'
_cell_volume   493.46817751
_cell_formula_units_Z   1
loop_
 _symmetry_equiv_pos_site_id
 _symmetry_equiv_pos_as_xyz
  1  'x, y, z'
loop_
 _atom_site_type_symbol
 _atom_site_label
 _atom_site_symmetry_multiplicity
 _atom_site_fract_x
 _atom_site_fract_y
 _atom_site_fract_z
 _atom_site_occupancy
  Tb  Tb0  1  0.244665  0.244665  0.250000  1
  Pr  Pr1  1  0.238163  0.001755  0.750000  1
  Pr  Pr2  1  0.001755  0.238163  0.750000  1
  Pr  Pr3  1  0.762089  0.998207  0.250000  1
  Pr  Pr4  1  0.998207  0.762089  0.250000  1
  Dy  Dy5  1  0.666871  0.332951  0.999931  1
  Dy  Dy6  1  0.332951  0.666871  0.999931  1
  Dy  Dy7  1  0.332951  0.666871  0.500069  1
  Dy  Dy8  1  0.666871  0.332951  0.500069  1
  Dy  Dy9  1  0.755608  0.755608  0.750000  1
  Pb  Pb10  1  0.402403  0.402403  0.750000  1
  Pb  Pb11  1  0.603460  0.996850  0.750000  1
  Pb  Pb12  1  0.996850  0.603460  0.750000  1
  Pb  Pb13  1  0.597862  0.597862  0.250000  1
  Pb  Pb14  1  0.396673  0.002622  0.250000  1
  Pb  Pb15  1  0.002622  0.396673  0.250000  1
