# generated using pymatgen
data_Ba2As2PtRh
_symmetry_space_group_name_H-M   'P 1'
_cell_length_a   6.77864300
_cell_length_b   6.78616559
_cell_length_c   6.78920947
_cell_angle_alpha   89.60400022
_cell_angle_beta   90.00000000
_cell_angle_gamma   90.00000000
_symmetry_Int_Tables_number   1
_chemical_formula_structural   Ba2As2PtRh
_chemical_formula_sum   'Ba4 As4 Pt2 Rh2'
_cell_volume   312.30292391
_cell_formula_units_Z   2
loop_
 _symmetry_equiv_pos_site_id
 _symmetry_equiv_pos_as_xyz
  1  'x, y, z'
loop_
 _atom_site_type_symbol
 _atom_site_label
 _atom_site_symmetry_multiplicity
 _atom_site_fract_x
 _atom_site_fract_y
 _atom_site_fract_z
 _atom_site_occupancy
  Ba  Ba0  1  0.619793  0.378939  0.881400  1
  Ba  Ba1  1  0.380027  0.881495  0.621411  1
  Ba  Ba2  1  0.119793  0.121061  0.118600  1
  Ba  Ba3  1  0.880027  0.618505  0.378589  1
  As  As4  1  0.164047  0.340638  0.669699  1
  As  As5  1  0.664047  0.159362  0.330301  1
  As  As6  1  0.336768  0.667518  0.157466  1
  As  As7  1  0.836768  0.832482  0.842534  1
  Pt  Pt8  1  0.406735  0.407100  0.405980  1
  Pt  Pt9  1  0.906735  0.092900  0.594020  1
  Rh  Rh10  1  0.592631  0.906875  0.090702  1
  Rh  Rh11  1  0.092631  0.593125  0.909298  1
