# generated using pymatgen
data_Nd16MgNi4Ag3
_symmetry_space_group_name_H-M   'P 1'
_cell_length_a   9.75718681
_cell_length_b   9.83722552
_cell_length_c   9.83722500
_cell_angle_alpha   59.99999839
_cell_angle_beta   59.72827055
_cell_angle_gamma   59.72827292
_symmetry_Int_Tables_number   1
_chemical_formula_structural   Nd16MgNi4Ag3
_chemical_formula_sum   'Nd16 Mg1 Ni4 Ag3'
_cell_volume   664.90387449
_cell_formula_units_Z   1
loop_
 _symmetry_equiv_pos_site_id
 _symmetry_equiv_pos_as_xyz
  1  'x, y, z'
loop_
 _atom_site_type_symbol
 _atom_site_label
 _atom_site_symmetry_multiplicity
 _atom_site_fract_x
 _atom_site_fract_y
 _atom_site_fract_z
 _atom_site_occupancy
  Nd  Nd0  1  0.807800  0.191714  0.191714  1
  Nd  Nd1  1  0.188058  0.810771  0.810771  1
  Nd  Nd2  1  0.188058  0.810771  0.190400  1
  Nd  Nd3  1  0.807800  0.191714  0.808772  1
  Nd  Nd4  1  0.188058  0.190400  0.810771  1
  Nd  Nd5  1  0.807800  0.808772  0.191714  1
  Nd  Nd6  1  0.935128  0.563856  0.563856  1
  Nd  Nd7  1  0.562404  0.936633  0.936633  1
  Nd  Nd8  1  0.562404  0.936633  0.564331  1
  Nd  Nd9  1  0.935128  0.563856  0.937159  1
  Nd  Nd10  1  0.562404  0.564331  0.936633  1
  Nd  Nd11  1  0.935128  0.937159  0.563856  1
  Nd  Nd12  1  0.348883  0.347412  0.347412  1
  Nd  Nd13  1  0.348883  0.347412  0.956294  1
  Nd  Nd14  1  0.348883  0.956294  0.347412  1
  Nd  Nd15  1  0.944282  0.351906  0.351906  1
  Mg  Mg16  1  0.291855  0.569382  0.569382  1
  Ni  Ni17  1  0.140663  0.143773  0.143773  1
  Ni  Ni18  1  0.140663  0.143773  0.571792  1
  Ni  Ni19  1  0.140663  0.571792  0.143773  1
  Ni  Ni20  1  0.571947  0.142684  0.142684  1
  Ag  Ag21  1  0.581037  0.583799  0.583799  1
  Ag  Ag22  1  0.581037  0.583799  0.251366  1
  Ag  Ag23  1  0.581037  0.251366  0.583799  1
