# generated using pymatgen
data_Ho16MgCd3(PdPt)2
_symmetry_space_group_name_H-M   'P 1'
_cell_length_a   9.66540915
_cell_length_b   9.66541004
_cell_length_c   9.66108303
_cell_angle_alpha   59.98698656
_cell_angle_beta   59.98698354
_cell_angle_gamma   59.98218673
_symmetry_Int_Tables_number   1
_chemical_formula_structural   Ho16MgCd3(PdPt)2
_chemical_formula_sum   'Ho16 Mg1 Cd3 Pd2 Pt2'
_cell_volume   637.98049760
_cell_formula_units_Z   1
loop_
 _symmetry_equiv_pos_site_id
 _symmetry_equiv_pos_as_xyz
  1  'x, y, z'
loop_
 _atom_site_type_symbol
 _atom_site_label
 _atom_site_symmetry_multiplicity
 _atom_site_fract_x
 _atom_site_fract_y
 _atom_site_fract_z
 _atom_site_occupancy
  Ho  Ho0  1  0.600982  0.600982  0.598940  1
  Ho  Ho1  1  0.604243  0.604243  0.192113  1
  Ho  Ho2  1  0.605175  0.191535  0.603408  1
  Ho  Ho3  1  0.191535  0.605175  0.603408  1
  Ho  Ho4  1  0.058382  0.441112  0.440855  1
  Ho  Ho5  1  0.438727  0.060869  0.063126  1
  Ho  Ho6  1  0.441112  0.058382  0.440855  1
  Ho  Ho7  1  0.060869  0.438727  0.063126  1
  Ho  Ho8  1  0.441115  0.441115  0.059678  1
  Ho  Ho9  1  0.061954  0.061954  0.438815  1
  Ho  Ho10  1  0.184461  0.817403  0.816586  1
  Ho  Ho11  1  0.815105  0.185905  0.185858  1
  Ho  Ho12  1  0.817403  0.184461  0.816586  1
  Ho  Ho13  1  0.185905  0.815105  0.185858  1
  Ho  Ho14  1  0.816615  0.816615  0.184697  1
  Ho  Ho15  1  0.185258  0.185258  0.814977  1
  Mg  Mg16  1  0.826847  0.826847  0.826711  1
  Cd  Cd17  1  0.831318  0.831318  0.503055  1
  Cd  Cd18  1  0.831171  0.503204  0.831380  1
  Cd  Cd19  1  0.503204  0.831171  0.831380  1
  Pd  Pd20  1  0.394342  0.394342  0.394626  1
  Pd  Pd21  1  0.392129  0.392129  0.819890  1
  Pt  Pt22  1  0.391936  0.820214  0.392034  1
  Pt  Pt23  1  0.820214  0.391936  0.392034  1
