# generated using pymatgen
data_Ho2TlCuSe4
_symmetry_space_group_name_H-M   'P 1'
_cell_length_a   4.10090800
_cell_length_b   7.38504272
_cell_length_c   14.24025400
_cell_angle_alpha   90.00000000
_cell_angle_beta   90.00000000
_cell_angle_gamma   106.11996610
_symmetry_Int_Tables_number   1
_chemical_formula_structural   Ho2TlCuSe4
_chemical_formula_sum   'Ho4 Tl2 Cu2 Se8'
_cell_volume   414.31497920
_cell_formula_units_Z   2
loop_
 _symmetry_equiv_pos_site_id
 _symmetry_equiv_pos_as_xyz
  1  'x, y, z'
loop_
 _atom_site_type_symbol
 _atom_site_label
 _atom_site_symmetry_multiplicity
 _atom_site_fract_x
 _atom_site_fract_y
 _atom_site_fract_z
 _atom_site_occupancy
  Ho  Ho0  1  0.633944  0.267888  0.063647  1
  Ho  Ho1  1  0.366056  0.732112  0.936353  1
  Ho  Ho2  1  0.633944  0.267888  0.436353  1
  Ho  Ho3  1  0.366056  0.732112  0.563647  1
  Tl  Tl4  1  0.109610  0.219222  0.750000  1
  Tl  Tl5  1  0.890390  0.780778  0.250000  1
  Cu  Cu6  1  0.837574  0.675149  0.750000  1
  Cu  Cu7  1  0.162426  0.324851  0.250000  1
  Se  Se8  1  0.566161  0.132323  0.250000  1
  Se  Se9  1  0.433839  0.867677  0.750000  1
  Se  Se10  1  0.263698  0.527397  0.110276  1
  Se  Se11  1  0.736302  0.472603  0.889724  1
  Se  Se12  1  0.000000  0.000000  0.500000  1
  Se  Se13  1  0.000000  0.000000  0.000000  1
  Se  Se14  1  0.263698  0.527397  0.389724  1
  Se  Se15  1  0.736302  0.472603  0.610276  1
