# generated using pymatgen
data_La5Yb3(Sc3Pt4)4
_symmetry_space_group_name_H-M   'P 1'
_cell_length_a   7.45718986
_cell_length_b   7.47075429
_cell_length_c   14.02231612
_cell_angle_alpha   89.88661521
_cell_angle_beta   90.18230635
_cell_angle_gamma   90.09707759
_symmetry_Int_Tables_number   1
_chemical_formula_structural   La5Yb3(Sc3Pt4)4
_chemical_formula_sum   'La5 Yb3 Sc12 Pt16'
_cell_volume   781.18831681
_cell_formula_units_Z   1
loop_
 _symmetry_equiv_pos_site_id
 _symmetry_equiv_pos_as_xyz
  1  'x, y, z'
loop_
 _atom_site_type_symbol
 _atom_site_label
 _atom_site_symmetry_multiplicity
 _atom_site_fract_x
 _atom_site_fract_y
 _atom_site_fract_z
 _atom_site_occupancy
  La  La0  1  0.490896  0.676048  0.595572  1
  La  La1  1  0.993029  0.827349  0.907439  1
  La  La2  1  0.506028  0.328462  0.092603  1
  La  La3  1  0.007549  0.170236  0.406840  1
  La  La4  1  0.507958  0.325130  0.402078  1
  Yb  Yb5  1  0.006427  0.176888  0.095856  1
  Yb  Yb6  1  0.492597  0.676037  0.901773  1
  Yb  Yb7  1  0.991005  0.822764  0.599570  1
  Sc  Sc8  1  0.650813  0.163306  0.626721  1
  Sc  Sc9  1  0.150050  0.334263  0.876229  1
  Sc  Sc10  1  0.349313  0.833009  0.121469  1
  Sc  Sc11  1  0.856705  0.669789  0.374479  1
  Sc  Sc12  1  0.347915  0.834587  0.371570  1
  Sc  Sc13  1  0.848230  0.664279  0.127033  1
  Sc  Sc14  1  0.652682  0.164179  0.872852  1
  Sc  Sc15  1  0.150512  0.335620  0.628988  1
  Sc  Sc16  1  0.815898  0.498155  0.751704  1
  Sc  Sc17  1  0.315299  0.002324  0.750998  1
  Sc  Sc18  1  0.181678  0.503160  0.247967  1
  Sc  Sc19  1  0.686361  0.996555  0.246784  1
  Pt  Pt20  1  0.671406  0.950756  0.453864  1
  Pt  Pt21  1  0.169975  0.544488  0.046596  1
  Pt  Pt22  1  0.328742  0.046857  0.953276  1
  Pt  Pt23  1  0.826545  0.453972  0.546857  1
  Pt  Pt24  1  0.321759  0.047708  0.545481  1
  Pt  Pt25  1  0.822835  0.451105  0.955410  1
  Pt  Pt26  1  0.676522  0.950612  0.044398  1
  Pt  Pt27  1  0.177097  0.548359  0.457029  1
  Pt  Pt28  1  0.451472  0.368366  0.751369  1
  Pt  Pt29  1  0.952119  0.129974  0.750903  1
  Pt  Pt30  1  0.551189  0.636565  0.248927  1
  Pt  Pt31  1  0.050967  0.869860  0.247107  1
  Pt  Pt32  1  0.682391  0.864188  0.749501  1
  Pt  Pt33  1  0.181124  0.634557  0.753167  1
  Pt  Pt34  1  0.314534  0.136176  0.246405  1
  Pt  Pt35  1  0.820379  0.364318  0.251186  1
