# generated using pymatgen
data_LiDyB14
_symmetry_space_group_name_H-M   'P 1'
_cell_length_a   7.25803322
_cell_length_b   7.25803291
_cell_length_c   7.25803342
_cell_angle_alpha   132.24899118
_cell_angle_beta   110.92461345
_cell_angle_gamma   88.30993372
_symmetry_Int_Tables_number   1
_chemical_formula_structural   LiDyB14
_chemical_formula_sum   'Li2 Dy2 B28'
_cell_volume   251.79352687
_cell_formula_units_Z   2
loop_
 _symmetry_equiv_pos_site_id
 _symmetry_equiv_pos_as_xyz
  1  'x, y, z'
loop_
 _atom_site_type_symbol
 _atom_site_label
 _atom_site_symmetry_multiplicity
 _atom_site_fract_x
 _atom_site_fract_y
 _atom_site_fract_z
 _atom_site_occupancy
  Li  Li0  1  0.000000  0.000000  0.500000  1
  Li  Li1  1  0.000000  0.500000  0.000000  1
  Dy  Dy2  1  0.620602  0.250000  0.370602  1
  Dy  Dy3  1  0.379398  0.750000  0.629398  1
  B  B4  1  0.638258  0.665895  0.972364  1
  B  B5  1  0.361742  0.334105  0.027636  1
  B  B6  1  0.193531  0.165895  0.027636  1
  B  B7  1  0.806469  0.834105  0.972364  1
  B  B8  1  0.777659  0.149395  0.628264  1
  B  B9  1  0.222341  0.850605  0.371736  1
  B  B10  1  0.021131  0.649395  0.371736  1
  B  B11  1  0.978869  0.350605  0.628264  1
  B  B12  1  0.915989  0.089187  0.826802  1
  B  B13  1  0.084011  0.910813  0.173198  1
  B  B14  1  0.762385  0.589187  0.173198  1
  B  B15  1  0.237615  0.410813  0.826802  1
  B  B16  1  0.398494  0.400481  0.681525  1
  B  B17  1  0.601506  0.283031  0.001987  1
  B  B18  1  0.218956  0.900481  0.001987  1
  B  B19  1  0.781044  0.783031  0.681525  1
  B  B20  1  0.601506  0.599519  0.318475  1
  B  B21  1  0.398494  0.716969  0.998013  1
  B  B22  1  0.781044  0.099519  0.998013  1
  B  B23  1  0.218956  0.216969  0.318475  1
  B  B24  1  0.033634  0.830085  0.703503  1
  B  B25  1  0.966366  0.669870  0.796451  1
  B  B26  1  0.626581  0.330085  0.796451  1
  B  B27  1  0.373419  0.169870  0.703503  1
  B  B28  1  0.966366  0.169915  0.296497  1
  B  B29  1  0.033634  0.330130  0.203549  1
  B  B30  1  0.373419  0.669915  0.203549  1
  B  B31  1  0.626581  0.830130  0.296497  1
