# generated using pymatgen
data_Nd3In3IrPd2
_symmetry_space_group_name_H-M   'P 1'
_cell_length_a   7.82023200
_cell_length_b   7.82023237
_cell_length_c   3.98679800
_cell_angle_alpha   90.00000000
_cell_angle_beta   90.00000000
_cell_angle_gamma   119.99999844
_symmetry_Int_Tables_number   1
_chemical_formula_structural   Nd3In3IrPd2
_chemical_formula_sum   'Nd3 In3 Ir1 Pd2'
_cell_volume   211.15149723
_cell_formula_units_Z   1
loop_
 _symmetry_equiv_pos_site_id
 _symmetry_equiv_pos_as_xyz
  1  'x, y, z'
loop_
 _atom_site_type_symbol
 _atom_site_label
 _atom_site_symmetry_multiplicity
 _atom_site_fract_x
 _atom_site_fract_y
 _atom_site_fract_z
 _atom_site_occupancy
  Nd  Nd0  1  0.012824  0.593726  0.000000  1
  Nd  Nd1  1  0.406274  0.419098  0.000000  1
  Nd  Nd2  1  0.580902  0.987176  0.000000  1
  In  In3  1  0.745052  0.745030  0.500000  1
  In  In4  1  0.999978  0.254948  0.500000  1
  In  In5  1  0.254970  0.000022  0.500000  1
  Ir  Ir6  1  0.333333  0.666667  0.500000  1
  Pd  Pd7  1  0.000000  0.000000  0.000000  1
  Pd  Pd8  1  0.666667  0.333333  0.500000  1
