# generated using pymatgen
data_Dy3Mg2ScRh3
_symmetry_space_group_name_H-M   'P 1'
_cell_length_a   7.33832100
_cell_length_b   7.33896300
_cell_length_c   4.07636300
_cell_angle_alpha   90.00000000
_cell_angle_beta   90.00000000
_cell_angle_gamma   119.99710179
_symmetry_Int_Tables_number   1
_chemical_formula_structural   Dy3Mg2ScRh3
_chemical_formula_sum   'Dy3 Mg2 Sc1 Rh3'
_cell_volume   190.12865170
_cell_formula_units_Z   1
loop_
 _symmetry_equiv_pos_site_id
 _symmetry_equiv_pos_as_xyz
  1  'x, y, z'
loop_
 _atom_site_type_symbol
 _atom_site_label
 _atom_site_symmetry_multiplicity
 _atom_site_fract_x
 _atom_site_fract_y
 _atom_site_fract_z
 _atom_site_occupancy
  Dy  Dy0  1  0.400937  0.000000  0.500001  1
  Dy  Dy1  1  0.009592  0.423846  0.500001  1
  Dy  Dy2  1  0.585746  0.576153  0.500001  1
  Mg  Mg3  1  0.245339  0.246339  0.000000  1
  Mg  Mg4  1  0.999000  0.753660  0.000000  1
  Sc  Sc5  1  0.754471  0.000000  0.000000  1
  Rh  Rh6  1  0.670303  0.322558  0.000000  1
  Rh  Rh7  1  0.347745  0.677441  0.000000  1
  Rh  Rh8  1  0.986866  0.000000  0.500001  1
