# generated using pymatgen
data_Tb2DyEr13(CdNi)4
_symmetry_space_group_name_H-M   'P 1'
_cell_length_a   9.49406590
_cell_length_b   9.48836910
_cell_length_c   9.47985600
_cell_angle_alpha   60.02967519
_cell_angle_beta   60.04949857
_cell_angle_gamma   60.16372975
_symmetry_Int_Tables_number   1
_chemical_formula_structural   Tb2DyEr13(CdNi)4
_chemical_formula_sum   'Tb2 Dy1 Er13 Cd4 Ni4'
_cell_volume   604.95808813
_cell_formula_units_Z   1
loop_
 _symmetry_equiv_pos_site_id
 _symmetry_equiv_pos_as_xyz
  1  'x, y, z'
loop_
 _atom_site_type_symbol
 _atom_site_label
 _atom_site_symmetry_multiplicity
 _atom_site_fract_x
 _atom_site_fract_y
 _atom_site_fract_z
 _atom_site_occupancy
  Tb  Tb0  1  0.347730  0.347944  0.347842  1
  Tb  Tb1  1  0.347730  0.347944  0.956487  1
  Dy  Dy2  1  0.352230  0.947543  0.350114  1
  Er  Er3  1  0.946616  0.353078  0.350154  1
  Er  Er4  1  0.813160  0.188900  0.187374  1
  Er  Er5  1  0.189113  0.813496  0.810587  1
  Er  Er6  1  0.189113  0.813496  0.186805  1
  Er  Er7  1  0.813160  0.188900  0.810567  1
  Er  Er8  1  0.189504  0.188694  0.810901  1
  Er  Er9  1  0.813780  0.812944  0.186638  1
  Er  Er10  1  0.936892  0.564682  0.563487  1
  Er  Er11  1  0.565499  0.935873  0.935074  1
  Er  Er12  1  0.565499  0.935873  0.563554  1
  Er  Er13  1  0.936892  0.564682  0.934940  1
  Er  Er14  1  0.566102  0.565654  0.934122  1
  Er  Er15  1  0.938481  0.938979  0.561270  1
  Cd  Cd16  1  0.580855  0.579836  0.582891  1
  Cd  Cd17  1  0.580855  0.579836  0.256416  1
  Cd  Cd18  1  0.579618  0.255430  0.582475  1
  Cd  Cd19  1  0.255858  0.579804  0.582168  1
  Ni  Ni20  1  0.138908  0.141745  0.148709  1
  Ni  Ni21  1  0.138908  0.141745  0.570637  1
  Ni  Ni22  1  0.137921  0.574630  0.143724  1
  Ni  Ni23  1  0.575576  0.138297  0.143063  1
