# generated using pymatgen
data_Y12Tc2OsPt
_symmetry_space_group_name_H-M   'P 1'
_cell_length_a   6.37554822
_cell_length_b   7.41374351
_cell_length_c   9.22180600
_cell_angle_alpha   90.00000000
_cell_angle_beta   90.00000000
_cell_angle_gamma   90.03636364
_symmetry_Int_Tables_number   1
_chemical_formula_structural   Y12Tc2OsPt
_chemical_formula_sum   'Y12 Tc2 Os1 Pt1'
_cell_volume   435.88405856
_cell_formula_units_Z   1
loop_
 _symmetry_equiv_pos_site_id
 _symmetry_equiv_pos_as_xyz
  1  'x, y, z'
loop_
 _atom_site_type_symbol
 _atom_site_label
 _atom_site_symmetry_multiplicity
 _atom_site_fract_x
 _atom_site_fract_y
 _atom_site_fract_z
 _atom_site_occupancy
  Y  Y0  1  0.334295  0.676489  0.063917  1
  Y  Y1  1  0.168820  0.175142  0.433039  1
  Y  Y2  1  0.663199  0.328001  0.561104  1
  Y  Y3  1  0.831344  0.818674  0.939671  1
  Y  Y4  1  0.663199  0.328001  0.938896  1
  Y  Y5  1  0.831344  0.818674  0.560329  1
  Y  Y6  1  0.334295  0.676489  0.436083  1
  Y  Y7  1  0.168820  0.175142  0.066961  1
  Y  Y8  1  0.873700  0.539704  0.250000  1
  Y  Y9  1  0.628460  0.042246  0.250000  1
  Y  Y10  1  0.131302  0.464869  0.750000  1
  Y  Y11  1  0.373286  0.957144  0.750000  1
  Tc  Tc12  1  0.036553  0.885129  0.250000  1
  Tc  Tc13  1  0.462227  0.385039  0.250000  1
  Os  Os14  1  0.543283  0.615384  0.750000  1
  Pt  Pt15  1  0.955874  0.113872  0.750000  1
