# generated using pymatgen
data_Er3Tm2InGa2
_symmetry_space_group_name_H-M   'P 1'
_cell_length_a   7.67621029
_cell_length_b   7.67788000
_cell_length_c   14.22407500
_cell_angle_alpha   89.92061445
_cell_angle_beta   90.09826454
_cell_angle_gamma   89.93721287
_symmetry_Int_Tables_number   1
_chemical_formula_structural   Er3Tm2InGa2
_chemical_formula_sum   'Er12 Tm8 In4 Ga8'
_cell_volume   838.32207031
_cell_formula_units_Z   4
loop_
 _symmetry_equiv_pos_site_id
 _symmetry_equiv_pos_as_xyz
  1  'x, y, z'
loop_
 _atom_site_type_symbol
 _atom_site_label
 _atom_site_symmetry_multiplicity
 _atom_site_fract_x
 _atom_site_fract_y
 _atom_site_fract_z
 _atom_site_occupancy
  Er  Er0  1  0.328278  0.337934  0.606244  1
  Er  Er1  1  0.328248  0.661995  0.106346  1
  Er  Er2  1  0.171804  0.162118  0.393817  1
  Er  Er3  1  0.828155  0.161923  0.893742  1
  Er  Er4  1  0.662174  0.327570  0.393538  1
  Er  Er5  1  0.338099  0.327433  0.893582  1
  Er  Er6  1  0.162013  0.828143  0.606387  1
  Er  Er7  1  0.838156  0.827818  0.106553  1
  Er  Er8  1  0.338243  0.671592  0.393414  1
  Er  Er9  1  0.661805  0.671666  0.893398  1
  Er  Er10  1  0.838018  0.172234  0.606561  1
  Er  Er11  1  0.161754  0.172000  0.106518  1
  Tm  Tm12  1  0.000192  0.500574  0.756850  1
  Tm  Tm13  1  0.999702  0.500087  0.256916  1
  Tm  Tm14  1  0.499955  0.999865  0.243113  1
  Tm  Tm15  1  0.500353  0.999800  0.743064  1
  Tm  Tm16  1  0.671539  0.661707  0.607068  1
  Tm  Tm17  1  0.671774  0.338503  0.106902  1
  Tm  Tm18  1  0.828574  0.838367  0.392848  1
  Tm  Tm19  1  0.171705  0.838388  0.893010  1
  In  In20  1  0.998980  0.501126  0.496520  1
  In  In21  1  0.999662  0.500340  0.996536  1
  In  In22  1  0.501119  0.998708  0.503474  1
  In  In23  1  0.499827  0.999496  0.003591  1
  Ga  Ga24  1  0.874692  0.874817  0.750368  1
  Ga  Ga25  1  0.874264  0.125601  0.249919  1
  Ga  Ga26  1  0.625315  0.625235  0.249618  1
  Ga  Ga27  1  0.374401  0.625452  0.750070  1
  Ga  Ga28  1  0.125687  0.125809  0.750300  1
  Ga  Ga29  1  0.125444  0.874663  0.250043  1
  Ga  Ga30  1  0.374519  0.374492  0.249605  1
  Ga  Ga31  1  0.625545  0.374544  0.750087  1
