# generated using pymatgen
data_YEr5Al21Si3Os8
_symmetry_space_group_name_H-M   'P 1'
_cell_length_a   8.70996900
_cell_length_b   8.70986622
_cell_length_c   9.63831603
_cell_angle_alpha   90.00809207
_cell_angle_beta   90.00000000
_cell_angle_gamma   120.00038657
_symmetry_Int_Tables_number   1
_chemical_formula_structural   YEr5Al21Si3Os8
_chemical_formula_sum   'Y1 Er5 Al21 Si3 Os8'
_cell_volume   633.22520046
_cell_formula_units_Z   1
loop_
 _symmetry_equiv_pos_site_id
 _symmetry_equiv_pos_as_xyz
  1  'x, y, z'
loop_
 _atom_site_type_symbol
 _atom_site_label
 _atom_site_symmetry_multiplicity
 _atom_site_fract_x
 _atom_site_fract_y
 _atom_site_fract_z
 _atom_site_occupancy
  Y  Y0  1  0.194813  0.389626  0.247927  1
  Er  Er1  1  0.803621  0.607242  0.752366  1
  Er  Er2  1  0.608806  0.804604  0.247609  1
  Er  Er3  1  0.392673  0.196439  0.752403  1
  Er  Er4  1  0.195798  0.804604  0.247609  1
  Er  Er5  1  0.803766  0.196439  0.752403  1
  Al  Al6  1  0.333619  0.667240  0.475976  1
  Al  Al7  1  0.164222  0.328445  0.575018  1
  Al  Al8  1  0.835119  0.670236  0.423393  1
  Al  Al9  1  0.671539  0.835746  0.574647  1
  Al  Al10  1  0.834937  0.669873  0.076754  1
  Al  Al11  1  0.329945  0.164686  0.423593  1
  Al  Al12  1  0.165396  0.330791  0.922247  1
  Al  Al13  1  0.164206  0.835746  0.574647  1
  Al  Al14  1  0.330312  0.164843  0.076548  1
  Al  Al15  1  0.834742  0.164686  0.423593  1
  Al  Al16  1  0.669155  0.834554  0.922635  1
  Al  Al17  1  0.834531  0.164843  0.076548  1
  Al  Al18  1  0.165399  0.834554  0.922635  1
  Al  Al19  1  0.563275  0.126550  0.248886  1
  Al  Al20  1  0.436990  0.873978  0.748829  1
  Al  Al21  1  0.872713  0.436777  0.248896  1
  Al  Al22  1  0.126068  0.563035  0.748841  1
  Al  Al23  1  0.564064  0.436777  0.248896  1
  Al  Al24  1  0.436968  0.563035  0.748841  1
  Al  Al25  1  0.999466  0.998932  0.248872  1
  Al  Al26  1  0.999993  0.999985  0.749457  1
  Si  Si27  1  0.333828  0.667657  0.039543  1
  Si  Si28  1  0.666683  0.333364  0.961327  1
  Si  Si29  1  0.666683  0.333366  0.539764  1
  Os  Os30  1  0.500122  0.000244  0.998824  1
  Os  Os31  1  0.999692  0.500194  0.998543  1
  Os  Os32  1  0.504321  0.008642  0.501570  1
  Os  Os33  1  0.500501  0.500194  0.998543  1
  Os  Os34  1  0.991237  0.496002  0.501936  1
  Os  Os35  1  0.504766  0.496002  0.501936  1
  Os  Os36  1  0.000010  0.000020  0.998822  1
  Os  Os37  1  0.000023  0.000047  0.499128  1
