# generated using pymatgen
data_KSr9(Mn2N7)2
_symmetry_space_group_name_H-M   'P 1'
_cell_length_a   6.36856583
_cell_length_b   8.91012027
_cell_length_c   9.13894937
_cell_angle_alpha   115.01238534
_cell_angle_beta   98.87272378
_cell_angle_gamma   90.03163655
_symmetry_Int_Tables_number   1
_chemical_formula_structural   KSr9(Mn2N7)2
_chemical_formula_sum   'K1 Sr9 Mn4 N14'
_cell_volume   463.07389700
_cell_formula_units_Z   1
loop_
 _symmetry_equiv_pos_site_id
 _symmetry_equiv_pos_as_xyz
  1  'x, y, z'
loop_
 _atom_site_type_symbol
 _atom_site_label
 _atom_site_symmetry_multiplicity
 _atom_site_fract_x
 _atom_site_fract_y
 _atom_site_fract_z
 _atom_site_occupancy
  K  K0  1  0.861959  0.585609  0.338228  1
  Sr  Sr1  1  0.271854  0.985828  0.576675  1
  Sr  Sr2  1  0.711833  0.411708  0.851414  1
  Sr  Sr3  1  0.282570  0.589472  0.154623  1
  Sr  Sr4  1  0.405676  0.790079  0.913520  1
  Sr  Sr5  1  0.597609  0.220081  0.091481  1
  Sr  Sr6  1  0.140937  0.408203  0.665536  1
  Sr  Sr7  1  0.887977  0.840933  0.763059  1
  Sr  Sr8  1  0.113626  0.157687  0.229755  1
  Sr  Sr9  1  0.724694  0.005258  0.420364  1
  Mn  Mn10  1  0.568596  0.363313  0.477457  1
  Mn  Mn11  1  0.429237  0.631599  0.528181  1
  Mn  Mn12  1  0.123874  0.215022  0.903939  1
  Mn  Mn13  1  0.879315  0.788915  0.089100  1
  N  N14  1  0.573338  0.556314  0.667868  1
  N  N15  1  0.418948  0.436934  0.337754  1
  N  N16  1  0.194084  0.694922  0.593541  1
  N  N17  1  0.808938  0.297477  0.422422  1
  N  N18  1  0.421978  0.206266  0.488394  1
  N  N19  1  0.567052  0.792033  0.519626  1
  N  N20  1  0.956948  0.141358  0.711977  1
  N  N21  1  0.051957  0.870766  0.276211  1
  N  N22  1  0.232713  0.052931  0.944921  1
  N  N23  1  0.775805  0.949975  0.044175  1
  N  N24  1  0.345522  0.330892  0.899424  1
  N  N25  1  0.982117  0.331287  0.055591  1
  N  N26  1  0.015077  0.659760  0.934557  1
  N  N27  1  0.655764  0.685381  0.100205  1
