# generated using pymatgen
data_Ac2Th(SnPd)3
_symmetry_space_group_name_H-M   'P 1'
_cell_length_a   7.90214200
_cell_length_b   7.85526134
_cell_length_c   4.26795900
_cell_angle_alpha   90.00000000
_cell_angle_beta   90.00000000
_cell_angle_gamma   119.80393932
_symmetry_Int_Tables_number   1
_chemical_formula_structural   Ac2Th(SnPd)3
_chemical_formula_sum   'Ac2 Th1 Sn3 Pd3'
_cell_volume   229.88517301
_cell_formula_units_Z   1
loop_
 _symmetry_equiv_pos_site_id
 _symmetry_equiv_pos_as_xyz
  1  'x, y, z'
loop_
 _atom_site_type_symbol
 _atom_site_label
 _atom_site_symmetry_multiplicity
 _atom_site_fract_x
 _atom_site_fract_y
 _atom_site_fract_z
 _atom_site_occupancy
  Ac  Ac0  1  0.411586  0.412859  0.500000  1
  Ac  Ac1  1  0.588414  0.001273  0.500000  1
  Th  Th2  1  0.000000  0.588518  0.500000  1
  Sn  Sn3  1  0.757131  0.754080  0.000000  1
  Sn  Sn4  1  0.242869  0.996951  0.000000  1
  Sn  Sn5  1  0.000000  0.245446  0.000000  1
  Pd  Pd6  1  0.696847  0.358374  0.000000  1
  Pd  Pd7  1  0.303153  0.661528  0.000000  1
  Pd  Pd8  1  0.000000  0.980969  0.500000  1
