# generated using pymatgen
data_Nd3ThAl16(SiIr3)2
_symmetry_space_group_name_H-M   'P 1'
_cell_length_a   7.61738503
_cell_length_b   7.59592243
_cell_length_c   9.54078496
_cell_angle_alpha   90.00213385
_cell_angle_beta   89.87011501
_cell_angle_gamma   119.63021021
_symmetry_Int_Tables_number   1
_chemical_formula_structural   Nd3ThAl16(SiIr3)2
_chemical_formula_sum   'Nd3 Th1 Al16 Si2 Ir6'
_cell_volume   479.85052358
_cell_formula_units_Z   1
loop_
 _symmetry_equiv_pos_site_id
 _symmetry_equiv_pos_as_xyz
  1  'x, y, z'
loop_
 _atom_site_type_symbol
 _atom_site_label
 _atom_site_symmetry_multiplicity
 _atom_site_fract_x
 _atom_site_fract_y
 _atom_site_fract_z
 _atom_site_occupancy
  Nd  Nd0  1  0.004739  0.333657  0.755214  1
  Nd  Nd1  1  0.674462  0.998510  0.248252  1
  Nd  Nd2  1  0.326289  0.000702  0.752024  1
  Th  Th3  1  0.995419  0.665724  0.244625  1
  Al  Al4  1  0.133453  0.132383  0.250595  1
  Al  Al5  1  0.868382  0.870947  0.749182  1
  Al  Al6  1  0.997811  0.665367  0.570687  1
  Al  Al7  1  0.337778  0.003439  0.428099  1
  Al  Al8  1  0.002252  0.331755  0.433492  1
  Al  Al9  1  0.665037  0.999744  0.572788  1
  Al  Al10  1  0.661350  0.995272  0.923847  1
  Al  Al11  1  0.342642  0.009030  0.075024  1
  Al  Al12  1  0.333433  0.332529  0.550953  1
  Al  Al13  1  0.663805  0.666386  0.452823  1
  Al  Al14  1  0.659494  0.665449  0.048988  1
  Al  Al15  1  0.336471  0.333752  0.947206  1
  Al  Al16  1  0.343306  0.547450  0.250238  1
  Al  Al17  1  0.658058  0.451262  0.749751  1
  Al  Al18  1  0.544774  0.341296  0.250422  1
  Al  Al19  1  0.452084  0.658460  0.749214  1
  Si  Si20  1  0.003609  0.326531  0.073531  1
  Si  Si21  1  0.996078  0.670972  0.923597  1
  Ir  Ir22  1  0.689385  0.339326  0.002365  1
  Ir  Ir23  1  0.310396  0.662428  0.000299  1
  Ir  Ir24  1  0.326324  0.670031  0.498662  1
  Ir  Ir25  1  0.673696  0.331487  0.498372  1
  Ir  Ir26  1  0.999670  0.998213  0.001464  1
  Ir  Ir27  1  0.999801  0.997899  0.498288  1
