# generated using pymatgen
data_Ta2BeNb4Ga3
_symmetry_space_group_name_H-M   'P 1'
_cell_length_a   6.85475234
_cell_length_b   6.85475140
_cell_length_c   3.46877700
_cell_angle_alpha   90.00000000
_cell_angle_beta   90.00000000
_cell_angle_gamma   89.74141921
_symmetry_Int_Tables_number   1
_chemical_formula_structural   Ta2BeNb4Ga3
_chemical_formula_sum   'Ta2 Be1 Nb4 Ga3'
_cell_volume   162.98792669
_cell_formula_units_Z   1
loop_
 _symmetry_equiv_pos_site_id
 _symmetry_equiv_pos_as_xyz
  1  'x, y, z'
loop_
 _atom_site_type_symbol
 _atom_site_label
 _atom_site_symmetry_multiplicity
 _atom_site_fract_x
 _atom_site_fract_y
 _atom_site_fract_z
 _atom_site_occupancy
  Ta  Ta0  1  0.492088  0.500982  0.000000  1
  Ta  Ta1  1  0.000982  0.992088  0.000000  1
  Be  Be2  1  0.121923  0.621923  0.000000  1
  Nb  Nb3  1  0.840476  0.680110  0.500000  1
  Nb  Nb4  1  0.309550  0.809550  0.500000  1
  Nb  Nb5  1  0.180110  0.340476  0.500000  1
  Nb  Nb6  1  0.678224  0.178224  0.500000  1
  Ga  Ga7  1  0.622719  0.871254  0.000000  1
  Ga  Ga8  1  0.371254  0.122719  0.000000  1
  Ga  Ga9  1  0.882674  0.382674  0.000000  1
