# generated using pymatgen
data_Li2Tb3CdSn3
_symmetry_space_group_name_H-M   'P 1'
_cell_length_a   7.42232100
_cell_length_b   7.36076918
_cell_length_c   4.65286800
_cell_angle_alpha   90.00000000
_cell_angle_beta   90.00000000
_cell_angle_gamma   120.27700971
_symmetry_Int_Tables_number   1
_chemical_formula_structural   Li2Tb3CdSn3
_chemical_formula_sum   'Li2 Tb3 Cd1 Sn3'
_cell_volume   219.53069627
_cell_formula_units_Z   1
loop_
 _symmetry_equiv_pos_site_id
 _symmetry_equiv_pos_as_xyz
  1  'x, y, z'
loop_
 _atom_site_type_symbol
 _atom_site_label
 _atom_site_symmetry_multiplicity
 _atom_site_fract_x
 _atom_site_fract_y
 _atom_site_fract_z
 _atom_site_occupancy
  Li  Li0  1  0.233248  0.234159  0.500000  1
  Li  Li1  1  0.999088  0.765839  0.500000  1
  Tb  Tb2  1  0.440986  0.000000  0.000000  1
  Tb  Tb3  1  0.998550  0.439947  0.000000  1
  Tb  Tb4  1  0.558602  0.560052  0.000000  1
  Cd  Cd5  1  0.767413  0.000000  0.500000  1
  Sn  Sn6  1  0.013796  0.000000  0.000000  1
  Sn  Sn7  1  0.664794  0.341271  0.500000  1
  Sn  Sn8  1  0.323523  0.658729  0.500000  1
