# generated using pymatgen
data_Dy6Mn2Si24Os5Ru
_symmetry_space_group_name_H-M   'P 1'
_cell_length_a   10.08871953
_cell_length_b   10.08871846
_cell_length_c   8.09138986
_cell_angle_alpha   89.97946765
_cell_angle_beta   89.97945829
_cell_angle_gamma   132.62252192
_symmetry_Int_Tables_number   1
_chemical_formula_structural   Dy6Mn2Si24Os5Ru
_chemical_formula_sum   'Dy6 Mn2 Si24 Os5 Ru1'
_cell_volume   606.00061318
_cell_formula_units_Z   1
loop_
 _symmetry_equiv_pos_site_id
 _symmetry_equiv_pos_as_xyz
  1  'x, y, z'
loop_
 _atom_site_type_symbol
 _atom_site_label
 _atom_site_symmetry_multiplicity
 _atom_site_fract_x
 _atom_site_fract_y
 _atom_site_fract_z
 _atom_site_occupancy
  Dy  Dy0  1  0.496804  0.496804  0.497685  1
  Dy  Dy1  1  0.997450  0.997450  0.001861  1
  Dy  Dy2  1  0.501568  0.001446  0.750104  1
  Dy  Dy3  1  0.998305  0.498472  0.249955  1
  Dy  Dy4  1  0.498472  0.998305  0.249955  1
  Dy  Dy5  1  0.001446  0.501568  0.750104  1
  Mn  Mn6  1  0.875591  0.875591  0.372624  1
  Mn  Mn7  1  0.375815  0.375815  0.127225  1
  Si  Si8  1  0.796763  0.204002  0.500142  1
  Si  Si9  1  0.296909  0.704052  0.000131  1
  Si  Si10  1  0.204002  0.796763  0.500142  1
  Si  Si11  1  0.704052  0.296909  0.000131  1
  Si  Si12  1  0.334023  0.334023  0.840497  1
  Si  Si13  1  0.667733  0.667733  0.173379  1
  Si  Si14  1  0.167137  0.167137  0.324972  1
  Si  Si15  1  0.831998  0.831998  0.659304  1
  Si  Si16  1  0.123526  0.890433  0.729419  1
  Si  Si17  1  0.102649  0.875628  0.271650  1
  Si  Si18  1  0.602064  0.375381  0.228184  1
  Si  Si19  1  0.623948  0.391074  0.771171  1
  Si  Si20  1  0.875628  0.102649  0.271650  1
  Si  Si21  1  0.890433  0.123526  0.729419  1
  Si  Si22  1  0.391074  0.623948  0.771171  1
  Si  Si23  1  0.375381  0.602064  0.228184  1
  Si  Si24  1  0.346356  0.112964  0.505574  1
  Si  Si25  1  0.884374  0.657669  0.486706  1
  Si  Si26  1  0.384839  0.158043  0.013726  1
  Si  Si27  1  0.845710  0.613172  0.994701  1
  Si  Si28  1  0.657669  0.884374  0.486706  1
  Si  Si29  1  0.112964  0.346356  0.505574  1
  Si  Si30  1  0.613172  0.845710  0.994701  1
  Si  Si31  1  0.158043  0.384839  0.013726  1
  Os  Os32  1  0.672028  0.331118  0.498074  1
  Os  Os33  1  0.172160  0.831177  0.001794  1
  Os  Os34  1  0.331118  0.672028  0.498074  1
  Os  Os35  1  0.831177  0.172160  0.001794  1
  Os  Os36  1  0.128878  0.128878  0.625919  1
  Ru  Ru37  1  0.628742  0.628742  0.873875  1
