# generated using pymatgen
data_ZrHg3(SF3)2
_symmetry_space_group_name_H-M   'P 1'
_cell_length_a   7.84625761
_cell_length_b   7.84625753
_cell_length_c   5.07402635
_cell_angle_alpha   107.81114945
_cell_angle_beta   107.81114903
_cell_angle_gamma   55.42929829
_symmetry_Int_Tables_number   1
_chemical_formula_structural   ZrHg3(SF3)2
_chemical_formula_sum   'Zr1 Hg3 S2 F6'
_cell_volume   241.37702496
_cell_formula_units_Z   1
loop_
 _symmetry_equiv_pos_site_id
 _symmetry_equiv_pos_as_xyz
  1  'x, y, z'
loop_
 _atom_site_type_symbol
 _atom_site_label
 _atom_site_symmetry_multiplicity
 _atom_site_fract_x
 _atom_site_fract_y
 _atom_site_fract_z
 _atom_site_occupancy
  Zr  Zr0  1  0.000000  0.000000  0.499999  1
  Hg  Hg1  1  0.500000  0.500000  0.000000  1
  Hg  Hg2  1  0.500000  0.000000  0.499999  1
  Hg  Hg3  1  0.000000  0.500000  0.499999  1
  S  S4  1  0.684624  0.684624  0.176157  1
  S  S5  1  0.315376  0.315376  0.823843  1
  F  F6  1  0.706242  0.117588  0.261011  1
  F  F7  1  0.117588  0.706242  0.261011  1
  F  F8  1  0.098447  0.098447  0.276795  1
  F  F9  1  0.901553  0.901553  0.723205  1
  F  F10  1  0.882412  0.293758  0.738989  1
  F  F11  1  0.293758  0.882412  0.738989  1
