# generated using pymatgen
data_Ho3Er3Hf2(Co4P3)4
_symmetry_space_group_name_H-M   'P 1'
_cell_length_a   3.70383700
_cell_length_b   10.65143500
_cell_length_c   12.34306100
_cell_angle_alpha   90.00306638
_cell_angle_beta   90.00000000
_cell_angle_gamma   90.00000000
_symmetry_Int_Tables_number   1
_chemical_formula_structural   Ho3Er3Hf2(Co4P3)4
_chemical_formula_sum   'Ho3 Er3 Hf2 Co16 P12'
_cell_volume   486.94830926
_cell_formula_units_Z   1
loop_
 _symmetry_equiv_pos_site_id
 _symmetry_equiv_pos_as_xyz
  1  'x, y, z'
loop_
 _atom_site_type_symbol
 _atom_site_label
 _atom_site_symmetry_multiplicity
 _atom_site_fract_x
 _atom_site_fract_y
 _atom_site_fract_z
 _atom_site_occupancy
  Ho  Ho0  1  0.000000  0.500090  0.528892  1
  Ho  Ho1  1  0.500000  0.999877  0.471157  1
  Ho  Ho2  1  0.000000  0.321858  0.795606  1
  Er  Er3  1  0.500000  0.822088  0.204290  1
  Er  Er4  1  0.500000  0.178012  0.204257  1
  Er  Er5  1  0.000000  0.678325  0.795580  1
  Hf  Hf6  1  0.500000  0.500019  0.157517  1
  Hf  Hf7  1  0.000000  0.999837  0.842364  1
  Co  Co8  1  0.000000  0.500151  0.986617  1
  Co  Co9  1  0.500000  0.999845  0.013652  1
  Co  Co10  1  0.500000  0.295061  0.432947  1
  Co  Co11  1  0.500000  0.704953  0.433137  1
  Co  Co12  1  0.000000  0.204763  0.566687  1
  Co  Co13  1  0.000000  0.795202  0.566900  1
  Co  Co14  1  0.500000  0.877367  0.702992  1
  Co  Co15  1  0.500000  0.122197  0.702737  1
  Co  Co16  1  0.000000  0.622611  0.297020  1
  Co  Co17  1  0.000000  0.377353  0.296963  1
  Co  Co18  1  0.500000  0.332071  0.993470  1
  Co  Co19  1  0.500000  0.668055  0.993349  1
  Co  Co20  1  0.000000  0.167710  0.006970  1
  Co  Co21  1  0.000000  0.832178  0.006820  1
  Co  Co22  1  0.500000  0.500403  0.702885  1
  Co  Co23  1  0.000000  0.999958  0.296929  1
  P  P24  1  0.500000  0.310424  0.615810  1
  P  P25  1  0.500000  0.689622  0.616118  1
  P  P26  1  0.000000  0.189348  0.383731  1
  P  P27  1  0.000000  0.810612  0.383870  1
  P  P28  1  0.500000  0.500335  0.883071  1
  P  P29  1  0.000000  0.999910  0.117182  1
  P  P30  1  0.500000  0.838070  0.892610  1
  P  P31  1  0.500000  0.161636  0.892902  1
  P  P32  1  0.000000  0.661979  0.107545  1
  P  P33  1  0.000000  0.338047  0.107464  1
  P  P34  1  0.500000  0.499983  0.362178  1
  P  P35  1  0.000000  0.000053  0.637782  1
