# generated using pymatgen
data_H3S2Br
_symmetry_space_group_name_H-M   'P 1'
_cell_length_a   4.65775582
_cell_length_b   4.68032062
_cell_length_c   5.96007595
_cell_angle_alpha   82.54667230
_cell_angle_beta   103.88324526
_cell_angle_gamma   109.00180807
_symmetry_Int_Tables_number   1
_chemical_formula_structural   H3S2Br
_chemical_formula_sum   'H3 S2 Br1'
_cell_volume   119.07103570
_cell_formula_units_Z   1
loop_
 _symmetry_equiv_pos_site_id
 _symmetry_equiv_pos_as_xyz
  1  'x, y, z'
loop_
 _atom_site_type_symbol
 _atom_site_label
 _atom_site_symmetry_multiplicity
 _atom_site_fract_x
 _atom_site_fract_y
 _atom_site_fract_z
 _atom_site_occupancy
  H  H0  1  0.387748  0.926067  0.865210  1
  H  H1  1  0.998727  0.540301  0.875829  1
  H  H2  1  0.526269  0.722921  0.413118  1
  S  S3  1  0.441093  0.524352  0.242377  1
  S  S4  1  0.183310  0.782595  0.018975  1
  Br  Br5  1  0.746733  0.148309  0.679148  1
