# generated using pymatgen
data_Sc3MnP2Ir3
_symmetry_space_group_name_H-M   'P 1'
_cell_length_a   6.40969800
_cell_length_b   6.40974298
_cell_length_c   3.96265300
_cell_angle_alpha   90.00000000
_cell_angle_beta   90.00000000
_cell_angle_gamma   120.00009391
_symmetry_Int_Tables_number   1
_chemical_formula_structural   Sc3MnP2Ir3
_chemical_formula_sum   'Sc3 Mn1 P2 Ir3'
_cell_volume   140.99199241
_cell_formula_units_Z   1
loop_
 _symmetry_equiv_pos_site_id
 _symmetry_equiv_pos_as_xyz
  1  'x, y, z'
loop_
 _atom_site_type_symbol
 _atom_site_label
 _atom_site_symmetry_multiplicity
 _atom_site_fract_x
 _atom_site_fract_y
 _atom_site_fract_z
 _atom_site_occupancy
  Sc  Sc0  1  0.999995  0.417226  0.500000  1
  Sc  Sc1  1  0.582774  0.582775  0.500000  1
  Sc  Sc2  1  0.417224  0.999998  0.500000  1
  Mn  Mn3  1  0.000000  0.999999  0.500000  1
  P  P4  1  0.666666  0.333333  0.000000  1
  P  P5  1  0.333334  0.666668  0.000000  1
  Ir  Ir6  1  0.000001  0.751347  0.000000  1
  Ir  Ir7  1  0.248657  0.248657  0.000000  1
  Ir  Ir8  1  0.751348  0.999999  0.000000  1
