# generated using pymatgen
data_Na(Bi3Rh)4
_symmetry_space_group_name_H-M   'P 1'
_cell_length_a   8.52116168
_cell_length_b   8.52116367
_cell_length_c   8.52116400
_cell_angle_alpha   109.47122142
_cell_angle_beta   109.47122616
_cell_angle_gamma   109.47121710
_symmetry_Int_Tables_number   1
_chemical_formula_structural   Na(Bi3Rh)4
_chemical_formula_sum   'Na1 Bi12 Rh4'
_cell_volume   476.29358346
_cell_formula_units_Z   1
loop_
 _symmetry_equiv_pos_site_id
 _symmetry_equiv_pos_as_xyz
  1  'x, y, z'
loop_
 _atom_site_type_symbol
 _atom_site_label
 _atom_site_symmetry_multiplicity
 _atom_site_fract_x
 _atom_site_fract_y
 _atom_site_fract_z
 _atom_site_occupancy
  Na  Na0  1  0.000000  0.000000  0.000000  1
  Bi  Bi1  1  0.840597  0.663631  0.504228  1
  Bi  Bi2  1  0.159403  0.336369  0.495772  1
  Bi  Bi3  1  0.159403  0.663631  0.823035  1
  Bi  Bi4  1  0.840597  0.336369  0.176965  1
  Bi  Bi5  1  0.663631  0.504228  0.840597  1
  Bi  Bi6  1  0.336369  0.495772  0.159403  1
  Bi  Bi7  1  0.663631  0.823035  0.159403  1
  Bi  Bi8  1  0.336369  0.176965  0.840597  1
  Bi  Bi9  1  0.504228  0.840597  0.663631  1
  Bi  Bi10  1  0.495772  0.159403  0.336369  1
  Bi  Bi11  1  0.176965  0.840597  0.336369  1
  Bi  Bi12  1  0.823035  0.159403  0.663631  1
  Rh  Rh13  1  0.500000  0.500000  0.500000  1
  Rh  Rh14  1  0.500000  0.000000  0.000000  1
  Rh  Rh15  1  0.000000  0.500000  0.000000  1
  Rh  Rh16  1  0.000000  0.000000  0.500000  1
