# generated using pymatgen
data_Tm2AlRuPt
_symmetry_space_group_name_H-M   'P 1'
_cell_length_a   5.49791795
_cell_length_b   5.49791848
_cell_length_c   5.49791782
_cell_angle_alpha   135.92558649
_cell_angle_beta   116.35983961
_cell_angle_gamma   80.65119369
_symmetry_Int_Tables_number   1
_chemical_formula_structural   Tm2AlRuPt
_chemical_formula_sum   'Tm2 Al1 Ru1 Pt1'
_cell_volume   100.25781795
_cell_formula_units_Z   1
loop_
 _symmetry_equiv_pos_site_id
 _symmetry_equiv_pos_as_xyz
  1  'x, y, z'
loop_
 _atom_site_type_symbol
 _atom_site_label
 _atom_site_symmetry_multiplicity
 _atom_site_fract_x
 _atom_site_fract_y
 _atom_site_fract_z
 _atom_site_occupancy
  Tm  Tm0  1  0.693891  0.200144  0.493748  1
  Tm  Tm1  1  0.293604  0.799856  0.493748  1
  Al  Al2  1  0.011918  0.000000  0.011918  1
  Ru  Ru3  1  0.260934  0.500000  0.760934  1
  Pt  Pt4  1  0.739654  0.500000  0.239654  1
