# generated using pymatgen
data_YbY7(ScIr3)2
_symmetry_space_group_name_H-M   'P 1'
_cell_length_a   10.81878495
_cell_length_b   10.82386700
_cell_length_c   6.28342112
_cell_angle_alpha   90.00000000
_cell_angle_beta   90.25119781
_cell_angle_gamma   90.00000000
_symmetry_Int_Tables_number   1
_chemical_formula_structural   YbY7(ScIr3)2
_chemical_formula_sum   'Yb2 Y14 Sc4 Ir12'
_cell_volume   735.78838711
_cell_formula_units_Z   2
loop_
 _symmetry_equiv_pos_site_id
 _symmetry_equiv_pos_as_xyz
  1  'x, y, z'
loop_
 _atom_site_type_symbol
 _atom_site_label
 _atom_site_symmetry_multiplicity
 _atom_site_fract_x
 _atom_site_fract_y
 _atom_site_fract_z
 _atom_site_occupancy
  Yb  Yb0  1  0.286420  0.085961  0.374319  1
  Yb  Yb1  1  0.286420  0.914039  0.874319  1
  Y  Y2  1  0.711915  0.084605  0.878961  1
  Y  Y3  1  0.711915  0.915395  0.378961  1
  Y  Y4  1  0.584784  0.788810  0.877018  1
  Y  Y5  1  0.584784  0.211190  0.377018  1
  Y  Y6  1  0.413000  0.790271  0.377305  1
  Y  Y7  1  0.413000  0.209729  0.877305  1
  Y  Y8  1  0.213306  0.414421  0.624668  1
  Y  Y9  1  0.213306  0.585579  0.124668  1
  Y  Y10  1  0.787564  0.413841  0.121755  1
  Y  Y11  1  0.787564  0.586159  0.621755  1
  Y  Y12  1  0.913947  0.713105  0.124842  1
  Y  Y13  1  0.913947  0.286895  0.624842  1
  Y  Y14  1  0.086839  0.712839  0.623239  1
  Y  Y15  1  0.086839  0.287161  0.123239  1
  Sc  Sc16  1  0.001472  0.999214  0.498230  1
  Sc  Sc17  1  0.001472  0.000786  0.998230  1
  Sc  Sc18  1  0.499774  0.499484  0.998842  1
  Sc  Sc19  1  0.499774  0.500516  0.498842  1
  Ir  Ir20  1  0.856049  0.147040  0.249658  1
  Ir  Ir21  1  0.856049  0.852960  0.749658  1
  Ir  Ir22  1  0.142364  0.151138  0.750519  1
  Ir  Ir23  1  0.142364  0.848862  0.250519  1
  Ir  Ir24  1  0.644571  0.352423  0.751012  1
  Ir  Ir25  1  0.644571  0.647577  0.251012  1
  Ir  Ir26  1  0.354279  0.356774  0.246483  1
  Ir  Ir27  1  0.354279  0.643226  0.746483  1
  Ir  Ir28  1  0.503510  0.000260  0.124293  1
  Ir  Ir29  1  0.503510  0.999740  0.624293  1
  Ir  Ir30  1  0.000206  0.500386  0.878857  1
  Ir  Ir31  1  0.000206  0.499614  0.378857  1
