# generated using pymatgen
data_Er5(CoO6)2
_symmetry_space_group_name_H-M   'P 1'
_cell_length_a   6.69406717
_cell_length_b   6.69406738
_cell_length_c   7.10869700
_cell_angle_alpha   74.54318483
_cell_angle_beta   74.54318390
_cell_angle_gamma   50.59185931
_symmetry_Int_Tables_number   1
_chemical_formula_structural   Er5(CoO6)2
_chemical_formula_sum   'Er5 Co2 O12'
_cell_volume   235.18515793
_cell_formula_units_Z   1
loop_
 _symmetry_equiv_pos_site_id
 _symmetry_equiv_pos_as_xyz
  1  'x, y, z'
loop_
 _atom_site_type_symbol
 _atom_site_label
 _atom_site_symmetry_multiplicity
 _atom_site_fract_x
 _atom_site_fract_y
 _atom_site_fract_z
 _atom_site_occupancy
  Er  Er0  1  0.305189  0.305189  0.356140  1
  Er  Er1  1  0.694811  0.694811  0.643860  1
  Er  Er2  1  0.308274  0.308274  0.834381  1
  Er  Er3  1  0.691726  0.691726  0.165619  1
  Er  Er4  1  0.000000  0.000000  0.500000  1
  Co  Co5  1  0.755475  0.244525  0.000000  1
  Co  Co6  1  0.244525  0.755475  0.000000  1
  O  O7  1  0.901338  0.419327  0.920521  1
  O  O8  1  0.419327  0.901338  0.920521  1
  O  O9  1  0.098662  0.580673  0.079479  1
  O  O10  1  0.580673  0.098662  0.079479  1
  O  O11  1  0.097516  0.598402  0.575230  1
  O  O12  1  0.598402  0.097516  0.575230  1
  O  O13  1  0.902484  0.401598  0.424770  1
  O  O14  1  0.401598  0.902484  0.424770  1
  O  O15  1  0.000578  0.000578  0.827040  1
  O  O16  1  0.999422  0.999422  0.172960  1
  O  O17  1  0.500340  0.500340  0.823265  1
  O  O18  1  0.499660  0.499660  0.176735  1
