# generated using pymatgen
data_V2Ga(TcS4)2
_symmetry_space_group_name_H-M   'P 1'
_cell_length_a   6.88378329
_cell_length_b   6.84716293
_cell_length_c   6.84716279
_cell_angle_alpha   59.51233945
_cell_angle_beta   59.82292624
_cell_angle_gamma   59.82292988
_symmetry_Int_Tables_number   1
_chemical_formula_structural   V2Ga(TcS4)2
_chemical_formula_sum   'V2 Ga1 Tc2 S8'
_cell_volume   226.75052332
_cell_formula_units_Z   1
loop_
 _symmetry_equiv_pos_site_id
 _symmetry_equiv_pos_as_xyz
  1  'x, y, z'
loop_
 _atom_site_type_symbol
 _atom_site_label
 _atom_site_symmetry_multiplicity
 _atom_site_fract_x
 _atom_site_fract_y
 _atom_site_fract_z
 _atom_site_occupancy
  V  V0  1  0.193449  0.597845  0.597845  1
  V  V1  1  0.610862  0.597845  0.597845  1
  Ga  Ga2  1  0.999280  0.000720  0.000720  1
  Tc  Tc3  1  0.603332  0.602069  0.191269  1
  Tc  Tc4  1  0.603332  0.191269  0.602069  1
  S  S5  1  0.862189  0.864945  0.410678  1
  S  S6  1  0.862189  0.410678  0.864945  1
  S  S7  1  0.413497  0.862765  0.862765  1
  S  S8  1  0.860974  0.862765  0.862765  1
  S  S9  1  0.364468  0.381429  0.889635  1
  S  S10  1  0.363976  0.369018  0.369018  1
  S  S11  1  0.897987  0.369018  0.369018  1
  S  S12  1  0.364468  0.889635  0.381429  1
