# generated using pymatgen
data_Cs2CdGeO4
_symmetry_space_group_name_H-M   'P 1'
_cell_length_a   7.51472804
_cell_length_b   6.17511516
_cell_length_c   8.34210000
_cell_angle_alpha   90.00000000
_cell_angle_beta   90.00000000
_cell_angle_gamma   114.25935115
_symmetry_Int_Tables_number   1
_chemical_formula_structural   Cs2CdGeO4
_chemical_formula_sum   'Cs4 Cd2 Ge2 O8'
_cell_volume   352.92570728
_cell_formula_units_Z   2
loop_
 _symmetry_equiv_pos_site_id
 _symmetry_equiv_pos_as_xyz
  1  'x, y, z'
loop_
 _atom_site_type_symbol
 _atom_site_label
 _atom_site_symmetry_multiplicity
 _atom_site_fract_x
 _atom_site_fract_y
 _atom_site_fract_z
 _atom_site_occupancy
  Cs  Cs0  1  0.166219  0.583109  0.082280  1
  Cs  Cs1  1  0.852395  0.926197  0.239907  1
  Cs  Cs2  1  0.833781  0.416890  0.582280  1
  Cs  Cs3  1  0.147605  0.073803  0.739906  1
  Cd  Cd4  1  0.411868  0.205934  0.311205  1
  Cd  Cd5  1  0.588132  0.794066  0.811206  1
  Ge  Ge6  1  0.641433  0.320716  0.016522  1
  Ge  Ge7  1  0.358568  0.679284  0.516523  1
  O  O8  1  0.380700  0.190350  0.035039  1
  O  O9  1  0.721377  0.360689  0.224183  1
  O  O10  1  0.254228  0.396863  0.418681  1
  O  O11  1  0.254228  0.857364  0.418681  1
  O  O12  1  0.619300  0.809650  0.535039  1
  O  O13  1  0.278622  0.639310  0.724184  1
  O  O14  1  0.745772  0.142635  0.918682  1
  O  O15  1  0.745772  0.603136  0.918682  1
