# generated using pymatgen
data_LuScPa2(Al3Rh)6
_symmetry_space_group_name_H-M   'P 1'
_cell_length_a   7.56848947
_cell_length_b   7.58316128
_cell_length_c   9.32450800
_cell_angle_alpha   90.00000000
_cell_angle_beta   90.00000000
_cell_angle_gamma   119.68914710
_symmetry_Int_Tables_number   1
_chemical_formula_structural   LuScPa2(Al3Rh)6
_chemical_formula_sum   'Lu1 Sc1 Pa2 Al18 Rh6'
_cell_volume   464.90896742
_cell_formula_units_Z   1
loop_
 _symmetry_equiv_pos_site_id
 _symmetry_equiv_pos_as_xyz
  1  'x, y, z'
loop_
 _atom_site_type_symbol
 _atom_site_label
 _atom_site_symmetry_multiplicity
 _atom_site_fract_x
 _atom_site_fract_y
 _atom_site_fract_z
 _atom_site_occupancy
  Lu  Lu0  1  0.329993  0.006778  0.750000  1
  Sc  Sc1  1  0.670119  0.993237  0.250000  1
  Pa  Pa2  1  0.997032  0.670822  0.250000  1
  Pa  Pa3  1  0.003028  0.329310  0.750000  1
  Al  Al4  1  0.127605  0.124688  0.250000  1
  Al  Al5  1  0.869666  0.874061  0.750000  1
  Al  Al6  1  0.996763  0.328330  0.080349  1
  Al  Al7  1  0.000405  0.669027  0.921444  1
  Al  Al8  1  0.000405  0.669027  0.578556  1
  Al  Al9  1  0.341090  0.002425  0.423238  1
  Al  Al10  1  0.996763  0.328330  0.419651  1
  Al  Al11  1  0.661563  0.997539  0.572393  1
  Al  Al12  1  0.661563  0.997539  0.927607  1
  Al  Al13  1  0.341090  0.002425  0.076762  1
  Al  Al14  1  0.334884  0.332593  0.552680  1
  Al  Al15  1  0.665383  0.669514  0.444721  1
  Al  Al16  1  0.665383  0.669514  0.055279  1
  Al  Al17  1  0.334884  0.332593  0.947320  1
  Al  Al18  1  0.342759  0.552683  0.250000  1
  Al  Al19  1  0.658513  0.450385  0.750000  1
  Al  Al20  1  0.550423  0.339886  0.250000  1
  Al  Al21  1  0.450900  0.659852  0.750000  1
  Rh  Rh22  1  0.675090  0.329093  0.999720  1
  Rh  Rh23  1  0.324515  0.670806  0.000316  1
  Rh  Rh24  1  0.324515  0.670806  0.499684  1
  Rh  Rh25  1  0.675090  0.329093  0.500280  1
  Rh  Rh26  1  0.000289  0.999824  0.000038  1
  Rh  Rh27  1  0.000289  0.999824  0.499962  1
