# generated using pymatgen
data_Ga3NiPt3Rh
_symmetry_space_group_name_H-M   'P 1'
_cell_length_a   5.36925364
_cell_length_b   5.36925490
_cell_length_c   4.01349300
_cell_angle_alpha   90.00000000
_cell_angle_beta   90.00000000
_cell_angle_gamma   96.54763961
_symmetry_Int_Tables_number   1
_chemical_formula_structural   Ga3NiPt3Rh
_chemical_formula_sum   'Ga3 Ni1 Pt3 Rh1'
_cell_volume   114.94985791
_cell_formula_units_Z   1
loop_
 _symmetry_equiv_pos_site_id
 _symmetry_equiv_pos_as_xyz
  1  'x, y, z'
loop_
 _atom_site_type_symbol
 _atom_site_label
 _atom_site_symmetry_multiplicity
 _atom_site_fract_x
 _atom_site_fract_y
 _atom_site_fract_z
 _atom_site_occupancy
  Ga  Ga0  1  0.006561  0.006561  0.000000  1
  Ga  Ga1  1  0.707000  0.288649  0.500000  1
  Ga  Ga2  1  0.288649  0.707000  0.500000  1
  Ni  Ni3  1  0.498393  0.498393  0.000000  1
  Pt  Pt4  1  0.998487  0.499330  0.000000  1
  Pt  Pt5  1  0.499330  0.998487  0.000000  1
  Pt  Pt6  1  0.782791  0.782791  0.500000  1
  Rh  Rh7  1  0.218789  0.218789  0.500000  1
