# generated using pymatgen
data_La4TmIr3
_symmetry_space_group_name_H-M   'P 1'
_cell_length_a   11.35245100
_cell_length_b   11.35245100
_cell_length_c   6.52676300
_cell_angle_alpha   90.00000000
_cell_angle_beta   90.00000000
_cell_angle_gamma   90.00000000
_symmetry_Int_Tables_number   1
_chemical_formula_structural   La4TmIr3
_chemical_formula_sum   'La16 Tm4 Ir12'
_cell_volume   841.15709986
_cell_formula_units_Z   4
loop_
 _symmetry_equiv_pos_site_id
 _symmetry_equiv_pos_as_xyz
  1  'x, y, z'
loop_
 _atom_site_type_symbol
 _atom_site_label
 _atom_site_symmetry_multiplicity
 _atom_site_fract_x
 _atom_site_fract_y
 _atom_site_fract_z
 _atom_site_occupancy
  La  La0  1  0.287465  0.088409  0.385917  1
  La  La1  1  0.287465  0.911591  0.885917  1
  La  La2  1  0.712535  0.088409  0.885917  1
  La  La3  1  0.712535  0.911591  0.385917  1
  La  La4  1  0.588409  0.787465  0.885917  1
  La  La5  1  0.588409  0.212535  0.385917  1
  La  La6  1  0.411591  0.787465  0.385917  1
  La  La7  1  0.411591  0.212535  0.885917  1
  La  La8  1  0.212535  0.411591  0.614083  1
  La  La9  1  0.212535  0.588409  0.114083  1
  La  La10  1  0.787465  0.411591  0.114083  1
  La  La11  1  0.787465  0.588409  0.614083  1
  La  La12  1  0.911591  0.712535  0.114083  1
  La  La13  1  0.911591  0.287465  0.614083  1
  La  La14  1  0.088409  0.712535  0.614083  1
  La  La15  1  0.088409  0.287465  0.114083  1
  Tm  Tm16  1  0.000000  0.000000  0.500000  1
  Tm  Tm17  1  0.000000  0.000000  0.000000  1
  Tm  Tm18  1  0.500000  0.500000  0.000000  1
  Tm  Tm19  1  0.500000  0.500000  0.500000  1
  Ir  Ir20  1  0.853163  0.146837  0.250000  1
  Ir  Ir21  1  0.853163  0.853163  0.750000  1
  Ir  Ir22  1  0.146837  0.146837  0.750000  1
  Ir  Ir23  1  0.146837  0.853163  0.250000  1
  Ir  Ir24  1  0.646837  0.353163  0.750000  1
  Ir  Ir25  1  0.646837  0.646837  0.250000  1
  Ir  Ir26  1  0.353163  0.353163  0.250000  1
  Ir  Ir27  1  0.353163  0.646837  0.750000  1
  Ir  Ir28  1  0.500000  0.000000  0.116809  1
  Ir  Ir29  1  0.500000  0.000000  0.616809  1
  Ir  Ir30  1  0.000000  0.500000  0.883191  1
  Ir  Ir31  1  0.000000  0.500000  0.383191  1
