# generated using pymatgen
data_Ba6Pr2Te2IrO18
_symmetry_space_group_name_H-M   'P 1'
_cell_length_a   10.58458208
_cell_length_b   10.58459054
_cell_length_c   10.58459100
_cell_angle_alpha   146.62441853
_cell_angle_beta   131.74495772
_cell_angle_gamma   59.94055191
_symmetry_Int_Tables_number   1
_chemical_formula_structural   Ba6Pr2Te2IrO18
_chemical_formula_sum   'Ba6 Pr2 Te2 Ir1 O18'
_cell_volume   482.32394300
_cell_formula_units_Z   1
loop_
 _symmetry_equiv_pos_site_id
 _symmetry_equiv_pos_as_xyz
  1  'x, y, z'
loop_
 _atom_site_type_symbol
 _atom_site_label
 _atom_site_symmetry_multiplicity
 _atom_site_fract_x
 _atom_site_fract_y
 _atom_site_fract_z
 _atom_site_occupancy
  Ba  Ba0  1  0.781643  0.500875  0.280769  1
  Ba  Ba1  1  0.378631  0.151071  0.227560  1
  Ba  Ba2  1  0.080060  0.849443  0.230618  1
  Ba  Ba3  1  0.220107  0.500874  0.719232  1
  Ba  Ba4  1  0.923510  0.151071  0.772438  1
  Ba  Ba5  1  0.618824  0.849442  0.769382  1
  Pr  Pr6  1  0.666866  0.666866  0.000000  1
  Pr  Pr7  1  0.332979  0.332979  0.000000  1
  Te  Te8  1  0.500227  0.000226  0.500000  1
  Te  Te9  1  0.831853  0.331853  0.500000  1
  Ir  Ir10  1  0.167640  0.667641  0.500000  1
  O  O11  1  0.722582  0.000323  0.722259  1
  O  O12  1  0.394813  0.666239  0.728575  1
  O  O13  1  0.061364  0.332698  0.728664  1
  O  O14  1  0.576945  0.848722  0.271777  1
  O  O15  1  0.242420  0.511556  0.269135  1
  O  O16  1  0.906715  0.182128  0.275414  1
  O  O17  1  0.423435  0.695359  0.271923  1
  O  O18  1  0.092968  0.369395  0.276428  1
  O  O19  1  0.757086  0.028124  0.271038  1
  O  O20  1  0.278063  0.000323  0.277740  1
  O  O21  1  0.937665  0.666239  0.271427  1
  O  O22  1  0.604034  0.332698  0.271335  1
  O  O23  1  0.423435  0.151512  0.728076  1
  O  O24  1  0.092968  0.816541  0.723573  1
  O  O25  1  0.757086  0.486048  0.728963  1
  O  O26  1  0.576945  0.305168  0.728224  1
  O  O27  1  0.242420  0.973284  0.730865  1
  O  O28  1  0.906715  0.631302  0.724586  1
