# generated using pymatgen
data_Cs3Rb(BiAu)2
_symmetry_space_group_name_H-M   'P 1'
_cell_length_a   6.91247300
_cell_length_b   7.17957990
_cell_length_c   7.29839900
_cell_angle_alpha   90.00000000
_cell_angle_beta   90.00000000
_cell_angle_gamma   108.96951185
_symmetry_Int_Tables_number   1
_chemical_formula_structural   Cs3Rb(BiAu)2
_chemical_formula_sum   'Cs3 Rb1 Bi2 Au2'
_cell_volume   342.53870620
_cell_formula_units_Z   1
loop_
 _symmetry_equiv_pos_site_id
 _symmetry_equiv_pos_as_xyz
  1  'x, y, z'
loop_
 _atom_site_type_symbol
 _atom_site_label
 _atom_site_symmetry_multiplicity
 _atom_site_fract_x
 _atom_site_fract_y
 _atom_site_fract_z
 _atom_site_occupancy
  Cs  Cs0  1  0.155881  0.480845  0.750000  1
  Cs  Cs1  1  0.498248  0.149600  0.750000  1
  Cs  Cs2  1  0.847686  0.520710  0.250000  1
  Rb  Rb3  1  0.511091  0.855858  0.250000  1
  Bi  Bi4  1  0.254131  0.252351  0.250000  1
  Bi  Bi5  1  0.744653  0.739903  0.750000  1
  Au  Au6  1  0.994154  0.000367  0.500152  1
  Au  Au7  1  0.994154  0.000367  0.999848  1
