# generated using pymatgen
data_YbEr4Tm(CoSn6)2
_symmetry_space_group_name_H-M   'P 1'
_cell_length_a   8.42288130
_cell_length_b   8.42288247
_cell_length_c   13.08200346
_cell_angle_alpha   89.93502236
_cell_angle_beta   90.06498520
_cell_angle_gamma   148.52545457
_symmetry_Int_Tables_number   1
_chemical_formula_structural   YbEr4Tm(CoSn6)2
_chemical_formula_sum   'Yb1 Er4 Tm1 Co2 Sn12'
_cell_volume   484.57998305
_cell_formula_units_Z   1
loop_
 _symmetry_equiv_pos_site_id
 _symmetry_equiv_pos_as_xyz
  1  'x, y, z'
loop_
 _atom_site_type_symbol
 _atom_site_label
 _atom_site_symmetry_multiplicity
 _atom_site_fract_x
 _atom_site_fract_y
 _atom_site_fract_z
 _atom_site_occupancy
  Yb  Yb0  1  0.899339  0.100661  0.402847  1
  Er  Er1  1  0.898285  0.101715  0.094663  1
  Er  Er2  1  0.102209  0.897791  0.596338  1
  Er  Er3  1  0.901100  0.098900  0.752623  1
  Er  Er4  1  0.100887  0.899113  0.905805  1
  Tm  Tm5  1  0.099424  0.900576  0.247935  1
  Co  Co6  1  0.299122  0.700878  0.250252  1
  Co  Co7  1  0.699349  0.300651  0.749299  1
  Sn  Sn8  1  0.759038  0.240962  0.572378  1
  Sn  Sn9  1  0.428558  0.571442  0.576877  1
  Sn  Sn10  1  0.573906  0.426094  0.424072  1
  Sn  Sn11  1  0.733072  0.266928  0.248627  1
  Sn  Sn12  1  0.265945  0.734055  0.750564  1
  Sn  Sn13  1  0.242846  0.757154  0.071363  1
  Sn  Sn14  1  0.241943  0.758057  0.428560  1
  Sn  Sn15  1  0.572697  0.427303  0.074196  1
  Sn  Sn16  1  0.454971  0.545029  0.247832  1
  Sn  Sn17  1  0.544977  0.455023  0.751365  1
  Sn  Sn18  1  0.756583  0.243417  0.928026  1
  Sn  Sn19  1  0.425745  0.574255  0.926380  1
