# generated using pymatgen
data_KBa3Li2(OsN4)2
_symmetry_space_group_name_H-M   'P 1'
_cell_length_a   6.05256500
_cell_length_b   6.59249038
_cell_length_c   7.49729567
_cell_angle_alpha   69.66535684
_cell_angle_beta   90.00000000
_cell_angle_gamma   90.00000000
_symmetry_Int_Tables_number   1
_chemical_formula_structural   KBa3Li2(OsN4)2
_chemical_formula_sum   'K1 Ba3 Li2 Os2 N8'
_cell_volume   280.50964069
_cell_formula_units_Z   1
loop_
 _symmetry_equiv_pos_site_id
 _symmetry_equiv_pos_as_xyz
  1  'x, y, z'
loop_
 _atom_site_type_symbol
 _atom_site_label
 _atom_site_symmetry_multiplicity
 _atom_site_fract_x
 _atom_site_fract_y
 _atom_site_fract_z
 _atom_site_occupancy
  K  K0  1  0.250000  0.264395  0.056243  1
  Ba  Ba1  1  0.750000  0.729839  0.944080  1
  Ba  Ba2  1  0.750000  0.814882  0.417630  1
  Ba  Ba3  1  0.250000  0.189969  0.581321  1
  Li  Li4  1  0.750000  0.355611  0.365171  1
  Li  Li5  1  0.250000  0.643210  0.644079  1
  Os  Os6  1  0.250000  0.711230  0.212234  1
  Os  Os7  1  0.750000  0.289158  0.786961  1
  N  N8  1  0.511415  0.467050  0.730925  1
  N  N9  1  0.004996  0.540720  0.268037  1
  N  N10  1  0.495004  0.540720  0.268037  1
  N  N11  1  0.988585  0.467050  0.730925  1
  N  N12  1  0.750000  0.121662  0.631590  1
  N  N13  1  0.250000  0.875755  0.367678  1
  N  N14  1  0.750000  0.122202  0.033845  1
  N  N15  1  0.250000  0.866547  0.961244  1
