# generated using pymatgen
data_NdSiBRh3
_symmetry_space_group_name_H-M   'P 1'
_cell_length_a   5.56722000
_cell_length_b   5.56721868
_cell_length_c   6.79041500
_cell_angle_alpha   90.00000000
_cell_angle_beta   90.00000000
_cell_angle_gamma   119.99999597
_symmetry_Int_Tables_number   1
_chemical_formula_structural   NdSiBRh3
_chemical_formula_sum   'Nd2 Si2 B2 Rh6'
_cell_volume   182.26514728
_cell_formula_units_Z   2
loop_
 _symmetry_equiv_pos_site_id
 _symmetry_equiv_pos_as_xyz
  1  'x, y, z'
loop_
 _atom_site_type_symbol
 _atom_site_label
 _atom_site_symmetry_multiplicity
 _atom_site_fract_x
 _atom_site_fract_y
 _atom_site_fract_z
 _atom_site_occupancy
  Nd  Nd0  1  0.000000  0.000000  0.000000  1
  Nd  Nd1  1  0.000000  0.000000  0.500000  1
  Si  Si2  1  0.333333  0.666667  0.000000  1
  Si  Si3  1  0.666667  0.333333  0.000000  1
  B  B4  1  0.333333  0.666667  0.500000  1
  B  B5  1  0.666667  0.333333  0.500000  1
  Rh  Rh6  1  0.500000  0.000000  0.719950  1
  Rh  Rh7  1  0.000000  0.500000  0.280050  1
  Rh  Rh8  1  0.500000  0.000000  0.280050  1
  Rh  Rh9  1  0.500000  0.500000  0.719950  1
  Rh  Rh10  1  0.500000  0.500000  0.280050  1
  Rh  Rh11  1  0.000000  0.500000  0.719950  1
