# generated using pymatgen
data_SrEuCd21Pt
_symmetry_space_group_name_H-M   'P 1'
_cell_length_a   9.39078342
_cell_length_b   9.38905088
_cell_length_c   9.39330495
_cell_angle_alpha   100.01917996
_cell_angle_beta   99.33137388
_cell_angle_gamma   131.59643629
_symmetry_Int_Tables_number   1
_chemical_formula_structural   SrEuCd21Pt
_chemical_formula_sum   'Sr1 Eu1 Cd21 Pt1'
_cell_volume   564.91720900
_cell_formula_units_Z   1
loop_
 _symmetry_equiv_pos_site_id
 _symmetry_equiv_pos_as_xyz
  1  'x, y, z'
loop_
 _atom_site_type_symbol
 _atom_site_label
 _atom_site_symmetry_multiplicity
 _atom_site_fract_x
 _atom_site_fract_y
 _atom_site_fract_z
 _atom_site_occupancy
  Sr  Sr0  1  0.499916  0.499254  0.999344  1
  Eu  Eu1  1  0.749360  0.250832  0.501424  1
  Cd  Cd2  1  0.001269  0.320044  0.929215  1
  Cd  Cd3  1  0.125502  0.875990  0.750492  1
  Cd  Cd4  1  0.678888  0.596098  0.676121  1
  Cd  Cd5  1  0.390967  0.320097  0.318769  1
  Cd  Cd6  1  0.686390  0.012028  0.089095  1
  Cd  Cd7  1  0.860185  0.429945  0.183411  1
  Cd  Cd8  1  0.410802  0.084172  0.087380  1
  Cd  Cd9  1  0.007066  0.017008  0.010066  1
  Cd  Cd10  1  0.840352  0.664911  0.413935  1
  Cd  Cd11  1  0.243162  0.733501  0.490216  1
  Cd  Cd12  1  0.327737  0.739858  0.175826  1
  Cd  Cd13  1  0.124023  0.874409  0.249465  1
  Cd  Cd14  1  0.246610  0.430009  0.569693  1
  Cd  Cd15  1  0.564026  0.739907  0.412169  1
  Cd  Cd16  1  0.996748  0.084197  0.673277  1
  Cd  Cd17  1  0.922939  0.012092  0.325701  1
  Cd  Cd18  1  0.330753  0.152453  0.581321  1
  Cd  Cd19  1  0.251003  0.664886  0.824645  1
  Cd  Cd20  1  0.571180  0.152594  0.821716  1
  Cd  Cd21  1  0.920094  0.596250  0.917339  1
  Cd  Cd22  1  0.624943  0.874402  0.750390  1
  Pt  Pt23  1  0.126082  0.375065  0.248988  1
