# generated using pymatgen
data_Y8In3Pd8Pb
_symmetry_space_group_name_H-M   'P 1'
_cell_length_a   7.79949400
_cell_length_b   7.79949400
_cell_length_c   7.42307700
_cell_angle_alpha   90.00000000
_cell_angle_beta   90.00000000
_cell_angle_gamma   90.00000000
_symmetry_Int_Tables_number   1
_chemical_formula_structural   Y8In3Pd8Pb
_chemical_formula_sum   'Y8 In3 Pd8 Pb1'
_cell_volume   451.56141178
_cell_formula_units_Z   1
loop_
 _symmetry_equiv_pos_site_id
 _symmetry_equiv_pos_as_xyz
  1  'x, y, z'
loop_
 _atom_site_type_symbol
 _atom_site_label
 _atom_site_symmetry_multiplicity
 _atom_site_fract_x
 _atom_site_fract_y
 _atom_site_fract_z
 _atom_site_occupancy
  Y  Y0  1  0.168431  0.172817  0.998176  1
  Y  Y1  1  0.831569  0.827183  0.998176  1
  Y  Y2  1  0.672817  0.331569  0.501824  1
  Y  Y3  1  0.327183  0.668431  0.501824  1
  Y  Y4  1  0.676183  0.328478  0.998730  1
  Y  Y5  1  0.323817  0.671522  0.998730  1
  Y  Y6  1  0.828478  0.823817  0.501270  1
  Y  Y7  1  0.171522  0.176183  0.501270  1
  In  In8  1  0.500000  0.000000  0.750000  1
  In  In9  1  0.000000  0.500000  0.250000  1
  In  In10  1  0.000000  0.500000  0.750000  1
  Pd  Pd11  1  0.369257  0.378827  0.246112  1
  Pd  Pd12  1  0.625729  0.628657  0.753707  1
  Pd  Pd13  1  0.630743  0.621173  0.246112  1
  Pd  Pd14  1  0.871343  0.125729  0.746293  1
  Pd  Pd15  1  0.878827  0.130743  0.253888  1
  Pd  Pd16  1  0.374271  0.371343  0.753707  1
  Pd  Pd17  1  0.121173  0.869257  0.253888  1
  Pd  Pd18  1  0.128657  0.874271  0.746293  1
  Pb  Pb19  1  0.500000  0.000000  0.250000  1
