# generated using pymatgen
data_Np(TaB3)2
_symmetry_space_group_name_H-M   'P 1'
_cell_length_a   3.11230800
_cell_length_b   3.11230818
_cell_length_c   10.61172800
_cell_angle_alpha   90.00000000
_cell_angle_beta   90.00000000
_cell_angle_gamma   119.99999809
_symmetry_Int_Tables_number   1
_chemical_formula_structural   Np(TaB3)2
_chemical_formula_sum   'Np1 Ta2 B6'
_cell_volume   89.01883634
_cell_formula_units_Z   1
loop_
 _symmetry_equiv_pos_site_id
 _symmetry_equiv_pos_as_xyz
  1  'x, y, z'
loop_
 _atom_site_type_symbol
 _atom_site_label
 _atom_site_symmetry_multiplicity
 _atom_site_fract_x
 _atom_site_fract_y
 _atom_site_fract_z
 _atom_site_occupancy
  Np  Np0  1  0.000000  0.000000  0.000000  1
  Ta  Ta1  1  0.000000  0.000000  0.654173  1
  Ta  Ta2  1  0.000000  0.000000  0.345827  1
  B  B3  1  0.666667  0.333333  0.812998  1
  B  B4  1  0.666667  0.333333  0.500000  1
  B  B5  1  0.666667  0.333333  0.187002  1
  B  B6  1  0.333333  0.666667  0.812998  1
  B  B7  1  0.333333  0.666667  0.500000  1
  B  B8  1  0.333333  0.666667  0.187002  1
