# generated using pymatgen
data_Nb4ReS10
_symmetry_space_group_name_H-M   'P 1'
_cell_length_a   13.86849670
_cell_length_b   13.86849707
_cell_length_c   6.67843500
_cell_angle_alpha   78.48044389
_cell_angle_beta   78.48044358
_cell_angle_gamma   13.55864877
_symmetry_Int_Tables_number   1
_chemical_formula_structural   Nb4ReS10
_chemical_formula_sum   'Nb4 Re1 S10'
_cell_volume   294.98591783
_cell_formula_units_Z   1
loop_
 _symmetry_equiv_pos_site_id
 _symmetry_equiv_pos_as_xyz
  1  'x, y, z'
loop_
 _atom_site_type_symbol
 _atom_site_label
 _atom_site_symmetry_multiplicity
 _atom_site_fract_x
 _atom_site_fract_y
 _atom_site_fract_z
 _atom_site_occupancy
  Nb  Nb0  1  0.368659  0.368659  0.762197  1
  Nb  Nb1  1  0.767197  0.767197  0.965629  1
  Nb  Nb2  1  0.166512  0.166512  0.167785  1
  Nb  Nb3  1  0.565247  0.565247  0.369786  1
  Re  Re4  1  0.965077  0.965077  0.569467  1
  S  S5  1  0.512971  0.512971  0.713267  1
  S  S6  1  0.716473  0.716473  0.315220  1
  S  S7  1  0.115666  0.115666  0.516079  1
  S  S8  1  0.918523  0.918523  0.908249  1
  S  S9  1  0.317676  0.317676  0.109469  1
  S  S10  1  0.886061  0.886061  0.480980  1
  S  S11  1  0.285165  0.285165  0.684817  1
  S  S12  1  0.683596  0.683596  0.885351  1
  S  S13  1  0.083050  0.083050  0.086756  1
  S  S14  1  0.481430  0.481430  0.297847  1
