# generated using pymatgen
data_Tm2Lu2Al17GaIr6
_symmetry_space_group_name_H-M   'P 1'
_cell_length_a   7.52366859
_cell_length_b   7.52366928
_cell_length_c   9.44269100
_cell_angle_alpha   90.00000000
_cell_angle_beta   90.00000000
_cell_angle_gamma   119.50830380
_symmetry_Int_Tables_number   1
_chemical_formula_structural   Tm2Lu2Al17GaIr6
_chemical_formula_sum   'Tm2 Lu2 Al17 Ga1 Ir6'
_cell_volume   465.17491957
_cell_formula_units_Z   1
loop_
 _symmetry_equiv_pos_site_id
 _symmetry_equiv_pos_as_xyz
  1  'x, y, z'
loop_
 _atom_site_type_symbol
 _atom_site_label
 _atom_site_symmetry_multiplicity
 _atom_site_fract_x
 _atom_site_fract_y
 _atom_site_fract_z
 _atom_site_occupancy
  Tm  Tm0  1  0.994464  0.673388  0.250000  1
  Tm  Tm1  1  0.673388  0.994464  0.250000  1
  Lu  Lu2  1  0.004886  0.328721  0.750000  1
  Lu  Lu3  1  0.328721  0.004886  0.750000  1
  Al  Al4  1  0.871324  0.871324  0.750000  1
  Al  Al5  1  0.000995  0.335210  0.073438  1
  Al  Al6  1  0.999242  0.664732  0.924968  1
  Al  Al7  1  0.999242  0.664732  0.575032  1
  Al  Al8  1  0.335210  0.000995  0.426562  1
  Al  Al9  1  0.000995  0.335210  0.426562  1
  Al  Al10  1  0.664732  0.999242  0.575032  1
  Al  Al11  1  0.664732  0.999242  0.924968  1
  Al  Al12  1  0.335210  0.000995  0.073438  1
  Al  Al13  1  0.332965  0.332965  0.556162  1
  Al  Al14  1  0.666088  0.666088  0.446844  1
  Al  Al15  1  0.666088  0.666088  0.053156  1
  Al  Al16  1  0.332965  0.332965  0.943838  1
  Al  Al17  1  0.338214  0.549232  0.250000  1
  Al  Al18  1  0.661162  0.450978  0.750000  1
  Al  Al19  1  0.549232  0.338214  0.250000  1
  Al  Al20  1  0.450978  0.661162  0.750000  1
  Ga  Ga21  1  0.132564  0.132564  0.250000  1
  Ir  Ir22  1  0.671618  0.327255  0.000090  1
  Ir  Ir23  1  0.327255  0.671618  0.000090  1
  Ir  Ir24  1  0.327255  0.671618  0.499910  1
  Ir  Ir25  1  0.671618  0.327255  0.499910  1
  Ir  Ir26  1  0.999427  0.999427  0.997516  1
  Ir  Ir27  1  0.999427  0.999427  0.502484  1
