# generated using pymatgen
data_DyY3(Si2Tc)2
_symmetry_space_group_name_H-M   'P 1'
_cell_length_a   5.82015107
_cell_length_b   5.82015160
_cell_length_c   10.11988609
_cell_angle_alpha   63.50072297
_cell_angle_beta   63.50072020
_cell_angle_gamma   42.24687954
_symmetry_Int_Tables_number   1
_chemical_formula_structural   DyY3(Si2Tc)2
_chemical_formula_sum   'Dy1 Y3 Si4 Tc2'
_cell_volume   202.39920009
_cell_formula_units_Z   1
loop_
 _symmetry_equiv_pos_site_id
 _symmetry_equiv_pos_as_xyz
  1  'x, y, z'
loop_
 _atom_site_type_symbol
 _atom_site_label
 _atom_site_symmetry_multiplicity
 _atom_site_fract_x
 _atom_site_fract_y
 _atom_site_fract_z
 _atom_site_occupancy
  Dy  Dy0  1  0.995204  0.995204  0.676929  1
  Y  Y1  1  0.812719  0.812719  0.108528  1
  Y  Y2  1  0.187395  0.187395  0.891339  1
  Y  Y3  1  0.004968  0.004968  0.322961  1
  Si  Si4  1  0.500746  0.500746  0.122307  1
  Si  Si5  1  0.499264  0.499264  0.877635  1
  Si  Si6  1  0.644051  0.644051  0.438945  1
  Si  Si7  1  0.355937  0.355937  0.561250  1
  Tc  Tc8  1  0.272684  0.272684  0.370846  1
  Tc  Tc9  1  0.727032  0.727032  0.629260  1
