# generated using pymatgen
data_Na3SiB4Pt8Rh
_symmetry_space_group_name_H-M   'P 1'
_cell_length_a   6.49974625
_cell_length_b   6.49974716
_cell_length_c   15.31367000
_cell_angle_alpha   90.00000000
_cell_angle_beta   90.00000000
_cell_angle_gamma   128.87789995
_symmetry_Int_Tables_number   1
_chemical_formula_structural   Na3SiB4Pt8Rh
_chemical_formula_sum   'Na6 Si2 B8 Pt16 Rh2'
_cell_volume   503.64273033
_cell_formula_units_Z   2
loop_
 _symmetry_equiv_pos_site_id
 _symmetry_equiv_pos_as_xyz
  1  'x, y, z'
loop_
 _atom_site_type_symbol
 _atom_site_label
 _atom_site_symmetry_multiplicity
 _atom_site_fract_x
 _atom_site_fract_y
 _atom_site_fract_z
 _atom_site_occupancy
  Na  Na0  1  0.300798  0.699202  0.750000  1
  Na  Na1  1  0.699202  0.300798  0.250000  1
  Na  Na2  1  0.566387  0.433613  0.081927  1
  Na  Na3  1  0.433613  0.566387  0.918073  1
  Na  Na4  1  0.433613  0.566387  0.581927  1
  Na  Na5  1  0.566387  0.433613  0.418073  1
  Si  Si6  1  0.709505  0.290495  0.750000  1
  Si  Si7  1  0.290495  0.709505  0.250000  1
  B  B8  1  0.949782  0.050218  0.139782  1
  B  B9  1  0.050218  0.949782  0.860218  1
  B  B10  1  0.050218  0.949782  0.639782  1
  B  B11  1  0.949782  0.050218  0.360218  1
  B  B12  1  0.188860  0.811140  0.022968  1
  B  B13  1  0.811140  0.188860  0.977032  1
  B  B14  1  0.811140  0.188860  0.522968  1
  B  B15  1  0.188860  0.811140  0.477032  1
  Pt  Pt16  1  0.704880  0.809599  0.250000  1
  Pt  Pt17  1  0.809599  0.704880  0.750000  1
  Pt  Pt18  1  0.295120  0.190401  0.750000  1
  Pt  Pt19  1  0.190401  0.295120  0.250000  1
  Pt  Pt20  1  0.131285  0.868715  0.151973  1
  Pt  Pt21  1  0.868715  0.131285  0.848027  1
  Pt  Pt22  1  0.868715  0.131285  0.651973  1
  Pt  Pt23  1  0.131285  0.868715  0.348027  1
  Pt  Pt24  1  0.570791  0.929615  0.082400  1
  Pt  Pt25  1  0.929615  0.570791  0.917600  1
  Pt  Pt26  1  0.429209  0.070385  0.582400  1
  Pt  Pt27  1  0.070385  0.429209  0.417600  1
  Pt  Pt28  1  0.429209  0.070385  0.917600  1
  Pt  Pt29  1  0.070385  0.429209  0.082400  1
  Pt  Pt30  1  0.570791  0.929615  0.417600  1
  Pt  Pt31  1  0.929615  0.570791  0.582400  1
  Rh  Rh32  1  0.000000  0.000000  0.000000  1
  Rh  Rh33  1  0.000000  0.000000  0.500000  1
