# generated using pymatgen
data_Sr8Ti2RuRhO16
_symmetry_space_group_name_H-M   'P 1'
_cell_length_a   5.56055143
_cell_length_b   5.56109846
_cell_length_c   13.30098588
_cell_angle_alpha   102.07500333
_cell_angle_beta   102.08117326
_cell_angle_gamma   89.96133169
_symmetry_Int_Tables_number   1
_chemical_formula_structural   Sr8Ti2RuRhO16
_chemical_formula_sum   'Sr8 Ti2 Ru1 Rh1 O16'
_cell_volume   392.89528516
_cell_formula_units_Z   1
loop_
 _symmetry_equiv_pos_site_id
 _symmetry_equiv_pos_as_xyz
  1  'x, y, z'
loop_
 _atom_site_type_symbol
 _atom_site_label
 _atom_site_symmetry_multiplicity
 _atom_site_fract_x
 _atom_site_fract_y
 _atom_site_fract_z
 _atom_site_occupancy
  Sr  Sr0  1  0.820969  0.820956  0.641825  1
  Sr  Sr1  1  0.073637  0.573586  0.147372  1
  Sr  Sr2  1  0.179547  0.179508  0.358181  1
  Sr  Sr3  1  0.426367  0.926386  0.852627  1
  Sr  Sr4  1  0.321368  0.321370  0.643509  1
  Sr  Sr5  1  0.573215  0.073142  0.146780  1
  Sr  Sr6  1  0.678162  0.678175  0.356486  1
  Sr  Sr7  1  0.926726  0.426709  0.853219  1
  Ti  Ti8  1  0.249964  0.750034  0.500000  1
  Ti  Ti9  1  0.500099  0.500008  0.000002  1
  Ru  Ru10  1  0.999933  0.999812  0.000017  1
  Rh  Rh11  1  0.750013  0.250060  0.500013  1
  O  O12  1  0.007573  0.501269  0.499983  1
  O  O13  1  0.920926  0.921191  0.842434  1
  O  O14  1  0.078860  0.078699  0.157555  1
  O  O15  1  0.169710  0.668460  0.337819  1
  O  O16  1  0.330256  0.831554  0.662182  1
  O  O17  1  0.250280  0.747911  0.999949  1
  O  O18  1  0.252033  0.250292  0.999989  1
  O  O19  1  0.492434  0.998753  0.500023  1
  O  O20  1  0.498988  0.507733  0.500398  1
  O  O21  1  0.421863  0.421808  0.843621  1
  O  O22  1  0.578301  0.578487  0.156377  1
  O  O23  1  0.666884  0.168011  0.334384  1
  O  O24  1  0.833200  0.331978  0.665610  1
  O  O25  1  0.748037  0.749732  0.999998  1
  O  O26  1  0.749605  0.252117  0.000056  1
  O  O27  1  0.001049  0.992257  0.499592  1
