# generated using pymatgen
data_Dy8Cd2NiRu
_symmetry_space_group_name_H-M   'P 1'
_cell_length_a   9.57918482
_cell_length_b   9.57918472
_cell_length_c   9.63583700
_cell_angle_alpha   59.80416599
_cell_angle_beta   59.80416634
_cell_angle_gamma   59.67218896
_symmetry_Int_Tables_number   1
_chemical_formula_structural   Dy8Cd2NiRu
_chemical_formula_sum   'Dy16 Cd4 Ni2 Ru2'
_cell_volume   621.81120298
_cell_formula_units_Z   2
loop_
 _symmetry_equiv_pos_site_id
 _symmetry_equiv_pos_as_xyz
  1  'x, y, z'
loop_
 _atom_site_type_symbol
 _atom_site_label
 _atom_site_symmetry_multiplicity
 _atom_site_fract_x
 _atom_site_fract_y
 _atom_site_fract_z
 _atom_site_occupancy
  Dy  Dy0  1  0.599083  0.599083  0.594449  1
  Dy  Dy1  1  0.599083  0.599083  0.207385  1
  Dy  Dy2  1  0.601512  0.205765  0.596362  1
  Dy  Dy3  1  0.205765  0.601512  0.596362  1
  Dy  Dy4  1  0.061150  0.437232  0.439318  1
  Dy  Dy5  1  0.437232  0.061150  0.062299  1
  Dy  Dy6  1  0.437232  0.061150  0.439318  1
  Dy  Dy7  1  0.061150  0.437232  0.062299  1
  Dy  Dy8  1  0.437999  0.437999  0.062001  1
  Dy  Dy9  1  0.061019  0.061019  0.438981  1
  Dy  Dy10  1  0.187499  0.809452  0.816442  1
  Dy  Dy11  1  0.809452  0.187499  0.186607  1
  Dy  Dy12  1  0.809452  0.187499  0.816442  1
  Dy  Dy13  1  0.187499  0.809452  0.186607  1
  Dy  Dy14  1  0.815045  0.815045  0.184955  1
  Dy  Dy15  1  0.189580  0.189580  0.810420  1
  Cd  Cd16  1  0.829746  0.829746  0.831806  1
  Cd  Cd17  1  0.829746  0.829746  0.508702  1
  Cd  Cd18  1  0.830311  0.506562  0.831563  1
  Cd  Cd19  1  0.506562  0.830311  0.831563  1
  Ni  Ni20  1  0.392718  0.825079  0.391101  1
  Ni  Ni21  1  0.825079  0.392718  0.391101  1
  Ru  Ru22  1  0.393042  0.393042  0.389239  1
  Ru  Ru23  1  0.393042  0.393042  0.824676  1
