# generated using pymatgen
data_Ta8Fe2CuGe
_symmetry_space_group_name_H-M   'P 1'
_cell_length_a   6.21328100
_cell_length_b   6.21328100
_cell_length_c   5.07564300
_cell_angle_alpha   90.00000000
_cell_angle_beta   90.00000000
_cell_angle_gamma   90.00000000
_symmetry_Int_Tables_number   1
_chemical_formula_structural   Ta8Fe2CuGe
_chemical_formula_sum   'Ta8 Fe2 Cu1 Ge1'
_cell_volume   195.94449141
_cell_formula_units_Z   1
loop_
 _symmetry_equiv_pos_site_id
 _symmetry_equiv_pos_as_xyz
  1  'x, y, z'
loop_
 _atom_site_type_symbol
 _atom_site_label
 _atom_site_symmetry_multiplicity
 _atom_site_fract_x
 _atom_site_fract_y
 _atom_site_fract_z
 _atom_site_occupancy
  Ta  Ta0  1  0.329502  0.149100  0.502899  1
  Ta  Ta1  1  0.670498  0.850900  0.502899  1
  Ta  Ta2  1  0.149100  0.670498  0.502899  1
  Ta  Ta3  1  0.850900  0.329502  0.502899  1
  Ta  Ta4  1  0.329502  0.850900  0.997101  1
  Ta  Ta5  1  0.850900  0.670498  0.997101  1
  Ta  Ta6  1  0.149100  0.329502  0.997101  1
  Ta  Ta7  1  0.670498  0.149100  0.997101  1
  Fe  Fe8  1  0.000000  0.000000  0.750000  1
  Fe  Fe9  1  0.000000  0.000000  0.250000  1
  Cu  Cu10  1  0.500000  0.500000  0.750000  1
  Ge  Ge11  1  0.500000  0.500000  0.250000  1
