# generated using pymatgen
data_Ho3IrPdRu
_symmetry_space_group_name_H-M   'P 1'
_cell_length_a   3.40612300
_cell_length_b   3.40612300
_cell_length_c   10.45197400
_cell_angle_alpha   90.00000000
_cell_angle_beta   90.00000000
_cell_angle_gamma   90.00000000
_symmetry_Int_Tables_number   1
_chemical_formula_structural   Ho3IrPdRu
_chemical_formula_sum   'Ho3 Ir1 Pd1 Ru1'
_cell_volume   121.26039387
_cell_formula_units_Z   1
loop_
 _symmetry_equiv_pos_site_id
 _symmetry_equiv_pos_as_xyz
  1  'x, y, z'
loop_
 _atom_site_type_symbol
 _atom_site_label
 _atom_site_symmetry_multiplicity
 _atom_site_fract_x
 _atom_site_fract_y
 _atom_site_fract_z
 _atom_site_occupancy
  Ho  Ho0  1  0.000000  0.000000  0.995755  1
  Ho  Ho1  1  0.000000  0.000000  0.324864  1
  Ho  Ho2  1  0.000000  0.000000  0.678000  1
  Ir  Ir3  1  0.500001  0.500001  0.168675  1
  Pd  Pd4  1  0.500001  0.500001  0.500528  1
  Ru  Ru5  1  0.500001  0.500001  0.832178  1
