# generated using pymatgen
data_SrPr2Ho(Ir2O7)2
_symmetry_space_group_name_H-M   'P 1'
_cell_length_a   7.37602302
_cell_length_b   7.38171064
_cell_length_c   7.42407800
_cell_angle_alpha   59.80995643
_cell_angle_beta   59.78424966
_cell_angle_gamma   59.74785492
_symmetry_Int_Tables_number   1
_chemical_formula_structural   SrPr2Ho(Ir2O7)2
_chemical_formula_sum   'Sr1 Pr2 Ho1 Ir4 O14'
_cell_volume   284.40597360
_cell_formula_units_Z   1
loop_
 _symmetry_equiv_pos_site_id
 _symmetry_equiv_pos_as_xyz
  1  'x, y, z'
loop_
 _atom_site_type_symbol
 _atom_site_label
 _atom_site_symmetry_multiplicity
 _atom_site_fract_x
 _atom_site_fract_y
 _atom_site_fract_z
 _atom_site_occupancy
  Sr  Sr0  1  0.125000  0.625000  0.125000  1
  Pr  Pr1  1  0.125000  0.125000  0.625000  1
  Pr  Pr2  1  0.125000  0.125000  0.125000  1
  Ho  Ho3  1  0.625000  0.125000  0.125000  1
  Ir  Ir4  1  0.625000  0.625000  0.625000  1
  Ir  Ir5  1  0.125000  0.625000  0.625000  1
  Ir  Ir6  1  0.625000  0.125000  0.625000  1
  Ir  Ir7  1  0.625000  0.625000  0.125000  1
  O  O8  1  0.951544  0.542476  0.553381  1
  O  O9  1  0.295901  0.292918  0.705591  1
  O  O10  1  0.951544  0.542476  0.952600  1
  O  O11  1  0.696748  0.293303  0.295493  1
  O  O12  1  0.562783  0.531294  0.952962  1
  O  O13  1  0.553252  0.956697  0.535545  1
  O  O14  1  0.553252  0.956697  0.954507  1
  O  O15  1  0.267609  0.234946  0.248723  1
  O  O16  1  0.298456  0.707524  0.696619  1
  O  O17  1  0.696748  0.293303  0.714455  1
  O  O18  1  0.982391  0.015054  0.001277  1
  O  O19  1  0.954099  0.957082  0.544409  1
  O  O20  1  0.298456  0.707524  0.297400  1
  O  O21  1  0.687217  0.718706  0.297038  1
