# generated using pymatgen
data_Tb2Dy3Sn4
_symmetry_space_group_name_H-M   'P 1'
_cell_length_a   8.06064800
_cell_length_b   8.20500600
_cell_length_c   15.51451600
_cell_angle_alpha   90.00000000
_cell_angle_beta   90.00000000
_cell_angle_gamma   90.00000000
_symmetry_Int_Tables_number   1
_chemical_formula_structural   Tb2Dy3Sn4
_chemical_formula_sum   'Tb8 Dy12 Sn16'
_cell_volume   1026.09386501
_cell_formula_units_Z   4
loop_
 _symmetry_equiv_pos_site_id
 _symmetry_equiv_pos_as_xyz
  1  'x, y, z'
loop_
 _atom_site_type_symbol
 _atom_site_label
 _atom_site_symmetry_multiplicity
 _atom_site_fract_x
 _atom_site_fract_y
 _atom_site_fract_z
 _atom_site_occupancy
  Tb  Tb0  1  0.520335  0.319622  0.902181  1
  Tb  Tb1  1  0.020335  0.180378  0.597819  1
  Tb  Tb2  1  0.479665  0.680378  0.402181  1
  Tb  Tb3  1  0.979665  0.819622  0.097819  1
  Tb  Tb4  1  0.479665  0.680378  0.097819  1
  Tb  Tb5  1  0.979665  0.819622  0.402181  1
  Tb  Tb6  1  0.520335  0.319622  0.597819  1
  Tb  Tb7  1  0.020335  0.180378  0.902181  1
  Dy  Dy8  1  0.367692  0.835593  0.878390  1
  Dy  Dy9  1  0.867692  0.664407  0.621610  1
  Dy  Dy10  1  0.632308  0.164407  0.378390  1
  Dy  Dy11  1  0.132308  0.335593  0.121610  1
  Dy  Dy12  1  0.632308  0.164407  0.121610  1
  Dy  Dy13  1  0.132308  0.335593  0.378390  1
  Dy  Dy14  1  0.367692  0.835593  0.621610  1
  Dy  Dy15  1  0.867692  0.664407  0.878390  1
  Dy  Dy16  1  0.198234  0.502524  0.750000  1
  Dy  Dy17  1  0.698234  0.997476  0.750000  1
  Dy  Dy18  1  0.801766  0.497476  0.250000  1
  Dy  Dy19  1  0.301766  0.002524  0.250000  1
  Sn  Sn20  1  0.292253  0.034290  0.042067  1
  Sn  Sn21  1  0.792253  0.465710  0.457933  1
  Sn  Sn22  1  0.707747  0.965710  0.542067  1
  Sn  Sn23  1  0.207747  0.534290  0.957933  1
  Sn  Sn24  1  0.707747  0.965710  0.957933  1
  Sn  Sn25  1  0.207747  0.534290  0.542067  1
  Sn  Sn26  1  0.292253  0.034290  0.457933  1
  Sn  Sn27  1  0.792253  0.465710  0.042067  1
  Sn  Sn28  1  0.565175  0.619271  0.750000  1
  Sn  Sn29  1  0.065175  0.880729  0.750000  1
  Sn  Sn30  1  0.434825  0.380729  0.250000  1
  Sn  Sn31  1  0.934825  0.119271  0.250000  1
  Sn  Sn32  1  0.328152  0.145520  0.750000  1
  Sn  Sn33  1  0.828152  0.354480  0.750000  1
  Sn  Sn34  1  0.671848  0.854480  0.250000  1
  Sn  Sn35  1  0.171848  0.645520  0.250000  1
