# generated using pymatgen
data_Li8Sc8Sn7Pb
_symmetry_space_group_name_H-M   'P 1'
_cell_length_a   9.23723581
_cell_length_b   9.23568458
_cell_length_c   6.63414857
_cell_angle_alpha   89.99936005
_cell_angle_beta   90.00436272
_cell_angle_gamma   119.99837951
_symmetry_Int_Tables_number   1
_chemical_formula_structural   Li8Sc8Sn7Pb
_chemical_formula_sum   'Li8 Sc8 Sn7 Pb1'
_cell_volume   490.15567781
_cell_formula_units_Z   1
loop_
 _symmetry_equiv_pos_site_id
 _symmetry_equiv_pos_as_xyz
  1  'x, y, z'
loop_
 _atom_site_type_symbol
 _atom_site_label
 _atom_site_symmetry_multiplicity
 _atom_site_fract_x
 _atom_site_fract_y
 _atom_site_fract_z
 _atom_site_occupancy
  Li  Li0  1  0.833391  0.166649  0.245058  1
  Li  Li1  1  0.832374  0.666049  0.236532  1
  Li  Li2  1  0.333913  0.167581  0.237388  1
  Li  Li3  1  0.166518  0.833387  0.739934  1
  Li  Li4  1  0.167888  0.334029  0.734589  1
  Li  Li5  1  0.665990  0.832156  0.734436  1
  Li  Li6  1  0.665976  0.333972  0.765186  1
  Li  Li7  1  0.333902  0.666170  0.262977  1
  Sc  Sc8  1  0.497473  0.502371  0.003194  1
  Sc  Sc9  1  0.495332  0.994129  0.004289  1
  Sc  Sc10  1  0.005914  0.504581  0.004262  1
  Sc  Sc11  1  0.502547  0.497609  0.503073  1
  Sc  Sc12  1  0.498287  0.002626  0.502753  1
  Sc  Sc13  1  0.997376  0.501732  0.502663  1
  Sc  Sc14  1  0.001183  0.999009  0.003203  1
  Sc  Sc15  1  0.001937  0.997862  0.501446  1
  Sn  Sn16  1  0.832911  0.666565  0.760755  1
  Sn  Sn17  1  0.333314  0.167014  0.760869  1
  Sn  Sn18  1  0.166591  0.833393  0.260445  1
  Sn  Sn19  1  0.166372  0.333072  0.260663  1
  Sn  Sn20  1  0.667057  0.833744  0.260434  1
  Sn  Sn21  1  0.666879  0.333119  0.256451  1
  Sn  Sn22  1  0.333505  0.666472  0.756468  1
  Pb  Pb23  1  0.833368  0.166707  0.760413  1
