# generated using pymatgen
data_RbPaAs2O7
_symmetry_space_group_name_H-M   'P 1'
_cell_length_a   7.21215244
_cell_length_b   6.98786222
_cell_length_c   9.97419149
_cell_angle_alpha   104.15552083
_cell_angle_beta   113.04813168
_cell_angle_gamma   92.38647484
_symmetry_Int_Tables_number   1
_chemical_formula_structural   RbPaAs2O7
_chemical_formula_sum   'Rb2 Pa2 As4 O14'
_cell_volume   443.15547404
_cell_formula_units_Z   2
loop_
 _symmetry_equiv_pos_site_id
 _symmetry_equiv_pos_as_xyz
  1  'x, y, z'
loop_
 _atom_site_type_symbol
 _atom_site_label
 _atom_site_symmetry_multiplicity
 _atom_site_fract_x
 _atom_site_fract_y
 _atom_site_fract_z
 _atom_site_occupancy
  Rb  Rb0  1  0.000000  0.000000  0.000000  1
  Rb  Rb1  1  0.000000  0.000000  0.500000  1
  Pa  Pa2  1  0.608701  0.348436  0.754813  1
  Pa  Pa3  1  0.391299  0.651564  0.245187  1
  As  As4  1  0.134883  0.508984  0.801747  1
  As  As5  1  0.865117  0.491016  0.198253  1
  As  As6  1  0.460183  0.798218  0.639636  1
  As  As7  1  0.539817  0.201782  0.360364  1
  O  O8  1  0.299064  0.355702  0.756158  1
  O  O9  1  0.452252  0.244701  0.512018  1
  O  O10  1  0.609276  0.040881  0.755489  1
  O  O11  1  0.380887  0.345709  0.245892  1
  O  O12  1  0.091768  0.656667  0.267567  1
  O  O13  1  0.908232  0.343333  0.732433  1
  O  O14  1  0.390724  0.959119  0.244511  1
  O  O15  1  0.700936  0.644298  0.243842  1
  O  O16  1  0.547748  0.755299  0.487982  1
  O  O17  1  0.886205  0.284635  0.255274  1
  O  O18  1  0.619113  0.654291  0.754109  1
  O  O19  1  0.113795  0.715365  0.744726  1
  O  O20  1  0.225676  0.568039  0.999795  1
  O  O21  1  0.774324  0.431961  0.000205  1
