# generated using pymatgen
data_Ba9Np(PN5)2
_symmetry_space_group_name_H-M   'P 1'
_cell_length_a   7.69438694
_cell_length_b   7.69438608
_cell_length_c   8.74665100
_cell_angle_alpha   75.84247065
_cell_angle_beta   75.84247995
_cell_angle_gamma   93.88346474
_symmetry_Int_Tables_number   1
_chemical_formula_structural   Ba9Np(PN5)2
_chemical_formula_sum   'Ba9 Np1 P2 N10'
_cell_volume   482.35322525
_cell_formula_units_Z   1
loop_
 _symmetry_equiv_pos_site_id
 _symmetry_equiv_pos_as_xyz
  1  'x, y, z'
loop_
 _atom_site_type_symbol
 _atom_site_label
 _atom_site_symmetry_multiplicity
 _atom_site_fract_x
 _atom_site_fract_y
 _atom_site_fract_z
 _atom_site_occupancy
  Ba  Ba0  1  0.616442  0.616442  0.623505  1
  Ba  Ba1  1  0.682234  0.682234  0.991055  1
  Ba  Ba2  1  0.326085  0.326085  0.001581  1
  Ba  Ba3  1  0.928884  0.928884  0.216554  1
  Ba  Ba4  1  0.073696  0.073696  0.776397  1
  Ba  Ba5  1  0.567342  0.090705  0.740791  1
  Ba  Ba6  1  0.916651  0.423312  0.267260  1
  Ba  Ba7  1  0.423312  0.916651  0.267260  1
  Ba  Ba8  1  0.090705  0.567342  0.740791  1
  Np  Np9  1  0.417602  0.417602  0.352712  1
  P  P10  1  0.754193  0.243160  0.006541  1
  P  P11  1  0.243160  0.754193  0.006541  1
  N  N12  1  0.619561  0.619561  0.322765  1
  N  N13  1  0.357687  0.357687  0.614361  1
  N  N14  1  0.712082  0.029087  0.007931  1
  N  N15  1  0.967521  0.276159  0.014674  1
  N  N16  1  0.276159  0.967521  0.014674  1
  N  N17  1  0.029087  0.712082  0.007931  1
  N  N18  1  0.380249  0.724638  0.838257  1
  N  N19  1  0.284898  0.607812  0.175081  1
  N  N20  1  0.607812  0.284898  0.175081  1
  N  N21  1  0.724638  0.380249  0.838257  1
