# generated using pymatgen
data_Li4SnBi3Rh8
_symmetry_space_group_name_H-M   'P 1'
_cell_length_a   4.46346000
_cell_length_b   6.28871300
_cell_length_c   8.98202200
_cell_angle_alpha   89.99998257
_cell_angle_beta   89.99811877
_cell_angle_gamma   89.99928801
_symmetry_Int_Tables_number   1
_chemical_formula_structural   Li4SnBi3Rh8
_chemical_formula_sum   'Li4 Sn1 Bi3 Rh8'
_cell_volume   252.12013839
_cell_formula_units_Z   1
loop_
 _symmetry_equiv_pos_site_id
 _symmetry_equiv_pos_as_xyz
  1  'x, y, z'
loop_
 _atom_site_type_symbol
 _atom_site_label
 _atom_site_symmetry_multiplicity
 _atom_site_fract_x
 _atom_site_fract_y
 _atom_site_fract_z
 _atom_site_occupancy
  Li  Li0  1  0.250028  0.749978  0.125004  1
  Li  Li1  1  0.750006  0.249969  0.371831  1
  Li  Li2  1  0.250035  0.750004  0.625024  1
  Li  Li3  1  0.750011  0.250064  0.878055  1
  Sn  Sn4  1  0.249824  0.250013  0.125168  1
  Bi  Bi5  1  0.750032  0.749996  0.371779  1
  Bi  Bi6  1  0.250033  0.249997  0.624962  1
  Bi  Bi7  1  0.750037  0.750003  0.878220  1
  Rh  Rh8  1  0.749884  0.494152  0.124960  1
  Rh  Rh9  1  0.749933  0.005833  0.124948  1
  Rh  Rh10  1  0.250032  0.003039  0.372493  1
  Rh  Rh11  1  0.250017  0.496938  0.372497  1
  Rh  Rh12  1  0.749986  0.501784  0.624973  1
  Rh  Rh13  1  0.750081  0.998215  0.624988  1
  Rh  Rh14  1  0.250045  0.003261  0.877550  1
  Rh  Rh15  1  0.250024  0.496752  0.877548  1
