# generated using pymatgen
data_Tb3LuCS3
_symmetry_space_group_name_H-M   'P 1'
_cell_length_a   6.75117549
_cell_length_b   6.75117587
_cell_length_c   6.74118700
_cell_angle_alpha   79.73425288
_cell_angle_beta   79.73425229
_cell_angle_gamma   32.72521087
_symmetry_Int_Tables_number   1
_chemical_formula_structural   Tb3LuCS3
_chemical_formula_sum   'Tb3 Lu1 C1 S3'
_cell_volume   163.21357091
_cell_formula_units_Z   1
loop_
 _symmetry_equiv_pos_site_id
 _symmetry_equiv_pos_as_xyz
  1  'x, y, z'
loop_
 _atom_site_type_symbol
 _atom_site_label
 _atom_site_symmetry_multiplicity
 _atom_site_fract_x
 _atom_site_fract_y
 _atom_site_fract_z
 _atom_site_occupancy
  Tb  Tb0  1  0.233179  0.233179  0.231138  1
  Tb  Tb1  1  0.508976  0.508976  0.466950  1
  Tb  Tb2  1  0.740999  0.740999  0.782222  1
  Lu  Lu3  1  0.017545  0.017545  0.020295  1
  C  C4  1  0.621938  0.621938  0.121628  1
  S  S5  1  0.870365  0.870365  0.371779  1
  S  S6  1  0.123161  0.123161  0.629990  1
  S  S7  1  0.383834  0.383834  0.875999  1
