# generated using pymatgen
data_CeDy15(InCo)4
_symmetry_space_group_name_H-M   'P 1'
_cell_length_a   9.49050575
_cell_length_b   9.56170204
_cell_length_c   9.49050700
_cell_angle_alpha   60.24600617
_cell_angle_beta   59.99999912
_cell_angle_gamma   60.24600646
_symmetry_Int_Tables_number   1
_chemical_formula_structural   CeDy15(InCo)4
_chemical_formula_sum   'Ce1 Dy15 In4 Co4'
_cell_volume   611.22890102
_cell_formula_units_Z   1
loop_
 _symmetry_equiv_pos_site_id
 _symmetry_equiv_pos_as_xyz
  1  'x, y, z'
loop_
 _atom_site_type_symbol
 _atom_site_label
 _atom_site_symmetry_multiplicity
 _atom_site_fract_x
 _atom_site_fract_y
 _atom_site_fract_z
 _atom_site_occupancy
  Ce  Ce0  1  0.161006  0.516983  0.161006  1
  Dy  Dy1  1  0.687559  0.313433  0.687559  1
  Dy  Dy2  1  0.687559  0.313433  0.311450  1
  Dy  Dy3  1  0.939821  0.559765  0.560592  1
  Dy  Dy4  1  0.544100  0.150060  0.152920  1
  Dy  Dy5  1  0.152920  0.150060  0.544100  1
  Dy  Dy6  1  0.938695  0.936611  0.562347  1
  Dy  Dy7  1  0.311886  0.690615  0.311886  1
  Dy  Dy8  1  0.562347  0.936611  0.938695  1
  Dy  Dy9  1  0.562347  0.936611  0.562347  1
  Dy  Dy10  1  0.685613  0.690615  0.311886  1
  Dy  Dy11  1  0.560592  0.559765  0.939821  1
  Dy  Dy12  1  0.939821  0.559765  0.939821  1
  Dy  Dy13  1  0.311886  0.690615  0.685613  1
  Dy  Dy14  1  0.152920  0.150060  0.152920  1
  Dy  Dy15  1  0.311450  0.313433  0.687559  1
  In  In16  1  0.917374  0.247878  0.917374  1
  In  In17  1  0.918053  0.916785  0.918053  1
  In  In18  1  0.918053  0.916785  0.247110  1
  In  In19  1  0.247110  0.916785  0.918053  1
  Co  Co20  1  0.349782  0.370046  0.930391  1
  Co  Co21  1  0.358935  0.923194  0.358935  1
  Co  Co22  1  0.930391  0.370046  0.349782  1
  Co  Co23  1  0.349782  0.370046  0.349782  1
