# generated using pymatgen
data_LaNdPa2(Zn5Sn)2
_symmetry_space_group_name_H-M   'P 1'
_cell_length_a   8.48655364
_cell_length_b   8.48655251
_cell_length_c   8.97454628
_cell_angle_alpha   89.56300898
_cell_angle_beta   90.43699170
_cell_angle_gamma   149.37171457
_symmetry_Int_Tables_number   1
_chemical_formula_structural   LaNdPa2(Zn5Sn)2
_chemical_formula_sum   'La1 Nd1 Pa2 Zn10 Sn2'
_cell_volume   329.28885377
_cell_formula_units_Z   1
loop_
 _symmetry_equiv_pos_site_id
 _symmetry_equiv_pos_as_xyz
  1  'x, y, z'
loop_
 _atom_site_type_symbol
 _atom_site_label
 _atom_site_symmetry_multiplicity
 _atom_site_fract_x
 _atom_site_fract_y
 _atom_site_fract_z
 _atom_site_occupancy
  La  La0  1  0.000000  0.000000  0.500000  1
  Nd  Nd1  1  0.000000  0.000000  0.000000  1
  Pa  Pa2  1  0.207101  0.792899  0.249993  1
  Pa  Pa3  1  0.792899  0.207101  0.750007  1
  Zn  Zn4  1  0.811854  0.188146  0.393624  1
  Zn  Zn5  1  0.188146  0.811854  0.606376  1
  Zn  Zn6  1  0.812621  0.187379  0.106821  1
  Zn  Zn7  1  0.187379  0.812621  0.893179  1
  Zn  Zn8  1  0.659300  0.340700  0.480759  1
  Zn  Zn9  1  0.340700  0.659300  0.519241  1
  Zn  Zn10  1  0.659148  0.340852  0.019015  1
  Zn  Zn11  1  0.340852  0.659148  0.980985  1
  Zn  Zn12  1  0.393891  0.606109  0.249856  1
  Zn  Zn13  1  0.606109  0.393891  0.750144  1
  Sn  Sn14  1  0.557419  0.442581  0.248346  1
  Sn  Sn15  1  0.442581  0.557419  0.751654  1
