# generated using pymatgen
data_Dy2TaSb5O18
_symmetry_space_group_name_H-M   'P 1'
_cell_length_a   7.52301859
_cell_length_b   5.37142659
_cell_length_c   8.21192557
_cell_angle_alpha   86.22658216
_cell_angle_beta   89.84439651
_cell_angle_gamma   90.03460553
_symmetry_Int_Tables_number   1
_chemical_formula_structural   Dy2TaSb5O18
_chemical_formula_sum   'Dy2 Ta1 Sb5 O18'
_cell_volume   331.11779683
_cell_formula_units_Z   1
loop_
 _symmetry_equiv_pos_site_id
 _symmetry_equiv_pos_as_xyz
  1  'x, y, z'
loop_
 _atom_site_type_symbol
 _atom_site_label
 _atom_site_symmetry_multiplicity
 _atom_site_fract_x
 _atom_site_fract_y
 _atom_site_fract_z
 _atom_site_occupancy
  Dy  Dy0  1  0.249624  0.966307  0.431736  1
  Dy  Dy1  1  0.750376  0.033693  0.568264  1
  Ta  Ta2  1  0.500000  0.000000  0.000000  1
  Sb  Sb3  1  0.000000  0.000000  0.000000  1
  Sb  Sb4  1  0.005482  0.530725  0.696790  1
  Sb  Sb5  1  0.494839  0.534344  0.695008  1
  Sb  Sb6  1  0.994518  0.469275  0.303210  1
  Sb  Sb7  1  0.505161  0.465656  0.304992  1
  O  O8  1  0.250210  0.899208  0.985223  1
  O  O9  1  0.938026  0.857995  0.778995  1
  O  O10  1  0.563880  0.854995  0.779944  1
  O  O11  1  0.959142  0.738438  0.472664  1
  O  O12  1  0.540747  0.738746  0.470597  1
  O  O13  1  0.249987  0.669944  0.655026  1
  O  O14  1  0.930447  0.674332  0.113809  1
  O  O15  1  0.556805  0.679955  0.117550  1
  O  O16  1  0.249510  0.592163  0.311163  1
  O  O17  1  0.750490  0.407837  0.688837  1
  O  O18  1  0.069553  0.325668  0.886191  1
  O  O19  1  0.443195  0.320045  0.882450  1
  O  O20  1  0.750013  0.330056  0.344974  1
  O  O21  1  0.040858  0.261562  0.527336  1
  O  O22  1  0.459253  0.261254  0.529403  1
  O  O23  1  0.061974  0.142005  0.221005  1
  O  O24  1  0.436120  0.145005  0.220056  1
  O  O25  1  0.749790  0.100792  0.014777  1
