# generated using pymatgen
data_Ho4Al2ZnGaPd4
_symmetry_space_group_name_H-M   'P 1'
_cell_length_a   4.42764900
_cell_length_b   6.83972609
_cell_length_c   7.79922567
_cell_angle_alpha   89.67336069
_cell_angle_beta   90.00000000
_cell_angle_gamma   90.00000000
_symmetry_Int_Tables_number   1
_chemical_formula_structural   Ho4Al2ZnGaPd4
_chemical_formula_sum   'Ho4 Al2 Zn1 Ga1 Pd4'
_cell_volume   236.18718203
_cell_formula_units_Z   1
loop_
 _symmetry_equiv_pos_site_id
 _symmetry_equiv_pos_as_xyz
  1  'x, y, z'
loop_
 _atom_site_type_symbol
 _atom_site_label
 _atom_site_symmetry_multiplicity
 _atom_site_fract_x
 _atom_site_fract_y
 _atom_site_fract_z
 _atom_site_occupancy
  Ho  Ho0  1  0.250000  0.029998  0.688946  1
  Ho  Ho1  1  0.250000  0.532104  0.818941  1
  Ho  Ho2  1  0.750000  0.968361  0.312717  1
  Ho  Ho3  1  0.750000  0.466974  0.179059  1
  Al  Al4  1  0.250000  0.647501  0.438248  1
  Al  Al5  1  0.750000  0.355968  0.560348  1
  Zn  Zn6  1  0.250000  0.153919  0.065355  1
  Ga  Ga7  1  0.750000  0.848222  0.937316  1
  Pd  Pd8  1  0.250000  0.271726  0.389719  1
  Pd  Pd9  1  0.250000  0.763838  0.120556  1
  Pd  Pd10  1  0.750000  0.729433  0.613565  1
  Pd  Pd11  1  0.750000  0.231958  0.875229  1
