# generated using pymatgen
data_Dy3Lu(Sc4Bi3)4
_symmetry_space_group_name_H-M   'P 1'
_cell_length_a   7.88943534
_cell_length_b   9.07312700
_cell_length_c   11.55728050
_cell_angle_alpha   90.00000000
_cell_angle_beta   90.03369173
_cell_angle_gamma   90.00000000
_symmetry_Int_Tables_number   1
_chemical_formula_structural   Dy3Lu(Sc4Bi3)4
_chemical_formula_sum   'Dy3 Lu1 Sc16 Bi12'
_cell_volume   827.29136231
_cell_formula_units_Z   1
loop_
 _symmetry_equiv_pos_site_id
 _symmetry_equiv_pos_as_xyz
  1  'x, y, z'
loop_
 _atom_site_type_symbol
 _atom_site_label
 _atom_site_symmetry_multiplicity
 _atom_site_fract_x
 _atom_site_fract_y
 _atom_site_fract_z
 _atom_site_occupancy
  Dy  Dy0  1  0.815329  0.250000  0.281122  1
  Dy  Dy1  1  0.684580  0.750000  0.781140  1
  Dy  Dy2  1  0.184543  0.750000  0.718856  1
  Lu  Lu3  1  0.315019  0.250000  0.218223  1
  Sc  Sc4  1  0.348535  0.750000  0.220483  1
  Sc  Sc5  1  0.848668  0.750000  0.279424  1
  Sc  Sc6  1  0.651341  0.250000  0.779532  1
  Sc  Sc7  1  0.151522  0.250000  0.720465  1
  Sc  Sc8  1  0.693290  0.567150  0.061890  1
  Sc  Sc9  1  0.193054  0.932940  0.437967  1
  Sc  Sc10  1  0.306862  0.067106  0.938314  1
  Sc  Sc11  1  0.807003  0.432916  0.561911  1
  Sc  Sc12  1  0.306862  0.432894  0.938314  1
  Sc  Sc13  1  0.807003  0.067084  0.561911  1
  Sc  Sc14  1  0.693290  0.932850  0.061890  1
  Sc  Sc15  1  0.193054  0.567060  0.437967  1
  Sc  Sc16  1  0.481352  0.250000  0.488542  1
  Sc  Sc17  1  0.982136  0.250000  0.011464  1
  Sc  Sc18  1  0.518113  0.750000  0.511104  1
  Sc  Sc19  1  0.018412  0.750000  0.988958  1
  Bi  Bi20  1  0.402417  0.750000  0.966902  1
  Bi  Bi21  1  0.902257  0.750000  0.533098  1
  Bi  Bi22  1  0.596571  0.250000  0.034096  1
  Bi  Bi23  1  0.098183  0.250000  0.466433  1
  Bi  Bi24  1  0.563101  0.990464  0.328012  1
  Bi  Bi25  1  0.064944  0.509290  0.171902  1
  Bi  Bi26  1  0.436186  0.489751  0.671693  1
  Bi  Bi27  1  0.936070  0.010274  0.828390  1
  Bi  Bi28  1  0.436186  0.010249  0.671693  1
  Bi  Bi29  1  0.936070  0.489726  0.828390  1
  Bi  Bi30  1  0.563101  0.509536  0.328012  1
  Bi  Bi31  1  0.064944  0.990710  0.171902  1
