# generated using pymatgen
data_ErLu4In2Sb
_symmetry_space_group_name_H-M   'P 1'
_cell_length_a   6.45300501
_cell_length_b   8.81565257
_cell_length_c   8.78135820
_cell_angle_alpha   119.78988307
_cell_angle_beta   90.00318434
_cell_angle_gamma   90.00269807
_symmetry_Int_Tables_number   1
_chemical_formula_structural   ErLu4In2Sb
_chemical_formula_sum   'Er2 Lu8 In4 Sb2'
_cell_volume   433.53525910
_cell_formula_units_Z   2
loop_
 _symmetry_equiv_pos_site_id
 _symmetry_equiv_pos_as_xyz
  1  'x, y, z'
loop_
 _atom_site_type_symbol
 _atom_site_label
 _atom_site_symmetry_multiplicity
 _atom_site_fract_x
 _atom_site_fract_y
 _atom_site_fract_z
 _atom_site_occupancy
  Er  Er0  1  0.750538  0.233015  0.994917  1
  Er  Er1  1  0.750519  0.766320  0.759113  1
  Lu  Lu2  1  0.494858  0.333728  0.668766  1
  Lu  Lu3  1  0.495678  0.666652  0.335248  1
  Lu  Lu4  1  0.004405  0.666458  0.335347  1
  Lu  Lu5  1  0.005231  0.333915  0.668758  1
  Lu  Lu6  1  0.750094  0.000065  0.233515  1
  Lu  Lu7  1  0.250070  0.765024  0.001518  1
  Lu  Lu8  1  0.250064  0.232739  0.235354  1
  Lu  Lu9  1  0.250090  0.999973  0.764875  1
  In  In10  1  0.749473  0.001079  0.593882  1
  In  In11  1  0.249502  0.397848  0.004055  1
  In  In12  1  0.250360  0.602444  0.604758  1
  In  In13  1  0.248871  0.999768  0.401502  1
  Sb  Sb14  1  0.750196  0.606357  0.001735  1
  Sb  Sb15  1  0.750051  0.394615  0.396656  1
