# generated using pymatgen
data_NdSb(AuCl6)2
_symmetry_space_group_name_H-M   'P 1'
_cell_length_a   8.13261622
_cell_length_b   10.01425436
_cell_length_c   14.08729200
_cell_angle_alpha   102.86542216
_cell_angle_beta   97.53616078
_cell_angle_gamma   112.99556840
_symmetry_Int_Tables_number   1
_chemical_formula_structural   NdSb(AuCl6)2
_chemical_formula_sum   'Nd2 Sb2 Au4 Cl24'
_cell_volume   998.73581084
_cell_formula_units_Z   2
loop_
 _symmetry_equiv_pos_site_id
 _symmetry_equiv_pos_as_xyz
  1  'x, y, z'
loop_
 _atom_site_type_symbol
 _atom_site_label
 _atom_site_symmetry_multiplicity
 _atom_site_fract_x
 _atom_site_fract_y
 _atom_site_fract_z
 _atom_site_occupancy
  Nd  Nd0  1  0.974823  0.317385  0.872113  1
  Nd  Nd1  1  0.025177  0.682615  0.127887  1
  Sb  Sb2  1  0.603208  0.938036  0.621657  1
  Sb  Sb3  1  0.396792  0.061964  0.378343  1
  Au  Au4  1  0.286932  0.632790  0.765564  1
  Au  Au5  1  0.713068  0.367210  0.234436  1
  Au  Au6  1  0.500000  0.500000  0.500000  1
  Au  Au7  1  0.000000  0.000000  0.000000  1
  Cl  Cl8  1  0.591703  0.725991  0.758805  1
  Cl  Cl9  1  0.408297  0.274009  0.241195  1
  Cl  Cl10  1  0.273218  0.846531  0.738598  1
  Cl  Cl11  1  0.726782  0.153469  0.261402  1
  Cl  Cl12  1  0.978605  0.537402  0.771790  1
  Cl  Cl13  1  0.021395  0.462598  0.228210  1
  Cl  Cl14  1  0.297676  0.412517  0.790950  1
  Cl  Cl15  1  0.702324  0.587483  0.209050  1
  Cl  Cl16  1  0.693950  0.382383  0.507688  1
  Cl  Cl17  1  0.306050  0.617617  0.492312  1
  Cl  Cl18  1  0.751694  0.732121  0.531954  1
  Cl  Cl19  1  0.248306  0.267879  0.468046  1
  Cl  Cl20  1  0.791405  0.102321  0.976276  1
  Cl  Cl21  1  0.208595  0.897679  0.023724  1
  Cl  Cl22  1  0.779967  0.795578  0.033387  1
  Cl  Cl23  1  0.220033  0.204422  0.966613  1
  Cl  Cl24  1  0.621286  0.187585  0.735638  1
  Cl  Cl25  1  0.378714  0.812415  0.264362  1
  Cl  Cl26  1  0.936558  0.051945  0.725048  1
  Cl  Cl27  1  0.063442  0.948055  0.274952  1
  Cl  Cl28  1  0.726245  0.054630  0.492917  1
  Cl  Cl29  1  0.273755  0.945370  0.507083  1
  Cl  Cl30  1  0.764640  0.431911  0.972582  1
  Cl  Cl31  1  0.235360  0.568089  0.027418  1
