# generated using pymatgen
data_Ti12AlGa3(Cu2O)4
_symmetry_space_group_name_H-M   'P 1'
_cell_length_a   8.01654888
_cell_length_b   8.01099229
_cell_length_c   8.01099200
_cell_angle_alpha   60.00000119
_cell_angle_beta   60.02292742
_cell_angle_gamma   60.02292870
_symmetry_Int_Tables_number   1
_chemical_formula_structural   Ti12AlGa3(Cu2O)4
_chemical_formula_sum   'Ti12 Al1 Ga3 Cu8 O4'
_cell_volume   363.91125183
_cell_formula_units_Z   1
loop_
 _symmetry_equiv_pos_site_id
 _symmetry_equiv_pos_as_xyz
  1  'x, y, z'
loop_
 _atom_site_type_symbol
 _atom_site_label
 _atom_site_symmetry_multiplicity
 _atom_site_fract_x
 _atom_site_fract_y
 _atom_site_fract_z
 _atom_site_occupancy
  Ti  Ti0  1  0.933357  0.566639  0.566639  1
  Ti  Ti1  1  0.683401  0.316835  0.682929  1
  Ti  Ti2  1  0.933357  0.566639  0.933365  1
  Ti  Ti3  1  0.566599  0.933165  0.933165  1
  Ti  Ti4  1  0.316643  0.683361  0.316635  1
  Ti  Ti5  1  0.566599  0.933165  0.567071  1
  Ti  Ti6  1  0.683401  0.682929  0.316835  1
  Ti  Ti7  1  0.933357  0.933365  0.566639  1
  Ti  Ti8  1  0.316643  0.316635  0.683361  1
  Ti  Ti9  1  0.683401  0.316835  0.316835  1
  Ti  Ti10  1  0.566599  0.567071  0.933165  1
  Ti  Ti11  1  0.316643  0.683361  0.683361  1
  Al  Al12  1  0.625000  0.125000  0.125000  1
  Ga  Ga13  1  0.125000  0.625000  0.125000  1
  Ga  Ga14  1  0.125000  0.125000  0.625000  1
  Ga  Ga15  1  0.125000  0.125000  0.125000  1
  Cu  Cu16  1  0.254295  0.915235  0.915235  1
  Cu  Cu17  1  0.336232  0.334340  0.334340  1
  Cu  Cu18  1  0.336232  0.334340  0.995088  1
  Cu  Cu19  1  0.913768  0.254912  0.915660  1
  Cu  Cu20  1  0.913768  0.915660  0.915660  1
  Cu  Cu21  1  0.995705  0.334765  0.334765  1
  Cu  Cu22  1  0.913768  0.915660  0.254912  1
  Cu  Cu23  1  0.336232  0.995088  0.334340  1
  O  O24  1  0.625000  0.125000  0.625000  1
  O  O25  1  0.625000  0.625000  0.125000  1
  O  O26  1  0.125000  0.625000  0.625000  1
  O  O27  1  0.625000  0.625000  0.625000  1
