# generated using pymatgen
data_PuMg3P6N13
_symmetry_space_group_name_H-M   'P 1'
_cell_length_a   7.15589999
_cell_length_b   7.15590068
_cell_length_c   7.15590029
_cell_angle_alpha   109.21791780
_cell_angle_beta   109.21791881
_cell_angle_gamma   109.21790321
_symmetry_Int_Tables_number   1
_chemical_formula_structural   PuMg3P6N13
_chemical_formula_sum   'Pu1 Mg3 P6 N13'
_cell_volume   284.69386489
_cell_formula_units_Z   1
loop_
 _symmetry_equiv_pos_site_id
 _symmetry_equiv_pos_as_xyz
  1  'x, y, z'
loop_
 _atom_site_type_symbol
 _atom_site_label
 _atom_site_symmetry_multiplicity
 _atom_site_fract_x
 _atom_site_fract_y
 _atom_site_fract_z
 _atom_site_occupancy
  Pu  Pu0  1  0.276222  0.276222  0.276222  1
  Mg  Mg1  1  0.989445  0.689907  0.989445  1
  Mg  Mg2  1  0.689907  0.989445  0.989445  1
  Mg  Mg3  1  0.989445  0.989445  0.689907  1
  P  P4  1  0.505809  0.253588  0.758897  1
  P  P5  1  0.505809  0.758897  0.253588  1
  P  P6  1  0.758897  0.253588  0.505809  1
  P  P7  1  0.253588  0.505809  0.758897  1
  P  P8  1  0.758897  0.505809  0.253588  1
  P  P9  1  0.253588  0.758897  0.505809  1
  N  N10  1  0.971845  0.971845  0.971845  1
  N  N11  1  0.002826  0.733970  0.447619  1
  N  N12  1  0.273907  0.719056  0.273907  1
  N  N13  1  0.282928  0.563959  0.563959  1
  N  N14  1  0.563959  0.563959  0.282928  1
  N  N15  1  0.563959  0.282928  0.563959  1
  N  N16  1  0.733970  0.002826  0.447619  1
  N  N17  1  0.447619  0.002826  0.733970  1
  N  N18  1  0.733970  0.447619  0.002826  1
  N  N19  1  0.273907  0.273907  0.719056  1
  N  N20  1  0.719056  0.273907  0.273907  1
  N  N21  1  0.002826  0.447619  0.733970  1
  N  N22  1  0.447619  0.733970  0.002826  1
