# generated using pymatgen
data_Y6Mn3CrC12
_symmetry_space_group_name_H-M   'P 1'
_cell_length_a   8.11164000
_cell_length_b   8.11163973
_cell_length_c   4.98656300
_cell_angle_alpha   90.00000000
_cell_angle_beta   90.00000000
_cell_angle_gamma   120.00000108
_symmetry_Int_Tables_number   1
_chemical_formula_structural   Y6Mn3CrC12
_chemical_formula_sum   'Y6 Mn3 Cr1 C12'
_cell_volume   284.15104614
_cell_formula_units_Z   1
loop_
 _symmetry_equiv_pos_site_id
 _symmetry_equiv_pos_as_xyz
  1  'x, y, z'
loop_
 _atom_site_type_symbol
 _atom_site_label
 _atom_site_symmetry_multiplicity
 _atom_site_fract_x
 _atom_site_fract_y
 _atom_site_fract_z
 _atom_site_occupancy
  Y  Y0  1  0.620610  0.684430  0.748732  1
  Y  Y1  1  0.936180  0.620610  0.251268  1
  Y  Y2  1  0.684430  0.063820  0.251268  1
  Y  Y3  1  0.315570  0.936180  0.748732  1
  Y  Y4  1  0.063820  0.379390  0.748732  1
  Y  Y5  1  0.379390  0.315570  0.251268  1
  Mn  Mn6  1  0.000000  0.000000  0.000000  1
  Mn  Mn7  1  0.666667  0.333333  0.752557  1
  Mn  Mn8  1  0.333333  0.666667  0.247443  1
  Cr  Cr9  1  0.000000  0.000000  0.500000  1
  C  C10  1  0.963741  0.772146  0.748115  1
  C  C11  1  0.191596  0.963741  0.251885  1
  C  C12  1  0.772146  0.808404  0.251885  1
  C  C13  1  0.227854  0.191596  0.748115  1
  C  C14  1  0.808404  0.036259  0.748115  1
  C  C15  1  0.036259  0.227854  0.251885  1
  C  C16  1  0.865137  0.577484  0.751594  1
  C  C17  1  0.287653  0.865137  0.248406  1
  C  C18  1  0.577484  0.712347  0.248406  1
  C  C19  1  0.422516  0.287653  0.751594  1
  C  C20  1  0.134863  0.422516  0.248406  1
  C  C21  1  0.712347  0.134863  0.751594  1
