# generated using pymatgen
data_Pr4GaIr3I2
_symmetry_space_group_name_H-M   'P 1'
_cell_length_a   4.35281700
_cell_length_b   4.35281666
_cell_length_c   17.49180600
_cell_angle_alpha   90.00000000
_cell_angle_beta   90.00000000
_cell_angle_gamma   119.99999496
_symmetry_Int_Tables_number   1
_chemical_formula_structural   Pr4GaIr3I2
_chemical_formula_sum   'Pr4 Ga1 Ir3 I2'
_cell_volume   287.01598853
_cell_formula_units_Z   1
loop_
 _symmetry_equiv_pos_site_id
 _symmetry_equiv_pos_as_xyz
  1  'x, y, z'
loop_
 _atom_site_type_symbol
 _atom_site_label
 _atom_site_symmetry_multiplicity
 _atom_site_fract_x
 _atom_site_fract_y
 _atom_site_fract_z
 _atom_site_occupancy
  Pr  Pr0  1  0.000000  0.000000  0.106358  1
  Pr  Pr1  1  0.000000  0.000000  0.397264  1
  Pr  Pr2  1  0.000000  0.000000  0.892297  1
  Pr  Pr3  1  0.000000  0.000000  0.606726  1
  Ga  Ga4  1  0.666667  0.333333  0.503065  1
  Ir  Ir5  1  0.333333  0.666667  0.001280  1
  Ir  Ir6  1  0.666667  0.333333  0.997429  1
  Ir  Ir7  1  0.333333  0.666667  0.497953  1
  I  I8  1  0.333333  0.666667  0.749355  1
  I  I9  1  0.666667  0.333333  0.248272  1
