# generated using pymatgen
data_Ti4Re7MoW4
_symmetry_space_group_name_H-M   'P 1'
_cell_length_a   6.28979800
_cell_length_b   4.44460000
_cell_length_c   8.86577900
_cell_angle_alpha   90.00000000
_cell_angle_beta   89.99859416
_cell_angle_gamma   90.00000000
_symmetry_Int_Tables_number   1
_chemical_formula_structural   Ti4Re7MoW4
_chemical_formula_sum   'Ti4 Re7 Mo1 W4'
_cell_volume   247.84849223
_cell_formula_units_Z   1
loop_
 _symmetry_equiv_pos_site_id
 _symmetry_equiv_pos_as_xyz
  1  'x, y, z'
loop_
 _atom_site_type_symbol
 _atom_site_label
 _atom_site_symmetry_multiplicity
 _atom_site_fract_x
 _atom_site_fract_y
 _atom_site_fract_z
 _atom_site_occupancy
  Ti  Ti0  1  0.250156  0.250001  0.125001  1
  Ti  Ti1  1  0.750041  0.750001  0.374947  1
  Ti  Ti2  1  0.249830  0.250001  0.624997  1
  Ti  Ti3  1  0.750006  0.750001  0.875055  1
  Re  Re4  1  0.000102  0.750001  0.124998  1
  Re  Re5  1  0.500104  0.250001  0.375642  1
  Re  Re6  1  0.999917  0.250001  0.375237  1
  Re  Re7  1  0.000027  0.750001  0.624993  1
  Re  Re8  1  0.500208  0.750001  0.625003  1
  Re  Re9  1  0.999895  0.250001  0.874766  1
  Re  Re10  1  0.500071  0.250001  0.874355  1
  Mo  Mo11  1  0.499670  0.750001  0.124996  1
  W  W12  1  0.749906  0.250001  0.125006  1
  W  W13  1  0.250136  0.750001  0.374929  1
  W  W14  1  0.749827  0.250001  0.625007  1
  W  W15  1  0.250105  0.750001  0.875066  1
