# generated using pymatgen
data_SrNd(PPt3)4
_symmetry_space_group_name_H-M   'P 1'
_cell_length_a   8.57307019
_cell_length_b   8.57247500
_cell_length_c   8.57226500
_cell_angle_alpha   90.00000000
_cell_angle_beta   89.95903181
_cell_angle_gamma   90.00000000
_symmetry_Int_Tables_number   1
_chemical_formula_structural   SrNd(PPt3)4
_chemical_formula_sum   'Sr2 Nd2 P8 Pt24'
_cell_volume   629.99642347
_cell_formula_units_Z   2
loop_
 _symmetry_equiv_pos_site_id
 _symmetry_equiv_pos_as_xyz
  1  'x, y, z'
loop_
 _atom_site_type_symbol
 _atom_site_label
 _atom_site_symmetry_multiplicity
 _atom_site_fract_x
 _atom_site_fract_y
 _atom_site_fract_z
 _atom_site_occupancy
  Sr  Sr0  1  0.500000  0.500000  0.000000  1
  Sr  Sr1  1  0.500000  0.000000  0.500000  1
  Nd  Nd2  1  0.000000  0.500000  0.500000  1
  Nd  Nd3  1  0.000000  0.000000  0.000000  1
  P  P4  1  0.804647  0.307156  0.195473  1
  P  P5  1  0.195353  0.807156  0.304527  1
  P  P6  1  0.693797  0.696085  0.694106  1
  P  P7  1  0.306203  0.196085  0.805894  1
  P  P8  1  0.195353  0.692844  0.804527  1
  P  P9  1  0.804647  0.192844  0.695473  1
  P  P10  1  0.306203  0.303915  0.305894  1
  P  P11  1  0.693797  0.803915  0.194106  1
  Pt  Pt12  1  0.423825  0.842103  0.156795  1
  Pt  Pt13  1  0.576175  0.342103  0.343205  1
  Pt  Pt14  1  0.078441  0.157261  0.658774  1
  Pt  Pt15  1  0.921559  0.657261  0.841226  1
  Pt  Pt16  1  0.154228  0.423087  0.840152  1
  Pt  Pt17  1  0.338265  0.577824  0.344869  1
  Pt  Pt18  1  0.661735  0.077824  0.155131  1
  Pt  Pt19  1  0.845772  0.923087  0.659848  1
  Pt  Pt20  1  0.845988  0.161638  0.423350  1
  Pt  Pt21  1  0.338843  0.345732  0.577631  1
  Pt  Pt22  1  0.154012  0.661638  0.076650  1
  Pt  Pt23  1  0.661157  0.845732  0.922369  1
  Pt  Pt24  1  0.576175  0.157897  0.843205  1
  Pt  Pt25  1  0.423825  0.657897  0.656795  1
  Pt  Pt26  1  0.921559  0.842739  0.341226  1
  Pt  Pt27  1  0.078441  0.342739  0.158774  1
  Pt  Pt28  1  0.845772  0.576913  0.159848  1
  Pt  Pt29  1  0.661735  0.422176  0.655131  1
  Pt  Pt30  1  0.338265  0.922176  0.844869  1
  Pt  Pt31  1  0.154228  0.076913  0.340152  1
  Pt  Pt32  1  0.154012  0.838362  0.576650  1
  Pt  Pt33  1  0.661157  0.654268  0.422369  1
  Pt  Pt34  1  0.845988  0.338362  0.923350  1
  Pt  Pt35  1  0.338843  0.154268  0.077631  1
