# generated using pymatgen
data_Lu3Sc7(In2Ir)4
_symmetry_space_group_name_H-M   'P 1'
_cell_length_a   3.43177600
_cell_length_b   7.77582349
_cell_length_c   17.76976069
_cell_angle_alpha   90.10969180
_cell_angle_beta   90.00000000
_cell_angle_gamma   90.00000000
_symmetry_Int_Tables_number   1
_chemical_formula_structural   Lu3Sc7(In2Ir)4
_chemical_formula_sum   'Lu3 Sc7 In8 Ir4'
_cell_volume   474.18314157
_cell_formula_units_Z   1
loop_
 _symmetry_equiv_pos_site_id
 _symmetry_equiv_pos_as_xyz
  1  'x, y, z'
loop_
 _atom_site_type_symbol
 _atom_site_label
 _atom_site_symmetry_multiplicity
 _atom_site_fract_x
 _atom_site_fract_y
 _atom_site_fract_z
 _atom_site_occupancy
  Lu  Lu0  1  0.000000  0.746911  0.779672  1
  Lu  Lu1  1  0.000000  0.253803  0.220602  1
  Lu  Lu2  1  0.000000  0.246853  0.720334  1
  Sc  Sc3  1  0.000000  0.999881  0.000474  1
  Sc  Sc4  1  0.000000  0.499938  0.499948  1
  Sc  Sc5  1  0.000000  0.754614  0.278672  1
  Sc  Sc6  1  0.000000  0.876739  0.585245  1
  Sc  Sc7  1  0.000000  0.122444  0.413592  1
  Sc  Sc8  1  0.000000  0.376864  0.914520  1
  Sc  Sc9  1  0.000000  0.623196  0.086359  1
  In  In10  1  0.500000  0.796320  0.434444  1
  In  In11  1  0.500000  0.202062  0.563029  1
  In  In12  1  0.500000  0.298080  0.063765  1
  In  In13  1  0.500000  0.702000  0.937028  1
  In  In14  1  0.500000  0.927002  0.148239  1
  In  In15  1  0.500000  0.070011  0.853838  1
  In  In16  1  0.500000  0.434247  0.353020  1
  In  In17  1  0.500000  0.570050  0.646237  1
  Ir  Ir18  1  0.500000  0.962360  0.692752  1
  Ir  Ir19  1  0.500000  0.032167  0.306451  1
  Ir  Ir20  1  0.500000  0.462456  0.807147  1
  Ir  Ir21  1  0.500000  0.542002  0.194630  1
