# generated using pymatgen
data_Nd2Y5Th(Si3Pt)4
_symmetry_space_group_name_H-M   'P 1'
_cell_length_a   8.20218000
_cell_length_b   8.17290953
_cell_length_c   8.38941200
_cell_angle_alpha   90.00000000
_cell_angle_beta   90.00000000
_cell_angle_gamma   120.11853459
_symmetry_Int_Tables_number   1
_chemical_formula_structural   Nd2Y5Th(Si3Pt)4
_chemical_formula_sum   'Nd2 Y5 Th1 Si12 Pt4'
_cell_volume   486.46115435
_cell_formula_units_Z   1
loop_
 _symmetry_equiv_pos_site_id
 _symmetry_equiv_pos_as_xyz
  1  'x, y, z'
loop_
 _atom_site_type_symbol
 _atom_site_label
 _atom_site_symmetry_multiplicity
 _atom_site_fract_x
 _atom_site_fract_y
 _atom_site_fract_z
 _atom_site_occupancy
  Nd  Nd0  1  0.999975  0.999951  0.250000  1
  Nd  Nd1  1  0.000016  0.000030  0.750000  1
  Y  Y2  1  0.499368  0.998735  0.750000  1
  Y  Y3  1  0.999023  0.499569  0.250000  1
  Y  Y4  1  0.001356  0.500619  0.750000  1
  Y  Y5  1  0.500545  0.499569  0.250000  1
  Y  Y6  1  0.499263  0.500619  0.750000  1
  Th  Th7  1  0.500502  0.001004  0.250000  1
  Si  Si8  1  0.166743  0.333485  0.001344  1
  Si  Si9  1  0.833232  0.666466  0.000021  1
  Si  Si10  1  0.668009  0.832749  0.998774  1
  Si  Si11  1  0.833232  0.666466  0.499979  1
  Si  Si12  1  0.331993  0.167252  0.997528  1
  Si  Si13  1  0.166743  0.333485  0.498656  1
  Si  Si14  1  0.164741  0.832749  0.998774  1
  Si  Si15  1  0.331993  0.167252  0.502472  1
  Si  Si16  1  0.835259  0.167252  0.997528  1
  Si  Si17  1  0.668009  0.832749  0.501226  1
  Si  Si18  1  0.835259  0.167252  0.502472  1
  Si  Si19  1  0.164741  0.832749  0.501226  1
  Pt  Pt20  1  0.333663  0.667326  0.998667  1
  Pt  Pt21  1  0.666337  0.332673  0.996160  1
  Pt  Pt22  1  0.666337  0.332673  0.503840  1
  Pt  Pt23  1  0.333663  0.667326  0.501333  1
