# generated using pymatgen
data_Y2Ho2CuPt3
_symmetry_space_group_name_H-M   'P 1'
_cell_length_a   4.50270500
_cell_length_b   5.58555867
_cell_length_c   7.02737198
_cell_angle_alpha   89.47249890
_cell_angle_beta   90.00000000
_cell_angle_gamma   90.00000000
_symmetry_Int_Tables_number   1
_chemical_formula_structural   Y2Ho2CuPt3
_chemical_formula_sum   'Y2 Ho2 Cu1 Pt3'
_cell_volume   176.73177902
_cell_formula_units_Z   1
loop_
 _symmetry_equiv_pos_site_id
 _symmetry_equiv_pos_as_xyz
  1  'x, y, z'
loop_
 _atom_site_type_symbol
 _atom_site_label
 _atom_site_symmetry_multiplicity
 _atom_site_fract_x
 _atom_site_fract_y
 _atom_site_fract_z
 _atom_site_occupancy
  Y  Y0  1  0.000000  0.641100  0.317678  1
  Y  Y1  1  0.500000  0.364333  0.686352  1
  Ho  Ho2  1  0.000000  0.857017  0.819914  1
  Ho  Ho3  1  0.500000  0.138159  0.175621  1
  Cu  Cu4  1  0.000000  0.136427  0.464133  1
  Pt  Pt5  1  0.000000  0.338174  0.956519  1
  Pt  Pt6  1  0.500000  0.868428  0.534625  1
  Pt  Pt7  1  0.500000  0.656363  0.045159  1
