# generated using pymatgen
data_Ho4Tm(TcO6)2
_symmetry_space_group_name_H-M   'P 1'
_cell_length_a   6.78728800
_cell_length_b   6.78728663
_cell_length_c   7.47656465
_cell_angle_alpha   73.74793185
_cell_angle_beta   73.74792888
_cell_angle_gamma   49.20022149
_symmetry_Int_Tables_number   1
_chemical_formula_structural   Ho4Tm(TcO6)2
_chemical_formula_sum   'Ho4 Tm1 Tc2 O12'
_cell_volume   248.07062702
_cell_formula_units_Z   1
loop_
 _symmetry_equiv_pos_site_id
 _symmetry_equiv_pos_as_xyz
  1  'x, y, z'
loop_
 _atom_site_type_symbol
 _atom_site_label
 _atom_site_symmetry_multiplicity
 _atom_site_fract_x
 _atom_site_fract_y
 _atom_site_fract_z
 _atom_site_occupancy
  Ho  Ho0  1  0.803944  0.803944  0.358071  1
  Ho  Ho1  1  0.196056  0.196056  0.641929  1
  Ho  Ho2  1  0.183723  0.183723  0.177273  1
  Ho  Ho3  1  0.816277  0.816277  0.822727  1
  Tm  Tm4  1  0.500000  0.500000  0.500000  1
  Tc  Tc5  1  0.286070  0.713930  0.000000  1
  Tc  Tc6  1  0.713930  0.286070  0.000000  1
  O  O7  1  0.413964  0.917426  0.914591  1
  O  O8  1  0.082574  0.586036  0.085409  1
  O  O9  1  0.586036  0.082574  0.085409  1
  O  O10  1  0.917426  0.413964  0.914591  1
  O  O11  1  0.598406  0.096845  0.572268  1
  O  O12  1  0.903155  0.401594  0.427732  1
  O  O13  1  0.401594  0.903155  0.427732  1
  O  O14  1  0.001319  0.001319  0.820727  1
  O  O15  1  0.998681  0.998681  0.179273  1
  O  O16  1  0.497964  0.497964  0.793972  1
  O  O17  1  0.502036  0.502036  0.206028  1
  O  O18  1  0.096845  0.598406  0.572268  1
