# generated using pymatgen
data_Ac2SbO2
_symmetry_space_group_name_H-M   'P 1'
_cell_length_a   7.84458965
_cell_length_b   7.84458936
_cell_length_c   7.84458919
_cell_angle_alpha   149.00960049
_cell_angle_beta   149.00959759
_cell_angle_gamma   44.39718244
_symmetry_Int_Tables_number   1
_chemical_formula_structural   Ac2SbO2
_chemical_formula_sum   'Ac2 Sb1 O2'
_cell_volume   127.60289541
_cell_formula_units_Z   1
loop_
 _symmetry_equiv_pos_site_id
 _symmetry_equiv_pos_as_xyz
  1  'x, y, z'
loop_
 _atom_site_type_symbol
 _atom_site_label
 _atom_site_symmetry_multiplicity
 _atom_site_fract_x
 _atom_site_fract_y
 _atom_site_fract_z
 _atom_site_occupancy
  Ac  Ac0  1  0.661088  0.661088  0.000000  1
  Ac  Ac1  1  0.338912  0.338912  0.000000  1
  Sb  Sb2  1  0.000000  0.000000  0.000000  1
  O  O3  1  0.750000  0.250000  0.500000  1
  O  O4  1  0.250000  0.750000  0.500000  1
