# generated using pymatgen
data_Ta2Nb4B4Os7Ru3
_symmetry_space_group_name_H-M   'P 1'
_cell_length_a   9.54249008
_cell_length_b   9.56210295
_cell_length_c   3.01641200
_cell_angle_alpha   90.00000000
_cell_angle_beta   90.00000000
_cell_angle_gamma   90.06647168
_symmetry_Int_Tables_number   1
_chemical_formula_structural   Ta2Nb4B4Os7Ru3
_chemical_formula_sum   'Ta2 Nb4 B4 Os7 Ru3'
_cell_volume   275.23616613
_cell_formula_units_Z   1
loop_
 _symmetry_equiv_pos_site_id
 _symmetry_equiv_pos_as_xyz
  1  'x, y, z'
loop_
 _atom_site_type_symbol
 _atom_site_label
 _atom_site_symmetry_multiplicity
 _atom_site_fract_x
 _atom_site_fract_y
 _atom_site_fract_z
 _atom_site_occupancy
  Ta  Ta0  1  0.500133  0.500188  0.000000  1
  Ta  Ta1  1  0.998066  0.999433  0.000000  1
  Nb  Nb2  1  0.823330  0.676408  0.000000  1
  Nb  Nb3  1  0.176446  0.323183  0.000000  1
  Nb  Nb4  1  0.323211  0.823634  0.000000  1
  Nb  Nb5  1  0.676110  0.177235  0.000000  1
  B  B6  1  0.621152  0.879406  0.000000  1
  B  B7  1  0.379517  0.120181  0.000000  1
  B  B8  1  0.120668  0.621033  0.000000  1
  B  B9  1  0.879842  0.379211  0.000000  1
  Os  Os10  1  0.571741  0.720045  0.500000  1
  Os  Os11  1  0.429032  0.280225  0.500000  1
  Os  Os12  1  0.070651  0.780536  0.500000  1
  Os  Os13  1  0.929319  0.219496  0.500000  1
  Os  Os14  1  0.280698  0.570954  0.500000  1
  Os  Os15  1  0.719487  0.428952  0.500000  1
  Os  Os16  1  0.219114  0.070236  0.500000  1
  Ru  Ru17  1  0.780636  0.929312  0.500000  1
  Ru  Ru18  1  0.500893  0.999964  0.500000  1
  Ru  Ru19  1  0.999956  0.500371  0.500000  1
