# generated using pymatgen
data_Ho4ScZn2Sb
_symmetry_space_group_name_H-M   'P 1'
_cell_length_a   8.42721022
_cell_length_b   8.42721066
_cell_length_c   8.42721106
_cell_angle_alpha   123.49741667
_cell_angle_beta   123.49741896
_cell_angle_gamma   84.04203117
_symmetry_Int_Tables_number   1
_chemical_formula_structural   Ho4ScZn2Sb
_chemical_formula_sum   'Ho8 Sc2 Zn4 Sb2'
_cell_volume   398.46212080
_cell_formula_units_Z   2
loop_
 _symmetry_equiv_pos_site_id
 _symmetry_equiv_pos_as_xyz
  1  'x, y, z'
loop_
 _atom_site_type_symbol
 _atom_site_label
 _atom_site_symmetry_multiplicity
 _atom_site_fract_x
 _atom_site_fract_y
 _atom_site_fract_z
 _atom_site_occupancy
  Ho  Ho0  1  0.512336  0.012336  0.810998  1
  Ho  Ho1  1  0.201338  0.701338  0.189002  1
  Ho  Ho2  1  0.012336  0.201338  0.500000  1
  Ho  Ho3  1  0.701338  0.512336  0.500000  1
  Ho  Ho4  1  0.487664  0.987664  0.189002  1
  Ho  Ho5  1  0.798662  0.298662  0.810998  1
  Ho  Ho6  1  0.987664  0.798662  0.500000  1
  Ho  Ho7  1  0.298662  0.487664  0.500000  1
  Sc  Sc8  1  0.500000  0.500000  0.000000  1
  Sc  Sc9  1  0.000000  0.000000  0.000000  1
  Zn  Zn10  1  0.138580  0.638580  0.777161  1
  Zn  Zn11  1  0.861420  0.361420  0.222839  1
  Zn  Zn12  1  0.638580  0.861420  0.500000  1
  Zn  Zn13  1  0.361420  0.138580  0.500000  1
  Sb  Sb14  1  0.250000  0.250000  0.000000  1
  Sb  Sb15  1  0.750000  0.750000  0.000000  1
