# generated using pymatgen
data_Th7Tc3
_symmetry_space_group_name_H-M   'P 1'
_cell_length_a   9.96838500
_cell_length_b   9.96838592
_cell_length_c   6.34060200
_cell_angle_alpha   90.00000000
_cell_angle_beta   90.00000000
_cell_angle_gamma   119.99999362
_symmetry_Int_Tables_number   1
_chemical_formula_structural   Th7Tc3
_chemical_formula_sum   'Th14 Tc6'
_cell_volume   545.64577811
_cell_formula_units_Z   2
loop_
 _symmetry_equiv_pos_site_id
 _symmetry_equiv_pos_as_xyz
  1  'x, y, z'
loop_
 _atom_site_type_symbol
 _atom_site_label
 _atom_site_symmetry_multiplicity
 _atom_site_fract_x
 _atom_site_fract_y
 _atom_site_fract_z
 _atom_site_occupancy
  Th  Th0  1  0.333333  0.666667  0.025809  1
  Th  Th1  1  0.666667  0.333333  0.525809  1
  Th  Th2  1  0.125583  0.874417  0.256679  1
  Th  Th3  1  0.251167  0.125583  0.756679  1
  Th  Th4  1  0.874417  0.748833  0.756679  1
  Th  Th5  1  0.125583  0.251167  0.256679  1
  Th  Th6  1  0.748833  0.874417  0.256679  1
  Th  Th7  1  0.874417  0.125583  0.756679  1
  Th  Th8  1  0.539914  0.460086  0.047642  1
  Th  Th9  1  0.079826  0.539914  0.547642  1
  Th  Th10  1  0.460086  0.920174  0.547642  1
  Th  Th11  1  0.539914  0.079826  0.047642  1
  Th  Th12  1  0.920174  0.460086  0.047642  1
  Th  Th13  1  0.460086  0.539914  0.547642  1
  Tc  Tc14  1  0.814699  0.185301  0.297075  1
  Tc  Tc15  1  0.629400  0.814699  0.797075  1
  Tc  Tc16  1  0.185301  0.370600  0.797075  1
  Tc  Tc17  1  0.814699  0.629400  0.297075  1
  Tc  Tc18  1  0.370600  0.185301  0.297075  1
  Tc  Tc19  1  0.185301  0.814699  0.797075  1
