# generated using pymatgen
data_ErCu3SiPd
_symmetry_space_group_name_H-M   'P 1'
_cell_length_a   5.01438903
_cell_length_b   5.01438985
_cell_length_c   4.93080229
_cell_angle_alpha   59.43763083
_cell_angle_beta   59.43762622
_cell_angle_gamma   59.99999352
_symmetry_Int_Tables_number   1
_chemical_formula_structural   ErCu3SiPd
_chemical_formula_sum   'Er1 Cu3 Si1 Pd1'
_cell_volume   86.91491327
_cell_formula_units_Z   1
loop_
 _symmetry_equiv_pos_site_id
 _symmetry_equiv_pos_as_xyz
  1  'x, y, z'
loop_
 _atom_site_type_symbol
 _atom_site_label
 _atom_site_symmetry_multiplicity
 _atom_site_fract_x
 _atom_site_fract_y
 _atom_site_fract_z
 _atom_site_occupancy
  Er  Er0  1  0.001976  0.001976  0.994072  1
  Cu  Cu1  1  0.623218  0.126626  0.626938  1
  Cu  Cu2  1  0.126626  0.623218  0.626938  1
  Cu  Cu3  1  0.623218  0.623218  0.626938  1
  Si  Si4  1  0.620950  0.620950  0.137152  1
  Pd  Pd5  1  0.254012  0.254012  0.237964  1
