# generated using pymatgen
data_HoCo3Ni2P3
_symmetry_space_group_name_H-M   'P 1'
_cell_length_a   3.66125300
_cell_length_b   10.22065800
_cell_length_c   11.78362000
_cell_angle_alpha   90.00000000
_cell_angle_beta   90.00000000
_cell_angle_gamma   90.00000000
_symmetry_Int_Tables_number   1
_chemical_formula_structural   HoCo3Ni2P3
_chemical_formula_sum   'Ho4 Co12 Ni8 P12'
_cell_volume   440.94794783
_cell_formula_units_Z   4
loop_
 _symmetry_equiv_pos_site_id
 _symmetry_equiv_pos_as_xyz
  1  'x, y, z'
loop_
 _atom_site_type_symbol
 _atom_site_label
 _atom_site_symmetry_multiplicity
 _atom_site_fract_x
 _atom_site_fract_y
 _atom_site_fract_z
 _atom_site_occupancy
  Ho  Ho0  1  0.250000  0.581802  0.703588  1
  Ho  Ho1  1  0.250000  0.918198  0.203588  1
  Ho  Ho2  1  0.750000  0.418198  0.296412  1
  Ho  Ho3  1  0.750000  0.081802  0.796412  1
  Co  Co4  1  0.250000  0.221612  0.176192  1
  Co  Co5  1  0.250000  0.278388  0.676192  1
  Co  Co6  1  0.750000  0.778388  0.823808  1
  Co  Co7  1  0.750000  0.721612  0.323808  1
  Co  Co8  1  0.250000  0.881178  0.697747  1
  Co  Co9  1  0.250000  0.618822  0.197747  1
  Co  Co10  1  0.750000  0.118822  0.302253  1
  Co  Co11  1  0.750000  0.381178  0.802253  1
  Co  Co12  1  0.250000  0.467256  0.932481  1
  Co  Co13  1  0.250000  0.032744  0.432481  1
  Co  Co14  1  0.750000  0.532744  0.067519  1
  Co  Co15  1  0.750000  0.967256  0.567519  1
  Ni  Ni16  1  0.250000  0.713691  0.989818  1
  Ni  Ni17  1  0.250000  0.786309  0.489818  1
  Ni  Ni18  1  0.750000  0.286309  0.010182  1
  Ni  Ni19  1  0.750000  0.213691  0.510182  1
  Ni  Ni20  1  0.250000  0.408164  0.484899  1
  Ni  Ni21  1  0.250000  0.091836  0.984899  1
  Ni  Ni22  1  0.750000  0.591836  0.515101  1
  Ni  Ni23  1  0.750000  0.908164  0.015101  1
  P  P24  1  0.250000  0.419734  0.113137  1
  P  P25  1  0.250000  0.080266  0.613137  1
  P  P26  1  0.750000  0.580266  0.886863  1
  P  P27  1  0.750000  0.919734  0.386863  1
  P  P28  1  0.250000  0.271585  0.865683  1
  P  P29  1  0.250000  0.228415  0.365683  1
  P  P30  1  0.750000  0.728415  0.134317  1
  P  P31  1  0.750000  0.771585  0.634317  1
  P  P32  1  0.250000  0.604766  0.387413  1
  P  P33  1  0.250000  0.895234  0.887413  1
  P  P34  1  0.750000  0.395234  0.612587  1
  P  P35  1  0.750000  0.104766  0.112587  1
