# generated using pymatgen
data_YbZrZn14Cu3
_symmetry_space_group_name_H-M   'P 1'
_cell_length_a   8.87850600
_cell_length_b   8.87850586
_cell_length_c   8.69733500
_cell_angle_alpha   90.00000000
_cell_angle_beta   90.00000000
_cell_angle_gamma   120.00000799
_symmetry_Int_Tables_number   1
_chemical_formula_structural   YbZrZn14Cu3
_chemical_formula_sum   'Yb2 Zr2 Zn28 Cu6'
_cell_volume   593.74036222
_cell_formula_units_Z   2
loop_
 _symmetry_equiv_pos_site_id
 _symmetry_equiv_pos_as_xyz
  1  'x, y, z'
loop_
 _atom_site_type_symbol
 _atom_site_label
 _atom_site_symmetry_multiplicity
 _atom_site_fract_x
 _atom_site_fract_y
 _atom_site_fract_z
 _atom_site_occupancy
  Yb  Yb0  1  0.000000  0.000000  0.250000  1
  Yb  Yb1  1  0.000000  0.000000  0.750000  1
  Zr  Zr2  1  0.333333  0.666667  0.750000  1
  Zr  Zr3  1  0.666667  0.333333  0.250000  1
  Zn  Zn4  1  0.333333  0.666667  0.409669  1
  Zn  Zn5  1  0.666667  0.333333  0.590331  1
  Zn  Zn6  1  0.666667  0.333333  0.909669  1
  Zn  Zn7  1  0.333333  0.666667  0.090331  1
  Zn  Zn8  1  0.334995  0.369753  0.250000  1
  Zn  Zn9  1  0.630247  0.965243  0.250000  1
  Zn  Zn10  1  0.034757  0.665005  0.250000  1
  Zn  Zn11  1  0.630247  0.665005  0.250000  1
  Zn  Zn12  1  0.034757  0.369753  0.250000  1
  Zn  Zn13  1  0.334995  0.965243  0.250000  1
  Zn  Zn14  1  0.665005  0.630247  0.750000  1
  Zn  Zn15  1  0.369753  0.034757  0.750000  1
  Zn  Zn16  1  0.965243  0.334995  0.750000  1
  Zn  Zn17  1  0.369753  0.334995  0.750000  1
  Zn  Zn18  1  0.965243  0.630247  0.750000  1
  Zn  Zn19  1  0.665005  0.034757  0.750000  1
  Zn  Zn20  1  0.168666  0.831334  0.521509  1
  Zn  Zn21  1  0.168666  0.337331  0.521509  1
  Zn  Zn22  1  0.662669  0.831334  0.521509  1
  Zn  Zn23  1  0.831334  0.168666  0.478491  1
  Zn  Zn24  1  0.831334  0.662669  0.478491  1
  Zn  Zn25  1  0.337331  0.168666  0.478491  1
  Zn  Zn26  1  0.831334  0.168666  0.021509  1
  Zn  Zn27  1  0.831334  0.662669  0.021509  1
  Zn  Zn28  1  0.337331  0.168666  0.021509  1
  Zn  Zn29  1  0.168666  0.831334  0.978491  1
  Zn  Zn30  1  0.168666  0.337331  0.978491  1
  Zn  Zn31  1  0.662669  0.831334  0.978491  1
  Cu  Cu32  1  0.500000  0.500000  0.500000  1
  Cu  Cu33  1  0.500000  0.000000  0.500000  1
  Cu  Cu34  1  0.000000  0.500000  0.500000  1
  Cu  Cu35  1  0.500000  0.500000  0.000000  1
  Cu  Cu36  1  0.500000  0.000000  0.000000  1
  Cu  Cu37  1  0.000000  0.500000  0.000000  1
