# generated using pymatgen
data_La2TbDy(ZnSi)4
_symmetry_space_group_name_H-M   'P 1'
_cell_length_a   4.22122400
_cell_length_b   4.22122381
_cell_length_c   16.41215800
_cell_angle_alpha   90.00000000
_cell_angle_beta   90.00000000
_cell_angle_gamma   120.00000149
_symmetry_Int_Tables_number   1
_chemical_formula_structural   La2TbDy(ZnSi)4
_chemical_formula_sum   'La2 Tb1 Dy1 Zn4 Si4'
_cell_volume   253.26378455
_cell_formula_units_Z   1
loop_
 _symmetry_equiv_pos_site_id
 _symmetry_equiv_pos_as_xyz
  1  'x, y, z'
loop_
 _atom_site_type_symbol
 _atom_site_label
 _atom_site_symmetry_multiplicity
 _atom_site_fract_x
 _atom_site_fract_y
 _atom_site_fract_z
 _atom_site_occupancy
  La  La0  1  0.000000  0.000000  0.999645  1
  La  La1  1  0.000000  0.000000  0.500324  1
  Tb  Tb2  1  0.000000  0.000000  0.249936  1
  Dy  Dy3  1  0.000000  0.000000  0.750047  1
  Zn  Zn4  1  0.333333  0.666667  0.146534  1
  Zn  Zn5  1  0.666667  0.333333  0.852079  1
  Zn  Zn6  1  0.666667  0.333333  0.647907  1
  Zn  Zn7  1  0.333333  0.666667  0.353501  1
  Si  Si8  1  0.333333  0.666667  0.623160  1
  Si  Si9  1  0.666667  0.333333  0.377641  1
  Si  Si10  1  0.666667  0.333333  0.122452  1
  Si  Si11  1  0.333333  0.666667  0.876774  1
