# generated using pymatgen
data_Rb8Ti6BBr20
_symmetry_space_group_name_H-M   'P 1'
_cell_length_a   11.92297454
_cell_length_b   11.92297384
_cell_length_c   11.92297300
_cell_angle_alpha   59.99999956
_cell_angle_beta   60.00000151
_cell_angle_gamma   59.99999585
_symmetry_Int_Tables_number   1
_chemical_formula_structural   Rb8Ti6BBr20
_chemical_formula_sum   'Rb8 Ti6 B1 Br20'
_cell_volume   1198.50199226
_cell_formula_units_Z   1
loop_
 _symmetry_equiv_pos_site_id
 _symmetry_equiv_pos_as_xyz
  1  'x, y, z'
loop_
 _atom_site_type_symbol
 _atom_site_label
 _atom_site_symmetry_multiplicity
 _atom_site_fract_x
 _atom_site_fract_y
 _atom_site_fract_z
 _atom_site_occupancy
  Rb  Rb0  1  0.361522  0.361522  0.361522  1
  Rb  Rb1  1  0.638478  0.638478  0.638478  1
  Rb  Rb2  1  0.361522  0.361522  0.915435  1
  Rb  Rb3  1  0.361522  0.915435  0.361522  1
  Rb  Rb4  1  0.638478  0.638478  0.084565  1
  Rb  Rb5  1  0.638478  0.084565  0.638478  1
  Rb  Rb6  1  0.915435  0.361522  0.361522  1
  Rb  Rb7  1  0.084565  0.638478  0.638478  1
  Ti  Ti8  1  0.870315  0.129685  0.129685  1
  Ti  Ti9  1  0.129685  0.870315  0.870315  1
  Ti  Ti10  1  0.129685  0.870315  0.129685  1
  Ti  Ti11  1  0.870315  0.129685  0.870315  1
  Ti  Ti12  1  0.129685  0.129685  0.870315  1
  Ti  Ti13  1  0.870315  0.870315  0.129685  1
  B  B14  1  0.000000  0.000000  0.000000  1
  Br  Br15  1  0.304560  0.000000  0.000000  1
  Br  Br16  1  0.695440  0.000000  0.000000  1
  Br  Br17  1  0.000000  0.304560  0.695440  1
  Br  Br18  1  0.000000  0.695440  0.304560  1
  Br  Br19  1  0.000000  0.304560  0.000000  1
  Br  Br20  1  0.695440  0.000000  0.304560  1
  Br  Br21  1  0.000000  0.695440  0.000000  1
  Br  Br22  1  0.304560  0.000000  0.695440  1
  Br  Br23  1  0.000000  0.000000  0.304560  1
  Br  Br24  1  0.000000  0.000000  0.695440  1
  Br  Br25  1  0.695440  0.304560  0.000000  1
  Br  Br26  1  0.304560  0.695440  0.000000  1
  Br  Br27  1  0.697642  0.302358  0.302358  1
  Br  Br28  1  0.302358  0.697642  0.697642  1
  Br  Br29  1  0.302358  0.697642  0.302358  1
  Br  Br30  1  0.697642  0.302358  0.697642  1
  Br  Br31  1  0.302358  0.302358  0.697642  1
  Br  Br32  1  0.697642  0.697642  0.302358  1
  Br  Br33  1  0.250000  0.250000  0.250000  1
  Br  Br34  1  0.750000  0.750000  0.750000  1
