# generated using pymatgen
data_Ac4As7Rh8
_symmetry_space_group_name_H-M   'P 1'
_cell_length_a   4.25469600
_cell_length_b   13.48814630
_cell_length_c   13.84823676
_cell_angle_alpha   81.59138506
_cell_angle_beta   90.00000000
_cell_angle_gamma   90.00000000
_symmetry_Int_Tables_number   1
_chemical_formula_structural   Ac4As7Rh8
_chemical_formula_sum   'Ac8 As14 Rh16'
_cell_volume   786.17910764
_cell_formula_units_Z   2
loop_
 _symmetry_equiv_pos_site_id
 _symmetry_equiv_pos_as_xyz
  1  'x, y, z'
loop_
 _atom_site_type_symbol
 _atom_site_label
 _atom_site_symmetry_multiplicity
 _atom_site_fract_x
 _atom_site_fract_y
 _atom_site_fract_z
 _atom_site_occupancy
  Ac  Ac0  1  0.250000  0.100930  0.793697  1
  Ac  Ac1  1  0.750000  0.899070  0.206303  1
  Ac  Ac2  1  0.250000  0.284955  0.102055  1
  Ac  Ac3  1  0.750000  0.715045  0.897945  1
  Ac  Ac4  1  0.250000  0.518569  0.290753  1
  Ac  Ac5  1  0.750000  0.481431  0.709247  1
  Ac  Ac6  1  0.250000  0.209680  0.436962  1
  Ac  Ac7  1  0.750000  0.790320  0.563038  1
  As  As8  1  0.250000  0.056093  0.095893  1
  As  As9  1  0.750000  0.943907  0.904107  1
  As  As10  1  0.250000  0.313219  0.685277  1
  As  As11  1  0.750000  0.686781  0.314723  1
  As  As12  1  0.250000  0.605791  0.562136  1
  As  As13  1  0.750000  0.394209  0.437864  1
  As  As14  1  0.250000  0.849688  0.722933  1
  As  As15  1  0.750000  0.150312  0.277067  1
  As  As16  1  0.750000  0.258682  0.918979  1
  As  As17  1  0.250000  0.741318  0.081021  1
  As  As18  1  0.750000  0.091113  0.588013  1
  As  As19  1  0.250000  0.908887  0.411987  1
  As  As20  1  0.750000  0.473713  0.125403  1
  As  As21  1  0.250000  0.526287  0.874597  1
  Rh  Rh22  1  0.250000  0.987525  0.574382  1
  Rh  Rh23  1  0.750000  0.012475  0.425618  1
  Rh  Rh24  1  0.250000  0.665913  0.731136  1
  Rh  Rh25  1  0.750000  0.334087  0.268864  1
  Rh  Rh26  1  0.250000  0.552585  0.047493  1
  Rh  Rh27  1  0.750000  0.447415  0.952507  1
  Rh  Rh28  1  0.250000  0.054328  0.278941  1
  Rh  Rh29  1  0.750000  0.945672  0.721059  1
  Rh  Rh30  1  0.250000  0.426693  0.526897  1
  Rh  Rh31  1  0.750000  0.573307  0.473103  1
  Rh  Rh32  1  0.250000  0.919462  0.997557  1
  Rh  Rh33  1  0.750000  0.080538  0.002443  1
  Rh  Rh34  1  0.250000  0.721402  0.401166  1
  Rh  Rh35  1  0.750000  0.278598  0.598834  1
  Rh  Rh36  1  0.250000  0.343266  0.862937  1
  Rh  Rh37  1  0.750000  0.656734  0.137063  1
