# generated using pymatgen
data_HoLu3(Rh2O7)2
_symmetry_space_group_name_H-M   'P 1'
_cell_length_a   7.14660124
_cell_length_b   7.15985370
_cell_length_c   7.14660000
_cell_angle_alpha   60.06120622
_cell_angle_beta   59.99999646
_cell_angle_gamma   60.06121539
_symmetry_Int_Tables_number   1
_chemical_formula_structural   HoLu3(Rh2O7)2
_chemical_formula_sum   'Ho1 Lu3 Rh4 O14'
_cell_volume   258.81494732
_cell_formula_units_Z   1
loop_
 _symmetry_equiv_pos_site_id
 _symmetry_equiv_pos_as_xyz
  1  'x, y, z'
loop_
 _atom_site_type_symbol
 _atom_site_label
 _atom_site_symmetry_multiplicity
 _atom_site_fract_x
 _atom_site_fract_y
 _atom_site_fract_z
 _atom_site_occupancy
  Ho  Ho0  1  0.125000  0.625000  0.125000  1
  Lu  Lu1  1  0.125000  0.125000  0.125000  1
  Lu  Lu2  1  0.625000  0.125000  0.125000  1
  Lu  Lu3  1  0.125000  0.125000  0.625000  1
  Rh  Rh4  1  0.625000  0.625000  0.625000  1
  Rh  Rh5  1  0.625000  0.625000  0.125000  1
  Rh  Rh6  1  0.125000  0.625000  0.625000  1
  Rh  Rh7  1  0.625000  0.125000  0.625000  1
  O  O8  1  0.251808  0.244577  0.251808  1
  O  O9  1  0.284804  0.718462  0.284804  1
  O  O10  1  0.964436  0.964881  0.535342  1
  O  O11  1  0.535342  0.964881  0.535342  1
  O  O12  1  0.711928  0.718462  0.284804  1
  O  O13  1  0.965196  0.531538  0.538072  1
  O  O14  1  0.714658  0.285119  0.714658  1
  O  O15  1  0.285564  0.285119  0.714658  1
  O  O16  1  0.714658  0.285119  0.285564  1
  O  O17  1  0.284804  0.718462  0.711928  1
  O  O18  1  0.965196  0.531538  0.965196  1
  O  O19  1  0.538072  0.531538  0.965196  1
  O  O20  1  0.998192  0.005423  0.998192  1
  O  O21  1  0.535342  0.964881  0.964436  1
