# generated using pymatgen
data_Tm5HgTe4
_symmetry_space_group_name_H-M   'P 1'
_cell_length_a   7.54728826
_cell_length_b   7.54728773
_cell_length_c   10.70294422
_cell_angle_alpha   61.38130962
_cell_angle_beta   61.38131279
_cell_angle_gamma   32.46476432
_symmetry_Int_Tables_number   1
_chemical_formula_structural   Tm5HgTe4
_chemical_formula_sum   'Tm5 Hg1 Te4'
_cell_volume   283.62252985
_cell_formula_units_Z   1
loop_
 _symmetry_equiv_pos_site_id
 _symmetry_equiv_pos_as_xyz
  1  'x, y, z'
loop_
 _atom_site_type_symbol
 _atom_site_label
 _atom_site_symmetry_multiplicity
 _atom_site_fract_x
 _atom_site_fract_y
 _atom_site_fract_z
 _atom_site_occupancy
  Tm  Tm0  1  0.000000  0.000000  0.500000  1
  Tm  Tm1  1  0.590548  0.590548  0.095874  1
  Tm  Tm2  1  0.190133  0.190133  0.719343  1
  Tm  Tm3  1  0.809867  0.809867  0.280657  1
  Tm  Tm4  1  0.409452  0.409452  0.904126  1
  Hg  Hg5  1  0.000000  0.000000  0.000000  1
  Te  Te6  1  0.607999  0.607999  0.588147  1
  Te  Te7  1  0.194369  0.194369  0.198926  1
  Te  Te8  1  0.805631  0.805631  0.801074  1
  Te  Te9  1  0.392001  0.392001  0.411853  1
