# generated using pymatgen
data_Yb5NpU2O12
_symmetry_space_group_name_H-M   'P 1'
_cell_length_a   6.72068465
_cell_length_b   6.70905047
_cell_length_c   6.70910600
_cell_angle_alpha   91.82562990
_cell_angle_beta   91.32817996
_cell_angle_gamma   91.61279844
_symmetry_Int_Tables_number   1
_chemical_formula_structural   Yb5NpU2O12
_chemical_formula_sum   'Yb5 Np1 U2 O12'
_cell_volume   302.14855428
_cell_formula_units_Z   1
loop_
 _symmetry_equiv_pos_site_id
 _symmetry_equiv_pos_as_xyz
  1  'x, y, z'
loop_
 _atom_site_type_symbol
 _atom_site_label
 _atom_site_symmetry_multiplicity
 _atom_site_fract_x
 _atom_site_fract_y
 _atom_site_fract_z
 _atom_site_occupancy
  Yb  Yb0  1  0.748407  0.940648  0.440724  1
  Yb  Yb1  1  0.551762  0.248279  0.063118  1
  Yb  Yb2  1  0.252635  0.056053  0.556325  1
  Yb  Yb3  1  0.064753  0.562909  0.252148  1
  Yb  Yb4  1  0.445613  0.750273  0.940089  1
  Np  Np5  1  0.935056  0.439501  0.748976  1
  U  U6  1  0.999990  0.998662  0.002294  1
  U  U7  1  0.496794  0.500948  0.496651  1
  O  O8  1  0.295446  0.062178  0.920900  1
  O  O9  1  0.066217  0.916968  0.298128  1
  O  O10  1  0.918931  0.310801  0.059146  1
  O  O11  1  0.703156  0.936591  0.081027  1
  O  O12  1  0.931823  0.093811  0.697995  1
  O  O13  1  0.081609  0.686758  0.923695  1
  O  O14  1  0.187714  0.403544  0.543286  1
  O  O15  1  0.407089  0.538541  0.197772  1
  O  O16  1  0.462342  0.797802  0.589982  1
  O  O17  1  0.602006  0.461792  0.803448  1
  O  O18  1  0.812069  0.591906  0.474411  1
  O  O19  1  0.536588  0.202036  0.409886  1
