# generated using pymatgen
data_Ce2Nd9US20
_symmetry_space_group_name_H-M   'P 1'
_cell_length_a   7.57524815
_cell_length_b   8.17070700
_cell_length_c   12.03663700
_cell_angle_alpha   90.00000000
_cell_angle_beta   89.91094671
_cell_angle_gamma   90.00000000
_symmetry_Int_Tables_number   1
_chemical_formula_structural   Ce2Nd9US20
_chemical_formula_sum   'Ce2 Nd9 U1 S20'
_cell_volume   745.00834914
_cell_formula_units_Z   1
loop_
 _symmetry_equiv_pos_site_id
 _symmetry_equiv_pos_as_xyz
  1  'x, y, z'
loop_
 _atom_site_type_symbol
 _atom_site_label
 _atom_site_symmetry_multiplicity
 _atom_site_fract_x
 _atom_site_fract_y
 _atom_site_fract_z
 _atom_site_occupancy
  Ce  Ce0  1  0.431887  0.250000  0.009036  1
  Ce  Ce1  1  0.573778  0.749999  0.989359  1
  Nd  Nd2  1  0.925182  0.750001  0.492543  1
  Nd  Nd3  1  0.476362  0.999093  0.321794  1
  Nd  Nd4  1  0.980604  0.998941  0.177709  1
  Nd  Nd5  1  0.520910  0.500510  0.677375  1
  Nd  Nd6  1  0.023564  0.500240  0.823604  1
  Nd  Nd7  1  0.520910  0.999490  0.677377  1
  Nd  Nd8  1  0.023564  0.999761  0.823605  1
  Nd  Nd9  1  0.476362  0.500906  0.321795  1
  Nd  Nd10  1  0.980604  0.501058  0.177710  1
  U  U11  1  0.059387  0.250000  0.506075  1
  S  S12  1  0.173874  0.749998  0.308802  1
  S  S13  1  0.669796  0.249998  0.188019  1
  S  S14  1  0.832039  0.249999  0.682435  1
  S  S15  1  0.327763  0.749999  0.810925  1
  S  S16  1  0.538763  0.750001  0.498740  1
  S  S17  1  0.045374  0.250001  0.002482  1
  S  S18  1  0.448182  0.250001  0.499105  1
  S  S19  1  0.956856  0.750001  0.999535  1
  S  S20  1  0.801721  0.750001  0.719483  1
  S  S21  1  0.306964  0.250001  0.788984  1
  S  S22  1  0.194641  0.250001  0.288581  1
  S  S23  1  0.698013  0.750000  0.215468  1
  S  S24  1  0.162322  0.526183  0.598752  1
  S  S25  1  0.664673  0.457359  0.902052  1
  S  S26  1  0.840074  0.051423  0.403340  1
  S  S27  1  0.339380  0.958537  0.095586  1
  S  S28  1  0.840073  0.448577  0.403340  1
  S  S29  1  0.339380  0.541463  0.095586  1
  S  S30  1  0.162323  0.973816  0.598752  1
  S  S31  1  0.664674  0.042640  0.902052  1
