# generated using pymatgen
data_Hf8Ti11Si16W
_symmetry_space_group_name_H-M   'P 1'
_cell_length_a   6.61774100
_cell_length_b   6.76632295
_cell_length_c   12.90249300
_cell_angle_alpha   90.00000000
_cell_angle_beta   90.00000000
_cell_angle_gamma   89.97184228
_symmetry_Int_Tables_number   1
_chemical_formula_structural   Hf8Ti11Si16W
_chemical_formula_sum   'Hf8 Ti11 Si16 W1'
_cell_volume   577.74483086
_cell_formula_units_Z   1
loop_
 _symmetry_equiv_pos_site_id
 _symmetry_equiv_pos_as_xyz
  1  'x, y, z'
loop_
 _atom_site_type_symbol
 _atom_site_label
 _atom_site_symmetry_multiplicity
 _atom_site_fract_x
 _atom_site_fract_y
 _atom_site_fract_z
 _atom_site_occupancy
  Hf  Hf0  1  0.998830  0.173969  0.093972  1
  Hf  Hf1  1  0.002995  0.827327  0.904372  1
  Hf  Hf2  1  0.502240  0.675063  0.904813  1
  Hf  Hf3  1  0.002995  0.827327  0.595628  1
  Hf  Hf4  1  0.499670  0.326143  0.094378  1
  Hf  Hf5  1  0.998830  0.173969  0.406028  1
  Hf  Hf6  1  0.499670  0.326143  0.405622  1
  Hf  Hf7  1  0.502240  0.675063  0.595187  1
  Ti  Ti8  1  0.164121  0.493851  0.750000  1
  Ti  Ti9  1  0.835279  0.504815  0.250000  1
  Ti  Ti10  1  0.335693  0.995812  0.250000  1
  Ti  Ti11  1  0.335858  0.171518  0.625045  1
  Ti  Ti12  1  0.663324  0.827699  0.374490  1
  Ti  Ti13  1  0.163035  0.672245  0.374583  1
  Ti  Ti14  1  0.663324  0.827699  0.125510  1
  Ti  Ti15  1  0.835217  0.327138  0.625224  1
  Ti  Ti16  1  0.335858  0.171518  0.874955  1
  Ti  Ti17  1  0.835217  0.327138  0.874776  1
  Ti  Ti18  1  0.163035  0.672245  0.125417  1
  Si  Si19  1  0.037747  0.117867  0.750000  1
  Si  Si20  1  0.961759  0.882080  0.250000  1
  Si  Si21  1  0.461648  0.617829  0.250000  1
  Si  Si22  1  0.536638  0.382757  0.750000  1
  Si  Si23  1  0.296436  0.862065  0.750000  1
  Si  Si24  1  0.703768  0.135713  0.250000  1
  Si  Si25  1  0.203061  0.363934  0.250000  1
  Si  Si26  1  0.798459  0.635053  0.750000  1
  Si  Si27  1  0.169930  0.462814  0.538937  1
  Si  Si28  1  0.829980  0.538255  0.460993  1
  Si  Si29  1  0.329605  0.962053  0.460935  1
  Si  Si30  1  0.829980  0.538255  0.039007  1
  Si  Si31  1  0.670216  0.037606  0.539197  1
  Si  Si32  1  0.169930  0.462814  0.961063  1
  Si  Si33  1  0.670216  0.037606  0.960803  1
  Si  Si34  1  0.329605  0.962053  0.039065  1
  W  W35  1  0.663589  0.004567  0.750000  1
