# generated using pymatgen
data_Tb4Er2CoCl10
_symmetry_space_group_name_H-M   'P 1'
_cell_length_a   7.07973775
_cell_length_b   8.75231900
_cell_length_c   8.91614900
_cell_angle_alpha   108.64309469
_cell_angle_beta   96.45819961
_cell_angle_gamma   105.36311081
_symmetry_Int_Tables_number   1
_chemical_formula_structural   Tb4Er2CoCl10
_chemical_formula_sum   'Tb4 Er2 Co1 Cl10'
_cell_volume   492.89125869
_cell_formula_units_Z   1
loop_
 _symmetry_equiv_pos_site_id
 _symmetry_equiv_pos_as_xyz
  1  'x, y, z'
loop_
 _atom_site_type_symbol
 _atom_site_label
 _atom_site_symmetry_multiplicity
 _atom_site_fract_x
 _atom_site_fract_y
 _atom_site_fract_z
 _atom_site_occupancy
  Tb  Tb0  1  0.534116  0.706077  0.905105  1
  Tb  Tb1  1  0.465884  0.293923  0.094895  1
  Tb  Tb2  1  0.635417  0.055752  0.755614  1
  Tb  Tb3  1  0.364583  0.944248  0.244386  1
  Er  Er4  1  0.859904  0.137080  0.185454  1
  Er  Er5  1  0.140096  0.862920  0.814546  1
  Co  Co6  1  0.500000  0.000000  0.000000  1
  Cl  Cl7  1  0.739995  0.079764  0.449027  1
  Cl  Cl8  1  0.260005  0.920236  0.550973  1
  Cl  Cl9  1  0.951597  0.825898  0.076258  1
  Cl  Cl10  1  0.048403  0.174102  0.923742  1
  Cl  Cl11  1  0.275810  0.246579  0.341131  1
  Cl  Cl12  1  0.724190  0.753421  0.658869  1
  Cl  Cl13  1  0.589244  0.373214  0.837430  1
  Cl  Cl14  1  0.410756  0.626786  0.162570  1
  Cl  Cl15  1  0.843557  0.447184  0.274079  1
  Cl  Cl16  1  0.156443  0.552816  0.725921  1
