# generated using pymatgen
data_Ho3Th(MgRh)4
_symmetry_space_group_name_H-M   'P 1'
_cell_length_a   4.07502000
_cell_length_b   7.14892099
_cell_length_c   8.67416657
_cell_angle_alpha   90.69531233
_cell_angle_beta   90.00000000
_cell_angle_gamma   90.00000000
_symmetry_Int_Tables_number   1
_chemical_formula_structural   Ho3Th(MgRh)4
_chemical_formula_sum   'Ho3 Th1 Mg4 Rh4'
_cell_volume   252.67717869
_cell_formula_units_Z   1
loop_
 _symmetry_equiv_pos_site_id
 _symmetry_equiv_pos_as_xyz
  1  'x, y, z'
loop_
 _atom_site_type_symbol
 _atom_site_label
 _atom_site_symmetry_multiplicity
 _atom_site_fract_x
 _atom_site_fract_y
 _atom_site_fract_z
 _atom_site_occupancy
  Ho  Ho0  1  0.750000  0.463100  0.816954  1
  Ho  Ho1  1  0.750000  0.960485  0.677817  1
  Ho  Ho2  1  0.250000  0.036107  0.328449  1
  Th  Th3  1  0.250000  0.536843  0.179470  1
  Mg  Mg4  1  0.250000  0.635295  0.561927  1
  Mg  Mg5  1  0.750000  0.357343  0.446597  1
  Mg  Mg6  1  0.750000  0.875384  0.057738  1
  Mg  Mg7  1  0.250000  0.137121  0.936798  1
  Rh  Rh8  1  0.250000  0.748006  0.875756  1
  Rh  Rh9  1  0.750000  0.263107  0.126716  1
  Rh  Rh10  1  0.750000  0.743840  0.362677  1
  Rh  Rh11  1  0.250000  0.243368  0.629101  1
