# generated using pymatgen
data_Ho9Mg(Ni2Sb)2
_symmetry_space_group_name_H-M   'P 1'
_cell_length_a   8.58298350
_cell_length_b   8.58298378
_cell_length_c   8.58298463
_cell_angle_alpha   128.29886372
_cell_angle_beta   128.29887001
_cell_angle_gamma   76.14137093
_symmetry_Int_Tables_number   1
_chemical_formula_structural   Ho9Mg(Ni2Sb)2
_chemical_formula_sum   'Ho9 Mg1 Ni4 Sb2'
_cell_volume   378.53993245
_cell_formula_units_Z   1
loop_
 _symmetry_equiv_pos_site_id
 _symmetry_equiv_pos_as_xyz
  1  'x, y, z'
loop_
 _atom_site_type_symbol
 _atom_site_label
 _atom_site_symmetry_multiplicity
 _atom_site_fract_x
 _atom_site_fract_y
 _atom_site_fract_z
 _atom_site_occupancy
  Ho  Ho0  1  0.537984  0.713019  0.516173  1
  Ho  Ho1  1  0.021811  0.537984  0.824965  1
  Ho  Ho2  1  0.713019  0.196847  0.175035  1
  Ho  Ho3  1  0.978189  0.462016  0.175035  1
  Ho  Ho4  1  0.196847  0.021811  0.483827  1
  Ho  Ho5  1  0.462016  0.286981  0.483827  1
  Ho  Ho6  1  0.803153  0.978189  0.516173  1
  Ho  Ho7  1  0.286981  0.803153  0.824965  1
  Ho  Ho8  1  0.500000  0.500000  0.000000  1
  Mg  Mg9  1  0.000000  0.000000  0.000000  1
  Ni  Ni10  1  0.378410  0.869370  0.247780  1
  Ni  Ni11  1  0.869370  0.621590  0.490960  1
  Ni  Ni12  1  0.621590  0.130630  0.752220  1
  Ni  Ni13  1  0.130630  0.378410  0.509040  1
  Sb  Sb14  1  0.742253  0.742253  0.000000  1
  Sb  Sb15  1  0.257747  0.257747  0.000000  1
