# generated using pymatgen
data_RbTbSiS4
_symmetry_space_group_name_H-M   'P 1'
_cell_length_a   6.70765100
_cell_length_b   6.45605067
_cell_length_c   9.08780188
_cell_angle_alpha   72.26682021
_cell_angle_beta   90.00000000
_cell_angle_gamma   90.00000000
_symmetry_Int_Tables_number   1
_chemical_formula_structural   RbTbSiS4
_chemical_formula_sum   'Rb2 Tb2 Si2 S8'
_cell_volume   374.84739887
_cell_formula_units_Z   2
loop_
 _symmetry_equiv_pos_site_id
 _symmetry_equiv_pos_as_xyz
  1  'x, y, z'
loop_
 _atom_site_type_symbol
 _atom_site_label
 _atom_site_symmetry_multiplicity
 _atom_site_fract_x
 _atom_site_fract_y
 _atom_site_fract_z
 _atom_site_occupancy
  Rb  Rb0  1  0.976682  0.728743  0.065914  1
  Rb  Rb1  1  0.476682  0.271257  0.934086  1
  Tb  Tb2  1  0.499409  0.228490  0.453095  1
  Tb  Tb3  1  0.999409  0.771510  0.546905  1
  Si  Si4  1  0.462527  0.780207  0.332620  1
  Si  Si5  1  0.962527  0.219793  0.667380  1
  S  S6  1  0.467017  0.583904  0.184473  1
  S  S7  1  0.232051  0.021098  0.288022  1
  S  S8  1  0.726216  0.975264  0.308913  1
  S  S9  1  0.903098  0.420366  0.437998  1
  S  S10  1  0.403098  0.579634  0.562002  1
  S  S11  1  0.226216  0.024736  0.691087  1
  S  S12  1  0.732051  0.978902  0.711978  1
  S  S13  1  0.967017  0.416096  0.815527  1
