# generated using pymatgen
data_CaNd3Al18(IrPd2)2
_symmetry_space_group_name_H-M   'P 1'
_cell_length_a   7.67152293
_cell_length_b   7.66273130
_cell_length_c   9.58823478
_cell_angle_alpha   89.95432286
_cell_angle_beta   89.98880042
_cell_angle_gamma   119.51686426
_symmetry_Int_Tables_number   1
_chemical_formula_structural   CaNd3Al18(IrPd2)2
_chemical_formula_sum   'Ca1 Nd3 Al18 Ir2 Pd4'
_cell_volume   490.48760389
_cell_formula_units_Z   1
loop_
 _symmetry_equiv_pos_site_id
 _symmetry_equiv_pos_as_xyz
  1  'x, y, z'
loop_
 _atom_site_type_symbol
 _atom_site_label
 _atom_site_symmetry_multiplicity
 _atom_site_fract_x
 _atom_site_fract_y
 _atom_site_fract_z
 _atom_site_occupancy
  Ca  Ca0  1  0.994974  0.670623  0.251334  1
  Nd  Nd1  1  0.004617  0.331162  0.750082  1
  Nd  Nd2  1  0.670354  0.995328  0.250076  1
  Nd  Nd3  1  0.328764  0.003267  0.749996  1
  Al  Al4  1  0.132371  0.132743  0.251483  1
  Al  Al5  1  0.867975  0.867381  0.748200  1
  Al  Al6  1  0.004238  0.336802  0.077371  1
  Al  Al7  1  0.995842  0.664986  0.926304  1
  Al  Al8  1  0.998811  0.661513  0.568957  1
  Al  Al9  1  0.336437  0.998552  0.426531  1
  Al  Al10  1  0.000885  0.341783  0.426041  1
  Al  Al11  1  0.661522  0.998859  0.572139  1
  Al  Al12  1  0.665176  0.995690  0.923755  1
  Al  Al13  1  0.332467  0.002012  0.077329  1
  Al  Al14  1  0.336127  0.335951  0.547183  1
  Al  Al15  1  0.665349  0.663287  0.451178  1
  Al  Al16  1  0.664941  0.663321  0.058015  1
  Al  Al17  1  0.336482  0.336300  0.943812  1
  Al  Al18  1  0.340185  0.546709  0.253857  1
  Al  Al19  1  0.661632  0.454884  0.746139  1
  Al  Al20  1  0.546576  0.339200  0.254022  1
  Al  Al21  1  0.455377  0.661186  0.746172  1
  Ir  Ir22  1  0.329024  0.670868  0.500582  1
  Ir  Ir23  1  0.670393  0.327750  0.500365  1
  Pd  Pd24  1  0.671191  0.327881  0.999732  1
  Pd  Pd25  1  0.328334  0.671220  0.999370  1
  Pd  Pd26  1  0.999860  0.999964  0.999787  1
  Pd  Pd27  1  0.000096  0.000777  0.500187  1
