# generated using pymatgen
data_Rb4Zr6NCl18
_symmetry_space_group_name_H-M   'P 1'
_cell_length_a   10.33064113
_cell_length_b   10.33064106
_cell_length_c   10.02090701
_cell_angle_alpha   77.26606086
_cell_angle_beta   77.26605930
_cell_angle_gamma   117.57116161
_symmetry_Int_Tables_number   1
_chemical_formula_structural   Rb4Zr6NCl18
_chemical_formula_sum   'Rb4 Zr6 N1 Cl18'
_cell_volume   857.97816660
_cell_formula_units_Z   1
loop_
 _symmetry_equiv_pos_site_id
 _symmetry_equiv_pos_as_xyz
  1  'x, y, z'
loop_
 _atom_site_type_symbol
 _atom_site_label
 _atom_site_symmetry_multiplicity
 _atom_site_fract_x
 _atom_site_fract_y
 _atom_site_fract_z
 _atom_site_occupancy
  Rb  Rb0  1  0.769690  0.446403  0.682002  1
  Rb  Rb1  1  0.553597  0.230310  0.317998  1
  Rb  Rb2  1  0.230310  0.553597  0.317998  1
  Rb  Rb3  1  0.446403  0.769690  0.682002  1
  Zr  Zr4  1  0.121386  0.121386  0.141328  1
  Zr  Zr5  1  0.878614  0.878614  0.858672  1
  Zr  Zr6  1  0.948934  0.766968  0.147428  1
  Zr  Zr7  1  0.233032  0.051066  0.852572  1
  Zr  Zr8  1  0.051066  0.233032  0.852572  1
  Zr  Zr9  1  0.766968  0.948934  0.147428  1
  N  N10  1  0.000000  0.000000  0.000000  1
  Cl  Cl11  1  0.807623  0.601941  0.008480  1
  Cl  Cl12  1  0.398060  0.192377  0.991520  1
  Cl  Cl13  1  0.192377  0.398060  0.991520  1
  Cl  Cl14  1  0.601940  0.807623  0.008480  1
  Cl  Cl15  1  0.204623  0.795377  0.000000  1
  Cl  Cl16  1  0.795377  0.204623  0.000000  1
  Cl  Cl17  1  0.320510  0.320510  0.672185  1
  Cl  Cl18  1  0.679490  0.679490  0.327815  1
  Cl  Cl19  1  0.889004  0.498367  0.321732  1
  Cl  Cl20  1  0.501633  0.110996  0.678268  1
  Cl  Cl21  1  0.110996  0.501633  0.678268  1
  Cl  Cl22  1  0.498367  0.889004  0.321732  1
  Cl  Cl23  1  0.260450  0.260450  0.297691  1
  Cl  Cl24  1  0.739550  0.739550  0.702309  1
  Cl  Cl25  1  0.078670  0.873781  0.320089  1
  Cl  Cl26  1  0.126219  0.921330  0.679911  1
  Cl  Cl27  1  0.921330  0.126219  0.679911  1
  Cl  Cl28  1  0.873781  0.078670  0.320089  1
