# generated using pymatgen
data_Nd6Ni19As13Pt
_symmetry_space_group_name_H-M   'P 1'
_cell_length_a   13.23272800
_cell_length_b   13.23272784
_cell_length_c   3.95723400
_cell_angle_alpha   90.00000000
_cell_angle_beta   90.00000000
_cell_angle_gamma   119.99999540
_symmetry_Int_Tables_number   1
_chemical_formula_structural   Nd6Ni19As13Pt
_chemical_formula_sum   'Nd6 Ni19 As13 Pt1'
_cell_volume   600.09657706
_cell_formula_units_Z   1
loop_
 _symmetry_equiv_pos_site_id
 _symmetry_equiv_pos_as_xyz
  1  'x, y, z'
loop_
 _atom_site_type_symbol
 _atom_site_label
 _atom_site_symmetry_multiplicity
 _atom_site_fract_x
 _atom_site_fract_y
 _atom_site_fract_z
 _atom_site_occupancy
  Nd  Nd0  1  0.798348  0.947979  0.000000  1
  Nd  Nd1  1  0.052021  0.850370  0.000000  1
  Nd  Nd2  1  0.149630  0.201652  0.000000  1
  Nd  Nd3  1  0.519775  0.133539  0.500000  1
  Nd  Nd4  1  0.866461  0.386236  0.500000  1
  Nd  Nd5  1  0.613764  0.480225  0.500000  1
  Ni  Ni6  1  0.529511  0.776141  0.000000  1
  Ni  Ni7  1  0.223859  0.753369  0.000000  1
  Ni  Ni8  1  0.246631  0.470489  0.000000  1
  Ni  Ni9  1  0.398344  0.807989  0.500000  1
  Ni  Ni10  1  0.192011  0.590355  0.500000  1
  Ni  Ni11  1  0.409645  0.601656  0.500000  1
  Ni  Ni12  1  0.666667  0.333333  0.000000  1
  Ni  Ni13  1  0.771200  0.686499  0.000000  1
  Ni  Ni14  1  0.313501  0.084702  0.000000  1
  Ni  Ni15  1  0.915298  0.228800  0.000000  1
  Ni  Ni16  1  0.640372  0.735728  0.500000  1
  Ni  Ni17  1  0.264272  0.904644  0.500000  1
  Ni  Ni18  1  0.095356  0.359628  0.500000  1
  Ni  Ni19  1  0.360196  0.257932  0.500000  1
  Ni  Ni20  1  0.742068  0.102264  0.500000  1
  Ni  Ni21  1  0.897736  0.639804  0.500000  1
  Ni  Ni22  1  0.575636  0.985953  0.000000  1
  Ni  Ni23  1  0.014047  0.589683  0.000000  1
  Ni  Ni24  1  0.410317  0.424364  0.000000  1
  As  As25  1  0.846017  0.791593  0.500000  1
  As  As26  1  0.208407  0.054424  0.500000  1
  As  As27  1  0.945576  0.153983  0.500000  1
  As  As28  1  0.606625  0.899525  0.500000  1
  As  As29  1  0.100475  0.707099  0.500000  1
  As  As30  1  0.292901  0.393375  0.500000  1
  As  As31  1  0.471612  0.282008  0.000000  1
  As  As32  1  0.717992  0.189604  0.000000  1
  As  As33  1  0.810396  0.528388  0.000000  1
  As  As34  1  0.378883  0.945354  0.000000  1
  As  As35  1  0.054646  0.433529  0.000000  1
  As  As36  1  0.566471  0.621117  0.000000  1
  As  As37  1  0.333333  0.666667  0.000000  1
  Pt  Pt38  1  0.000000  0.000000  0.500000  1
