# generated using pymatgen
data_La6Pr2GePd24
_symmetry_space_group_name_H-M   'P 1'
_cell_length_a   8.54838142
_cell_length_b   8.54838142
_cell_length_c   8.54838142
_cell_angle_alpha   90.02530596
_cell_angle_beta   89.97469404
_cell_angle_gamma   89.97469404
_symmetry_Int_Tables_number   1
_chemical_formula_structural   La6Pr2GePd24
_chemical_formula_sum   'La6 Pr2 Ge1 Pd24'
_cell_volume   624.67129196
_cell_formula_units_Z   1
loop_
 _symmetry_equiv_pos_site_id
 _symmetry_equiv_pos_as_xyz
  1  'x, y, z'
loop_
 _atom_site_type_symbol
 _atom_site_label
 _atom_site_symmetry_multiplicity
 _atom_site_fract_x
 _atom_site_fract_y
 _atom_site_fract_z
 _atom_site_occupancy
  La  La0  1  0.253206  0.253107  0.253107  1
  La  La1  1  0.746794  0.746893  0.746893  1
  La  La2  1  0.746893  0.746794  0.253107  1
  La  La3  1  0.746893  0.253107  0.746794  1
  La  La4  1  0.253107  0.253206  0.746893  1
  La  La5  1  0.253107  0.746893  0.253206  1
  Pr  Pr6  1  0.252730  0.747270  0.747270  1
  Pr  Pr7  1  0.747270  0.252730  0.252730  1
  Ge  Ge8  1  0.000000  0.000000  0.000000  1
  Pd  Pd9  1  0.260473  0.499962  0.000074  1
  Pd  Pd10  1  0.739527  0.500038  0.999926  1
  Pd  Pd11  1  0.000074  0.260473  0.500038  1
  Pd  Pd12  1  0.499962  0.260473  0.999926  1
  Pd  Pd13  1  0.999926  0.739527  0.499962  1
  Pd  Pd14  1  0.500038  0.739527  0.000074  1
  Pd  Pd15  1  0.499962  0.999926  0.260473  1
  Pd  Pd16  1  0.260473  0.000074  0.499962  1
  Pd  Pd17  1  0.500038  0.000074  0.739527  1
  Pd  Pd18  1  0.739527  0.999926  0.500038  1
  Pd  Pd19  1  0.000074  0.500038  0.260473  1
  Pd  Pd20  1  0.999926  0.499962  0.739527  1
  Pd  Pd21  1  0.253376  0.499930  0.499930  1
  Pd  Pd22  1  0.746624  0.500070  0.500070  1
  Pd  Pd23  1  0.499930  0.253376  0.500070  1
  Pd  Pd24  1  0.500070  0.746624  0.499930  1
  Pd  Pd25  1  0.499930  0.500070  0.253376  1
  Pd  Pd26  1  0.500070  0.499930  0.746624  1
  Pd  Pd27  1  0.291668  0.999861  0.999861  1
  Pd  Pd28  1  0.708332  0.000139  0.000139  1
  Pd  Pd29  1  0.999861  0.291668  0.000139  1
  Pd  Pd30  1  0.000139  0.708332  0.999861  1
  Pd  Pd31  1  0.999861  0.000139  0.291668  1
  Pd  Pd32  1  0.000139  0.999861  0.708332  1
