# generated using pymatgen
data_LuHf(NbS2)8
_symmetry_space_group_name_H-M   'P 1'
_cell_length_a   6.71445400
_cell_length_b   6.71445286
_cell_length_c   13.20087100
_cell_angle_alpha   90.00000000
_cell_angle_beta   90.00000000
_cell_angle_gamma   119.99999575
_symmetry_Int_Tables_number   1
_chemical_formula_structural   LuHf(NbS2)8
_chemical_formula_sum   'Lu1 Hf1 Nb8 S16'
_cell_volume   515.41205199
_cell_formula_units_Z   1
loop_
 _symmetry_equiv_pos_site_id
 _symmetry_equiv_pos_as_xyz
  1  'x, y, z'
loop_
 _atom_site_type_symbol
 _atom_site_label
 _atom_site_symmetry_multiplicity
 _atom_site_fract_x
 _atom_site_fract_y
 _atom_site_fract_z
 _atom_site_occupancy
  Lu  Lu0  1  0.000000  0.000000  0.000000  1
  Hf  Hf1  1  0.000000  0.000000  0.500000  1
  Nb  Nb2  1  0.989858  0.494929  0.254811  1
  Nb  Nb3  1  0.010142  0.505071  0.745189  1
  Nb  Nb4  1  0.494929  0.505071  0.745189  1
  Nb  Nb5  1  0.505071  0.010142  0.254811  1
  Nb  Nb6  1  0.000000  0.000000  0.745208  1
  Nb  Nb7  1  0.000000  0.000000  0.254792  1
  Nb  Nb8  1  0.505071  0.494929  0.254811  1
  Nb  Nb9  1  0.494929  0.989858  0.745189  1
  S  S10  1  0.333333  0.666667  0.624572  1
  S  S11  1  0.666667  0.333333  0.132970  1
  S  S12  1  0.666667  0.333333  0.375428  1
  S  S13  1  0.333333  0.666667  0.867030  1
  S  S14  1  0.167428  0.334855  0.375273  1
  S  S15  1  0.831499  0.168501  0.864557  1
  S  S16  1  0.337002  0.168501  0.864557  1
  S  S17  1  0.665145  0.832572  0.375273  1
  S  S18  1  0.167428  0.832572  0.375273  1
  S  S19  1  0.831499  0.662998  0.864557  1
  S  S20  1  0.168501  0.337002  0.135443  1
  S  S21  1  0.832572  0.167428  0.624727  1
  S  S22  1  0.334855  0.167428  0.624727  1
  S  S23  1  0.662998  0.831499  0.135443  1
  S  S24  1  0.168501  0.831499  0.135443  1
  S  S25  1  0.832572  0.665145  0.624727  1
