# generated using pymatgen
data_TbYb5Si24Os5Rh3
_symmetry_space_group_name_H-M   'P 1'
_cell_length_a   10.14224373
_cell_length_b   10.14135122
_cell_length_c   8.16529441
_cell_angle_alpha   89.88668834
_cell_angle_beta   89.92315696
_cell_angle_gamma   132.54673541
_symmetry_Int_Tables_number   1
_chemical_formula_structural   TbYb5Si24Os5Rh3
_chemical_formula_sum   'Tb1 Yb5 Si24 Os5 Rh3'
_cell_volume   618.73403354
_cell_formula_units_Z   1
loop_
 _symmetry_equiv_pos_site_id
 _symmetry_equiv_pos_as_xyz
  1  'x, y, z'
loop_
 _atom_site_type_symbol
 _atom_site_label
 _atom_site_symmetry_multiplicity
 _atom_site_fract_x
 _atom_site_fract_y
 _atom_site_fract_z
 _atom_site_occupancy
  Tb  Tb0  1  0.001006  0.502068  0.749341  1
  Yb  Yb1  1  0.499264  0.499224  0.500514  1
  Yb  Yb2  1  0.999956  0.000005  0.999677  1
  Yb  Yb3  1  0.502039  0.001383  0.749626  1
  Yb  Yb4  1  0.998874  0.499299  0.250836  1
  Yb  Yb5  1  0.498617  0.998204  0.250950  1
  Si  Si6  1  0.794029  0.204035  0.498834  1
  Si  Si7  1  0.295988  0.706843  0.001184  1
  Si  Si8  1  0.207605  0.797363  0.499583  1
  Si  Si9  1  0.703297  0.292679  0.001901  1
  Si  Si10  1  0.328941  0.330598  0.830248  1
  Si  Si11  1  0.665241  0.667562  0.166928  1
  Si  Si12  1  0.166383  0.164161  0.330480  1
  Si  Si13  1  0.831123  0.829562  0.665489  1
  Si  Si14  1  0.122498  0.888795  0.728392  1
  Si  Si15  1  0.116862  0.881920  0.271088  1
  Si  Si16  1  0.614201  0.378974  0.229006  1
  Si  Si17  1  0.621140  0.386182  0.772586  1
  Si  Si18  1  0.882588  0.117241  0.270880  1
  Si  Si19  1  0.888696  0.122193  0.727923  1
  Si  Si20  1  0.386164  0.621315  0.772375  1
  Si  Si21  1  0.378652  0.613986  0.228859  1
  Si  Si22  1  0.346481  0.112214  0.503916  1
  Si  Si23  1  0.888618  0.655357  0.500212  1
  Si  Si24  1  0.389612  0.153929  0.002466  1
  Si  Si25  1  0.844797  0.610521  0.997740  1
  Si  Si26  1  0.653733  0.887981  0.500517  1
  Si  Si27  1  0.111646  0.344610  0.503963  1
  Si  Si28  1  0.611031  0.846599  0.998045  1
  Si  Si29  1  0.155634  0.390383  0.002503  1
  Os  Os30  1  0.671319  0.332227  0.501235  1
  Os  Os31  1  0.168044  0.829126  0.998699  1
  Os  Os32  1  0.329468  0.668117  0.501098  1
  Os  Os33  1  0.831937  0.171300  0.998477  1
  Os  Os34  1  0.123524  0.123397  0.623394  1
  Rh  Rh35  1  0.871944  0.872902  0.372118  1
  Rh  Rh36  1  0.374618  0.373546  0.124513  1
  Rh  Rh37  1  0.624427  0.624200  0.874408  1
