# generated using pymatgen
data_Gd(S8Br)3
_symmetry_space_group_name_H-M   'P 1'
_cell_length_a   4.14597891
_cell_length_b   15.29882702
_cell_length_c   15.29882553
_cell_angle_alpha   119.19344042
_cell_angle_beta   95.18278833
_cell_angle_gamma   95.18277608
_symmetry_Int_Tables_number   1
_chemical_formula_structural   Gd(S8Br)3
_chemical_formula_sum   'Gd1 S24 Br3'
_cell_volume   833.51909754
_cell_formula_units_Z   1
loop_
 _symmetry_equiv_pos_site_id
 _symmetry_equiv_pos_as_xyz
  1  'x, y, z'
loop_
 _atom_site_type_symbol
 _atom_site_label
 _atom_site_symmetry_multiplicity
 _atom_site_fract_x
 _atom_site_fract_y
 _atom_site_fract_z
 _atom_site_occupancy
  Gd  Gd0  1  0.553825  0.000000  0.000000  1
  S  S1  1  0.404910  0.406811  0.000000  1
  S  S2  1  0.549442  0.722820  0.000000  1
  S  S3  1  0.261808  0.520368  0.126872  1
  S  S4  1  0.364493  0.742244  0.128283  1
  S  S5  1  0.574138  0.654289  0.178413  1
  S  S6  1  0.622250  0.386039  0.257756  1
  S  S7  1  0.826620  0.277180  0.277180  1
  S  S8  1  0.919848  0.524123  0.345710  1
  S  S9  1  0.134937  0.873129  0.393497  1
  S  S10  1  0.622250  0.257756  0.386039  1
  S  S11  1  0.404910  0.000000  0.406811  1
  S  S12  1  0.395725  0.821588  0.475877  1
  S  S13  1  0.741441  0.606503  0.479633  1
  S  S14  1  0.261808  0.126872  0.520368  1
  S  S15  1  0.919848  0.345710  0.524123  1
  S  S16  1  0.998100  0.593189  0.593189  1
  S  S17  1  0.236211  0.871717  0.613961  1
  S  S18  1  0.741441  0.479633  0.606503  1
  S  S19  1  0.574138  0.178413  0.654289  1
  S  S20  1  0.549442  0.000000  0.722820  1
  S  S21  1  0.364493  0.128283  0.742244  1
  S  S22  1  0.395725  0.475877  0.821588  1
  S  S23  1  0.236211  0.613961  0.871717  1
  S  S24  1  0.134937  0.393497  0.873129  1
  Br  Br25  1  0.100129  0.136424  0.000000  1
  Br  Br26  1  0.100129  0.000000  0.136424  1
  Br  Br27  1  0.963706  0.863576  0.863576  1
