# generated using pymatgen
data_ThMn4Al3Re5
_symmetry_space_group_name_H-M   'P 1'
_cell_length_a   4.90960487
_cell_length_b   6.75939736
_cell_length_c   6.75939821
_cell_angle_alpha   82.94376209
_cell_angle_beta   68.70506815
_cell_angle_gamma   68.70507116
_symmetry_Int_Tables_number   1
_chemical_formula_structural   ThMn4Al3Re5
_chemical_formula_sum   'Th1 Mn4 Al3 Re5'
_cell_volume   194.72106386
_cell_formula_units_Z   1
loop_
 _symmetry_equiv_pos_site_id
 _symmetry_equiv_pos_as_xyz
  1  'x, y, z'
loop_
 _atom_site_type_symbol
 _atom_site_label
 _atom_site_symmetry_multiplicity
 _atom_site_fract_x
 _atom_site_fract_y
 _atom_site_fract_z
 _atom_site_occupancy
  Th  Th0  1  0.000000  0.998910  0.001090  1
  Mn  Mn1  1  0.999786  0.999975  0.499114  1
  Mn  Mn2  1  0.501125  0.999975  0.499114  1
  Mn  Mn3  1  0.498875  0.500886  0.000025  1
  Mn  Mn4  1  0.000214  0.500886  0.000025  1
  Al  Al5  1  0.500000  0.231112  0.768888  1
  Al  Al6  1  0.724290  0.774868  0.776551  1
  Al  Al7  1  0.275710  0.223449  0.225132  1
  Re  Re8  1  0.000000  0.358272  0.641728  1
  Re  Re9  1  0.000000  0.640300  0.359700  1
  Re  Re10  1  0.643658  0.354471  0.358213  1
  Re  Re11  1  0.356342  0.641787  0.645529  1
  Re  Re12  1  0.500000  0.775110  0.224890  1
