# generated using pymatgen
data_Tb8Si13Pd3
_symmetry_space_group_name_H-M   'P 1'
_cell_length_a   8.16833200
_cell_length_b   8.16833162
_cell_length_c   8.09773100
_cell_angle_alpha   90.00000000
_cell_angle_beta   90.00000000
_cell_angle_gamma   120.00000965
_symmetry_Int_Tables_number   1
_chemical_formula_structural   Tb8Si13Pd3
_chemical_formula_sum   'Tb8 Si13 Pd3'
_cell_volume   467.90822286
_cell_formula_units_Z   1
loop_
 _symmetry_equiv_pos_site_id
 _symmetry_equiv_pos_as_xyz
  1  'x, y, z'
loop_
 _atom_site_type_symbol
 _atom_site_label
 _atom_site_symmetry_multiplicity
 _atom_site_fract_x
 _atom_site_fract_y
 _atom_site_fract_z
 _atom_site_occupancy
  Tb  Tb0  1  0.497843  0.995687  0.247043  1
  Tb  Tb1  1  0.496953  0.993907  0.752978  1
  Tb  Tb2  1  0.004313  0.502157  0.247043  1
  Tb  Tb3  1  0.006093  0.503047  0.752978  1
  Tb  Tb4  1  0.497843  0.502157  0.247043  1
  Tb  Tb5  1  0.496953  0.503047  0.752978  1
  Tb  Tb6  1  0.000000  0.000000  0.248793  1
  Tb  Tb7  1  0.000000  0.000000  0.751175  1
  Si  Si8  1  0.333333  0.666667  0.001013  1
  Si  Si9  1  0.165372  0.330743  0.999732  1
  Si  Si10  1  0.833257  0.666515  0.000404  1
  Si  Si11  1  0.669257  0.834628  0.999732  1
  Si  Si12  1  0.833835  0.667672  0.501058  1
  Si  Si13  1  0.333485  0.166743  0.000404  1
  Si  Si14  1  0.165573  0.331147  0.498884  1
  Si  Si15  1  0.165372  0.834628  0.999732  1
  Si  Si16  1  0.332328  0.166165  0.501058  1
  Si  Si17  1  0.833257  0.166743  0.000404  1
  Si  Si18  1  0.668853  0.834427  0.498884  1
  Si  Si19  1  0.833835  0.166165  0.501058  1
  Si  Si20  1  0.165573  0.834427  0.498884  1
  Pd  Pd21  1  0.666667  0.333333  0.998515  1
  Pd  Pd22  1  0.666667  0.333333  0.501007  1
  Pd  Pd23  1  0.333333  0.666667  0.499197  1
