# generated using pymatgen
data_Cs4As2PbS8
_symmetry_space_group_name_H-M   'P 1'
_cell_length_a   9.78818319
_cell_length_b   9.90259102
_cell_length_c   12.07523780
_cell_angle_alpha   105.81846164
_cell_angle_beta   103.12669320
_cell_angle_gamma   93.79292490
_symmetry_Int_Tables_number   1
_chemical_formula_structural   Cs4As2PbS8
_chemical_formula_sum   'Cs8 As4 Pb2 S16'
_cell_volume   1086.39377726
_cell_formula_units_Z   2
loop_
 _symmetry_equiv_pos_site_id
 _symmetry_equiv_pos_as_xyz
  1  'x, y, z'
loop_
 _atom_site_type_symbol
 _atom_site_label
 _atom_site_symmetry_multiplicity
 _atom_site_fract_x
 _atom_site_fract_y
 _atom_site_fract_z
 _atom_site_occupancy
  Cs  Cs0  1  0.937084  0.518519  0.252164  1
  Cs  Cs1  1  0.062916  0.481481  0.747836  1
  Cs  Cs2  1  0.766125  0.991457  0.466045  1
  Cs  Cs3  1  0.233875  0.008543  0.533955  1
  Cs  Cs4  1  0.597751  0.742648  0.023854  1
  Cs  Cs5  1  0.402249  0.257352  0.976146  1
  Cs  Cs6  1  0.617850  0.679245  0.616850  1
  Cs  Cs7  1  0.382150  0.320755  0.383150  1
  As  As8  1  0.949954  0.112922  0.232760  1
  As  As9  1  0.050046  0.887078  0.767240  1
  As  As10  1  0.372717  0.683130  0.258303  1
  As  As11  1  0.627283  0.316870  0.741697  1
  Pb  Pb12  1  0.847892  0.137030  0.923057  1
  Pb  Pb13  1  0.152108  0.862970  0.076943  1
  S  S14  1  0.957930  0.890928  0.233472  1
  S  S15  1  0.042070  0.109072  0.766528  1
  S  S16  1  0.583627  0.091297  0.736938  1
  S  S17  1  0.416373  0.908703  0.263062  1
  S  S18  1  0.291664  0.667011  0.408019  1
  S  S19  1  0.708336  0.332989  0.591981  1
  S  S20  1  0.788681  0.422304  0.910822  1
  S  S21  1  0.211319  0.577696  0.089178  1
  S  S22  1  0.013275  0.252685  0.412414  1
  S  S23  1  0.986725  0.747315  0.587586  1
  S  S24  1  0.100035  0.170424  0.133757  1
  S  S25  1  0.899965  0.829576  0.866243  1
  S  S26  1  0.737231  0.135135  0.137627  1
  S  S27  1  0.262769  0.864865  0.862373  1
  S  S28  1  0.566248  0.585468  0.261672  1
  S  S29  1  0.433752  0.414532  0.738328  1
