# generated using pymatgen
data_Ti4ZnCuCN
_symmetry_space_group_name_H-M   'P 1'
_cell_length_a   8.20340355
_cell_length_b   8.20340316
_cell_length_c   4.22084400
_cell_angle_alpha   90.00000000
_cell_angle_beta   90.00000000
_cell_angle_gamma   158.78335370
_symmetry_Int_Tables_number   1
_chemical_formula_structural   Ti4ZnCuCN
_chemical_formula_sum   'Ti4 Zn1 Cu1 C1 N1'
_cell_volume   102.79465351
_cell_formula_units_Z   1
loop_
 _symmetry_equiv_pos_site_id
 _symmetry_equiv_pos_as_xyz
  1  'x, y, z'
loop_
 _atom_site_type_symbol
 _atom_site_label
 _atom_site_symmetry_multiplicity
 _atom_site_fract_x
 _atom_site_fract_y
 _atom_site_fract_z
 _atom_site_occupancy
  Ti  Ti0  1  0.789397  0.210603  0.250000  1
  Ti  Ti1  1  0.213466  0.786534  0.750000  1
  Ti  Ti2  1  0.608583  0.391417  0.250000  1
  Ti  Ti3  1  0.390031  0.609969  0.750000  1
  Zn  Zn4  1  0.040766  0.959234  0.750000  1
  Cu  Cu5  1  0.958007  0.041993  0.250000  1
  C  C6  1  0.197438  0.802562  0.250000  1
  N  N7  1  0.802311  0.197689  0.750000  1
