# generated using pymatgen
data_Ce2SbNO
_symmetry_space_group_name_H-M   'P 1'
_cell_length_a   6.99443789
_cell_length_b   6.99443799
_cell_length_c   6.99443892
_cell_angle_alpha   146.83670899
_cell_angle_beta   146.83670665
_cell_angle_gamma   47.60562542
_symmetry_Int_Tables_number   1
_chemical_formula_structural   Ce2SbNO
_chemical_formula_sum   'Ce2 Sb1 N1 O1'
_cell_volume   101.99110364
_cell_formula_units_Z   1
loop_
 _symmetry_equiv_pos_site_id
 _symmetry_equiv_pos_as_xyz
  1  'x, y, z'
loop_
 _atom_site_type_symbol
 _atom_site_label
 _atom_site_symmetry_multiplicity
 _atom_site_fract_x
 _atom_site_fract_y
 _atom_site_fract_z
 _atom_site_occupancy
  Ce  Ce0  1  0.660002  0.660002  0.000000  1
  Ce  Ce1  1  0.339998  0.339998  0.000000  1
  Sb  Sb2  1  0.000000  0.000000  0.000000  1
  N  N3  1  0.750000  0.250000  0.500000  1
  O  O4  1  0.250000  0.750000  0.500000  1
