# generated using pymatgen
data_Ba3Ho2IrO9
_symmetry_space_group_name_H-M   'P 1'
_cell_length_a   6.07308200
_cell_length_b   6.07308175
_cell_length_c   14.75257000
_cell_angle_alpha   90.00000000
_cell_angle_beta   90.00000000
_cell_angle_gamma   120.00000137
_symmetry_Int_Tables_number   1
_chemical_formula_structural   Ba3Ho2IrO9
_chemical_formula_sum   'Ba6 Ho4 Ir2 O18'
_cell_volume   471.21226049
_cell_formula_units_Z   2
loop_
 _symmetry_equiv_pos_site_id
 _symmetry_equiv_pos_as_xyz
  1  'x, y, z'
loop_
 _atom_site_type_symbol
 _atom_site_label
 _atom_site_symmetry_multiplicity
 _atom_site_fract_x
 _atom_site_fract_y
 _atom_site_fract_z
 _atom_site_occupancy
  Ba  Ba0  1  0.333333  0.666667  0.088945  1
  Ba  Ba1  1  0.666667  0.333333  0.911055  1
  Ba  Ba2  1  0.333333  0.666667  0.588945  1
  Ba  Ba3  1  0.666667  0.333333  0.411055  1
  Ba  Ba4  1  0.000000  0.000000  0.250000  1
  Ba  Ba5  1  0.000000  0.000000  0.750000  1
  Ho  Ho6  1  0.333333  0.666667  0.833657  1
  Ho  Ho7  1  0.666667  0.333333  0.166343  1
  Ho  Ho8  1  0.333333  0.666667  0.333657  1
  Ho  Ho9  1  0.666667  0.333333  0.666343  1
  Ir  Ir10  1  0.000000  0.000000  0.000000  1
  Ir  Ir11  1  0.000000  0.000000  0.500000  1
  O  O12  1  0.878726  0.693675  0.575493  1
  O  O13  1  0.000000  0.544960  0.250000  1
  O  O14  1  0.185050  0.306325  0.924507  1
  O  O15  1  0.878726  0.185050  0.075493  1
  O  O16  1  0.814950  0.121274  0.575493  1
  O  O17  1  0.814950  0.693675  0.075493  1
  O  O18  1  0.693675  0.814950  0.424507  1
  O  O19  1  0.455040  0.000000  0.750000  1
  O  O20  1  0.544960  0.544960  0.750000  1
  O  O21  1  0.306325  0.185050  0.575493  1
  O  O22  1  0.121274  0.306325  0.424507  1
  O  O23  1  0.185050  0.878726  0.424507  1
  O  O24  1  0.306325  0.121274  0.075493  1
  O  O25  1  0.544960  0.000000  0.250000  1
  O  O26  1  0.455040  0.455040  0.250000  1
  O  O27  1  0.000000  0.455040  0.750000  1
  O  O28  1  0.121274  0.814950  0.924507  1
  O  O29  1  0.693675  0.878726  0.924507  1
