# generated using pymatgen
data_ErTmLu8(In2Pt)4
_symmetry_space_group_name_H-M   'P 1'
_cell_length_a   3.58627700
_cell_length_b   8.03252100
_cell_length_c   18.00059300
_cell_angle_alpha   89.99993964
_cell_angle_beta   90.00000000
_cell_angle_gamma   90.00000000
_symmetry_Int_Tables_number   1
_chemical_formula_structural   ErTmLu8(In2Pt)4
_chemical_formula_sum   'Er1 Tm1 Lu8 In8 Pt4'
_cell_volume   518.54029812
_cell_formula_units_Z   1
loop_
 _symmetry_equiv_pos_site_id
 _symmetry_equiv_pos_as_xyz
  1  'x, y, z'
loop_
 _atom_site_type_symbol
 _atom_site_label
 _atom_site_symmetry_multiplicity
 _atom_site_fract_x
 _atom_site_fract_y
 _atom_site_fract_z
 _atom_site_occupancy
  Er  Er0  1  0.000000  0.000000  0.000000  1
  Tm  Tm1  1  0.000000  0.500000  0.500000  1
  Lu  Lu2  1  0.000000  0.116486  0.414091  1
  Lu  Lu3  1  0.000000  0.883514  0.585909  1
  Lu  Lu4  1  0.000000  0.383533  0.914082  1
  Lu  Lu5  1  0.000000  0.616467  0.085918  1
  Lu  Lu6  1  0.000000  0.244498  0.221372  1
  Lu  Lu7  1  0.000000  0.755502  0.778628  1
  Lu  Lu8  1  0.000000  0.255439  0.721362  1
  Lu  Lu9  1  0.000000  0.744561  0.278638  1
  In  In10  1  0.500000  0.424089  0.352129  1
  In  In11  1  0.500000  0.575911  0.647871  1
  In  In12  1  0.500000  0.075960  0.852066  1
  In  In13  1  0.500000  0.924040  0.147934  1
  In  In14  1  0.500000  0.292745  0.066145  1
  In  In15  1  0.500000  0.707255  0.933855  1
  In  In16  1  0.500000  0.207423  0.566113  1
  In  In17  1  0.500000  0.792577  0.433887  1
  Pt  Pt18  1  0.500000  0.025944  0.303828  1
  Pt  Pt19  1  0.500000  0.974056  0.696172  1
  Pt  Pt20  1  0.500000  0.474059  0.803813  1
  Pt  Pt21  1  0.500000  0.525941  0.196187  1
