# generated using pymatgen
data_Ho2LuSc2(In2Rh)2
_symmetry_space_group_name_H-M   'P 1'
_cell_length_a   3.52296200
_cell_length_b   7.85472485
_cell_length_c   17.93139103
_cell_angle_alpha   89.80099694
_cell_angle_beta   90.00000000
_cell_angle_gamma   90.00000000
_symmetry_Int_Tables_number   1
_chemical_formula_structural   Ho2LuSc2(In2Rh)2
_chemical_formula_sum   'Ho4 Lu2 Sc4 In8 Rh4'
_cell_volume   496.19261562
_cell_formula_units_Z   2
loop_
 _symmetry_equiv_pos_site_id
 _symmetry_equiv_pos_as_xyz
  1  'x, y, z'
loop_
 _atom_site_type_symbol
 _atom_site_label
 _atom_site_symmetry_multiplicity
 _atom_site_fract_x
 _atom_site_fract_y
 _atom_site_fract_z
 _atom_site_occupancy
  Ho  Ho0  1  0.000000  0.000000  0.000000  1
  Ho  Ho1  1  0.000000  0.500000  0.500000  1
  Ho  Ho2  1  0.000000  0.247874  0.718809  1
  Ho  Ho3  1  0.000000  0.752126  0.281191  1
  Lu  Lu4  1  0.000000  0.747592  0.780884  1
  Lu  Lu5  1  0.000000  0.252408  0.219116  1
  Sc  Sc6  1  0.000000  0.877793  0.588273  1
  Sc  Sc7  1  0.000000  0.122207  0.411727  1
  Sc  Sc8  1  0.000000  0.378296  0.911785  1
  Sc  Sc9  1  0.000000  0.621704  0.088215  1
  In  In10  1  0.500000  0.808425  0.437618  1
  In  In11  1  0.500000  0.191575  0.562382  1
  In  In12  1  0.500000  0.307541  0.062905  1
  In  In13  1  0.500000  0.692459  0.937095  1
  In  In14  1  0.500000  0.927256  0.149493  1
  In  In15  1  0.500000  0.072744  0.850507  1
  In  In16  1  0.500000  0.425386  0.350202  1
  In  In17  1  0.500000  0.574614  0.649798  1
  Rh  Rh18  1  0.500000  0.961101  0.692765  1
  Rh  Rh19  1  0.500000  0.038899  0.307235  1
  Rh  Rh20  1  0.500000  0.464976  0.807660  1
  Rh  Rh21  1  0.500000  0.535024  0.192340  1
