# generated using pymatgen
data_Ca3Se2(IO3)2
_symmetry_space_group_name_H-M   'P 1'
_cell_length_a   6.95807048
_cell_length_b   6.95807012
_cell_length_c   7.41243126
_cell_angle_alpha   86.39910850
_cell_angle_beta   86.39910778
_cell_angle_gamma   47.12168829
_symmetry_Int_Tables_number   1
_chemical_formula_structural   Ca3Se2(IO3)2
_chemical_formula_sum   'Ca3 Se2 I2 O6'
_cell_volume   262.36278265
_cell_formula_units_Z   1
loop_
 _symmetry_equiv_pos_site_id
 _symmetry_equiv_pos_as_xyz
  1  'x, y, z'
loop_
 _atom_site_type_symbol
 _atom_site_label
 _atom_site_symmetry_multiplicity
 _atom_site_fract_x
 _atom_site_fract_y
 _atom_site_fract_z
 _atom_site_occupancy
  Ca  Ca0  1  0.280738  0.296100  0.170584  1
  Ca  Ca1  1  0.703900  0.719262  0.829416  1
  Ca  Ca2  1  0.932935  0.067065  0.000000  1
  Se  Se3  1  0.396260  0.413749  0.762762  1
  Se  Se4  1  0.586251  0.603740  0.237238  1
  I  I5  1  0.166562  0.129058  0.608579  1
  I  I6  1  0.870942  0.833438  0.391421  1
  O  O7  1  0.874963  0.436812  0.099095  1
  O  O8  1  0.373542  0.887220  0.099165  1
  O  O9  1  0.112780  0.626458  0.900835  1
  O  O10  1  0.563188  0.125037  0.900905  1
  O  O11  1  0.526535  0.411595  0.193279  1
  O  O12  1  0.588405  0.473465  0.806721  1
