# generated using pymatgen
data_Dy3Er4Th(ReB6)4
_symmetry_space_group_name_H-M   'P 1'
_cell_length_a   3.69422000
_cell_length_b   9.17110444
_cell_length_c   11.57136801
_cell_angle_alpha   90.03500345
_cell_angle_beta   90.00000000
_cell_angle_gamma   90.00000000
_symmetry_Int_Tables_number   1
_chemical_formula_structural   Dy3Er4Th(ReB6)4
_chemical_formula_sum   'Dy3 Er4 Th1 Re4 B24'
_cell_volume   392.03877133
_cell_formula_units_Z   1
loop_
 _symmetry_equiv_pos_site_id
 _symmetry_equiv_pos_as_xyz
  1  'x, y, z'
loop_
 _atom_site_type_symbol
 _atom_site_label
 _atom_site_symmetry_multiplicity
 _atom_site_fract_x
 _atom_site_fract_y
 _atom_site_fract_z
 _atom_site_occupancy
  Dy  Dy0  1  0.000000  0.677966  0.587331  1
  Dy  Dy1  1  0.000000  0.823126  0.085121  1
  Dy  Dy2  1  0.000000  0.176137  0.913954  1
  Er  Er3  1  0.000000  0.942086  0.369486  1
  Er  Er4  1  0.000000  0.055933  0.631320  1
  Er  Er5  1  0.000000  0.443574  0.128231  1
  Er  Er6  1  0.000000  0.557365  0.870672  1
  Th  Th7  1  0.000000  0.322267  0.414137  1
  Re  Re8  1  0.000000  0.639169  0.320197  1
  Re  Re9  1  0.000000  0.361698  0.680675  1
  Re  Re10  1  0.000000  0.138374  0.178450  1
  Re  Re11  1  0.000000  0.861375  0.820633  1
  B  B12  1  0.500000  0.555944  0.432120  1
  B  B13  1  0.500000  0.446939  0.569835  1
  B  B14  1  0.500000  0.053101  0.066391  1
  B  B15  1  0.500000  0.946369  0.932726  1
  B  B16  1  0.500000  0.750609  0.418081  1
  B  B17  1  0.500000  0.250354  0.585218  1
  B  B18  1  0.500000  0.249183  0.080206  1
  B  B19  1  0.500000  0.750442  0.918286  1
  B  B20  1  0.500000  0.792342  0.264997  1
  B  B21  1  0.500000  0.207895  0.736202  1
  B  B22  1  0.500000  0.290693  0.232004  1
  B  B23  1  0.500000  0.707935  0.765816  1
  B  B24  1  0.500000  0.631760  0.184230  1
  B  B25  1  0.500000  0.369938  0.815563  1
  B  B26  1  0.500000  0.128904  0.312350  1
  B  B27  1  0.500000  0.869215  0.685920  1
  B  B28  1  0.500000  0.981853  0.211073  1
  B  B29  1  0.500000  0.017170  0.788367  1
  B  B30  1  0.500000  0.485367  0.285924  1
  B  B31  1  0.500000  0.518201  0.713879  1
  B  B32  1  0.500000  0.600557  0.027434  1
  B  B33  1  0.500000  0.400198  0.971768  1
  B  B34  1  0.500000  0.096422  0.473184  1
  B  B35  1  0.500000  0.899538  0.528223  1
