# generated using pymatgen
data_Ce2Zr3Si3Ge
_symmetry_space_group_name_H-M   'P 1'
_cell_length_a   7.40816773
_cell_length_b   7.22828649
_cell_length_c   7.42258679
_cell_angle_alpha   71.33354234
_cell_angle_beta   89.89097276
_cell_angle_gamma   89.93146560
_symmetry_Int_Tables_number   1
_chemical_formula_structural   Ce2Zr3Si3Ge
_chemical_formula_sum   'Ce4 Zr6 Si6 Ge2'
_cell_volume   376.55893355
_cell_formula_units_Z   2
loop_
 _symmetry_equiv_pos_site_id
 _symmetry_equiv_pos_as_xyz
  1  'x, y, z'
loop_
 _atom_site_type_symbol
 _atom_site_label
 _atom_site_symmetry_multiplicity
 _atom_site_fract_x
 _atom_site_fract_y
 _atom_site_fract_z
 _atom_site_occupancy
  Ce  Ce0  1  0.666920  0.926981  0.690968  1
  Ce  Ce1  1  0.333080  0.073019  0.309032  1
  Ce  Ce2  1  0.171740  0.570989  0.308425  1
  Ce  Ce3  1  0.828260  0.429011  0.691575  1
  Zr  Zr4  1  0.674043  0.748502  0.246238  1
  Zr  Zr5  1  0.325957  0.251498  0.753762  1
  Zr  Zr6  1  0.178843  0.747834  0.754402  1
  Zr  Zr7  1  0.821157  0.252166  0.245598  1
  Zr  Zr8  1  0.000000  0.000000  0.000000  1
  Zr  Zr9  1  0.500000  0.500000  0.000000  1
  Si  Si10  1  0.465956  0.627371  0.583731  1
  Si  Si11  1  0.534044  0.372629  0.416269  1
  Si  Si12  1  0.876482  0.628376  0.992576  1
  Si  Si13  1  0.123518  0.371624  0.007424  1
  Si  Si14  1  0.375956  0.872526  0.007297  1
  Si  Si15  1  0.624044  0.127474  0.992703  1
  Ge  Ge16  1  0.965143  0.865482  0.414668  1
  Ge  Ge17  1  0.034857  0.134518  0.585332  1
