# generated using pymatgen
data_Tm12Fe4NiSn
_symmetry_space_group_name_H-M   'P 1'
_cell_length_a   8.16779606
_cell_length_b   8.16779533
_cell_length_c   8.16779530
_cell_angle_alpha   110.56280642
_cell_angle_beta   111.13937274
_cell_angle_gamma   106.74593328
_symmetry_Int_Tables_number   1
_chemical_formula_structural   Tm12Fe4NiSn
_chemical_formula_sum   'Tm12 Fe4 Ni1 Sn1'
_cell_volume   418.74339467
_cell_formula_units_Z   1
loop_
 _symmetry_equiv_pos_site_id
 _symmetry_equiv_pos_as_xyz
  1  'x, y, z'
loop_
 _atom_site_type_symbol
 _atom_site_label
 _atom_site_symmetry_multiplicity
 _atom_site_fract_x
 _atom_site_fract_y
 _atom_site_fract_z
 _atom_site_occupancy
  Tm  Tm0  1  0.412958  0.215222  0.197736  1
  Tm  Tm1  1  0.587042  0.784778  0.802264  1
  Tm  Tm2  1  0.017485  0.215222  0.802264  1
  Tm  Tm3  1  0.982515  0.784778  0.197736  1
  Tm  Tm4  1  0.186378  0.286682  0.473060  1
  Tm  Tm5  1  0.813622  0.713318  0.526940  1
  Tm  Tm6  1  0.186378  0.713318  0.899696  1
  Tm  Tm7  1  0.813622  0.286682  0.100304  1
  Tm  Tm8  1  0.312118  0.613913  0.301792  1
  Tm  Tm9  1  0.687882  0.386087  0.698208  1
  Tm  Tm10  1  0.312118  0.010326  0.698208  1
  Tm  Tm11  1  0.687882  0.989674  0.301792  1
  Fe  Fe12  1  0.382577  0.000000  0.382577  1
  Fe  Fe13  1  0.617423  0.000000  0.617423  1
  Fe  Fe14  1  0.109071  0.609071  0.500000  1
  Fe  Fe15  1  0.890929  0.390929  0.500000  1
  Ni  Ni16  1  0.000000  0.000000  0.000000  1
  Sn  Sn17  1  0.500000  0.500000  0.000000  1
