# generated using pymatgen
data_Mg3Zr5(FeB6)4
_symmetry_space_group_name_H-M   'P 1'
_cell_length_a   8.83421450
_cell_length_b   11.12184684
_cell_length_c   3.35635100
_cell_angle_alpha   90.00000000
_cell_angle_beta   90.00000000
_cell_angle_gamma   90.12750186
_symmetry_Int_Tables_number   1
_chemical_formula_structural   Mg3Zr5(FeB6)4
_chemical_formula_sum   'Mg3 Zr5 Fe4 B24'
_cell_volume   329.77000211
_cell_formula_units_Z   1
loop_
 _symmetry_equiv_pos_site_id
 _symmetry_equiv_pos_as_xyz
  1  'x, y, z'
loop_
 _atom_site_type_symbol
 _atom_site_label
 _atom_site_symmetry_multiplicity
 _atom_site_fract_x
 _atom_site_fract_y
 _atom_site_fract_z
 _atom_site_occupancy
  Mg  Mg0  1  0.057038  0.631887  0.000000  1
  Mg  Mg1  1  0.554080  0.870175  0.000000  1
  Mg  Mg2  1  0.178786  0.912514  0.000000  1
  Zr  Zr3  1  0.821054  0.084898  0.000000  1
  Zr  Zr4  1  0.442743  0.125936  0.000000  1
  Zr  Zr5  1  0.944475  0.373702  0.000000  1
  Zr  Zr6  1  0.322328  0.416272  0.000000  1
  Zr  Zr7  1  0.676974  0.587574  0.000000  1
  Fe  Fe8  1  0.139841  0.181317  0.000000  1
  Fe  Fe9  1  0.640420  0.320954  0.000000  1
  Fe  Fe10  1  0.361634  0.678004  0.000000  1
  Fe  Fe11  1  0.857232  0.819317  0.000000  1
  B  B12  1  0.603816  0.025576  0.500001  1
  B  B13  1  0.054177  0.063728  0.500001  1
  B  B14  1  0.248161  0.077025  0.500001  1
  B  B15  1  0.632437  0.181902  0.500001  1
  B  B16  1  0.983252  0.210653  0.500001  1
  B  B17  1  0.293115  0.235502  0.500001  1
  B  B18  1  0.794141  0.263136  0.500001  1
  B  B19  1  0.482400  0.287741  0.500001  1
  B  B20  1  0.132826  0.317643  0.500001  1
  B  B21  1  0.749449  0.421647  0.500001  1
  B  B22  1  0.553517  0.434966  0.500001  1
  B  B23  1  0.105239  0.474294  0.500001  1
  B  B24  1  0.896807  0.530996  0.500001  1
  B  B25  1  0.445591  0.567285  0.500001  1
  B  B26  1  0.249134  0.582821  0.500001  1
  B  B27  1  0.869560  0.685989  0.500001  1
  B  B28  1  0.517484  0.713007  0.500001  1
  B  B29  1  0.206483  0.736660  0.500001  1
  B  B30  1  0.705318  0.764834  0.500001  1
  B  B31  1  0.019130  0.787764  0.500001  1
  B  B32  1  0.369577  0.815182  0.500001  1
  B  B33  1  0.748594  0.917932  0.500001  1
  B  B34  1  0.945101  0.931827  0.500001  1
  B  B35  1  0.398078  0.969340  0.500001  1
