# generated using pymatgen
data_Ho3Mg2AlGa2Ag
_symmetry_space_group_name_H-M   'P 1'
_cell_length_a   7.11074600
_cell_length_b   7.20075893
_cell_length_c   4.42889500
_cell_angle_alpha   90.00000000
_cell_angle_beta   90.00000000
_cell_angle_gamma   119.58734191
_symmetry_Int_Tables_number   1
_chemical_formula_structural   Ho3Mg2AlGa2Ag
_chemical_formula_sum   'Ho3 Mg2 Al1 Ga2 Ag1'
_cell_volume   197.20156914
_cell_formula_units_Z   1
loop_
 _symmetry_equiv_pos_site_id
 _symmetry_equiv_pos_as_xyz
  1  'x, y, z'
loop_
 _atom_site_type_symbol
 _atom_site_label
 _atom_site_symmetry_multiplicity
 _atom_site_fract_x
 _atom_site_fract_y
 _atom_site_fract_z
 _atom_site_occupancy
  Ho  Ho0  1  0.568874  0.000000  0.000000  1
  Ho  Ho1  1  0.000064  0.578290  0.000000  1
  Ho  Ho2  1  0.421774  0.421710  0.000000  1
  Mg  Mg3  1  0.001932  0.242494  0.500000  1
  Mg  Mg4  1  0.759437  0.757506  0.500000  1
  Al  Al5  1  0.248705  0.000000  0.500000  1
  Ga  Ga6  1  0.331171  0.673727  0.500000  1
  Ga  Ga7  1  0.657445  0.326273  0.500000  1
  Ag  Ag8  1  0.010598  0.000000  0.000000  1
