# generated using pymatgen
data_LaTb5YbMnBr12
_symmetry_space_group_name_H-M   'P 1'
_cell_length_a   9.40951413
_cell_length_b   9.33981640
_cell_length_c   9.13673532
_cell_angle_alpha   106.38063899
_cell_angle_beta   107.52759537
_cell_angle_gamma   106.61405067
_symmetry_Int_Tables_number   1
_chemical_formula_structural   LaTb5YbMnBr12
_chemical_formula_sum   'La1 Tb5 Yb1 Mn1 Br12'
_cell_volume   671.54208240
_cell_formula_units_Z   1
loop_
 _symmetry_equiv_pos_site_id
 _symmetry_equiv_pos_as_xyz
  1  'x, y, z'
loop_
 _atom_site_type_symbol
 _atom_site_label
 _atom_site_symmetry_multiplicity
 _atom_site_fract_x
 _atom_site_fract_y
 _atom_site_fract_z
 _atom_site_occupancy
  La  La0  1  0.596988  0.523671  0.792226  1
  Tb  Tb1  1  0.524329  0.802881  0.601951  1
  Tb  Tb2  1  0.818005  0.606107  0.529082  1
  Tb  Tb3  1  0.399527  0.474612  0.203536  1
  Tb  Tb4  1  0.475987  0.195394  0.399222  1
  Tb  Tb5  1  0.182732  0.393068  0.477729  1
  Yb  Yb6  1  0.000510  0.003827  0.996428  1
  Mn  Mn7  1  0.508650  0.500153  0.527285  1
  Br  Br8  1  0.566696  0.164781  0.710998  1
  Br  Br9  1  0.180301  0.715019  0.563712  1
  Br  Br10  1  0.712228  0.566725  0.181655  1
  Br  Br11  1  0.426773  0.808541  0.275120  1
  Br  Br12  1  0.816082  0.282216  0.425635  1
  Br  Br13  1  0.263051  0.423778  0.817237  1
  Br  Br14  1  0.666193  0.894881  0.959443  1
  Br  Br15  1  0.871869  0.951697  0.647887  1
  Br  Br16  1  0.973129  0.673004  0.880820  1
  Br  Br17  1  0.341582  0.129754  0.044634  1
  Br  Br18  1  0.126474  0.046319  0.342195  1
  Br  Br19  1  0.048894  0.343569  0.123204  1
