# generated using pymatgen
data_U3Pd12Au
_symmetry_space_group_name_H-M   'P 1'
_cell_length_a   5.78903700
_cell_length_b   5.78903716
_cell_length_c   9.52877300
_cell_angle_alpha   90.00000000
_cell_angle_beta   90.00000000
_cell_angle_gamma   120.00000481
_symmetry_Int_Tables_number   1
_chemical_formula_structural   U3Pd12Au
_chemical_formula_sum   'U3 Pd12 Au1'
_cell_volume   276.55419734
_cell_formula_units_Z   1
loop_
 _symmetry_equiv_pos_site_id
 _symmetry_equiv_pos_as_xyz
  1  'x, y, z'
loop_
 _atom_site_type_symbol
 _atom_site_label
 _atom_site_symmetry_multiplicity
 _atom_site_fract_x
 _atom_site_fract_y
 _atom_site_fract_z
 _atom_site_occupancy
  U  U0  1  0.000000  0.000000  0.511732  1
  U  U1  1  0.000000  0.000000  0.988268  1
  U  U2  1  0.666667  0.333333  0.250000  1
  Pd  Pd3  1  0.500844  0.499156  0.497941  1
  Pd  Pd4  1  0.500844  0.001687  0.497941  1
  Pd  Pd5  1  0.998313  0.499156  0.497941  1
  Pd  Pd6  1  0.500844  0.499156  0.002059  1
  Pd  Pd7  1  0.500844  0.001687  0.002059  1
  Pd  Pd8  1  0.998313  0.499156  0.002059  1
  Pd  Pd9  1  0.168888  0.831112  0.250000  1
  Pd  Pd10  1  0.168888  0.337776  0.250000  1
  Pd  Pd11  1  0.662224  0.831112  0.250000  1
  Pd  Pd12  1  0.828273  0.171727  0.750000  1
  Pd  Pd13  1  0.828273  0.656546  0.750000  1
  Pd  Pd14  1  0.343454  0.171727  0.750000  1
  Au  Au15  1  0.333333  0.666667  0.750000  1
