# generated using pymatgen
data_SmDyTh7Se17
_symmetry_space_group_name_H-M   'P 1'
_cell_length_a   8.47235899
_cell_length_b   8.44584922
_cell_length_c   11.21039300
_cell_angle_alpha   80.61244885
_cell_angle_beta   80.59389366
_cell_angle_gamma   64.84094812
_symmetry_Int_Tables_number   1
_chemical_formula_structural   SmDyTh7Se17
_chemical_formula_sum   'Sm1 Dy1 Th7 Se17'
_cell_volume   712.36163603
_cell_formula_units_Z   1
loop_
 _symmetry_equiv_pos_site_id
 _symmetry_equiv_pos_as_xyz
  1  'x, y, z'
loop_
 _atom_site_type_symbol
 _atom_site_label
 _atom_site_symmetry_multiplicity
 _atom_site_fract_x
 _atom_site_fract_y
 _atom_site_fract_z
 _atom_site_occupancy
  Sm  Sm0  1  0.812056  0.305378  0.300524  1
  Dy  Dy1  1  0.996957  0.003546  0.002137  1
  Th  Th2  1  0.303492  0.812073  0.298619  1
  Th  Th3  1  0.186402  0.697184  0.699587  1
  Th  Th4  1  0.697389  0.188115  0.698289  1
  Th  Th5  1  0.206384  0.204998  0.537263  1
  Th  Th6  1  0.793473  0.793942  0.460395  1
  Th  Th7  1  0.682416  0.680647  0.981208  1
  Th  Th8  1  0.316581  0.318985  0.022170  1
  Se  Se9  1  0.823918  0.430767  0.534121  1
  Se  Se10  1  0.432476  0.819575  0.533198  1
  Se  Se11  1  0.178526  0.566651  0.466509  1
  Se  Se12  1  0.569253  0.177070  0.468038  1
  Se  Se13  1  0.943703  0.336527  0.037308  1
  Se  Se14  1  0.334350  0.943463  0.035828  1
  Se  Se15  1  0.057444  0.666975  0.961094  1
  Se  Se16  1  0.664302  0.058593  0.961262  1
  Se  Se17  1  0.211302  0.205827  0.277477  1
  Se  Se18  1  0.790497  0.790502  0.723312  1
  Se  Se19  1  0.065611  0.064545  0.762097  1
  Se  Se20  1  0.938304  0.933612  0.240368  1
  Se  Se21  1  0.304249  0.303284  0.752569  1
  Se  Se22  1  0.692915  0.699765  0.246617  1
  Se  Se23  1  0.520183  0.521750  0.831511  1
  Se  Se24  1  0.476002  0.481781  0.165009  1
  Se  Se25  1  0.001817  0.994447  0.503488  1
