# generated using pymatgen
data_ErAl6(ZnCu2)2
_symmetry_space_group_name_H-M   'P 1'
_cell_length_a   5.07917359
_cell_length_b   6.58590943
_cell_length_c   6.58591008
_cell_angle_alpha   98.90998979
_cell_angle_beta   112.68155721
_cell_angle_gamma   67.31844125
_symmetry_Int_Tables_number   1
_chemical_formula_structural   ErAl6(ZnCu2)2
_chemical_formula_sum   'Er1 Al6 Zn2 Cu4'
_cell_volume   187.54204238
_cell_formula_units_Z   1
loop_
 _symmetry_equiv_pos_site_id
 _symmetry_equiv_pos_as_xyz
  1  'x, y, z'
loop_
 _atom_site_type_symbol
 _atom_site_label
 _atom_site_symmetry_multiplicity
 _atom_site_fract_x
 _atom_site_fract_y
 _atom_site_fract_z
 _atom_site_occupancy
  Er  Er0  1  0.000000  0.000000  0.000000  1
  Al  Al1  1  0.653322  0.346678  0.653322  1
  Al  Al2  1  0.346678  0.653322  0.346678  1
  Al  Al3  1  0.000000  0.347222  0.347222  1
  Al  Al4  1  0.000000  0.652778  0.652778  1
  Al  Al5  1  0.713395  0.786605  0.213395  1
  Al  Al6  1  0.286605  0.213395  0.786605  1
  Zn  Zn7  1  0.500000  0.778650  0.778650  1
  Zn  Zn8  1  0.500000  0.221350  0.221350  1
  Cu  Cu9  1  0.500000  0.000000  0.500000  1
  Cu  Cu10  1  0.000000  0.000000  0.500000  1
  Cu  Cu11  1  0.500000  0.500000  0.000000  1
  Cu  Cu12  1  0.000000  0.500000  0.000000  1
