# generated using pymatgen
data_Y4Ho4Re(TcB8)3
_symmetry_space_group_name_H-M   'P 1'
_cell_length_a   3.68226300
_cell_length_b   9.16252911
_cell_length_c   11.54984800
_cell_angle_alpha   90.02663166
_cell_angle_beta   90.00000000
_cell_angle_gamma   90.00000000
_symmetry_Int_Tables_number   1
_chemical_formula_structural   Y4Ho4Re(TcB8)3
_chemical_formula_sum   'Y4 Ho4 Re1 Tc3 B24'
_cell_volume   389.67845380
_cell_formula_units_Z   1
loop_
 _symmetry_equiv_pos_site_id
 _symmetry_equiv_pos_as_xyz
  1  'x, y, z'
loop_
 _atom_site_type_symbol
 _atom_site_label
 _atom_site_symmetry_multiplicity
 _atom_site_fract_x
 _atom_site_fract_y
 _atom_site_fract_z
 _atom_site_occupancy
  Y  Y0  1  0.000000  0.323658  0.414209  1
  Y  Y1  1  0.000000  0.676593  0.585754  1
  Y  Y2  1  0.000000  0.823486  0.085925  1
  Y  Y3  1  0.000000  0.176843  0.914346  1
  Ho  Ho4  1  0.000000  0.942652  0.369027  1
  Ho  Ho5  1  0.000000  0.058022  0.629965  1
  Ho  Ho6  1  0.000000  0.442531  0.130980  1
  Ho  Ho7  1  0.000000  0.556267  0.869596  1
  Re  Re8  1  0.000000  0.861112  0.820166  1
  Tc  Tc9  1  0.000000  0.639009  0.320030  1
  Tc  Tc10  1  0.000000  0.361060  0.679880  1
  Tc  Tc11  1  0.000000  0.139018  0.180009  1
  B  B12  1  0.500000  0.553593  0.432670  1
  B  B13  1  0.500000  0.446626  0.567410  1
  B  B14  1  0.500000  0.053546  0.067482  1
  B  B15  1  0.500000  0.946664  0.932825  1
  B  B16  1  0.500000  0.749231  0.418171  1
  B  B17  1  0.500000  0.251106  0.581756  1
  B  B18  1  0.500000  0.249105  0.081875  1
  B  B19  1  0.500000  0.750442  0.918333  1
  B  B20  1  0.500000  0.791821  0.265221  1
  B  B21  1  0.500000  0.208162  0.734590  1
  B  B22  1  0.500000  0.291795  0.234872  1
  B  B23  1  0.500000  0.707819  0.765323  1
  B  B24  1  0.500000  0.630361  0.185558  1
  B  B25  1  0.500000  0.369366  0.814419  1
  B  B26  1  0.500000  0.130444  0.314488  1
  B  B27  1  0.500000  0.869810  0.685346  1
  B  B28  1  0.500000  0.982299  0.211846  1
  B  B29  1  0.500000  0.018055  0.787917  1
  B  B30  1  0.500000  0.482241  0.288193  1
  B  B31  1  0.500000  0.517635  0.711998  1
  B  B32  1  0.500000  0.599100  0.027799  1
  B  B33  1  0.500000  0.400274  0.972483  1
  B  B34  1  0.500000  0.099464  0.471985  1
  B  B35  1  0.500000  0.900790  0.527550  1
