# generated using pymatgen
data_Mn3Cr2GaAg3F18
_symmetry_space_group_name_H-M   'P 1'
_cell_length_a   9.26666400
_cell_length_b   9.26666502
_cell_length_c   5.29085800
_cell_angle_alpha   90.00000000
_cell_angle_beta   90.00000000
_cell_angle_gamma   120.00000388
_symmetry_Int_Tables_number   1
_chemical_formula_structural   Mn3Cr2GaAg3F18
_chemical_formula_sum   'Mn3 Cr2 Ga1 Ag3 F18'
_cell_volume   393.46272972
_cell_formula_units_Z   1
loop_
 _symmetry_equiv_pos_site_id
 _symmetry_equiv_pos_as_xyz
  1  'x, y, z'
loop_
 _atom_site_type_symbol
 _atom_site_label
 _atom_site_symmetry_multiplicity
 _atom_site_fract_x
 _atom_site_fract_y
 _atom_site_fract_z
 _atom_site_occupancy
  Mn  Mn0  1  0.702949  0.999805  0.500135  1
  Mn  Mn1  1  0.296856  0.297051  0.500135  1
  Mn  Mn2  1  0.000195  0.703144  0.500135  1
  Cr  Cr3  1  0.666667  0.333333  0.501352  1
  Cr  Cr4  1  0.000000  0.000000  0.999903  1
  Ga  Ga5  1  0.333333  0.666667  0.497826  1
  Ag  Ag6  1  0.374286  0.999008  0.000267  1
  Ag  Ag7  1  0.000992  0.375278  0.000267  1
  Ag  Ag8  1  0.624722  0.625714  0.000267  1
  F  F9  1  0.770433  0.230560  0.303169  1
  F  F10  1  0.769440  0.539874  0.303169  1
  F  F11  1  0.460126  0.229567  0.303169  1
  F  F12  1  0.535893  0.769021  0.697153  1
  F  F13  1  0.233128  0.464107  0.697153  1
  F  F14  1  0.230979  0.766872  0.697153  1
  F  F15  1  0.398307  0.534996  0.296650  1
  F  F16  1  0.465004  0.863312  0.296650  1
  F  F17  1  0.136688  0.601693  0.296650  1
  F  F18  1  0.895850  0.091098  0.777185  1
  F  F19  1  0.908902  0.804751  0.777185  1
  F  F20  1  0.195249  0.104150  0.777185  1
  F  F21  1  0.804787  0.908712  0.222765  1
  F  F22  1  0.103924  0.195213  0.222765  1
  F  F23  1  0.091288  0.896076  0.222765  1
  F  F24  1  0.534589  0.401404  0.702983  1
  F  F25  1  0.598596  0.133183  0.702983  1
  F  F26  1  0.866817  0.465411  0.702983  1
