# generated using pymatgen
data_Y8Ho12Sn5Pb11
_symmetry_space_group_name_H-M   'P 1'
_cell_length_a   8.15620400
_cell_length_b   8.24450948
_cell_length_c   15.61009400
_cell_angle_alpha   90.00000000
_cell_angle_beta   90.00000000
_cell_angle_gamma   90.01961168
_symmetry_Int_Tables_number   1
_chemical_formula_structural   Y8Ho12Sn5Pb11
_chemical_formula_sum   'Y8 Ho12 Sn5 Pb11'
_cell_volume   1049.68355753
_cell_formula_units_Z   1
loop_
 _symmetry_equiv_pos_site_id
 _symmetry_equiv_pos_as_xyz
  1  'x, y, z'
loop_
 _atom_site_type_symbol
 _atom_site_label
 _atom_site_symmetry_multiplicity
 _atom_site_fract_x
 _atom_site_fract_y
 _atom_site_fract_z
 _atom_site_occupancy
  Y  Y0  1  0.532664  0.323079  0.898272  1
  Y  Y1  1  0.035357  0.175635  0.601158  1
  Y  Y2  1  0.466085  0.675652  0.399625  1
  Y  Y3  1  0.966086  0.824328  0.100438  1
  Y  Y4  1  0.466085  0.675652  0.100375  1
  Y  Y5  1  0.966086  0.824328  0.399562  1
  Y  Y6  1  0.532664  0.323079  0.601728  1
  Y  Y7  1  0.035357  0.175635  0.898842  1
  Ho  Ho8  1  0.376575  0.840546  0.876962  1
  Ho  Ho9  1  0.876656  0.660939  0.622678  1
  Ho  Ho10  1  0.623532  0.160886  0.377682  1
  Ho  Ho11  1  0.123450  0.339158  0.122314  1
  Ho  Ho12  1  0.623532  0.160886  0.122318  1
  Ho  Ho13  1  0.123450  0.339158  0.377686  1
  Ho  Ho14  1  0.376575  0.840546  0.623038  1
  Ho  Ho15  1  0.876656  0.660939  0.877322  1
  Ho  Ho16  1  0.210812  0.505003  0.750000  1
  Ho  Ho17  1  0.707710  0.993853  0.750000  1
  Ho  Ho18  1  0.790451  0.492624  0.250000  1
  Ho  Ho19  1  0.290480  0.007174  0.250000  1
  Sn  Sn20  1  0.572601  0.625835  0.750000  1
  Sn  Sn21  1  0.073584  0.876352  0.750000  1
  Sn  Sn22  1  0.427404  0.374476  0.250000  1
  Sn  Sn23  1  0.927367  0.125396  0.250000  1
  Sn  Sn24  1  0.341853  0.148803  0.750000  1
  Pb  Pb25  1  0.283504  0.034005  0.042224  1
  Pb  Pb26  1  0.783455  0.465854  0.457978  1
  Pb  Pb27  1  0.716660  0.966001  0.542374  1
  Pb  Pb28  1  0.216536  0.534543  0.957572  1
  Pb  Pb29  1  0.716660  0.966001  0.957626  1
  Pb  Pb30  1  0.216536  0.534543  0.542428  1
  Pb  Pb31  1  0.283504  0.034005  0.457776  1
  Pb  Pb32  1  0.783455  0.465854  0.042022  1
  Pb  Pb33  1  0.843868  0.349377  0.750000  1
  Pb  Pb34  1  0.656310  0.848837  0.250000  1
  Pb  Pb35  1  0.156441  0.651018  0.250000  1
