# generated using pymatgen
data_DyMg2Ni7B2
_symmetry_space_group_name_H-M   'P 1'
_cell_length_a   4.95000500
_cell_length_b   4.95000518
_cell_length_c   13.96570000
_cell_angle_alpha   90.00000000
_cell_angle_beta   90.00000000
_cell_angle_gamma   120.00000547
_symmetry_Int_Tables_number   1
_chemical_formula_structural   DyMg2Ni7B2
_chemical_formula_sum   'Dy2 Mg4 Ni14 B4'
_cell_volume   296.34977891
_cell_formula_units_Z   2
loop_
 _symmetry_equiv_pos_site_id
 _symmetry_equiv_pos_as_xyz
  1  'x, y, z'
loop_
 _atom_site_type_symbol
 _atom_site_label
 _atom_site_symmetry_multiplicity
 _atom_site_fract_x
 _atom_site_fract_y
 _atom_site_fract_z
 _atom_site_occupancy
  Dy  Dy0  1  0.666667  0.333333  0.750000  1
  Dy  Dy1  1  0.333333  0.666667  0.250000  1
  Mg  Mg2  1  0.333333  0.666667  0.472728  1
  Mg  Mg3  1  0.666667  0.333333  0.972728  1
  Mg  Mg4  1  0.666667  0.333333  0.527272  1
  Mg  Mg5  1  0.333333  0.666667  0.027272  1
  Ni  Ni6  1  0.833586  0.667172  0.355134  1
  Ni  Ni7  1  0.332828  0.166414  0.355134  1
  Ni  Ni8  1  0.000000  0.000000  0.000000  1
  Ni  Ni9  1  0.000000  0.000000  0.500000  1
  Ni  Ni10  1  0.833586  0.166414  0.144866  1
  Ni  Ni11  1  0.667172  0.833586  0.644866  1
  Ni  Ni12  1  0.166414  0.332828  0.644866  1
  Ni  Ni13  1  0.833586  0.667172  0.144866  1
  Ni  Ni14  1  0.332828  0.166414  0.144866  1
  Ni  Ni15  1  0.667172  0.833586  0.855134  1
  Ni  Ni16  1  0.166414  0.332828  0.855134  1
  Ni  Ni17  1  0.166414  0.833586  0.644866  1
  Ni  Ni18  1  0.166414  0.833586  0.855134  1
  Ni  Ni19  1  0.833586  0.166414  0.355134  1
  B  B20  1  0.666667  0.333333  0.250000  1
  B  B21  1  0.333333  0.666667  0.750000  1
  B  B22  1  0.000000  0.000000  0.750000  1
  B  B23  1  0.000000  0.000000  0.250000  1
