# generated using pymatgen
data_Dy3Cr(P3Rh4)2
_symmetry_space_group_name_H-M   'P 1'
_cell_length_a   3.93752300
_cell_length_b   11.25115600
_cell_length_c   12.59365300
_cell_angle_alpha   90.00000000
_cell_angle_beta   90.00000000
_cell_angle_gamma   90.00000000
_symmetry_Int_Tables_number   1
_chemical_formula_structural   Dy3Cr(P3Rh4)2
_chemical_formula_sum   'Dy6 Cr2 P12 Rh16'
_cell_volume   557.92005484
_cell_formula_units_Z   2
loop_
 _symmetry_equiv_pos_site_id
 _symmetry_equiv_pos_as_xyz
  1  'x, y, z'
loop_
 _atom_site_type_symbol
 _atom_site_label
 _atom_site_symmetry_multiplicity
 _atom_site_fract_x
 _atom_site_fract_y
 _atom_site_fract_z
 _atom_site_occupancy
  Dy  Dy0  1  0.000000  0.500000  0.520077  1
  Dy  Dy1  1  0.500000  0.000000  0.479923  1
  Dy  Dy2  1  0.500000  0.818663  0.201216  1
  Dy  Dy3  1  0.500000  0.181337  0.201216  1
  Dy  Dy4  1  0.000000  0.681337  0.798784  1
  Dy  Dy5  1  0.000000  0.318663  0.798784  1
  Cr  Cr6  1  0.000000  0.500000  0.988693  1
  Cr  Cr7  1  0.500000  0.000000  0.011307  1
  P  P8  1  0.500000  0.500000  0.882081  1
  P  P9  1  0.000000  0.000000  0.117919  1
  P  P10  1  0.500000  0.500000  0.348640  1
  P  P11  1  0.000000  0.000000  0.651360  1
  P  P12  1  0.500000  0.313012  0.620701  1
  P  P13  1  0.500000  0.686988  0.620701  1
  P  P14  1  0.000000  0.186988  0.379299  1
  P  P15  1  0.000000  0.813012  0.379299  1
  P  P16  1  0.500000  0.848264  0.896817  1
  P  P17  1  0.500000  0.151736  0.896817  1
  P  P18  1  0.000000  0.651736  0.103183  1
  P  P19  1  0.000000  0.348264  0.103183  1
  Rh  Rh20  1  0.500000  0.500000  0.162406  1
  Rh  Rh21  1  0.000000  0.000000  0.837594  1
  Rh  Rh22  1  0.500000  0.500000  0.697526  1
  Rh  Rh23  1  0.000000  0.000000  0.302474  1
  Rh  Rh24  1  0.500000  0.334272  0.992098  1
  Rh  Rh25  1  0.500000  0.665728  0.992098  1
  Rh  Rh26  1  0.000000  0.165728  0.007902  1
  Rh  Rh27  1  0.000000  0.834272  0.007902  1
  Rh  Rh28  1  0.500000  0.295647  0.430388  1
  Rh  Rh29  1  0.500000  0.704353  0.430388  1
  Rh  Rh30  1  0.000000  0.204353  0.569612  1
  Rh  Rh31  1  0.000000  0.795647  0.569612  1
  Rh  Rh32  1  0.500000  0.873490  0.712798  1
  Rh  Rh33  1  0.500000  0.126510  0.712798  1
  Rh  Rh34  1  0.000000  0.626510  0.287202  1
  Rh  Rh35  1  0.000000  0.373490  0.287202  1
