# generated using pymatgen
data_Hf5Zr5Ga2BiPb5
_symmetry_space_group_name_H-M   'P 1'
_cell_length_a   8.83041804
_cell_length_b   8.83041782
_cell_length_c   5.91345000
_cell_angle_alpha   90.00000000
_cell_angle_beta   90.00000000
_cell_angle_gamma   119.87981448
_symmetry_Int_Tables_number   1
_chemical_formula_structural   Hf5Zr5Ga2BiPb5
_chemical_formula_sum   'Hf5 Zr5 Ga2 Bi1 Pb5'
_cell_volume   399.81470689
_cell_formula_units_Z   1
loop_
 _symmetry_equiv_pos_site_id
 _symmetry_equiv_pos_as_xyz
  1  'x, y, z'
loop_
 _atom_site_type_symbol
 _atom_site_label
 _atom_site_symmetry_multiplicity
 _atom_site_fract_x
 _atom_site_fract_y
 _atom_site_fract_z
 _atom_site_occupancy
  Hf  Hf0  1  0.667009  0.333701  0.999906  1
  Hf  Hf1  1  0.333701  0.667009  0.999906  1
  Hf  Hf2  1  0.333701  0.667009  0.500094  1
  Hf  Hf3  1  0.667009  0.333701  0.500094  1
  Hf  Hf4  1  0.736215  0.736215  0.750000  1
  Zr  Zr5  1  0.263980  0.999649  0.750000  1
  Zr  Zr6  1  0.999649  0.263980  0.750000  1
  Zr  Zr7  1  0.263186  0.263186  0.250000  1
  Zr  Zr8  1  0.737032  0.998541  0.250000  1
  Zr  Zr9  1  0.998541  0.737032  0.250000  1
  Ga  Ga10  1  0.998991  0.998991  0.997933  1
  Ga  Ga11  1  0.998991  0.998991  0.502067  1
  Bi  Bi12  1  0.391375  0.391375  0.750000  1
  Pb  Pb13  1  0.610932  0.999720  0.750000  1
  Pb  Pb14  1  0.999720  0.610932  0.750000  1
  Pb  Pb15  1  0.609896  0.609896  0.250000  1
  Pb  Pb16  1  0.390115  0.999958  0.250000  1
  Pb  Pb17  1  0.999958  0.390115  0.250000  1
