# generated using pymatgen
data_Th4Sn3Ru4Pb
_symmetry_space_group_name_H-M   'P 1'
_cell_length_a   6.31549694
_cell_length_b   6.31549690
_cell_length_c   10.55207402
_cell_angle_alpha   79.51684570
_cell_angle_beta   79.51684473
_cell_angle_gamma   44.38622943
_symmetry_Int_Tables_number   1
_chemical_formula_structural   Th4Sn3Ru4Pb
_chemical_formula_sum   'Th4 Sn3 Ru4 Pb1'
_cell_volume   288.65846850
_cell_formula_units_Z   1
loop_
 _symmetry_equiv_pos_site_id
 _symmetry_equiv_pos_as_xyz
  1  'x, y, z'
loop_
 _atom_site_type_symbol
 _atom_site_label
 _atom_site_symmetry_multiplicity
 _atom_site_fract_x
 _atom_site_fract_y
 _atom_site_fract_z
 _atom_site_occupancy
  Th  Th0  1  0.135492  0.135492  0.594082  1
  Th  Th1  1  0.863629  0.863629  0.405947  1
  Th  Th2  1  0.863009  0.863009  0.905981  1
  Th  Th3  1  0.140497  0.140497  0.093799  1
  Sn  Sn4  1  0.413474  0.413474  0.651051  1
  Sn  Sn5  1  0.585691  0.585691  0.843851  1
  Sn  Sn6  1  0.584729  0.584729  0.355040  1
  Ru  Ru7  1  0.800979  0.800979  0.165653  1
  Ru  Ru8  1  0.191575  0.191575  0.336234  1
  Ru  Ru9  1  0.192849  0.192849  0.836423  1
  Ru  Ru10  1  0.806218  0.806218  0.665142  1
  Pb  Pb11  1  0.421857  0.421857  0.146796  1
