# generated using pymatgen
data_Sc22Tc5Ir3
_symmetry_space_group_name_H-M   'P 1'
_cell_length_a   9.49774993
_cell_length_b   9.49082083
_cell_length_c   9.49775053
_cell_angle_alpha   60.02413615
_cell_angle_beta   59.95173941
_cell_angle_gamma   60.02413445
_symmetry_Int_Tables_number   1
_chemical_formula_structural   Sc22Tc5Ir3
_chemical_formula_sum   'Sc22 Tc5 Ir3'
_cell_volume   605.38246360
_cell_formula_units_Z   1
loop_
 _symmetry_equiv_pos_site_id
 _symmetry_equiv_pos_as_xyz
  1  'x, y, z'
loop_
 _atom_site_type_symbol
 _atom_site_label
 _atom_site_symmetry_multiplicity
 _atom_site_fract_x
 _atom_site_fract_y
 _atom_site_fract_z
 _atom_site_occupancy
  Sc  Sc0  1  0.802039  0.802039  0.197961  1
  Sc  Sc1  1  0.198214  0.801786  0.198214  1
  Sc  Sc2  1  0.802039  0.197961  0.197961  1
  Sc  Sc3  1  0.197961  0.197961  0.802039  1
  Sc  Sc4  1  0.801786  0.198214  0.801786  1
  Sc  Sc5  1  0.197961  0.802039  0.802039  1
  Sc  Sc6  1  0.616682  0.617283  0.148752  1
  Sc  Sc7  1  0.617283  0.148752  0.617283  1
  Sc  Sc8  1  0.148752  0.617283  0.616682  1
  Sc  Sc9  1  0.617283  0.616682  0.617283  1
  Sc  Sc10  1  0.383318  0.382717  0.851248  1
  Sc  Sc11  1  0.382717  0.851248  0.382717  1
  Sc  Sc12  1  0.851248  0.382717  0.383318  1
  Sc  Sc13  1  0.382717  0.383318  0.382717  1
  Sc  Sc14  1  0.843100  0.843672  0.469555  1
  Sc  Sc15  1  0.843672  0.469555  0.843672  1
  Sc  Sc16  1  0.469555  0.843672  0.843100  1
  Sc  Sc17  1  0.843672  0.843100  0.843672  1
  Sc  Sc18  1  0.156900  0.156328  0.530445  1
  Sc  Sc19  1  0.156328  0.530445  0.156328  1
  Sc  Sc20  1  0.530445  0.156328  0.156900  1
  Sc  Sc21  1  0.156328  0.156900  0.156328  1
  Tc  Tc22  1  0.000000  0.000000  0.000000  1
  Tc  Tc23  1  0.000000  0.000000  0.500000  1
  Tc  Tc24  1  0.000000  0.500000  0.500000  1
  Tc  Tc25  1  0.500000  0.500000  0.000000  1
  Tc  Tc26  1  0.500000  0.000000  0.000000  1
  Ir  Ir27  1  0.500000  0.500000  0.500000  1
  Ir  Ir28  1  0.500000  0.000000  0.500000  1
  Ir  Ir29  1  0.000000  0.500000  0.000000  1
