# generated using pymatgen
data_Lu12Re3Si12Ir
_symmetry_space_group_name_H-M   'P 1'
_cell_length_a   4.12691000
_cell_length_b   10.64831746
_cell_length_c   12.12732126
_cell_angle_alpha   90.16878340
_cell_angle_beta   90.00000000
_cell_angle_gamma   90.00000000
_symmetry_Int_Tables_number   1
_chemical_formula_structural   Lu12Re3Si12Ir
_chemical_formula_sum   'Lu12 Re3 Si12 Ir1'
_cell_volume   532.92854922
_cell_formula_units_Z   1
loop_
 _symmetry_equiv_pos_site_id
 _symmetry_equiv_pos_as_xyz
  1  'x, y, z'
loop_
 _atom_site_type_symbol
 _atom_site_label
 _atom_site_symmetry_multiplicity
 _atom_site_fract_x
 _atom_site_fract_y
 _atom_site_fract_z
 _atom_site_occupancy
  Lu  Lu0  1  0.250000  0.878772  0.020145  1
  Lu  Lu1  1  0.250000  0.622794  0.520268  1
  Lu  Lu2  1  0.750000  0.121464  0.981525  1
  Lu  Lu3  1  0.750000  0.379439  0.480633  1
  Lu  Lu4  1  0.250000  0.921514  0.605013  1
  Lu  Lu5  1  0.250000  0.578353  0.104993  1
  Lu  Lu6  1  0.750000  0.078111  0.394590  1
  Lu  Lu7  1  0.750000  0.421468  0.893543  1
  Lu  Lu8  1  0.250000  0.662999  0.799018  1
  Lu  Lu9  1  0.250000  0.837260  0.298944  1
  Lu  Lu10  1  0.750000  0.337883  0.200640  1
  Lu  Lu11  1  0.750000  0.158230  0.700319  1
  Re  Re12  1  0.250000  0.390961  0.680121  1
  Re  Re13  1  0.250000  0.110048  0.178328  1
  Re  Re14  1  0.750000  0.611018  0.320430  1
  Si  Si15  1  0.250000  0.012304  0.822387  1
  Si  Si16  1  0.250000  0.487193  0.321826  1
  Si  Si17  1  0.750000  0.986040  0.178577  1
  Si  Si18  1  0.750000  0.514958  0.678934  1
  Si  Si19  1  0.250000  0.247940  0.842658  1
  Si  Si20  1  0.250000  0.249314  0.343999  1
  Si  Si21  1  0.750000  0.749901  0.155572  1
  Si  Si22  1  0.750000  0.751174  0.657736  1
  Si  Si23  1  0.250000  0.198576  0.543963  1
  Si  Si24  1  0.250000  0.301804  0.043301  1
  Si  Si25  1  0.750000  0.803335  0.456392  1
  Si  Si26  1  0.750000  0.698027  0.955268  1
  Ir  Ir27  1  0.750000  0.889122  0.820877  1
