# generated using pymatgen
data_K(VI3)2
_symmetry_space_group_name_H-M   'P 1'
_cell_length_a   8.35737500
_cell_length_b   8.35737247
_cell_length_c   13.46270500
_cell_angle_alpha   90.00000000
_cell_angle_beta   90.00000000
_cell_angle_gamma   119.99999815
_symmetry_Int_Tables_number   1
_chemical_formula_structural   K(VI3)2
_chemical_formula_sum   'K2 V4 I12'
_cell_volume   814.33409205
_cell_formula_units_Z   2
loop_
 _symmetry_equiv_pos_site_id
 _symmetry_equiv_pos_as_xyz
  1  'x, y, z'
loop_
 _atom_site_type_symbol
 _atom_site_label
 _atom_site_symmetry_multiplicity
 _atom_site_fract_x
 _atom_site_fract_y
 _atom_site_fract_z
 _atom_site_occupancy
  K  K0  1  0.333333  0.666667  0.872541  1
  K  K1  1  0.666667  0.333333  0.372541  1
  V  V2  1  0.000000  0.000000  0.119481  1
  V  V3  1  0.000000  0.000000  0.382211  1
  V  V4  1  0.000000  0.000000  0.619481  1
  V  V5  1  0.000000  0.000000  0.882211  1
  I  I6  1  0.985152  0.721061  0.001510  1
  I  I7  1  0.256956  0.984465  0.250322  1
  I  I8  1  0.015535  0.272490  0.250322  1
  I  I9  1  0.278939  0.264091  0.001510  1
  I  I10  1  0.264091  0.278939  0.501510  1
  I  I11  1  0.735909  0.014848  0.001510  1
  I  I12  1  0.272490  0.015535  0.750322  1
  I  I13  1  0.727510  0.743044  0.250322  1
  I  I14  1  0.743044  0.727510  0.750322  1
  I  I15  1  0.014848  0.735909  0.501510  1
  I  I16  1  0.721061  0.985152  0.501510  1
  I  I17  1  0.984465  0.256956  0.750322  1
