# generated using pymatgen
data_GePAu
_symmetry_space_group_name_H-M   'P 1'
_cell_length_a   6.25909921
_cell_length_b   6.25909897
_cell_length_c   6.25909890
_cell_angle_alpha   33.80008613
_cell_angle_beta   33.80008632
_cell_angle_gamma   33.80008981
_symmetry_Int_Tables_number   1
_chemical_formula_structural   GePAu
_chemical_formula_sum   'Ge1 P1 Au1'
_cell_volume   67.61851293
_cell_formula_units_Z   1
loop_
 _symmetry_equiv_pos_site_id
 _symmetry_equiv_pos_as_xyz
  1  'x, y, z'
loop_
 _atom_site_type_symbol
 _atom_site_label
 _atom_site_symmetry_multiplicity
 _atom_site_fract_x
 _atom_site_fract_y
 _atom_site_fract_z
 _atom_site_occupancy
  Ge  Ge0  1  0.272492  0.272492  0.272492  1
  P  P1  1  0.000835  0.000835  0.000835  1
  Au  Au2  1  0.133973  0.133973  0.133973  1
