# generated using pymatgen
data_Zr6Ta4NbGa11Os7
_symmetry_space_group_name_H-M   'P 1'
_cell_length_a   8.91132060
_cell_length_b   8.91132105
_cell_length_c   8.87332377
_cell_angle_alpha   59.85824255
_cell_angle_beta   59.85824338
_cell_angle_gamma   59.99999170
_symmetry_Int_Tables_number   1
_chemical_formula_structural   Zr6Ta4NbGa11Os7
_chemical_formula_sum   'Zr6 Ta4 Nb1 Ga11 Os7'
_cell_volume   497.18908694
_cell_formula_units_Z   1
loop_
 _symmetry_equiv_pos_site_id
 _symmetry_equiv_pos_as_xyz
  1  'x, y, z'
loop_
 _atom_site_type_symbol
 _atom_site_label
 _atom_site_symmetry_multiplicity
 _atom_site_fract_x
 _atom_site_fract_y
 _atom_site_fract_z
 _atom_site_occupancy
  Zr  Zr0  1  0.704082  0.704082  0.299117  1
  Zr  Zr1  1  0.292718  0.704082  0.299117  1
  Zr  Zr2  1  0.704082  0.292718  0.299117  1
  Zr  Zr3  1  0.305293  0.305293  0.703298  1
  Zr  Zr4  1  0.686117  0.305293  0.703298  1
  Zr  Zr5  1  0.305293  0.686117  0.703298  1
  Ta  Ta6  1  0.874539  0.371479  0.879444  1
  Ta  Ta7  1  0.371479  0.874539  0.879444  1
  Ta  Ta8  1  0.874539  0.874539  0.879444  1
  Ta  Ta9  1  0.126302  0.126302  0.621095  1
  Nb  Nb10  1  0.877941  0.877941  0.366178  1
  Ga  Ga11  1  0.118952  0.642486  0.119610  1
  Ga  Ga12  1  0.642486  0.118952  0.119610  1
  Ga  Ga13  1  0.118952  0.118952  0.119610  1
  Ga  Ga14  1  0.653827  0.653827  0.038518  1
  Ga  Ga15  1  0.657376  0.030072  0.655178  1
  Ga  Ga16  1  0.030072  0.657376  0.655178  1
  Ga  Ga17  1  0.657376  0.657376  0.655178  1
  Ga  Ga18  1  0.337441  0.337441  0.987675  1
  Ga  Ga19  1  0.341967  0.977635  0.338433  1
  Ga  Ga20  1  0.977635  0.341967  0.338433  1
  Ga  Ga21  1  0.341967  0.341967  0.338433  1
  Os  Os22  1  0.005607  0.005607  0.983179  1
  Os  Os23  1  0.998478  0.998478  0.506814  1
  Os  Os24  1  0.496230  0.998478  0.506814  1
  Os  Os25  1  0.998478  0.496230  0.506814  1
  Os  Os26  1  0.502060  0.502060  0.999224  1
  Os  Os27  1  0.996656  0.502060  0.999224  1
  Os  Os28  1  0.502060  0.996656  0.999224  1
