# generated using pymatgen
data_Ho3In3CuPdPt
_symmetry_space_group_name_H-M   'P 1'
_cell_length_a   7.60183300
_cell_length_b   7.60183369
_cell_length_c   3.87175500
_cell_angle_alpha   90.00000000
_cell_angle_beta   90.00000000
_cell_angle_gamma   120.00000135
_symmetry_Int_Tables_number   1
_chemical_formula_structural   Ho3In3CuPdPt
_chemical_formula_sum   'Ho3 In3 Cu1 Pd1 Pt1'
_cell_volume   193.76493288
_cell_formula_units_Z   1
loop_
 _symmetry_equiv_pos_site_id
 _symmetry_equiv_pos_as_xyz
  1  'x, y, z'
loop_
 _atom_site_type_symbol
 _atom_site_label
 _atom_site_symmetry_multiplicity
 _atom_site_fract_x
 _atom_site_fract_y
 _atom_site_fract_z
 _atom_site_occupancy
  Ho  Ho0  1  0.592810  0.005551  0.500000  1
  Ho  Ho1  1  0.412740  0.407190  0.500000  1
  Ho  Ho2  1  0.994449  0.587260  0.500000  1
  In  In3  1  0.748628  0.751390  0.000000  1
  In  In4  1  0.002762  0.251372  0.000000  1
  In  In5  1  0.248610  0.997238  0.000000  1
  Cu  Cu6  1  0.000000  0.000000  0.500000  1
  Pd  Pd7  1  0.333333  0.666667  0.000000  1
  Pt  Pt8  1  0.666667  0.333333  0.000000  1
