# generated using pymatgen
data_Tb4Er3Tm13(CoSb2)4
_symmetry_space_group_name_H-M   'P 1'
_cell_length_a   7.80838203
_cell_length_b   8.75930700
_cell_length_c   12.06438805
_cell_angle_alpha   90.00000000
_cell_angle_beta   90.01035228
_cell_angle_gamma   90.00000000
_symmetry_Int_Tables_number   1
_chemical_formula_structural   Tb4Er3Tm13(CoSb2)4
_chemical_formula_sum   'Tb4 Er3 Tm13 Co4 Sb8'
_cell_volume   825.15605722
_cell_formula_units_Z   1
loop_
 _symmetry_equiv_pos_site_id
 _symmetry_equiv_pos_as_xyz
  1  'x, y, z'
loop_
 _atom_site_type_symbol
 _atom_site_label
 _atom_site_symmetry_multiplicity
 _atom_site_fract_x
 _atom_site_fract_y
 _atom_site_fract_z
 _atom_site_occupancy
  Tb  Tb0  1  0.621864  0.750000  0.306439  1
  Tb  Tb1  1  0.121814  0.250000  0.193500  1
  Tb  Tb2  1  0.378184  0.250000  0.693519  1
  Tb  Tb3  1  0.878230  0.750000  0.806486  1
  Er  Er4  1  0.154819  0.750000  0.203412  1
  Er  Er5  1  0.654856  0.250000  0.296678  1
  Er  Er6  1  0.845112  0.250000  0.796636  1
  Tm  Tm7  1  0.345201  0.750000  0.703253  1
  Tm  Tm8  1  0.450341  0.750000  0.997668  1
  Tm  Tm9  1  0.950347  0.250000  0.502266  1
  Tm  Tm10  1  0.549679  0.250000  0.002262  1
  Tm  Tm11  1  0.049773  0.750000  0.497797  1
  Tm  Tm12  1  0.822813  0.963432  0.064939  1
  Tm  Tm13  1  0.322844  0.036552  0.435087  1
  Tm  Tm14  1  0.177185  0.463421  0.935039  1
  Tm  Tm15  1  0.677100  0.536657  0.564977  1
  Tm  Tm16  1  0.177185  0.036579  0.935039  1
  Tm  Tm17  1  0.677100  0.963343  0.564977  1
  Tm  Tm18  1  0.822813  0.536568  0.064939  1
  Tm  Tm19  1  0.322844  0.463448  0.435087  1
  Co  Co20  1  0.431671  0.750000  0.490852  1
  Co  Co21  1  0.931687  0.250000  0.009252  1
  Co  Co22  1  0.568285  0.250000  0.509249  1
  Co  Co23  1  0.068266  0.750000  0.990750  1
  Sb  Sb24  1  0.929459  0.991461  0.328419  1
  Sb  Sb25  1  0.429491  0.008537  0.171557  1
  Sb  Sb26  1  0.070632  0.491567  0.671594  1
  Sb  Sb27  1  0.570411  0.508658  0.828379  1
  Sb  Sb28  1  0.070632  0.008433  0.671594  1
  Sb  Sb29  1  0.570411  0.991342  0.828379  1
  Sb  Sb30  1  0.929459  0.508539  0.328419  1
  Sb  Sb31  1  0.429491  0.491463  0.171557  1
