# generated using pymatgen
data_Hf9TiFeRh3
_symmetry_space_group_name_H-M   'P 1'
_cell_length_a   8.47218400
_cell_length_b   8.52934054
_cell_length_c   8.52934104
_cell_angle_alpha   119.99855664
_cell_angle_beta   90.00000000
_cell_angle_gamma   90.00000000
_symmetry_Int_Tables_number   1
_chemical_formula_structural   Hf9TiFeRh3
_chemical_formula_sum   'Hf18 Ti2 Fe2 Rh6'
_cell_volume   533.78118453
_cell_formula_units_Z   2
loop_
 _symmetry_equiv_pos_site_id
 _symmetry_equiv_pos_as_xyz
  1  'x, y, z'
loop_
 _atom_site_type_symbol
 _atom_site_label
 _atom_site_symmetry_multiplicity
 _atom_site_fract_x
 _atom_site_fract_y
 _atom_site_fract_z
 _atom_site_occupancy
  Hf  Hf0  1  0.557973  0.797533  0.595082  1
  Hf  Hf1  1  0.557984  0.797572  0.202428  1
  Hf  Hf2  1  0.557973  0.404918  0.202467  1
  Hf  Hf3  1  0.442027  0.202467  0.404918  1
  Hf  Hf4  1  0.442016  0.202428  0.797572  1
  Hf  Hf5  1  0.442027  0.595082  0.797533  1
  Hf  Hf6  1  0.057973  0.202467  0.404918  1
  Hf  Hf7  1  0.057984  0.202428  0.797572  1
  Hf  Hf8  1  0.057973  0.595082  0.797533  1
  Hf  Hf9  1  0.942027  0.797533  0.595082  1
  Hf  Hf10  1  0.942016  0.797572  0.202428  1
  Hf  Hf11  1  0.942027  0.404918  0.202467  1
  Hf  Hf12  1  0.750000  0.460667  0.921347  1
  Hf  Hf13  1  0.750000  0.460669  0.539331  1
  Hf  Hf14  1  0.750000  0.078653  0.539333  1
  Hf  Hf15  1  0.250000  0.539333  0.078653  1
  Hf  Hf16  1  0.250000  0.539331  0.460669  1
  Hf  Hf17  1  0.250000  0.921347  0.460667  1
  Ti  Ti18  1  0.500000  0.000000  0.000000  1
  Ti  Ti19  1  0.000000  0.000000  0.000000  1
  Fe  Fe20  1  0.750000  0.666681  0.333319  1
  Fe  Fe21  1  0.250000  0.333319  0.666681  1
  Rh  Rh22  1  0.750000  0.112738  0.225488  1
  Rh  Rh23  1  0.750000  0.112761  0.887239  1
  Rh  Rh24  1  0.750000  0.774512  0.887262  1
  Rh  Rh25  1  0.250000  0.887262  0.774512  1
  Rh  Rh26  1  0.250000  0.887239  0.112761  1
  Rh  Rh27  1  0.250000  0.225488  0.112738  1
