# generated using pymatgen
data_SmYErGa8Ag3
_symmetry_space_group_name_H-M   'P 1'
_cell_length_a   4.37371304
_cell_length_b   8.35891912
_cell_length_c   8.35891796
_cell_angle_alpha   69.67118635
_cell_angle_beta   74.83380581
_cell_angle_gamma   74.83380482
_symmetry_Int_Tables_number   1
_chemical_formula_structural   SmYErGa8Ag3
_chemical_formula_sum   'Sm1 Y1 Er1 Ga8 Ag3'
_cell_volume   271.61710674
_cell_formula_units_Z   1
loop_
 _symmetry_equiv_pos_site_id
 _symmetry_equiv_pos_as_xyz
  1  'x, y, z'
loop_
 _atom_site_type_symbol
 _atom_site_label
 _atom_site_symmetry_multiplicity
 _atom_site_fract_x
 _atom_site_fract_y
 _atom_site_fract_z
 _atom_site_occupancy
  Sm  Sm0  1  0.500155  0.499845  0.499845  1
  Y  Y1  1  0.200117  0.799883  0.799883  1
  Er  Er2  1  0.799833  0.200167  0.200167  1
  Ga  Ga3  1  0.356779  0.360083  0.926357  1
  Ga  Ga4  1  0.643133  0.638824  0.074910  1
  Ga  Ga5  1  0.356779  0.926357  0.360083  1
  Ga  Ga6  1  0.643133  0.074910  0.638824  1
  Ga  Ga7  1  0.160814  0.470220  0.208153  1
  Ga  Ga8  1  0.839854  0.528923  0.791367  1
  Ga  Ga9  1  0.160814  0.208153  0.470220  1
  Ga  Ga10  1  0.839854  0.791367  0.528923  1
  Ag  Ag11  1  0.499523  0.000477  0.000477  1
  Ag  Ag12  1  0.999604  0.804862  0.195930  1
  Ag  Ag13  1  0.999604  0.195930  0.804862  1
