# generated using pymatgen
data_SiIr2S5
_symmetry_space_group_name_H-M   'P 1'
_cell_length_a   3.52648600
_cell_length_b   7.30810086
_cell_length_c   12.40939830
_cell_angle_alpha   76.53129016
_cell_angle_beta   90.00000000
_cell_angle_gamma   90.00000000
_symmetry_Int_Tables_number   1
_chemical_formula_structural   SiIr2S5
_chemical_formula_sum   'Si2 Ir4 S10'
_cell_volume   311.01820385
_cell_formula_units_Z   2
loop_
 _symmetry_equiv_pos_site_id
 _symmetry_equiv_pos_as_xyz
  1  'x, y, z'
loop_
 _atom_site_type_symbol
 _atom_site_label
 _atom_site_symmetry_multiplicity
 _atom_site_fract_x
 _atom_site_fract_y
 _atom_site_fract_z
 _atom_site_occupancy
  Si  Si0  1  0.500000  0.156339  0.681421  1
  Si  Si1  1  0.500000  0.843661  0.318579  1
  Ir  Ir2  1  0.000000  0.250310  0.147782  1
  Ir  Ir3  1  0.000000  0.749690  0.852218  1
  Ir  Ir4  1  0.500000  0.747712  0.147910  1
  Ir  Ir5  1  0.500000  0.252288  0.852090  1
  S  S6  1  0.000000  0.956646  0.097947  1
  S  S7  1  0.000000  0.043354  0.902053  1
  S  S8  1  0.000000  0.471139  0.779274  1
  S  S9  1  0.000000  0.528861  0.220726  1
  S  S10  1  0.500000  0.654821  0.974995  1
  S  S11  1  0.500000  0.345179  0.025005  1
  S  S12  1  0.500000  0.156541  0.280672  1
  S  S13  1  0.500000  0.843459  0.719328  1
  S  S14  1  0.000000  0.227710  0.573143  1
  S  S15  1  0.000000  0.772290  0.426857  1
