# generated using pymatgen
data_Ho4ScTi3Ir4
_symmetry_space_group_name_H-M   'P 1'
_cell_length_a   4.36022600
_cell_length_b   6.93195276
_cell_length_c   8.19714017
_cell_angle_alpha   89.60358285
_cell_angle_beta   90.00000000
_cell_angle_gamma   90.00000000
_symmetry_Int_Tables_number   1
_chemical_formula_structural   Ho4ScTi3Ir4
_chemical_formula_sum   'Ho4 Sc1 Ti3 Ir4'
_cell_volume   247.75165307
_cell_formula_units_Z   1
loop_
 _symmetry_equiv_pos_site_id
 _symmetry_equiv_pos_as_xyz
  1  'x, y, z'
loop_
 _atom_site_type_symbol
 _atom_site_label
 _atom_site_symmetry_multiplicity
 _atom_site_fract_x
 _atom_site_fract_y
 _atom_site_fract_z
 _atom_site_occupancy
  Ho  Ho0  1  0.750000  0.518632  0.818871  1
  Ho  Ho1  1  0.250000  0.989065  0.318985  1
  Ho  Ho2  1  0.750000  0.018850  0.685445  1
  Ho  Ho3  1  0.250000  0.478118  0.174811  1
  Sc  Sc4  1  0.750000  0.643089  0.428895  1
  Ti  Ti5  1  0.250000  0.862617  0.934372  1
  Ti  Ti6  1  0.250000  0.359552  0.565131  1
  Ti  Ti7  1  0.750000  0.140453  0.065404  1
  Ir  Ir8  1  0.250000  0.724175  0.614603  1
  Ir  Ir9  1  0.250000  0.222238  0.903189  1
  Ir  Ir10  1  0.750000  0.780059  0.088010  1
  Ir  Ir11  1  0.750000  0.263152  0.402282  1
