# generated using pymatgen
data_Hf4Zr12Pt3Rh5N4
_symmetry_space_group_name_H-M   'P 1'
_cell_length_a   8.81311934
_cell_length_b   8.81312015
_cell_length_c   8.81311970
_cell_angle_alpha   60.05810056
_cell_angle_beta   60.05809352
_cell_angle_gamma   60.05809952
_symmetry_Int_Tables_number   1
_chemical_formula_structural   Hf4Zr12Pt3Rh5N4
_chemical_formula_sum   'Hf4 Zr12 Pt3 Rh5 N4'
_cell_volume   484.66927589
_cell_formula_units_Z   1
loop_
 _symmetry_equiv_pos_site_id
 _symmetry_equiv_pos_as_xyz
  1  'x, y, z'
loop_
 _atom_site_type_symbol
 _atom_site_label
 _atom_site_symmetry_multiplicity
 _atom_site_fract_x
 _atom_site_fract_y
 _atom_site_fract_z
 _atom_site_occupancy
  Hf  Hf0  1  0.118347  0.626413  0.626413  1
  Hf  Hf1  1  0.626413  0.118347  0.626413  1
  Hf  Hf2  1  0.626413  0.626413  0.118347  1
  Hf  Hf3  1  0.628167  0.628167  0.628167  1
  Zr  Zr4  1  0.817270  0.817270  0.182416  1
  Zr  Zr5  1  0.182563  0.182563  0.817203  1
  Zr  Zr6  1  0.817270  0.182416  0.817270  1
  Zr  Zr7  1  0.182563  0.817203  0.182563  1
  Zr  Zr8  1  0.182416  0.817270  0.817270  1
  Zr  Zr9  1  0.817203  0.182563  0.182563  1
  Zr  Zr10  1  0.433153  0.433153  0.068991  1
  Zr  Zr11  1  0.066724  0.066724  0.433368  1
  Zr  Zr12  1  0.433153  0.068991  0.433153  1
  Zr  Zr13  1  0.066724  0.433368  0.066724  1
  Zr  Zr14  1  0.068991  0.433153  0.433153  1
  Zr  Zr15  1  0.433368  0.066724  0.066724  1
  Pt  Pt16  1  0.768829  0.410203  0.410203  1
  Pt  Pt17  1  0.410203  0.768829  0.410203  1
  Pt  Pt18  1  0.410203  0.410203  0.768829  1
  Rh  Rh19  1  0.410376  0.410376  0.410376  1
  Rh  Rh20  1  0.477292  0.840918  0.840918  1
  Rh  Rh21  1  0.840918  0.477292  0.840918  1
  Rh  Rh22  1  0.840918  0.840918  0.477292  1
  Rh  Rh23  1  0.840331  0.840331  0.840331  1
  N  N24  1  0.625704  0.124753  0.124753  1
  N  N25  1  0.124753  0.625704  0.124753  1
  N  N26  1  0.124753  0.124753  0.625704  1
  N  N27  1  0.124983  0.124983  0.124983  1
