# generated using pymatgen
data_ZrSc2(TcP)3
_symmetry_space_group_name_H-M   'P 1'
_cell_length_a   6.81274126
_cell_length_b   6.81274187
_cell_length_c   3.41605600
_cell_angle_alpha   90.00000000
_cell_angle_beta   90.00000000
_cell_angle_gamma   119.58230061
_symmetry_Int_Tables_number   1
_chemical_formula_structural   ZrSc2(TcP)3
_chemical_formula_sum   'Zr1 Sc2 Tc3 P3'
_cell_volume   137.88342098
_cell_formula_units_Z   1
loop_
 _symmetry_equiv_pos_site_id
 _symmetry_equiv_pos_as_xyz
  1  'x, y, z'
loop_
 _atom_site_type_symbol
 _atom_site_label
 _atom_site_symmetry_multiplicity
 _atom_site_fract_x
 _atom_site_fract_y
 _atom_site_fract_z
 _atom_site_occupancy
  Zr  Zr0  1  0.404531  0.404531  0.500000  1
  Sc  Sc1  1  0.595637  0.998828  0.500000  1
  Sc  Sc2  1  0.998828  0.595637  0.500000  1
  Tc  Tc3  1  0.000303  0.249860  0.000000  1
  Tc  Tc4  1  0.249860  0.000303  0.000000  1
  Tc  Tc5  1  0.750317  0.750317  0.000000  1
  P  P6  1  0.669254  0.332315  0.000000  1
  P  P7  1  0.332315  0.669254  0.000000  1
  P  P8  1  0.998955  0.998955  0.500000  1
