# generated using pymatgen
data_Ca3Pr17(Ga2Sn)4
_symmetry_space_group_name_H-M   'P 1'
_cell_length_a   8.18084900
_cell_length_b   8.18084900
_cell_length_c   14.31902800
_cell_angle_alpha   90.00000000
_cell_angle_beta   90.00000000
_cell_angle_gamma   90.00000000
_symmetry_Int_Tables_number   1
_chemical_formula_structural   Ca3Pr17(Ga2Sn)4
_chemical_formula_sum   'Ca3 Pr17 Ga8 Sn4'
_cell_volume   958.31942561
_cell_formula_units_Z   1
loop_
 _symmetry_equiv_pos_site_id
 _symmetry_equiv_pos_as_xyz
  1  'x, y, z'
loop_
 _atom_site_type_symbol
 _atom_site_label
 _atom_site_symmetry_multiplicity
 _atom_site_fract_x
 _atom_site_fract_y
 _atom_site_fract_z
 _atom_site_occupancy
  Ca  Ca0  1  0.000000  0.500000  0.742496  1
  Ca  Ca1  1  0.000000  0.500000  0.248127  1
  Ca  Ca2  1  0.500000  0.000000  0.251139  1
  Pr  Pr3  1  0.825168  0.831507  0.605012  1
  Pr  Pr4  1  0.168608  0.832360  0.104689  1
  Pr  Pr5  1  0.167944  0.829506  0.393944  1
  Pr  Pr6  1  0.832056  0.170494  0.393944  1
  Pr  Pr7  1  0.670494  0.667944  0.393944  1
  Pr  Pr8  1  0.668493  0.325168  0.605012  1
  Pr  Pr9  1  0.331507  0.674832  0.605012  1
  Pr  Pr10  1  0.667640  0.668608  0.104689  1
  Pr  Pr11  1  0.673884  0.334752  0.894559  1
  Pr  Pr12  1  0.834752  0.826116  0.894559  1
  Pr  Pr13  1  0.329506  0.332056  0.393944  1
  Pr  Pr14  1  0.174832  0.168493  0.605012  1
  Pr  Pr15  1  0.831392  0.167640  0.104689  1
  Pr  Pr16  1  0.326116  0.665248  0.894559  1
  Pr  Pr17  1  0.332360  0.331392  0.104689  1
  Pr  Pr18  1  0.165248  0.173884  0.894559  1
  Pr  Pr19  1  0.500000  0.000000  0.771727  1
  Ga  Ga20  1  0.620651  0.379626  0.249923  1
  Ga  Ga21  1  0.121809  0.880493  0.748266  1
  Ga  Ga22  1  0.380493  0.378191  0.748266  1
  Ga  Ga23  1  0.379349  0.620374  0.249923  1
  Ga  Ga24  1  0.879626  0.879349  0.249923  1
  Ga  Ga25  1  0.619507  0.621809  0.748266  1
  Ga  Ga26  1  0.878191  0.119507  0.748266  1
  Ga  Ga27  1  0.120374  0.120651  0.249923  1
  Sn  Sn28  1  0.000000  0.500000  0.499413  1
  Sn  Sn29  1  0.500000  0.000000  0.496822  1
  Sn  Sn30  1  0.500000  0.000000  0.003516  1
  Sn  Sn31  1  0.000000  0.500000  0.001193  1
