# generated using pymatgen
data_La2Pr(GaPt)4
_symmetry_space_group_name_H-M   'P 1'
_cell_length_a   8.41603088
_cell_length_b   8.41603119
_cell_length_c   8.41603186
_cell_angle_alpha   150.67408022
_cell_angle_beta   127.84829460
_cell_angle_gamma   60.95995657
_symmetry_Int_Tables_number   1
_chemical_formula_structural   La2Pr(GaPt)4
_chemical_formula_sum   'La2 Pr1 Ga4 Pt4'
_cell_volume   228.64337729
_cell_formula_units_Z   1
loop_
 _symmetry_equiv_pos_site_id
 _symmetry_equiv_pos_as_xyz
  1  'x, y, z'
loop_
 _atom_site_type_symbol
 _atom_site_label
 _atom_site_symmetry_multiplicity
 _atom_site_fract_x
 _atom_site_fract_y
 _atom_site_fract_z
 _atom_site_occupancy
  La  La0  1  0.500183  0.000183  0.500000  1
  La  La1  1  0.125961  0.125961  0.000000  1
  Pr  Pr2  1  0.872742  0.872742  0.000000  1
  Ga  Ga3  1  0.481274  0.673740  0.807533  1
  Ga  Ga4  1  0.866207  0.673740  0.192467  1
  Ga  Ga5  1  0.131520  0.326389  0.805132  1
  Ga  Ga6  1  0.521257  0.326389  0.194868  1
  Pt  Pt7  1  0.284144  0.784144  0.500000  1
  Pt  Pt8  1  0.716163  0.216163  0.500000  1
  Pt  Pt9  1  0.797429  0.500273  0.297155  1
  Pt  Pt10  1  0.203118  0.500273  0.702845  1
