# generated using pymatgen
data_Ac(FeSb3)4
_symmetry_space_group_name_H-M   'P 1'
_cell_length_a   7.99292620
_cell_length_b   7.99292610
_cell_length_c   7.99292700
_cell_angle_alpha   109.47122291
_cell_angle_beta   109.47122265
_cell_angle_gamma   109.47121529
_symmetry_Int_Tables_number   1
_chemical_formula_structural   Ac(FeSb3)4
_chemical_formula_sum   'Ac1 Fe4 Sb12'
_cell_volume   393.09322836
_cell_formula_units_Z   1
loop_
 _symmetry_equiv_pos_site_id
 _symmetry_equiv_pos_as_xyz
  1  'x, y, z'
loop_
 _atom_site_type_symbol
 _atom_site_label
 _atom_site_symmetry_multiplicity
 _atom_site_fract_x
 _atom_site_fract_y
 _atom_site_fract_z
 _atom_site_occupancy
  Ac  Ac0  1  0.000000  0.000000  0.000000  1
  Fe  Fe1  1  0.000000  0.000000  0.500000  1
  Fe  Fe2  1  0.500000  0.500000  0.500000  1
  Fe  Fe3  1  0.000000  0.500000  0.000000  1
  Fe  Fe4  1  0.500000  0.000000  0.000000  1
  Sb  Sb5  1  0.336549  0.173107  0.836558  1
  Sb  Sb6  1  0.163442  0.336549  0.499991  1
  Sb  Sb7  1  0.663451  0.826893  0.163442  1
  Sb  Sb8  1  0.336549  0.499991  0.163442  1
  Sb  Sb9  1  0.663451  0.500009  0.836558  1
  Sb  Sb10  1  0.500009  0.836558  0.663451  1
  Sb  Sb11  1  0.836558  0.663451  0.500009  1
  Sb  Sb12  1  0.836558  0.336549  0.173107  1
  Sb  Sb13  1  0.173107  0.836558  0.336549  1
  Sb  Sb14  1  0.499991  0.163442  0.336549  1
  Sb  Sb15  1  0.826893  0.163442  0.663451  1
  Sb  Sb16  1  0.163442  0.663451  0.826893  1
