# generated using pymatgen
data_Tb4ErIn4IrPd
_symmetry_space_group_name_H-M   'P 1'
_cell_length_a   3.64902800
_cell_length_b   8.14221383
_cell_length_c   18.26600214
_cell_angle_alpha   90.12121466
_cell_angle_beta   90.00000000
_cell_angle_gamma   90.00000000
_symmetry_Int_Tables_number   1
_chemical_formula_structural   Tb4ErIn4IrPd
_chemical_formula_sum   'Tb8 Er2 In8 Ir2 Pd2'
_cell_volume   542.70301204
_cell_formula_units_Z   2
loop_
 _symmetry_equiv_pos_site_id
 _symmetry_equiv_pos_as_xyz
  1  'x, y, z'
loop_
 _atom_site_type_symbol
 _atom_site_label
 _atom_site_symmetry_multiplicity
 _atom_site_fract_x
 _atom_site_fract_y
 _atom_site_fract_z
 _atom_site_occupancy
  Tb  Tb0  1  0.000000  0.500000  0.500000  1
  Tb  Tb1  1  0.000000  0.000000  0.000000  1
  Tb  Tb2  1  0.000000  0.728475  0.278101  1
  Tb  Tb3  1  0.000000  0.271525  0.721899  1
  Tb  Tb4  1  0.000000  0.747778  0.779786  1
  Tb  Tb5  1  0.000000  0.252222  0.220214  1
  Tb  Tb6  1  0.000000  0.613737  0.087002  1
  Tb  Tb7  1  0.000000  0.386263  0.912998  1
  Er  Er8  1  0.000000  0.885148  0.585034  1
  Er  Er9  1  0.000000  0.114852  0.414966  1
  In  In10  1  0.500000  0.709411  0.931755  1
  In  In11  1  0.500000  0.290589  0.068245  1
  In  In12  1  0.500000  0.793355  0.432500  1
  In  In13  1  0.500000  0.206645  0.567500  1
  In  In14  1  0.500000  0.579728  0.648114  1
  In  In15  1  0.500000  0.420272  0.351886  1
  In  In16  1  0.500000  0.923290  0.150363  1
  In  In17  1  0.500000  0.076710  0.849637  1
  Ir  Ir18  1  0.500000  0.518437  0.195853  1
  Ir  Ir19  1  0.500000  0.481563  0.804147  1
  Pd  Pd20  1  0.500000  0.980366  0.695167  1
  Pd  Pd21  1  0.500000  0.019634  0.304833  1
