# generated using pymatgen
data_RbInSb4
_symmetry_space_group_name_H-M   'P 1'
_cell_length_a   4.39550000
_cell_length_b   11.00697500
_cell_length_c   19.03828400
_cell_angle_alpha   90.00000000
_cell_angle_beta   90.00000000
_cell_angle_gamma   90.00000000
_symmetry_Int_Tables_number   1
_chemical_formula_structural   RbInSb4
_chemical_formula_sum   'Rb4 In4 Sb16'
_cell_volume   921.09423791
_cell_formula_units_Z   4
loop_
 _symmetry_equiv_pos_site_id
 _symmetry_equiv_pos_as_xyz
  1  'x, y, z'
loop_
 _atom_site_type_symbol
 _atom_site_label
 _atom_site_symmetry_multiplicity
 _atom_site_fract_x
 _atom_site_fract_y
 _atom_site_fract_z
 _atom_site_occupancy
  Rb  Rb0  1  0.250000  0.322845  0.934422  1
  Rb  Rb1  1  0.750000  0.677155  0.065578  1
  Rb  Rb2  1  0.250000  0.822845  0.565578  1
  Rb  Rb3  1  0.750000  0.177155  0.434422  1
  In  In4  1  0.250000  0.179567  0.132019  1
  In  In5  1  0.750000  0.820433  0.867981  1
  In  In6  1  0.250000  0.679567  0.367981  1
  In  In7  1  0.750000  0.320433  0.632019  1
  Sb  Sb8  1  0.750000  0.838315  0.397956  1
  Sb  Sb9  1  0.250000  0.161685  0.602044  1
  Sb  Sb10  1  0.750000  0.338315  0.102044  1
  Sb  Sb11  1  0.250000  0.661685  0.897956  1
  Sb  Sb12  1  0.750000  0.394828  0.777068  1
  Sb  Sb13  1  0.250000  0.605172  0.222932  1
  Sb  Sb14  1  0.750000  0.894828  0.722932  1
  Sb  Sb15  1  0.250000  0.105172  0.277068  1
  Sb  Sb16  1  0.750000  0.537112  0.545565  1
  Sb  Sb17  1  0.250000  0.462888  0.454435  1
  Sb  Sb18  1  0.750000  0.037112  0.954435  1
  Sb  Sb19  1  0.250000  0.962888  0.045565  1
  Sb  Sb20  1  0.750000  0.932747  0.257208  1
  Sb  Sb21  1  0.250000  0.067253  0.742792  1
  Sb  Sb22  1  0.750000  0.432747  0.242792  1
  Sb  Sb23  1  0.250000  0.567253  0.757208  1
