# generated using pymatgen
data_Np4P3Se
_symmetry_space_group_name_H-M   'P 1'
_cell_length_a   3.97358414
_cell_length_b   8.90613514
_cell_length_c   10.52945900
_cell_angle_alpha   40.40313735
_cell_angle_beta   124.47498679
_cell_angle_gamma   132.04184195
_symmetry_Int_Tables_number   1
_chemical_formula_structural   Np4P3Se
_chemical_formula_sum   'Np4 P3 Se1'
_cell_volume   178.14774108
_cell_formula_units_Z   1
loop_
 _symmetry_equiv_pos_site_id
 _symmetry_equiv_pos_as_xyz
  1  'x, y, z'
loop_
 _atom_site_type_symbol
 _atom_site_label
 _atom_site_symmetry_multiplicity
 _atom_site_fract_x
 _atom_site_fract_y
 _atom_site_fract_z
 _atom_site_occupancy
  Np  Np0  1  0.501592  0.397133  0.284324  1
  Np  Np1  1  0.742964  0.659310  0.516511  1
  Np  Np2  1  0.233904  0.135672  0.033908  1
  Np  Np3  1  0.012313  0.921613  0.767090  1
  P  P4  1  0.891278  0.287298  0.654004  1
  P  P5  1  0.353513  0.768792  0.147185  1
  P  P6  1  0.622596  0.028535  0.400464  1
  Se  Se7  1  0.122909  0.528540  0.900474  1
