# generated using pymatgen
data_La5Pr11Cd4TcPt3
_symmetry_space_group_name_H-M   'P 1'
_cell_length_a   10.13170939
_cell_length_b   10.17587965
_cell_length_c   10.17587904
_cell_angle_alpha   59.43802617
_cell_angle_beta   59.52284586
_cell_angle_gamma   59.52284495
_symmetry_Int_Tables_number   1
_chemical_formula_structural   La5Pr11Cd4TcPt3
_chemical_formula_sum   'La5 Pr11 Cd4 Tc1 Pt3'
_cell_volume   733.31366922
_cell_formula_units_Z   1
loop_
 _symmetry_equiv_pos_site_id
 _symmetry_equiv_pos_as_xyz
  1  'x, y, z'
loop_
 _atom_site_type_symbol
 _atom_site_label
 _atom_site_symmetry_multiplicity
 _atom_site_fract_x
 _atom_site_fract_y
 _atom_site_fract_z
 _atom_site_occupancy
  La  La0  1  0.351722  0.351310  0.351310  1
  La  La1  1  0.344963  0.344973  0.957180  1
  La  La2  1  0.344963  0.957180  0.344973  1
  La  La3  1  0.955209  0.346723  0.346723  1
  La  La4  1  0.822196  0.186528  0.186528  1
  Pr  Pr5  1  0.188764  0.807837  0.807837  1
  Pr  Pr6  1  0.190508  0.814017  0.188567  1
  Pr  Pr7  1  0.807265  0.188939  0.806490  1
  Pr  Pr8  1  0.190508  0.188567  0.814017  1
  Pr  Pr9  1  0.807265  0.806490  0.188939  1
  Pr  Pr10  1  0.934435  0.565146  0.565146  1
  Pr  Pr11  1  0.557983  0.936456  0.936456  1
  Pr  Pr12  1  0.564112  0.935063  0.564455  1
  Pr  Pr13  1  0.937636  0.558013  0.936441  1
  Pr  Pr14  1  0.564112  0.564455  0.935063  1
  Pr  Pr15  1  0.937636  0.936441  0.558013  1
  Cd  Cd16  1  0.579045  0.579715  0.579715  1
  Cd  Cd17  1  0.579798  0.582442  0.257383  1
  Cd  Cd18  1  0.579798  0.257383  0.582442  1
  Cd  Cd19  1  0.257542  0.580643  0.580643  1
  Tc  Tc20  1  0.135208  0.146464  0.146464  1
  Pt  Pt21  1  0.146805  0.145078  0.573495  1
  Pt  Pt22  1  0.146805  0.573495  0.145078  1
  Pt  Pt23  1  0.575720  0.146641  0.146641  1
