# generated using pymatgen
data_Dy16In3HgRu3Rh
_symmetry_space_group_name_H-M   'P 1'
_cell_length_a   9.67943980
_cell_length_b   9.63750001
_cell_length_c   9.63897096
_cell_angle_alpha   59.72655082
_cell_angle_beta   59.86101192
_cell_angle_gamma   59.85593967
_symmetry_Int_Tables_number   1
_chemical_formula_structural   Dy16In3HgRu3Rh
_chemical_formula_sum   'Dy16 In3 Hg1 Ru3 Rh1'
_cell_volume   633.13487810
_cell_formula_units_Z   1
loop_
 _symmetry_equiv_pos_site_id
 _symmetry_equiv_pos_as_xyz
  1  'x, y, z'
loop_
 _atom_site_type_symbol
 _atom_site_label
 _atom_site_symmetry_multiplicity
 _atom_site_fract_x
 _atom_site_fract_y
 _atom_site_fract_z
 _atom_site_occupancy
  Dy  Dy0  1  0.690605  0.310781  0.308007  1
  Dy  Dy1  1  0.692697  0.689611  0.308789  1
  Dy  Dy2  1  0.308902  0.689611  0.308789  1
  Dy  Dy3  1  0.937227  0.942225  0.558336  1
  Dy  Dy4  1  0.151673  0.152346  0.544308  1
  Dy  Dy5  1  0.562212  0.942225  0.558336  1
  Dy  Dy6  1  0.151341  0.152113  0.149649  1
  Dy  Dy7  1  0.306025  0.310045  0.691829  1
  Dy  Dy8  1  0.941210  0.561753  0.555827  1
  Dy  Dy9  1  0.558962  0.560398  0.939944  1
  Dy  Dy10  1  0.561104  0.941852  0.935941  1
  Dy  Dy11  1  0.940696  0.560398  0.939944  1
  Dy  Dy12  1  0.153274  0.542488  0.150962  1
  Dy  Dy13  1  0.307274  0.691037  0.694416  1
  Dy  Dy14  1  0.692102  0.310045  0.691829  1
  Dy  Dy15  1  0.546895  0.152113  0.149649  1
  In  In16  1  0.244661  0.917226  0.920503  1
  In  In17  1  0.916900  0.246721  0.919478  1
  In  In18  1  0.917610  0.917226  0.920503  1
  Hg  Hg19  1  0.913975  0.914827  0.257225  1
  Ru  Ru20  1  0.362947  0.358413  0.359505  1
  Ru  Ru21  1  0.919137  0.358413  0.359505  1
  Ru  Ru22  1  0.361936  0.356840  0.919289  1
  Rh  Rh23  1  0.360636  0.921294  0.357436  1
