# generated using pymatgen
data_TbCe(TaSe2)6
_symmetry_space_group_name_H-M   'P 1'
_cell_length_a   6.08703200
_cell_length_b   6.08702947
_cell_length_c   14.78730900
_cell_angle_alpha   90.00000000
_cell_angle_beta   90.00000000
_cell_angle_gamma   120.00000289
_symmetry_Int_Tables_number   1
_chemical_formula_structural   TbCe(TaSe2)6
_chemical_formula_sum   'Tb1 Ce1 Ta6 Se12'
_cell_volume   474.49403409
_cell_formula_units_Z   1
loop_
 _symmetry_equiv_pos_site_id
 _symmetry_equiv_pos_as_xyz
  1  'x, y, z'
loop_
 _atom_site_type_symbol
 _atom_site_label
 _atom_site_symmetry_multiplicity
 _atom_site_fract_x
 _atom_site_fract_y
 _atom_site_fract_z
 _atom_site_occupancy
  Tb  Tb0  1  0.000000  0.000000  0.000000  1
  Ce  Ce1  1  0.000000  0.000000  0.500000  1
  Ta  Ta2  1  0.333333  0.666667  0.244848  1
  Ta  Ta3  1  0.666667  0.333333  0.755152  1
  Ta  Ta4  1  0.666667  0.333333  0.244848  1
  Ta  Ta5  1  0.333333  0.666667  0.755152  1
  Ta  Ta6  1  0.000000  0.000000  0.245072  1
  Ta  Ta7  1  0.000000  0.000000  0.754928  1
  Se  Se8  1  0.339585  0.000000  0.132055  1
  Se  Se9  1  0.000000  0.339585  0.132055  1
  Se  Se10  1  0.660415  0.660415  0.132055  1
  Se  Se11  1  0.339677  0.339677  0.642506  1
  Se  Se12  1  0.660323  0.660323  0.357494  1
  Se  Se13  1  0.660323  0.000000  0.642506  1
  Se  Se14  1  0.000000  0.660323  0.642506  1
  Se  Se15  1  0.000000  0.660415  0.867945  1
  Se  Se16  1  0.339585  0.339585  0.867945  1
  Se  Se17  1  0.000000  0.339677  0.357494  1
  Se  Se18  1  0.339677  0.000000  0.357494  1
  Se  Se19  1  0.660415  0.000000  0.867945  1
