# generated using pymatgen
data_Pr3NdY6(Sn5Rh2)4
_symmetry_space_group_name_H-M   'P 1'
_cell_length_a   14.15503202
_cell_length_b   14.15503202
_cell_length_c   4.57170200
_cell_angle_alpha   90.00000000
_cell_angle_beta   90.00000000
_cell_angle_gamma   89.99416317
_symmetry_Int_Tables_number   1
_chemical_formula_structural   Pr3NdY6(Sn5Rh2)4
_chemical_formula_sum   'Pr3 Nd1 Y6 Sn20 Rh8'
_cell_volume   916.00875304
_cell_formula_units_Z   1
loop_
 _symmetry_equiv_pos_site_id
 _symmetry_equiv_pos_as_xyz
  1  'x, y, z'
loop_
 _atom_site_type_symbol
 _atom_site_label
 _atom_site_symmetry_multiplicity
 _atom_site_fract_x
 _atom_site_fract_y
 _atom_site_fract_z
 _atom_site_occupancy
  Pr  Pr0  1  0.111922  0.611922  0.500000  1
  Pr  Pr1  1  0.388053  0.111950  0.500000  1
  Pr  Pr2  1  0.611950  0.888053  0.500000  1
  Nd  Nd3  1  0.888060  0.388060  0.500000  1
  Y  Y4  1  0.500013  0.499991  0.000000  1
  Y  Y5  1  0.999991  0.000013  0.000000  1
  Y  Y6  1  0.677355  0.177355  0.500000  1
  Y  Y7  1  0.322663  0.822663  0.500000  1
  Y  Y8  1  0.177318  0.322661  0.500000  1
  Y  Y9  1  0.822661  0.677318  0.500000  1
  Sn  Sn10  1  0.570368  0.070368  0.000000  1
  Sn  Sn11  1  0.429631  0.929631  0.000000  1
  Sn  Sn12  1  0.070273  0.429625  0.000000  1
  Sn  Sn13  1  0.929625  0.570273  0.000000  1
  Sn  Sn14  1  0.654306  0.698028  0.000000  1
  Sn  Sn15  1  0.345697  0.301974  0.000000  1
  Sn  Sn16  1  0.154302  0.801962  0.000000  1
  Sn  Sn17  1  0.845719  0.198127  0.000000  1
  Sn  Sn18  1  0.301962  0.654302  0.000000  1
  Sn  Sn19  1  0.698127  0.345719  0.000000  1
  Sn  Sn20  1  0.198028  0.154306  0.000000  1
  Sn  Sn21  1  0.801974  0.845697  0.000000  1
  Sn  Sn22  1  0.661746  0.505604  0.500000  1
  Sn  Sn23  1  0.338286  0.494385  0.500000  1
  Sn  Sn24  1  0.161723  0.994386  0.500000  1
  Sn  Sn25  1  0.838289  0.005615  0.500000  1
  Sn  Sn26  1  0.494386  0.661723  0.500000  1
  Sn  Sn27  1  0.505615  0.338289  0.500000  1
  Sn  Sn28  1  0.005604  0.161746  0.500000  1
  Sn  Sn29  1  0.994385  0.838286  0.500000  1
  Rh  Rh30  1  0.746167  0.529096  0.000000  1
  Rh  Rh31  1  0.253927  0.470753  0.000000  1
  Rh  Rh32  1  0.246056  0.970782  0.000000  1
  Rh  Rh33  1  0.753958  0.029226  0.000000  1
  Rh  Rh34  1  0.470782  0.746056  0.000000  1
  Rh  Rh35  1  0.529226  0.253958  0.000000  1
  Rh  Rh36  1  0.029096  0.246167  0.000000  1
  Rh  Rh37  1  0.970753  0.753927  0.000000  1
