# generated using pymatgen
data_Ti7Pt20Rh
_symmetry_space_group_name_H-M   'P 1'
_cell_length_a   5.58205900
_cell_length_b   5.58310265
_cell_length_c   15.97384736
_cell_angle_alpha   90.09559194
_cell_angle_beta   90.00000000
_cell_angle_gamma   119.99381064
_symmetry_Int_Tables_number   1
_chemical_formula_structural   Ti7Pt20Rh
_chemical_formula_sum   'Ti7 Pt20 Rh1'
_cell_volume   431.15802543
_cell_formula_units_Z   1
loop_
 _symmetry_equiv_pos_site_id
 _symmetry_equiv_pos_as_xyz
  1  'x, y, z'
loop_
 _atom_site_type_symbol
 _atom_site_label
 _atom_site_symmetry_multiplicity
 _atom_site_fract_x
 _atom_site_fract_y
 _atom_site_fract_z
 _atom_site_occupancy
  Ti  Ti0  1  0.998150  0.996301  0.717783  1
  Ti  Ti1  1  0.666712  0.333424  0.855587  1
  Ti  Ti2  1  0.333779  0.667560  0.144514  1
  Ti  Ti3  1  0.999872  0.999745  0.280994  1
  Ti  Ti4  1  0.670295  0.340589  0.433292  1
  Ti  Ti5  1  0.000268  0.000536  0.999653  1
  Ti  Ti6  1  0.333120  0.666241  0.570159  1
  Pt  Pt7  1  0.332834  0.165947  0.571221  1
  Pt  Pt8  1  0.166317  0.332634  0.856848  1
  Pt  Pt9  1  0.166889  0.333777  0.429191  1
  Pt  Pt10  1  0.166187  0.833067  0.429331  1
  Pt  Pt11  1  0.499870  0.999738  0.712970  1
  Pt  Pt12  1  0.666880  0.833067  0.429331  1
  Pt  Pt13  1  0.166887  0.832633  0.856759  1
  Pt  Pt14  1  0.665745  0.832633  0.856759  1
  Pt  Pt15  1  0.833449  0.167032  0.142810  1
  Pt  Pt16  1  0.833113  0.165947  0.571221  1
  Pt  Pt17  1  0.501561  0.500327  0.712863  1
  Pt  Pt18  1  0.333583  0.167032  0.142810  1
  Pt  Pt19  1  0.833486  0.666973  0.143041  1
  Pt  Pt20  1  0.499391  0.500157  0.286941  1
  Pt  Pt21  1  0.499883  0.999767  0.286421  1
  Pt  Pt22  1  0.500028  0.000057  0.999689  1
  Pt  Pt23  1  0.000765  0.500157  0.286941  1
  Pt  Pt24  1  0.998767  0.500327  0.712863  1
  Pt  Pt25  1  0.499960  0.500087  0.999780  1
  Pt  Pt26  1  0.000127  0.500087  0.999780  1
  Rh  Rh27  1  0.832080  0.664161  0.570445  1
