# generated using pymatgen
data_YEr9(Bi3C)2
_symmetry_space_group_name_H-M   'P 1'
_cell_length_a   9.08821900
_cell_length_b   9.08821966
_cell_length_c   6.45533900
_cell_angle_alpha   90.00000000
_cell_angle_beta   90.00000000
_cell_angle_gamma   120.00000125
_symmetry_Int_Tables_number   1
_chemical_formula_structural   YEr9(Bi3C)2
_chemical_formula_sum   'Y1 Er9 Bi6 C2'
_cell_volume   461.75039880
_cell_formula_units_Z   1
loop_
 _symmetry_equiv_pos_site_id
 _symmetry_equiv_pos_as_xyz
  1  'x, y, z'
loop_
 _atom_site_type_symbol
 _atom_site_label
 _atom_site_symmetry_multiplicity
 _atom_site_fract_x
 _atom_site_fract_y
 _atom_site_fract_z
 _atom_site_occupancy
  Y  Y0  1  0.666667  0.333333  0.000000  1
  Er  Er1  1  0.333333  0.666667  0.000000  1
  Er  Er2  1  0.333333  0.666667  0.500000  1
  Er  Er3  1  0.666667  0.333333  0.500000  1
  Er  Er4  1  0.793650  0.793638  0.749944  1
  Er  Er5  1  0.206362  0.000011  0.749944  1
  Er  Er6  1  0.999989  0.206350  0.749944  1
  Er  Er7  1  0.206362  0.206350  0.250056  1
  Er  Er8  1  0.793650  0.000011  0.250056  1
  Er  Er9  1  0.999989  0.793638  0.250056  1
  Bi  Bi10  1  0.401253  0.401681  0.749554  1
  Bi  Bi11  1  0.598319  0.999573  0.749554  1
  Bi  Bi12  1  0.000427  0.598747  0.749554  1
  Bi  Bi13  1  0.598319  0.598747  0.250446  1
  Bi  Bi14  1  0.401253  0.999573  0.250446  1
  Bi  Bi15  1  0.000427  0.401681  0.250446  1
  C  C16  1  0.000000  0.000000  0.000000  1
  C  C17  1  0.000000  0.000000  0.500000  1
