# generated using pymatgen
data_Li4Ho3TmPt4
_symmetry_space_group_name_H-M   'P 1'
_cell_length_a   4.00227700
_cell_length_b   6.98047662
_cell_length_c   8.36540400
_cell_angle_alpha   89.72633590
_cell_angle_beta   90.00000000
_cell_angle_gamma   90.00000000
_symmetry_Int_Tables_number   1
_chemical_formula_structural   Li4Ho3TmPt4
_chemical_formula_sum   'Li4 Ho3 Tm1 Pt4'
_cell_volume   233.70832672
_cell_formula_units_Z   1
loop_
 _symmetry_equiv_pos_site_id
 _symmetry_equiv_pos_as_xyz
  1  'x, y, z'
loop_
 _atom_site_type_symbol
 _atom_site_label
 _atom_site_symmetry_multiplicity
 _atom_site_fract_x
 _atom_site_fract_y
 _atom_site_fract_z
 _atom_site_occupancy
  Li  Li0  1  0.250000  0.629639  0.558192  1
  Li  Li1  1  0.750000  0.371392  0.440980  1
  Li  Li2  1  0.750000  0.872615  0.059211  1
  Li  Li3  1  0.250000  0.127294  0.941989  1
  Ho  Ho4  1  0.250000  0.544640  0.180847  1
  Ho  Ho5  1  0.750000  0.454355  0.820323  1
  Ho  Ho6  1  0.750000  0.955081  0.678682  1
  Tm  Tm7  1  0.250000  0.045263  0.320699  1
  Pt  Pt8  1  0.250000  0.744670  0.875239  1
  Pt  Pt9  1  0.750000  0.252709  0.126448  1
  Pt  Pt10  1  0.750000  0.756689  0.374396  1
  Pt  Pt11  1  0.250000  0.245653  0.622993  1
