# generated using pymatgen
data_DyHo5(Sc2Sn3)2
_symmetry_space_group_name_H-M   'P 1'
_cell_length_a   8.77819109
_cell_length_b   8.77603986
_cell_length_c   6.26833100
_cell_angle_alpha   90.00000000
_cell_angle_beta   90.00000000
_cell_angle_gamma   119.99188638
_symmetry_Int_Tables_number   1
_chemical_formula_structural   DyHo5(Sc2Sn3)2
_chemical_formula_sum   'Dy1 Ho5 Sc4 Sn6'
_cell_volume   418.23625009
_cell_formula_units_Z   1
loop_
 _symmetry_equiv_pos_site_id
 _symmetry_equiv_pos_as_xyz
  1  'x, y, z'
loop_
 _atom_site_type_symbol
 _atom_site_label
 _atom_site_symmetry_multiplicity
 _atom_site_fract_x
 _atom_site_fract_y
 _atom_site_fract_z
 _atom_site_occupancy
  Dy  Dy0  1  0.000000  0.761079  0.750000  1
  Ho  Ho1  1  0.000000  0.238894  0.250000  1
  Ho  Ho2  1  0.760991  0.761049  0.250000  1
  Ho  Ho3  1  0.761035  0.000029  0.750000  1
  Ho  Ho4  1  0.238965  0.238994  0.750000  1
  Ho  Ho5  1  0.239009  0.000058  0.250000  1
  Sc  Sc6  1  0.333339  0.666657  0.499984  1
  Sc  Sc7  1  0.666661  0.333317  0.000016  1
  Sc  Sc8  1  0.666661  0.333317  0.499984  1
  Sc  Sc9  1  0.333339  0.666657  0.000016  1
  Sn  Sn10  1  0.399840  0.000103  0.750000  1
  Sn  Sn11  1  0.399679  0.399686  0.250000  1
  Sn  Sn12  1  0.000000  0.600308  0.250000  1
  Sn  Sn13  1  0.000000  0.399583  0.750000  1
  Sn  Sn14  1  0.600160  0.600262  0.750000  1
  Sn  Sn15  1  0.600321  0.000007  0.250000  1
