# generated using pymatgen
data_Dy12Th8Sn9Sb7
_symmetry_space_group_name_H-M   'P 1'
_cell_length_a   8.13784706
_cell_length_b   8.11393467
_cell_length_c   15.35338200
_cell_angle_alpha   90.02203158
_cell_angle_beta   89.99327617
_cell_angle_gamma   89.99234802
_symmetry_Int_Tables_number   1
_chemical_formula_structural   Dy12Th8Sn9Sb7
_chemical_formula_sum   'Dy12 Th8 Sn9 Sb7'
_cell_volume   1013.78309892
_cell_formula_units_Z   1
loop_
 _symmetry_equiv_pos_site_id
 _symmetry_equiv_pos_as_xyz
  1  'x, y, z'
loop_
 _atom_site_type_symbol
 _atom_site_label
 _atom_site_symmetry_multiplicity
 _atom_site_fract_x
 _atom_site_fract_y
 _atom_site_fract_z
 _atom_site_occupancy
  Dy  Dy0  1  0.362323  0.838295  0.877036  1
  Dy  Dy1  1  0.862654  0.661120  0.622888  1
  Dy  Dy2  1  0.637192  0.160882  0.377278  1
  Dy  Dy3  1  0.136603  0.338752  0.123319  1
  Dy  Dy4  1  0.638022  0.161963  0.122941  1
  Dy  Dy5  1  0.137032  0.338569  0.377253  1
  Dy  Dy6  1  0.362755  0.839010  0.622972  1
  Dy  Dy7  1  0.862474  0.661424  0.876778  1
  Dy  Dy8  1  0.190741  0.495249  0.749735  1
  Dy  Dy9  1  0.690709  0.004666  0.749934  1
  Dy  Dy10  1  0.809257  0.504362  0.249344  1
  Dy  Dy11  1  0.309325  0.995388  0.249947  1
  Th  Th12  1  0.519441  0.320926  0.905172  1
  Th  Th13  1  0.019500  0.179128  0.594615  1
  Th  Th14  1  0.480553  0.679794  0.405195  1
  Th  Th15  1  0.980902  0.820906  0.095312  1
  Th  Th16  1  0.482250  0.679047  0.094606  1
  Th  Th17  1  0.980674  0.820773  0.405477  1
  Th  Th18  1  0.519557  0.320583  0.594891  1
  Th  Th19  1  0.018326  0.179708  0.905061  1
  Sn  Sn20  1  0.797467  0.460519  0.042470  1
  Sn  Sn21  1  0.558195  0.619682  0.749535  1
  Sn  Sn22  1  0.058304  0.880761  0.749816  1
  Sn  Sn23  1  0.441310  0.380761  0.250535  1
  Sn  Sn24  1  0.941737  0.119045  0.250727  1
  Sn  Sn25  1  0.323909  0.142617  0.749918  1
  Sn  Sn26  1  0.824011  0.357069  0.749821  1
  Sn  Sn27  1  0.676417  0.857133  0.250278  1
  Sn  Sn28  1  0.176380  0.642756  0.250280  1
  Sb  Sb29  1  0.296642  0.039416  0.043138  1
  Sb  Sb30  1  0.796651  0.460919  0.456742  1
  Sb  Sb31  1  0.703287  0.960927  0.543508  1
  Sb  Sb32  1  0.202145  0.539158  0.956988  1
  Sb  Sb33  1  0.703127  0.961075  0.956498  1
  Sb  Sb34  1  0.203529  0.538871  0.543388  1
  Sb  Sb35  1  0.296605  0.038749  0.456601  1
