# generated using pymatgen
data_Na4HoPaTe6
_symmetry_space_group_name_H-M   'P 1'
_cell_length_a   7.63122844
_cell_length_b   7.63122808
_cell_length_c   7.96236700
_cell_angle_alpha   99.23034273
_cell_angle_beta   99.23034989
_cell_angle_gamma   120.06015131
_symmetry_Int_Tables_number   1
_chemical_formula_structural   Na4HoPaTe6
_chemical_formula_sum   'Na4 Ho1 Pa1 Te6'
_cell_volume   380.07465500
_cell_formula_units_Z   1
loop_
 _symmetry_equiv_pos_site_id
 _symmetry_equiv_pos_as_xyz
  1  'x, y, z'
loop_
 _atom_site_type_symbol
 _atom_site_label
 _atom_site_symmetry_multiplicity
 _atom_site_fract_x
 _atom_site_fract_y
 _atom_site_fract_z
 _atom_site_occupancy
  Na  Na0  1  0.999948  0.000052  0.000000  1
  Na  Na1  1  0.843420  0.156580  0.500000  1
  Na  Na2  1  0.500297  0.499703  0.500000  1
  Na  Na3  1  0.156230  0.843770  0.500000  1
  Ho  Ho4  1  0.331603  0.668397  0.000000  1
  Pa  Pa5  1  0.668462  0.331538  0.000000  1
  Te  Te6  1  0.727784  0.723558  0.232275  1
  Te  Te7  1  0.435314  0.084300  0.235616  1
  Te  Te8  1  0.075476  0.430677  0.235956  1
  Te  Te9  1  0.915700  0.564686  0.764383  1
  Te  Te10  1  0.569323  0.924524  0.764043  1
  Te  Te11  1  0.276442  0.272216  0.767725  1
