# generated using pymatgen
data_Y2MnIr2Rh
_symmetry_space_group_name_H-M   'P 1'
_cell_length_a   5.50578953
_cell_length_b   5.19161595
_cell_length_c   5.50579008
_cell_angle_alpha   58.08773901
_cell_angle_beta   59.91282460
_cell_angle_gamma   58.08771847
_symmetry_Int_Tables_number   1
_chemical_formula_structural   Y2MnIr2Rh
_chemical_formula_sum   'Y2 Mn1 Ir2 Rh1'
_cell_volume   107.88984803
_cell_formula_units_Z   1
loop_
 _symmetry_equiv_pos_site_id
 _symmetry_equiv_pos_as_xyz
  1  'x, y, z'
loop_
 _atom_site_type_symbol
 _atom_site_label
 _atom_site_symmetry_multiplicity
 _atom_site_fract_x
 _atom_site_fract_y
 _atom_site_fract_z
 _atom_site_occupancy
  Y  Y0  1  0.626772  0.619819  0.626772  1
  Y  Y1  1  0.373228  0.380181  0.373228  1
  Mn  Mn2  1  0.000000  0.500000  0.000000  1
  Ir  Ir3  1  0.500000  0.000000  0.000000  1
  Ir  Ir4  1  0.000000  0.000000  0.500000  1
  Rh  Rh5  1  0.000000  0.000000  0.000000  1
