# generated using pymatgen
data_Pr6Al2SiSe14
_symmetry_space_group_name_H-M   'P 1'
_cell_length_a   10.61560800
_cell_length_b   10.61560832
_cell_length_c   6.22553700
_cell_angle_alpha   90.00000000
_cell_angle_beta   90.00000000
_cell_angle_gamma   120.00001062
_symmetry_Int_Tables_number   1
_chemical_formula_structural   Pr6Al2SiSe14
_chemical_formula_sum   'Pr6 Al2 Si1 Se14'
_cell_volume   607.57117736
_cell_formula_units_Z   1
loop_
 _symmetry_equiv_pos_site_id
 _symmetry_equiv_pos_as_xyz
  1  'x, y, z'
loop_
 _atom_site_type_symbol
 _atom_site_label
 _atom_site_symmetry_multiplicity
 _atom_site_fract_x
 _atom_site_fract_y
 _atom_site_fract_z
 _atom_site_occupancy
  Pr  Pr0  1  0.803762  0.697435  0.523196  1
  Pr  Pr1  1  0.893673  0.196238  0.523196  1
  Pr  Pr2  1  0.302565  0.106327  0.523196  1
  Pr  Pr3  1  0.522043  0.965750  0.042269  1
  Pr  Pr4  1  0.443706  0.477957  0.042269  1
  Pr  Pr5  1  0.034250  0.556294  0.042269  1
  Al  Al6  1  0.666667  0.333333  0.316675  1
  Al  Al7  1  0.333333  0.666667  0.450981  1
  Si  Si8  1  0.000000  0.000000  0.942674  1
  Se  Se9  1  0.000000  0.000000  0.308759  1
  Se  Se10  1  0.333333  0.666667  0.830412  1
  Se  Se11  1  0.084076  0.855373  0.800171  1
  Se  Se12  1  0.771297  0.915924  0.800171  1
  Se  Se13  1  0.144627  0.228703  0.800171  1
  Se  Se14  1  0.240060  0.813841  0.303627  1
  Se  Se15  1  0.573780  0.759940  0.303627  1
  Se  Se16  1  0.186159  0.426220  0.303627  1
  Se  Se17  1  0.908768  0.484150  0.545951  1
  Se  Se18  1  0.575384  0.091232  0.545951  1
  Se  Se19  1  0.515850  0.424616  0.545951  1
  Se  Se20  1  0.430686  0.192292  0.082289  1
  Se  Se21  1  0.761606  0.569314  0.082289  1
  Se  Se22  1  0.807708  0.238394  0.082289  1
