# generated using pymatgen
data_In2Cu(SeO3)4
_symmetry_space_group_name_H-M   'P 1'
_cell_length_a   4.95062500
_cell_length_b   8.91851624
_cell_length_c   15.50004924
_cell_angle_alpha   70.24507816
_cell_angle_beta   90.00000000
_cell_angle_gamma   90.00000000
_symmetry_Int_Tables_number   1
_chemical_formula_structural   In2Cu(SeO3)4
_chemical_formula_sum   'In4 Cu2 Se8 O24'
_cell_volume   644.08497918
_cell_formula_units_Z   2
loop_
 _symmetry_equiv_pos_site_id
 _symmetry_equiv_pos_as_xyz
  1  'x, y, z'
loop_
 _atom_site_type_symbol
 _atom_site_label
 _atom_site_symmetry_multiplicity
 _atom_site_fract_x
 _atom_site_fract_y
 _atom_site_fract_z
 _atom_site_occupancy
  In  In0  1  0.560489  0.157908  0.780269  1
  In  In1  1  0.939511  0.157908  0.280269  1
  In  In2  1  0.439511  0.842092  0.219731  1
  In  In3  1  0.060489  0.842092  0.719731  1
  Cu  Cu4  1  0.000000  0.000000  0.000000  1
  Cu  Cu5  1  0.500000  0.000000  0.500000  1
  Se  Se6  1  0.599426  0.795405  0.894498  1
  Se  Se7  1  0.900574  0.795405  0.394498  1
  Se  Se8  1  0.400574  0.204595  0.105502  1
  Se  Se9  1  0.099426  0.204595  0.605502  1
  Se  Se10  1  0.026622  0.338868  0.869413  1
  Se  Se11  1  0.473378  0.338868  0.369413  1
  Se  Se12  1  0.973378  0.661132  0.130587  1
  Se  Se13  1  0.526622  0.661132  0.630587  1
  O  O14  1  0.786344  0.356192  0.785078  1
  O  O15  1  0.713656  0.356192  0.285078  1
  O  O16  1  0.213656  0.643808  0.214922  1
  O  O17  1  0.286344  0.643808  0.714922  1
  O  O18  1  0.847816  0.719496  0.844803  1
  O  O19  1  0.652184  0.719496  0.344803  1
  O  O20  1  0.152184  0.280504  0.155197  1
  O  O21  1  0.347816  0.280504  0.655197  1
  O  O22  1  0.236760  0.185683  0.865087  1
  O  O23  1  0.263240  0.185683  0.365087  1
  O  O24  1  0.763240  0.814317  0.134913  1
  O  O25  1  0.736760  0.814317  0.634913  1
  O  O26  1  0.735669  0.971079  0.904151  1
  O  O27  1  0.764331  0.971079  0.404151  1
  O  O28  1  0.264331  0.028921  0.095849  1
  O  O29  1  0.235669  0.028921  0.595849  1
  O  O30  1  0.398094  0.909362  0.801095  1
  O  O31  1  0.101906  0.909362  0.301095  1
  O  O32  1  0.601906  0.090638  0.198905  1
  O  O33  1  0.898094  0.090638  0.698905  1
  O  O34  1  0.873761  0.221514  0.970335  1
  O  O35  1  0.626239  0.221514  0.470335  1
  O  O36  1  0.126239  0.778486  0.029665  1
  O  O37  1  0.373761  0.778486  0.529665  1
