# generated using pymatgen
data_TbY2Al5Ga4
_symmetry_space_group_name_H-M   'P 1'
_cell_length_a   7.80979502
_cell_length_b   7.82562218
_cell_length_c   7.82562128
_cell_angle_alpha   47.02763419
_cell_angle_beta   47.20380582
_cell_angle_gamma   47.20382988
_symmetry_Int_Tables_number   1
_chemical_formula_structural   TbY2Al5Ga4
_chemical_formula_sum   'Tb1 Y2 Al5 Ga4'
_cell_volume   235.02272996
_cell_formula_units_Z   1
loop_
 _symmetry_equiv_pos_site_id
 _symmetry_equiv_pos_as_xyz
  1  'x, y, z'
loop_
 _atom_site_type_symbol
 _atom_site_label
 _atom_site_symmetry_multiplicity
 _atom_site_fract_x
 _atom_site_fract_y
 _atom_site_fract_z
 _atom_site_occupancy
  Tb  Tb0  1  0.996574  0.998267  0.998267  1
  Y  Y1  1  0.787722  0.785126  0.785126  1
  Y  Y2  1  0.213215  0.217291  0.217291  1
  Al  Al3  1  0.498386  0.501948  0.000693  1
  Al  Al4  1  0.498386  0.000693  0.501948  1
  Al  Al5  1  0.000686  0.500960  0.500960  1
  Al  Al6  1  0.302748  0.295926  0.728258  1
  Al  Al7  1  0.302748  0.728258  0.295926  1
  Ga  Ga8  1  0.698061  0.703433  0.272686  1
  Ga  Ga9  1  0.269823  0.700405  0.700405  1
  Ga  Ga10  1  0.698061  0.272686  0.703433  1
  Ga  Ga11  1  0.733590  0.295007  0.295007  1
