# generated using pymatgen
data_Cs12GaMo3Se16
_symmetry_space_group_name_H-M   'P 1'
_cell_length_a   10.38512807
_cell_length_b   10.50347347
_cell_length_c   12.11244500
_cell_angle_alpha   90.00000000
_cell_angle_beta   90.00000000
_cell_angle_gamma   89.41356005
_symmetry_Int_Tables_number   1
_chemical_formula_structural   Cs12GaMo3Se16
_chemical_formula_sum   'Cs12 Ga1 Mo3 Se16'
_cell_volume   1321.15529098
_cell_formula_units_Z   1
loop_
 _symmetry_equiv_pos_site_id
 _symmetry_equiv_pos_as_xyz
  1  'x, y, z'
loop_
 _atom_site_type_symbol
 _atom_site_label
 _atom_site_symmetry_multiplicity
 _atom_site_fract_x
 _atom_site_fract_y
 _atom_site_fract_z
 _atom_site_occupancy
  Cs  Cs0  1  0.943770  0.697156  0.970517  1
  Cs  Cs1  1  0.455925  0.786064  0.963196  1
  Cs  Cs2  1  0.563297  0.220793  0.452339  1
  Cs  Cs3  1  0.033374  0.307553  0.056158  1
  Cs  Cs4  1  0.143495  0.085298  0.750000  1
  Cs  Cs5  1  0.646985  0.423807  0.750000  1
  Cs  Cs6  1  0.366160  0.577313  0.250000  1
  Cs  Cs7  1  0.850755  0.909302  0.250000  1
  Cs  Cs8  1  0.033374  0.307553  0.443842  1
  Cs  Cs9  1  0.455925  0.786064  0.536804  1
  Cs  Cs10  1  0.563297  0.220793  0.047661  1
  Cs  Cs11  1  0.943770  0.697156  0.529483  1
  Ga  Ga12  1  0.776568  0.481907  0.250000  1
  Mo  Mo13  1  0.277910  0.016465  0.250000  1
  Mo  Mo14  1  0.723693  0.985367  0.750000  1
  Mo  Mo15  1  0.220240  0.515096  0.750000  1
  Se  Se16  1  0.202844  0.739343  0.750000  1
  Se  Se17  1  0.706821  0.762110  0.750000  1
  Se  Se18  1  0.296458  0.238751  0.250000  1
  Se  Se19  1  0.796645  0.244346  0.250000  1
  Se  Se20  1  0.011996  0.426434  0.750000  1
  Se  Se21  1  0.514994  0.077926  0.750000  1
  Se  Se22  1  0.485777  0.926185  0.250000  1
  Se  Se23  1  0.996085  0.574108  0.250000  1
  Se  Se24  1  0.662171  0.546565  0.420739  1
  Se  Se25  1  0.168077  0.954833  0.089681  1
  Se  Se26  1  0.834682  0.045758  0.589187  1
  Se  Se27  1  0.329990  0.449399  0.909437  1
  Se  Se28  1  0.329990  0.449399  0.590563  1
  Se  Se29  1  0.662171  0.546565  0.079261  1
  Se  Se30  1  0.168077  0.954833  0.410319  1
  Se  Se31  1  0.834682  0.045758  0.910813  1
