# generated using pymatgen
data_Zr5Co16(MoP4)3
_symmetry_space_group_name_H-M   'P 1'
_cell_length_a   11.92494700
_cell_length_b   11.92494758
_cell_length_c   3.67706800
_cell_angle_alpha   90.00000000
_cell_angle_beta   90.00000000
_cell_angle_gamma   119.99999562
_symmetry_Int_Tables_number   1
_chemical_formula_structural   Zr5Co16(MoP4)3
_chemical_formula_sum   'Zr5 Co16 Mo3 P12'
_cell_volume   452.84048661
_cell_formula_units_Z   1
loop_
 _symmetry_equiv_pos_site_id
 _symmetry_equiv_pos_as_xyz
  1  'x, y, z'
loop_
 _atom_site_type_symbol
 _atom_site_label
 _atom_site_symmetry_multiplicity
 _atom_site_fract_x
 _atom_site_fract_y
 _atom_site_fract_z
 _atom_site_occupancy
  Zr  Zr0  1  0.666667  0.333333  0.000000  1
  Zr  Zr1  1  0.333333  0.666667  0.000000  1
  Zr  Zr2  1  0.820498  0.820498  0.500000  1
  Zr  Zr3  1  0.179502  0.000000  0.500000  1
  Zr  Zr4  1  0.000000  0.179502  0.500000  1
  Co  Co5  1  0.194791  0.374170  0.000000  1
  Co  Co6  1  0.179379  0.805209  0.000000  1
  Co  Co7  1  0.820621  0.625830  0.000000  1
  Co  Co8  1  0.805209  0.179379  0.000000  1
  Co  Co9  1  0.374170  0.194791  0.000000  1
  Co  Co10  1  0.128420  0.483915  0.500000  1
  Co  Co11  1  0.355495  0.871580  0.500000  1
  Co  Co12  1  0.516085  0.644505  0.500000  1
  Co  Co13  1  0.644505  0.516085  0.500000  1
  Co  Co14  1  0.871580  0.355495  0.500000  1
  Co  Co15  1  0.483915  0.128420  0.500000  1
  Co  Co16  1  0.000000  0.000000  0.000000  1
  Co  Co17  1  0.720087  0.000000  0.500000  1
  Co  Co18  1  0.000000  0.720087  0.500000  1
  Co  Co19  1  0.625830  0.820621  0.000000  1
  Co  Co20  1  0.279913  0.279913  0.500000  1
  Mo  Mo21  1  0.447983  0.447983  0.000000  1
  Mo  Mo22  1  0.552017  0.000000  0.000000  1
  Mo  Mo23  1  0.000000  0.552017  0.000000  1
  P  P24  1  0.643372  0.643372  0.000000  1
  P  P25  1  0.356628  0.000000  0.000000  1
  P  P26  1  0.000000  0.356628  0.000000  1
  P  P27  1  0.480563  0.313254  0.500000  1
  P  P28  1  0.686746  0.167309  0.500000  1
  P  P29  1  0.832691  0.519437  0.500000  1
  P  P30  1  0.519437  0.832691  0.500000  1
  P  P31  1  0.167309  0.686746  0.500000  1
  P  P32  1  0.823589  0.000000  0.000000  1
  P  P33  1  0.000000  0.823589  0.000000  1
  P  P34  1  0.313254  0.480563  0.500000  1
  P  P35  1  0.176411  0.176411  0.000000  1
