# generated using pymatgen
data_Ca19Yb(TlHg3)3
_symmetry_space_group_name_H-M   'P 1'
_cell_length_a   8.27356300
_cell_length_b   8.27356300
_cell_length_c   14.82865600
_cell_angle_alpha   90.00000000
_cell_angle_beta   90.00000000
_cell_angle_gamma   90.00000000
_symmetry_Int_Tables_number   1
_chemical_formula_structural   Ca19Yb(TlHg3)3
_chemical_formula_sum   'Ca19 Yb1 Tl3 Hg9'
_cell_volume   1015.04885784
_cell_formula_units_Z   1
loop_
 _symmetry_equiv_pos_site_id
 _symmetry_equiv_pos_as_xyz
  1  'x, y, z'
loop_
 _atom_site_type_symbol
 _atom_site_label
 _atom_site_symmetry_multiplicity
 _atom_site_fract_x
 _atom_site_fract_y
 _atom_site_fract_z
 _atom_site_occupancy
  Ca  Ca0  1  0.666997  0.161258  0.100957  1
  Ca  Ca1  1  0.165194  0.663663  0.602228  1
  Ca  Ca2  1  0.333003  0.838742  0.100957  1
  Ca  Ca3  1  0.834806  0.336337  0.602228  1
  Ca  Ca4  1  0.838742  0.666997  0.100957  1
  Ca  Ca5  1  0.336337  0.165194  0.602228  1
  Ca  Ca6  1  0.161258  0.333003  0.100957  1
  Ca  Ca7  1  0.663663  0.834806  0.602228  1
  Ca  Ca8  1  0.838572  0.332989  0.899149  1
  Ca  Ca9  1  0.336327  0.834979  0.397664  1
  Ca  Ca10  1  0.161428  0.667011  0.899149  1
  Ca  Ca11  1  0.663673  0.165021  0.397664  1
  Ca  Ca12  1  0.667011  0.838572  0.899149  1
  Ca  Ca13  1  0.165021  0.336327  0.397664  1
  Ca  Ca14  1  0.332989  0.161428  0.899149  1
  Ca  Ca15  1  0.834979  0.663673  0.397664  1
  Ca  Ca16  1  0.500000  0.500000  0.753716  1
  Ca  Ca17  1  0.000000  0.000000  0.748850  1
  Ca  Ca18  1  0.500000  0.500000  0.246296  1
  Yb  Yb19  1  0.000000  0.000000  0.250881  1
  Tl  Tl20  1  0.500000  0.500000  0.499911  1
  Tl  Tl21  1  0.500000  0.500000  0.000077  1
  Tl  Tl22  1  0.000000  0.000000  0.499550  1
  Hg  Hg23  1  0.633489  0.133762  0.751263  1
  Hg  Hg24  1  0.133306  0.635253  0.248759  1
  Hg  Hg25  1  0.866694  0.364747  0.248759  1
  Hg  Hg26  1  0.366511  0.866238  0.751263  1
  Hg  Hg27  1  0.866238  0.633489  0.751263  1
  Hg  Hg28  1  0.364747  0.133306  0.248759  1
  Hg  Hg29  1  0.133762  0.366511  0.751263  1
  Hg  Hg30  1  0.635253  0.866694  0.248759  1
  Hg  Hg31  1  0.000000  0.000000  0.000645  1
