# generated using pymatgen
data_Er6Tm10In6CoRh
_symmetry_space_group_name_H-M   'P 1'
_cell_length_a   10.27234402
_cell_length_b   10.27234389
_cell_length_c   6.95146500
_cell_angle_alpha   90.00040125
_cell_angle_beta   89.99879104
_cell_angle_gamma   120.00125785
_symmetry_Int_Tables_number   1
_chemical_formula_structural   Er6Tm10In6CoRh
_chemical_formula_sum   'Er6 Tm10 In6 Co1 Rh1'
_cell_volume   635.24400095
_cell_formula_units_Z   1
loop_
 _symmetry_equiv_pos_site_id
 _symmetry_equiv_pos_as_xyz
  1  'x, y, z'
loop_
 _atom_site_type_symbol
 _atom_site_label
 _atom_site_symmetry_multiplicity
 _atom_site_fract_x
 _atom_site_fract_y
 _atom_site_fract_z
 _atom_site_occupancy
  Er  Er0  1  0.532048  0.064099  0.516131  1
  Er  Er1  1  0.935873  0.467938  0.516110  1
  Er  Er2  1  0.532068  0.467908  0.516118  1
  Er  Er3  1  0.464840  0.929633  0.014479  1
  Er  Er4  1  0.070411  0.535211  0.014434  1
  Er  Er5  1  0.464803  0.535213  0.014487  1
  Tm  Tm6  1  0.178501  0.356964  0.721244  1
  Tm  Tm7  1  0.643029  0.821508  0.721242  1
  Tm  Tm8  1  0.178494  0.821533  0.721253  1
  Tm  Tm9  1  0.823488  0.646991  0.219509  1
  Tm  Tm10  1  0.352946  0.176487  0.219515  1
  Tm  Tm11  1  0.823517  0.176502  0.219517  1
  Tm  Tm12  1  0.666665  0.333352  0.894487  1
  Tm  Tm13  1  0.333347  0.666669  0.405191  1
  Tm  Tm14  1  0.999995  0.000018  0.501841  1
  Tm  Tm15  1  0.000001  0.999988  0.998768  1
  In  In16  1  0.837866  0.675735  0.760113  1
  In  In17  1  0.324269  0.162129  0.760134  1
  In  In18  1  0.837864  0.162142  0.760097  1
  In  In19  1  0.163107  0.326221  0.261579  1
  In  In20  1  0.673806  0.836901  0.261596  1
  In  In21  1  0.163078  0.836913  0.261552  1
  Co  Co22  1  0.333339  0.666664  0.789252  1
  Rh  Rh23  1  0.666645  0.333279  0.289351  1
