# generated using pymatgen
data_LaNd6CoI12
_symmetry_space_group_name_H-M   'P 1'
_cell_length_a   10.06327146
_cell_length_b   10.06327116
_cell_length_c   10.06327373
_cell_angle_alpha   106.75368941
_cell_angle_beta   106.75369360
_cell_angle_gamma   106.75369216
_symmetry_Int_Tables_number   1
_chemical_formula_structural   LaNd6CoI12
_chemical_formula_sum   'La1 Nd6 Co1 I12'
_cell_volume   854.35629547
_cell_formula_units_Z   1
loop_
 _symmetry_equiv_pos_site_id
 _symmetry_equiv_pos_as_xyz
  1  'x, y, z'
loop_
 _atom_site_type_symbol
 _atom_site_label
 _atom_site_symmetry_multiplicity
 _atom_site_fract_x
 _atom_site_fract_y
 _atom_site_fract_z
 _atom_site_occupancy
  La  La0  1  0.996036  0.996036  0.996036  1
  Nd  Nd1  1  0.519266  0.592754  0.791655  1
  Nd  Nd2  1  0.791655  0.519266  0.592754  1
  Nd  Nd3  1  0.592754  0.791655  0.519266  1
  Nd  Nd4  1  0.479059  0.405554  0.207107  1
  Nd  Nd5  1  0.207107  0.479059  0.405554  1
  Nd  Nd6  1  0.405554  0.207107  0.479059  1
  Co  Co7  1  0.499570  0.499570  0.499570  1
  I  I8  1  0.274340  0.821419  0.426276  1
  I  I9  1  0.426276  0.274340  0.821419  1
  I  I10  1  0.821419  0.426276  0.274340  1
  I  I11  1  0.724224  0.177270  0.572400  1
  I  I12  1  0.572400  0.724224  0.177270  1
  I  I13  1  0.177270  0.572400  0.724224  1
  I  I14  1  0.040470  0.118936  0.342518  1
  I  I15  1  0.342518  0.040470  0.118936  1
  I  I16  1  0.118936  0.342518  0.040470  1
  I  I17  1  0.957521  0.878166  0.650828  1
  I  I18  1  0.650828  0.957521  0.878166  1
  I  I19  1  0.878166  0.650828  0.957521  1
