# generated using pymatgen
data_La3Pr(Rh2O7)2
_symmetry_space_group_name_H-M   'P 1'
_cell_length_a   7.43864128
_cell_length_b   7.43864194
_cell_length_c   7.43864134
_cell_angle_alpha   60.09331797
_cell_angle_beta   60.09330964
_cell_angle_gamma   60.09331063
_symmetry_Int_Tables_number   1
_chemical_formula_structural   La3Pr(Rh2O7)2
_chemical_formula_sum   'La3 Pr1 Rh4 O14'
_cell_volume   291.66424220
_cell_formula_units_Z   1
loop_
 _symmetry_equiv_pos_site_id
 _symmetry_equiv_pos_as_xyz
  1  'x, y, z'
loop_
 _atom_site_type_symbol
 _atom_site_label
 _atom_site_symmetry_multiplicity
 _atom_site_fract_x
 _atom_site_fract_y
 _atom_site_fract_z
 _atom_site_occupancy
  La  La0  1  0.125000  0.625000  0.125000  1
  La  La1  1  0.625000  0.125000  0.125000  1
  La  La2  1  0.125000  0.125000  0.625000  1
  Pr  Pr3  1  0.125000  0.125000  0.125000  1
  Rh  Rh4  1  0.625000  0.625000  0.625000  1
  Rh  Rh5  1  0.625000  0.625000  0.125000  1
  Rh  Rh6  1  0.125000  0.625000  0.625000  1
  Rh  Rh7  1  0.625000  0.125000  0.625000  1
  O  O8  1  0.250293  0.250293  0.250293  1
  O  O9  1  0.294549  0.707984  0.294549  1
  O  O10  1  0.955451  0.955451  0.542016  1
  O  O11  1  0.545566  0.954670  0.545566  1
  O  O12  1  0.704434  0.704434  0.295330  1
  O  O13  1  0.954670  0.545566  0.545566  1
  O  O14  1  0.704434  0.295330  0.704434  1
  O  O15  1  0.294549  0.294549  0.707984  1
  O  O16  1  0.707984  0.294549  0.294549  1
  O  O17  1  0.295330  0.704434  0.704434  1
  O  O18  1  0.955451  0.542016  0.955451  1
  O  O19  1  0.545566  0.545566  0.954670  1
  O  O20  1  0.999707  0.999707  0.999707  1
  O  O21  1  0.542016  0.955451  0.955451  1
