# generated using pymatgen
data_SrAc3(MnN2)4
_symmetry_space_group_name_H-M   'P 1'
_cell_length_a   7.43679035
_cell_length_b   5.95085019
_cell_length_c   5.90326962
_cell_angle_alpha   67.95394599
_cell_angle_beta   89.99166510
_cell_angle_gamma   90.21251203
_symmetry_Int_Tables_number   1
_chemical_formula_structural   SrAc3(MnN2)4
_chemical_formula_sum   'Sr1 Ac3 Mn4 N8'
_cell_volume   242.14652924
_cell_formula_units_Z   1
loop_
 _symmetry_equiv_pos_site_id
 _symmetry_equiv_pos_as_xyz
  1  'x, y, z'
loop_
 _atom_site_type_symbol
 _atom_site_label
 _atom_site_symmetry_multiplicity
 _atom_site_fract_x
 _atom_site_fract_y
 _atom_site_fract_z
 _atom_site_occupancy
  Sr  Sr0  1  0.432537  0.818611  0.315776  1
  Ac  Ac1  1  0.068722  0.313842  0.313123  1
  Ac  Ac2  1  0.561262  0.190685  0.685169  1
  Ac  Ac3  1  0.933694  0.686081  0.686454  1
  Mn  Mn4  1  0.635185  0.415808  0.106788  1
  Mn  Mn5  1  0.133774  0.080545  0.897863  1
  Mn  Mn6  1  0.365062  0.581639  0.900526  1
  Mn  Mn7  1  0.862786  0.914790  0.104881  1
  N  N8  1  0.086191  0.914946  0.250048  1
  N  N9  1  0.589279  0.585497  0.751767  1
  N  N10  1  0.909084  0.088060  0.746968  1
  N  N11  1  0.412199  0.418287  0.247915  1
  N  N12  1  0.715648  0.122288  0.159017  1
  N  N13  1  0.212965  0.378387  0.841552  1
  N  N14  1  0.283466  0.877322  0.835855  1
  N  N15  1  0.798147  0.613213  0.156298  1
