# generated using pymatgen
data_Tm12Ga2Fe2Ru
_symmetry_space_group_name_H-M   'P 1'
_cell_length_a   8.14357427
_cell_length_b   8.14357509
_cell_length_c   8.14357490
_cell_angle_alpha   108.98069544
_cell_angle_beta   108.98069445
_cell_angle_gamma   110.45679258
_symmetry_Int_Tables_number   1
_chemical_formula_structural   Tm12Ga2Fe2Ru
_chemical_formula_sum   'Tm12 Ga2 Fe2 Ru1'
_cell_volume   415.64903813
_cell_formula_units_Z   1
loop_
 _symmetry_equiv_pos_site_id
 _symmetry_equiv_pos_as_xyz
  1  'x, y, z'
loop_
 _atom_site_type_symbol
 _atom_site_label
 _atom_site_symmetry_multiplicity
 _atom_site_fract_x
 _atom_site_fract_y
 _atom_site_fract_z
 _atom_site_occupancy
  Tm  Tm0  1  0.190673  0.434584  0.243911  1
  Tm  Tm1  1  0.809327  0.565416  0.756089  1
  Tm  Tm2  1  0.190673  0.946764  0.756089  1
  Tm  Tm3  1  0.946764  0.190673  0.756089  1
  Tm  Tm4  1  0.809327  0.053236  0.243911  1
  Tm  Tm5  1  0.053236  0.809327  0.243911  1
  Tm  Tm6  1  0.434584  0.190673  0.243911  1
  Tm  Tm7  1  0.565416  0.809327  0.756089  1
  Tm  Tm8  1  0.306963  0.306963  0.613928  1
  Tm  Tm9  1  0.693037  0.693037  0.386072  1
  Tm  Tm10  1  0.693037  0.306963  0.000000  1
  Tm  Tm11  1  0.306963  0.693037  0.000000  1
  Ga  Ga12  1  0.000000  0.500000  0.500000  1
  Ga  Ga13  1  0.500000  0.000000  0.500000  1
  Fe  Fe14  1  0.383716  0.383716  0.000000  1
  Fe  Fe15  1  0.616284  0.616284  0.000000  1
  Ru  Ru16  1  0.000000  0.000000  0.000000  1
