# generated using pymatgen
data_Yb6Pr2Cu(Si4Pd)3
_symmetry_space_group_name_H-M   'P 1'
_cell_length_a   8.21808300
_cell_length_b   8.21808355
_cell_length_c   8.37071500
_cell_angle_alpha   90.00000000
_cell_angle_beta   90.00000000
_cell_angle_gamma   120.00000179
_symmetry_Int_Tables_number   1
_chemical_formula_structural   Yb6Pr2Cu(Si4Pd)3
_chemical_formula_sum   'Yb6 Pr2 Cu1 Si12 Pd3'
_cell_volume   489.59193506
_cell_formula_units_Z   1
loop_
 _symmetry_equiv_pos_site_id
 _symmetry_equiv_pos_as_xyz
  1  'x, y, z'
loop_
 _atom_site_type_symbol
 _atom_site_label
 _atom_site_symmetry_multiplicity
 _atom_site_fract_x
 _atom_site_fract_y
 _atom_site_fract_z
 _atom_site_occupancy
  Yb  Yb0  1  0.499005  0.500995  0.747963  1
  Yb  Yb1  1  0.500162  0.499838  0.252155  1
  Yb  Yb2  1  0.001989  0.500995  0.747963  1
  Yb  Yb3  1  0.999676  0.499838  0.252155  1
  Yb  Yb4  1  0.499005  0.998011  0.747963  1
  Yb  Yb5  1  0.500162  0.000324  0.252155  1
  Pr  Pr6  1  0.000000  0.000000  0.750108  1
  Pr  Pr7  1  0.000000  0.000000  0.249929  1
  Cu  Cu8  1  0.666667  0.333333  0.997339  1
  Si  Si9  1  0.833050  0.166950  0.000052  1
  Si  Si10  1  0.166172  0.833828  0.999868  1
  Si  Si11  1  0.333900  0.166950  0.000052  1
  Si  Si12  1  0.165421  0.834579  0.500067  1
  Si  Si13  1  0.667657  0.833828  0.999868  1
  Si  Si14  1  0.834481  0.165519  0.500031  1
  Si  Si15  1  0.833050  0.666100  0.000052  1
  Si  Si16  1  0.669157  0.834579  0.500067  1
  Si  Si17  1  0.166172  0.332343  0.999868  1
  Si  Si18  1  0.331037  0.165519  0.500031  1
  Si  Si19  1  0.165421  0.330843  0.500067  1
  Si  Si20  1  0.834481  0.668963  0.500031  1
  Pd  Pd21  1  0.333333  0.666667  0.002100  1
  Pd  Pd22  1  0.333333  0.666667  0.497990  1
  Pd  Pd23  1  0.666667  0.333333  0.502127  1
