# generated using pymatgen
data_Cu2OsRhSe8
_symmetry_space_group_name_H-M   'P 1'
_cell_length_a   6.08925305
_cell_length_b   6.17538926
_cell_length_c   6.11606291
_cell_angle_alpha   90.13664709
_cell_angle_beta   90.05384904
_cell_angle_gamma   88.27407400
_symmetry_Int_Tables_number   1
_chemical_formula_structural   Cu2OsRhSe8
_chemical_formula_sum   'Cu2 Os1 Rh1 Se8'
_cell_volume   229.88034291
_cell_formula_units_Z   1
loop_
 _symmetry_equiv_pos_site_id
 _symmetry_equiv_pos_as_xyz
  1  'x, y, z'
loop_
 _atom_site_type_symbol
 _atom_site_label
 _atom_site_symmetry_multiplicity
 _atom_site_fract_x
 _atom_site_fract_y
 _atom_site_fract_z
 _atom_site_occupancy
  Cu  Cu0  1  0.000000  0.500000  0.500000  1
  Cu  Cu1  1  0.500000  0.500000  0.000000  1
  Os  Os2  1  0.500000  0.000000  0.500000  1
  Rh  Rh3  1  0.000000  0.000000  0.000000  1
  Se  Se4  1  0.377585  0.107973  0.874478  1
  Se  Se5  1  0.127328  0.890484  0.380831  1
  Se  Se6  1  0.888790  0.382311  0.111212  1
  Se  Se7  1  0.610473  0.622895  0.611834  1
  Se  Se8  1  0.389527  0.377105  0.388166  1
  Se  Se9  1  0.111210  0.617689  0.888788  1
  Se  Se10  1  0.872672  0.109516  0.619169  1
  Se  Se11  1  0.622415  0.892027  0.125522  1
