# generated using pymatgen
data_Tm3Zn3Cu2Rh
_symmetry_space_group_name_H-M   'P 1'
_cell_length_a   6.98679800
_cell_length_b   6.98679702
_cell_length_c   3.91364700
_cell_angle_alpha   90.00000000
_cell_angle_beta   90.00000000
_cell_angle_gamma   119.99999519
_symmetry_Int_Tables_number   1
_chemical_formula_structural   Tm3Zn3Cu2Rh
_chemical_formula_sum   'Tm3 Zn3 Cu2 Rh1'
_cell_volume   165.45070308
_cell_formula_units_Z   1
loop_
 _symmetry_equiv_pos_site_id
 _symmetry_equiv_pos_as_xyz
  1  'x, y, z'
loop_
 _atom_site_type_symbol
 _atom_site_label
 _atom_site_symmetry_multiplicity
 _atom_site_fract_x
 _atom_site_fract_y
 _atom_site_fract_z
 _atom_site_occupancy
  Tm  Tm0  1  0.583619  0.992317  0.500000  1
  Tm  Tm1  1  0.408698  0.416381  0.500000  1
  Tm  Tm2  1  0.007683  0.591302  0.500000  1
  Zn  Zn3  1  0.761606  0.758632  0.000000  1
  Zn  Zn4  1  0.997024  0.238394  0.000000  1
  Zn  Zn5  1  0.241368  0.002976  0.000000  1
  Cu  Cu6  1  0.000000  0.000000  0.500000  1
  Cu  Cu7  1  0.666667  0.333333  0.000000  1
  Rh  Rh8  1  0.333333  0.666667  0.000000  1
