# generated using pymatgen
data_Y4Lu6SiBi5
_symmetry_space_group_name_H-M   'P 1'
_cell_length_a   8.04417600
_cell_length_b   9.28025900
_cell_length_c   11.92663800
_cell_angle_alpha   90.00000000
_cell_angle_beta   90.00000000
_cell_angle_gamma   90.00000000
_symmetry_Int_Tables_number   1
_chemical_formula_structural   Y4Lu6SiBi5
_chemical_formula_sum   'Y8 Lu12 Si2 Bi10'
_cell_volume   890.34781794
_cell_formula_units_Z   2
loop_
 _symmetry_equiv_pos_site_id
 _symmetry_equiv_pos_as_xyz
  1  'x, y, z'
loop_
 _atom_site_type_symbol
 _atom_site_label
 _atom_site_symmetry_multiplicity
 _atom_site_fract_x
 _atom_site_fract_y
 _atom_site_fract_z
 _atom_site_occupancy
  Y  Y0  1  0.172316  0.750000  0.712389  1
  Y  Y1  1  0.672316  0.750000  0.787611  1
  Y  Y2  1  0.813641  0.250000  0.280562  1
  Y  Y3  1  0.313641  0.250000  0.219438  1
  Y  Y4  1  0.351620  0.750000  0.205150  1
  Y  Y5  1  0.851620  0.750000  0.294850  1
  Y  Y6  1  0.650930  0.250000  0.783154  1
  Y  Y7  1  0.150930  0.250000  0.716846  1
  Lu  Lu8  1  0.039182  0.750000  0.988630  1
  Lu  Lu9  1  0.539182  0.750000  0.511370  1
  Lu  Lu10  1  0.982139  0.250000  0.008698  1
  Lu  Lu11  1  0.482139  0.250000  0.491302  1
  Lu  Lu12  1  0.312080  0.451723  0.940679  1
  Lu  Lu13  1  0.812080  0.048277  0.559321  1
  Lu  Lu14  1  0.681843  0.926035  0.054410  1
  Lu  Lu15  1  0.181843  0.573965  0.445590  1
  Lu  Lu16  1  0.681843  0.573965  0.054410  1
  Lu  Lu17  1  0.181843  0.926035  0.445590  1
  Lu  Lu18  1  0.312080  0.048277  0.940679  1
  Lu  Lu19  1  0.812080  0.451723  0.559321  1
  Si  Si20  1  0.411561  0.750000  0.964155  1
  Si  Si21  1  0.911561  0.750000  0.535845  1
  Bi  Bi22  1  0.435679  0.001494  0.672533  1
  Bi  Bi23  1  0.935679  0.498506  0.827467  1
  Bi  Bi24  1  0.561348  0.504222  0.326952  1
  Bi  Bi25  1  0.061348  0.995778  0.173048  1
  Bi  Bi26  1  0.561348  0.995778  0.326952  1
  Bi  Bi27  1  0.061348  0.504222  0.173048  1
  Bi  Bi28  1  0.435679  0.498506  0.672533  1
  Bi  Bi29  1  0.935679  0.001494  0.827467  1
  Bi  Bi30  1  0.596711  0.250000  0.042165  1
  Bi  Bi31  1  0.096711  0.250000  0.457835  1
