# generated using pymatgen
data_Cs2V(IO3)6
_symmetry_space_group_name_H-M   'P 1'
_cell_length_a   7.93779474
_cell_length_b   7.93775992
_cell_length_c   7.93776128
_cell_angle_alpha   97.18378851
_cell_angle_beta   97.18310797
_cell_angle_gamma   97.18344453
_symmetry_Int_Tables_number   1
_chemical_formula_structural   Cs2V(IO3)6
_chemical_formula_sum   'Cs2 V1 I6 O18'
_cell_volume   487.27038212
_cell_formula_units_Z   1
loop_
 _symmetry_equiv_pos_site_id
 _symmetry_equiv_pos_as_xyz
  1  'x, y, z'
loop_
 _atom_site_type_symbol
 _atom_site_label
 _atom_site_symmetry_multiplicity
 _atom_site_fract_x
 _atom_site_fract_y
 _atom_site_fract_z
 _atom_site_occupancy
  Cs  Cs0  1  0.165616  0.165616  0.165616  1
  Cs  Cs1  1  0.834384  0.834384  0.834384  1
  V  V2  1  0.500000  0.500000  0.500000  1
  I  I3  1  0.701124  0.345889  0.134170  1
  I  I4  1  0.654112  0.865829  0.298877  1
  I  I5  1  0.134173  0.701124  0.345888  1
  I  I6  1  0.865827  0.298876  0.654112  1
  I  I7  1  0.298876  0.654111  0.865830  1
  I  I8  1  0.345888  0.134171  0.701123  1
  O  O9  1  0.897357  0.404089  0.288574  1
  O  O10  1  0.595911  0.711425  0.102641  1
  O  O11  1  0.711425  0.102640  0.595912  1
  O  O12  1  0.639601  0.708249  0.457716  1
  O  O13  1  0.685110  0.113470  0.104545  1
  O  O14  1  0.457716  0.639595  0.708250  1
  O  O15  1  0.291743  0.542280  0.360401  1
  O  O16  1  0.360399  0.291751  0.542284  1
  O  O17  1  0.113471  0.104545  0.685111  1
  O  O18  1  0.895454  0.314889  0.886531  1
  O  O19  1  0.708257  0.457720  0.639599  1
  O  O20  1  0.102643  0.595911  0.711426  1
  O  O21  1  0.542284  0.360405  0.291750  1
  O  O22  1  0.314890  0.886530  0.895455  1
  O  O23  1  0.886529  0.895455  0.314889  1
  O  O24  1  0.404089  0.288575  0.897359  1
  O  O25  1  0.288575  0.897360  0.404088  1
  O  O26  1  0.104546  0.685111  0.113469  1
