# generated using pymatgen
data_Na2FeNi11P7
_symmetry_space_group_name_H-M   'P 1'
_cell_length_a   9.10181941
_cell_length_b   9.06817229
_cell_length_c   3.56527600
_cell_angle_alpha   90.00000000
_cell_angle_beta   90.00000000
_cell_angle_gamma   120.05961886
_symmetry_Int_Tables_number   1
_chemical_formula_structural   Na2FeNi11P7
_chemical_formula_sum   'Na2 Fe1 Ni11 P7'
_cell_volume   254.68920911
_cell_formula_units_Z   1
loop_
 _symmetry_equiv_pos_site_id
 _symmetry_equiv_pos_as_xyz
  1  'x, y, z'
loop_
 _atom_site_type_symbol
 _atom_site_label
 _atom_site_symmetry_multiplicity
 _atom_site_fract_x
 _atom_site_fract_y
 _atom_site_fract_z
 _atom_site_occupancy
  Na  Na0  1  0.666113  0.331191  0.500000  1
  Na  Na1  1  0.334162  0.667261  0.000000  1
  Fe  Fe2  1  0.726468  0.882216  0.000000  1
  Ni  Ni3  1  0.943110  0.375264  0.000000  1
  Ni  Ni4  1  0.217270  0.094000  0.500000  1
  Ni  Ni5  1  0.903762  0.129764  0.500000  1
  Ni  Ni6  1  0.156560  0.273737  0.000000  1
  Ni  Ni7  1  0.383224  0.433656  0.500000  1
  Ni  Ni8  1  0.117847  0.845494  0.000000  1
  Ni  Ni9  1  0.434662  0.056259  0.000000  1
  Ni  Ni10  1  0.048434  0.616907  0.500000  1
  Ni  Ni11  1  0.565800  0.949682  0.500000  1
  Ni  Ni12  1  0.624957  0.562807  0.000000  1
  Ni  Ni13  1  0.876233  0.781017  0.500000  1
  P  P14  1  0.411329  0.291791  0.000000  1
  P  P15  1  0.291895  0.887071  0.500000  1
  P  P16  1  0.708277  0.115646  0.000000  1
  P  P17  1  0.599650  0.712136  0.500000  1
  P  P18  1  0.880719  0.588263  0.000000  1
  P  P19  1  0.115447  0.407781  0.500000  1
  P  P20  1  0.994081  0.998058  0.000000  1
