# generated using pymatgen
data_Zr6Mn4Fe12Si7
_symmetry_space_group_name_H-M   'P 1'
_cell_length_a   8.13908083
_cell_length_b   8.13908029
_cell_length_c   8.13908200
_cell_angle_alpha   60.00000118
_cell_angle_beta   60.00000337
_cell_angle_gamma   59.99999537
_symmetry_Int_Tables_number   1
_chemical_formula_structural   Zr6Mn4Fe12Si7
_chemical_formula_sum   'Zr6 Mn4 Fe12 Si7'
_cell_volume   381.25111287
_cell_formula_units_Z   1
loop_
 _symmetry_equiv_pos_site_id
 _symmetry_equiv_pos_as_xyz
  1  'x, y, z'
loop_
 _atom_site_type_symbol
 _atom_site_label
 _atom_site_symmetry_multiplicity
 _atom_site_fract_x
 _atom_site_fract_y
 _atom_site_fract_z
 _atom_site_occupancy
  Zr  Zr0  1  0.703702  0.703702  0.296298  1
  Zr  Zr1  1  0.296298  0.703702  0.296298  1
  Zr  Zr2  1  0.703702  0.296298  0.296298  1
  Zr  Zr3  1  0.296298  0.296298  0.703702  1
  Zr  Zr4  1  0.703702  0.296298  0.703702  1
  Zr  Zr5  1  0.296298  0.703702  0.703702  1
  Mn  Mn6  1  0.877795  0.877795  0.366617  1
  Mn  Mn7  1  0.877795  0.366617  0.877795  1
  Mn  Mn8  1  0.366617  0.877795  0.877795  1
  Mn  Mn9  1  0.877795  0.877795  0.877795  1
  Fe  Fe10  1  0.121189  0.121189  0.636431  1
  Fe  Fe11  1  0.121189  0.636431  0.121189  1
  Fe  Fe12  1  0.636431  0.121189  0.121189  1
  Fe  Fe13  1  0.121189  0.121189  0.121189  1
  Fe  Fe14  1  0.675675  0.675675  0.972975  1
  Fe  Fe15  1  0.675675  0.972975  0.675675  1
  Fe  Fe16  1  0.972975  0.675675  0.675675  1
  Fe  Fe17  1  0.675675  0.675675  0.675675  1
  Fe  Fe18  1  0.323574  0.323574  0.029278  1
  Fe  Fe19  1  0.323574  0.029278  0.323574  1
  Fe  Fe20  1  0.029278  0.323574  0.323574  1
  Fe  Fe21  1  0.323574  0.323574  0.323574  1
  Si  Si22  1  0.000000  0.000000  0.000000  1
  Si  Si23  1  0.001551  0.001551  0.498449  1
  Si  Si24  1  0.498449  0.001551  0.498449  1
  Si  Si25  1  0.001551  0.498449  0.498449  1
  Si  Si26  1  0.498449  0.498449  0.001551  1
  Si  Si27  1  0.001551  0.498449  0.001551  1
  Si  Si28  1  0.498449  0.001551  0.001551  1
