# generated using pymatgen
data_Dy4Al4Rh3Au
_symmetry_space_group_name_H-M   'P 1'
_cell_length_a   4.33655000
_cell_length_b   6.88291588
_cell_length_c   7.92102522
_cell_angle_alpha   89.88002991
_cell_angle_beta   90.00000000
_cell_angle_gamma   90.00000000
_symmetry_Int_Tables_number   1
_chemical_formula_structural   Dy4Al4Rh3Au
_chemical_formula_sum   'Dy4 Al4 Rh3 Au1'
_cell_volume   236.42710471
_cell_formula_units_Z   1
loop_
 _symmetry_equiv_pos_site_id
 _symmetry_equiv_pos_as_xyz
  1  'x, y, z'
loop_
 _atom_site_type_symbol
 _atom_site_label
 _atom_site_symmetry_multiplicity
 _atom_site_fract_x
 _atom_site_fract_y
 _atom_site_fract_z
 _atom_site_occupancy
  Dy  Dy0  1  0.250000  0.027685  0.325853  1
  Dy  Dy1  1  0.250000  0.542966  0.181307  1
  Dy  Dy2  1  0.750000  0.966236  0.679638  1
  Dy  Dy3  1  0.750000  0.472223  0.813567  1
  Al  Al4  1  0.250000  0.134581  0.931303  1
  Al  Al5  1  0.250000  0.638345  0.562495  1
  Al  Al6  1  0.750000  0.850022  0.061378  1
  Al  Al7  1  0.750000  0.367938  0.442310  1
  Rh  Rh8  1  0.250000  0.266451  0.615718  1
  Rh  Rh9  1  0.250000  0.764823  0.882308  1
  Rh  Rh10  1  0.750000  0.737877  0.382591  1
  Au  Au11  1  0.750000  0.230854  0.121532  1
