# generated using pymatgen
data_Ba8Gd3Lu(CoO5)4
_symmetry_space_group_name_H-M   'P 1'
_cell_length_a   6.17495054
_cell_length_b   8.00663368
_cell_length_c   12.51169831
_cell_angle_alpha   91.18596540
_cell_angle_beta   89.95772082
_cell_angle_gamma   89.99957174
_symmetry_Int_Tables_number   1
_chemical_formula_structural   Ba8Gd3Lu(CoO5)4
_chemical_formula_sum   'Ba8 Gd3 Lu1 Co4 O20'
_cell_volume   618.45277883
_cell_formula_units_Z   1
loop_
 _symmetry_equiv_pos_site_id
 _symmetry_equiv_pos_as_xyz
  1  'x, y, z'
loop_
 _atom_site_type_symbol
 _atom_site_label
 _atom_site_symmetry_multiplicity
 _atom_site_fract_x
 _atom_site_fract_y
 _atom_site_fract_z
 _atom_site_occupancy
  Ba  Ba0  1  0.759649  0.490324  0.360722  1
  Ba  Ba1  1  0.743362  0.995832  0.861757  1
  Ba  Ba2  1  0.240814  0.505602  0.641449  1
  Ba  Ba3  1  0.257192  0.009410  0.135446  1
  Ba  Ba4  1  0.753693  0.994331  0.382396  1
  Ba  Ba5  1  0.748071  0.491366  0.882299  1
  Ba  Ba6  1  0.245204  0.008008  0.621267  1
  Ba  Ba7  1  0.251855  0.504526  0.114608  1
  Gd  Gd8  1  0.748806  0.262053  0.629358  1
  Gd  Gd9  1  0.751463  0.761899  0.126993  1
  Gd  Gd10  1  0.251611  0.737693  0.372219  1
  Lu  Lu11  1  0.248790  0.239691  0.871488  1
  Co  Co12  1  0.739325  0.746189  0.594308  1
  Co  Co13  1  0.757561  0.245840  0.089803  1
  Co  Co14  1  0.259167  0.253318  0.405993  1
  Co  Co15  1  0.240346  0.753392  0.905803  1
  O  O16  1  0.758835  0.968249  0.637955  1
  O  O17  1  0.743659  0.466739  0.134558  1
  O  O18  1  0.242241  0.032097  0.362200  1
  O  O19  1  0.256549  0.526984  0.866273  1
  O  O20  1  0.736346  0.056720  0.168595  1
  O  O21  1  0.764867  0.555613  0.671889  1
  O  O22  1  0.261374  0.952820  0.835376  1
  O  O23  1  0.235028  0.443226  0.327905  1
  O  O24  1  0.550627  0.746385  0.274589  1
  O  O25  1  0.968499  0.247239  0.771533  1
  O  O26  1  0.457790  0.252330  0.734203  1
  O  O27  1  0.048485  0.753501  0.225239  1
  O  O28  1  0.525801  0.232017  0.985985  1
  O  O29  1  0.961083  0.730859  0.487319  1
  O  O30  1  0.463524  0.767624  0.012027  1
  O  O31  1  0.036372  0.268885  0.512776  1
  O  O32  1  0.029599  0.235352  0.014534  1
  O  O33  1  0.464370  0.736908  0.525335  1
  O  O34  1  0.967071  0.762556  0.976580  1
  O  O35  1  0.530970  0.264420  0.479220  1
