# generated using pymatgen
data_Th3SnGe2Ru3
_symmetry_space_group_name_H-M   'P 1'
_cell_length_a   7.31941939
_cell_length_b   7.36004253
_cell_length_c   4.07247900
_cell_angle_alpha   90.00000000
_cell_angle_beta   90.00000000
_cell_angle_gamma   120.18376493
_symmetry_Int_Tables_number   1
_chemical_formula_structural   Th3SnGe2Ru3
_chemical_formula_sum   'Th3 Sn1 Ge2 Ru3'
_cell_volume   189.64406688
_cell_formula_units_Z   1
loop_
 _symmetry_equiv_pos_site_id
 _symmetry_equiv_pos_as_xyz
  1  'x, y, z'
loop_
 _atom_site_type_symbol
 _atom_site_label
 _atom_site_symmetry_multiplicity
 _atom_site_fract_x
 _atom_site_fract_y
 _atom_site_fract_z
 _atom_site_occupancy
  Th  Th0  1  0.423299  0.417947  0.500000  1
  Th  Th1  1  0.576701  0.994649  0.500000  1
  Th  Th2  1  0.000000  0.595813  0.500000  1
  Sn  Sn3  1  0.000000  0.243327  0.000000  1
  Ge  Ge4  1  0.752375  0.754263  0.000000  1
  Ge  Ge5  1  0.247625  0.001888  0.000000  1
  Ru  Ru6  1  0.661667  0.335167  0.000000  1
  Ru  Ru7  1  0.338333  0.673501  0.000000  1
  Ru  Ru8  1  0.000000  0.983445  0.500000  1
