# generated using pymatgen
data_Pr5Nd3Sc12Ga11Si5
_symmetry_space_group_name_H-M   'P 1'
_cell_length_a   7.36464515
_cell_length_b   7.67140156
_cell_length_c   14.49861095
_cell_angle_alpha   89.98198858
_cell_angle_beta   90.13303019
_cell_angle_gamma   90.17500060
_symmetry_Int_Tables_number   1
_chemical_formula_structural   Pr5Nd3Sc12Ga11Si5
_chemical_formula_sum   'Pr5 Nd3 Sc12 Ga11 Si5'
_cell_volume   819.12413391
_cell_formula_units_Z   1
loop_
 _symmetry_equiv_pos_site_id
 _symmetry_equiv_pos_as_xyz
  1  'x, y, z'
loop_
 _atom_site_type_symbol
 _atom_site_label
 _atom_site_symmetry_multiplicity
 _atom_site_fract_x
 _atom_site_fract_y
 _atom_site_fract_z
 _atom_site_occupancy
  Pr  Pr0  1  0.489344  0.676855  0.593515  1
  Pr  Pr1  1  0.987990  0.821319  0.594413  1
  Pr  Pr2  1  0.985507  0.825233  0.903840  1
  Pr  Pr3  1  0.510692  0.324134  0.095295  1
  Pr  Pr4  1  0.010960  0.177107  0.096126  1
  Nd  Nd5  1  0.014867  0.176316  0.404028  1
  Nd  Nd6  1  0.513012  0.325245  0.405233  1
  Nd  Nd7  1  0.489396  0.676477  0.904218  1
  Sc  Sc8  1  0.328291  0.171569  0.622112  1
  Sc  Sc9  1  0.670703  0.824229  0.377468  1
  Sc  Sc10  1  0.664837  0.995347  0.752229  1
  Sc  Sc11  1  0.172606  0.674216  0.376586  1
  Sc  Sc12  1  0.823951  0.326098  0.876245  1
  Sc  Sc13  1  0.826484  0.329800  0.622983  1
  Sc  Sc14  1  0.839943  0.498124  0.252231  1
  Sc  Sc15  1  0.336459  0.003939  0.252567  1
  Sc  Sc16  1  0.333003  0.173982  0.875475  1
  Sc  Sc17  1  0.171583  0.670613  0.125132  1
  Sc  Sc18  1  0.671395  0.827472  0.123074  1
  Sc  Sc19  1  0.159124  0.501497  0.750702  1
  Ga  Ga20  1  0.287092  0.881132  0.749595  1
  Ga  Ga21  1  0.467739  0.620469  0.251106  1
  Ga  Ga22  1  0.031728  0.125192  0.749170  1
  Ga  Ga23  1  0.531574  0.380797  0.749264  1
  Ga  Ga24  1  0.153788  0.463025  0.540984  1
  Ga  Ga25  1  0.967730  0.876226  0.250365  1
  Ga  Ga26  1  0.712705  0.119097  0.251187  1
  Ga  Ga27  1  0.844613  0.537381  0.042208  1
  Ga  Ga28  1  0.344294  0.960793  0.040969  1
  Ga  Ga29  1  0.155592  0.462772  0.957380  1
  Ga  Ga30  1  0.655494  0.038660  0.540712  1
  Si  Si31  1  0.346126  0.963709  0.457503  1
  Si  Si32  1  0.848379  0.534644  0.456720  1
  Si  Si33  1  0.785157  0.615678  0.749555  1
  Si  Si34  1  0.215160  0.383785  0.251256  1
  Si  Si35  1  0.652682  0.037067  0.958554  1
