# generated using pymatgen
data_Ti9CoIr10
_symmetry_space_group_name_H-M   'P 1'
_cell_length_a   7.41642338
_cell_length_b   7.41642370
_cell_length_c   7.41642332
_cell_angle_alpha   102.73530235
_cell_angle_beta   102.73529936
_cell_angle_gamma   123.99396568
_symmetry_Int_Tables_number   1
_chemical_formula_structural   Ti9CoIr10
_chemical_formula_sum   'Ti9 Co1 Ir10'
_cell_volume   298.61483981
_cell_formula_units_Z   1
loop_
 _symmetry_equiv_pos_site_id
 _symmetry_equiv_pos_as_xyz
  1  'x, y, z'
loop_
 _atom_site_type_symbol
 _atom_site_label
 _atom_site_symmetry_multiplicity
 _atom_site_fract_x
 _atom_site_fract_y
 _atom_site_fract_z
 _atom_site_occupancy
  Ti  Ti0  1  0.000000  0.000000  0.000000  1
  Ti  Ti1  1  0.239351  0.589954  0.829305  1
  Ti  Ti2  1  0.410046  0.239351  0.649398  1
  Ti  Ti3  1  0.589954  0.760649  0.350602  1
  Ti  Ti4  1  0.760649  0.410046  0.170695  1
  Ti  Ti5  1  0.313608  0.900801  0.214408  1
  Ti  Ti6  1  0.099199  0.313608  0.412808  1
  Ti  Ti7  1  0.900801  0.686392  0.587192  1
  Ti  Ti8  1  0.686392  0.099199  0.785592  1
  Co  Co9  1  0.500000  0.500000  0.000000  1
  Ir  Ir10  1  0.750000  0.250000  0.500000  1
  Ir  Ir11  1  0.250000  0.750000  0.500000  1
  Ir  Ir12  1  0.326262  0.020580  0.898244  1
  Ir  Ir13  1  0.428018  0.326262  0.305682  1
  Ir  Ir14  1  0.020580  0.122335  0.694318  1
  Ir  Ir15  1  0.122335  0.428018  0.101756  1
  Ir  Ir16  1  0.673738  0.979420  0.101756  1
  Ir  Ir17  1  0.571982  0.673738  0.694318  1
  Ir  Ir18  1  0.979420  0.877665  0.305682  1
  Ir  Ir19  1  0.877665  0.571982  0.898244  1
