# generated using pymatgen
data_PrYIn6Hg2Pd
_symmetry_space_group_name_H-M   'P 1'
_cell_length_a   4.72431400
_cell_length_b   4.72431400
_cell_length_c   12.20058900
_cell_angle_alpha   90.00000000
_cell_angle_beta   90.00000000
_cell_angle_gamma   90.00000000
_symmetry_Int_Tables_number   1
_chemical_formula_structural   PrYIn6Hg2Pd
_chemical_formula_sum   'Pr1 Y1 In6 Hg2 Pd1'
_cell_volume   272.30668778
_cell_formula_units_Z   1
loop_
 _symmetry_equiv_pos_site_id
 _symmetry_equiv_pos_as_xyz
  1  'x, y, z'
loop_
 _atom_site_type_symbol
 _atom_site_label
 _atom_site_symmetry_multiplicity
 _atom_site_fract_x
 _atom_site_fract_y
 _atom_site_fract_z
 _atom_site_occupancy
  Pr  Pr0  1  0.000000  0.000000  0.691535  1
  Y  Y1  1  0.000000  0.000000  0.306539  1
  In  In2  1  0.500000  0.000000  0.126454  1
  In  In3  1  0.000000  0.500000  0.126454  1
  In  In4  1  0.500000  0.500000  0.310068  1
  In  In5  1  0.500000  0.500000  0.690028  1
  In  In6  1  0.500000  0.000000  0.877708  1
  In  In7  1  0.000000  0.500000  0.877708  1
  Hg  Hg8  1  0.500000  0.000000  0.495938  1
  Hg  Hg9  1  0.000000  0.500000  0.495938  1
  Pd  Pd10  1  0.000000  0.000000  0.001631  1
