# generated using pymatgen
data_NdGd4ThH18
_symmetry_space_group_name_H-M   'P 1'
_cell_length_a   6.54749200
_cell_length_b   6.54834350
_cell_length_c   6.74378357
_cell_angle_alpha   90.04784932
_cell_angle_beta   90.00000000
_cell_angle_gamma   119.99569864
_symmetry_Int_Tables_number   1
_chemical_formula_structural   NdGd4ThH18
_chemical_formula_sum   'Nd1 Gd4 Th1 H18'
_cell_volume   250.41440337
_cell_formula_units_Z   1
loop_
 _symmetry_equiv_pos_site_id
 _symmetry_equiv_pos_as_xyz
  1  'x, y, z'
loop_
 _atom_site_type_symbol
 _atom_site_label
 _atom_site_symmetry_multiplicity
 _atom_site_fract_x
 _atom_site_fract_y
 _atom_site_fract_z
 _atom_site_occupancy
  Nd  Nd0  1  0.330191  0.000000  0.750000  1
  Gd  Gd1  1  0.999207  0.666083  0.249965  1
  Gd  Gd2  1  0.333123  0.333917  0.250035  1
  Gd  Gd3  1  0.666561  0.663367  0.749976  1
  Gd  Gd4  1  0.003194  0.336633  0.750024  1
  Th  Th5  1  0.667451  0.000000  0.250000  1
  H  H6  1  0.667588  0.671388  0.095626  1
  H  H7  1  0.339569  0.001947  0.100430  1
  H  H8  1  0.993332  0.327590  0.095148  1
  H  H9  1  0.326049  0.659970  0.248657  1
  H  H10  1  0.007670  0.000000  0.250000  1
  H  H11  1  0.666079  0.340030  0.251343  1
  H  H12  1  0.996200  0.328612  0.404374  1
  H  H13  1  0.337622  0.998053  0.399570  1
  H  H14  1  0.665742  0.672410  0.404852  1
  H  H15  1  0.673007  0.007425  0.595018  1
  H  H16  1  0.337333  0.333360  0.590700  1
  H  H17  1  0.990157  0.660000  0.591074  1
  H  H18  1  0.335781  0.662196  0.730181  1
  H  H19  1  0.990841  0.000000  0.750000  1
  H  H20  1  0.673586  0.337804  0.769819  1
  H  H21  1  0.003974  0.666640  0.909300  1
  H  H22  1  0.665583  0.992575  0.904982  1
  H  H23  1  0.330158  0.340000  0.908926  1
