# generated using pymatgen
data_TbHo9Cd4(InPd)4
_symmetry_space_group_name_H-M   'P 1'
_cell_length_a   3.59634600
_cell_length_b   8.07472500
_cell_length_c   18.35420400
_cell_angle_alpha   89.99782490
_cell_angle_beta   90.00000000
_cell_angle_gamma   90.00000000
_symmetry_Int_Tables_number   1
_chemical_formula_structural   TbHo9Cd4(InPd)4
_chemical_formula_sum   'Tb1 Ho9 Cd4 In4 Pd4'
_cell_volume   532.99699781
_cell_formula_units_Z   1
loop_
 _symmetry_equiv_pos_site_id
 _symmetry_equiv_pos_as_xyz
  1  'x, y, z'
loop_
 _atom_site_type_symbol
 _atom_site_label
 _atom_site_symmetry_multiplicity
 _atom_site_fract_x
 _atom_site_fract_y
 _atom_site_fract_z
 _atom_site_occupancy
  Tb  Tb0  1  0.000000  0.500000  0.500000  1
  Ho  Ho1  1  0.000000  0.000000  0.000000  1
  Ho  Ho2  1  0.000000  0.741149  0.280907  1
  Ho  Ho3  1  0.000000  0.258851  0.719093  1
  Ho  Ho4  1  0.000000  0.758812  0.780967  1
  Ho  Ho5  1  0.000000  0.241188  0.219033  1
  Ho  Ho6  1  0.000000  0.612406  0.083368  1
  Ho  Ho7  1  0.000000  0.387594  0.916632  1
  Ho  Ho8  1  0.000000  0.887548  0.583429  1
  Ho  Ho9  1  0.000000  0.112452  0.416571  1
  Cd  Cd10  1  0.500000  0.712220  0.931389  1
  Cd  Cd11  1  0.500000  0.287780  0.068611  1
  Cd  Cd12  1  0.500000  0.788231  0.431220  1
  Cd  Cd13  1  0.500000  0.211769  0.568780  1
  In  In14  1  0.500000  0.577406  0.648092  1
  In  In15  1  0.500000  0.422594  0.351908  1
  In  In16  1  0.500000  0.922608  0.147820  1
  In  In17  1  0.500000  0.077392  0.852180  1
  Pd  Pd18  1  0.500000  0.524904  0.196477  1
  Pd  Pd19  1  0.500000  0.475096  0.803523  1
  Pd  Pd20  1  0.500000  0.975117  0.696518  1
  Pd  Pd21  1  0.500000  0.024883  0.303482  1
