# generated using pymatgen
data_La16PrTm3Sn16
_symmetry_space_group_name_H-M   'P 1'
_cell_length_a   8.42142700
_cell_length_b   8.51431000
_cell_length_c   16.28477000
_cell_angle_alpha   90.00000000
_cell_angle_beta   90.00000000
_cell_angle_gamma   90.00008120
_symmetry_Int_Tables_number   1
_chemical_formula_structural   La16PrTm3Sn16
_chemical_formula_sum   'La16 Pr1 Tm3 Sn16'
_cell_volume   1167.66100275
_cell_formula_units_Z   1
loop_
 _symmetry_equiv_pos_site_id
 _symmetry_equiv_pos_as_xyz
  1  'x, y, z'
loop_
 _atom_site_type_symbol
 _atom_site_label
 _atom_site_symmetry_multiplicity
 _atom_site_fract_x
 _atom_site_fract_y
 _atom_site_fract_z
 _atom_site_occupancy
  La  La0  1  0.972017  0.818339  0.899934  1
  La  La1  1  0.473142  0.679954  0.600267  1
  La  La2  1  0.527366  0.318705  0.100750  1
  La  La3  1  0.027412  0.181174  0.399107  1
  La  La4  1  0.972017  0.818339  0.600066  1
  La  La5  1  0.473142  0.679954  0.899733  1
  La  La6  1  0.527366  0.318705  0.399250  1
  La  La7  1  0.027412  0.181174  0.100893  1
  La  La8  1  0.879803  0.660074  0.382174  1
  La  La9  1  0.379495  0.839760  0.118228  1
  La  La10  1  0.621480  0.160918  0.617120  1
  La  La11  1  0.119657  0.340626  0.882813  1
  La  La12  1  0.119657  0.340626  0.617187  1
  La  La13  1  0.621480  0.160918  0.882880  1
  La  La14  1  0.379495  0.839760  0.381772  1
  La  La15  1  0.879803  0.660074  0.117826  1
  Pr  Pr16  1  0.290102  0.002368  0.750000  1
  Tm  Tm17  1  0.787414  0.496321  0.750000  1
  Tm  Tm18  1  0.212431  0.502755  0.250000  1
  Tm  Tm19  1  0.712282  0.997321  0.250000  1
  Sn  Sn20  1  0.780871  0.470634  0.546767  1
  Sn  Sn21  1  0.281010  0.030376  0.955301  1
  Sn  Sn22  1  0.718568  0.970572  0.453354  1
  Sn  Sn23  1  0.218893  0.529469  0.046738  1
  Sn  Sn24  1  0.218893  0.529469  0.453262  1
  Sn  Sn25  1  0.718568  0.970572  0.046646  1
  Sn  Sn26  1  0.281010  0.030376  0.544699  1
  Sn  Sn27  1  0.780871  0.470634  0.953233  1
  Sn  Sn28  1  0.167515  0.641326  0.750000  1
  Sn  Sn29  1  0.669949  0.854601  0.750000  1
  Sn  Sn30  1  0.331965  0.145775  0.250000  1
  Sn  Sn31  1  0.831579  0.354515  0.250000  1
  Sn  Sn32  1  0.920399  0.118524  0.750000  1
  Sn  Sn33  1  0.424849  0.385039  0.750000  1
  Sn  Sn34  1  0.576390  0.618156  0.250000  1
  Sn  Sn35  1  0.075698  0.882093  0.250000  1
