# generated using pymatgen
data_Hf9Re4Pd
_symmetry_space_group_name_H-M   'P 1'
_cell_length_a   8.54718300
_cell_length_b   8.67882215
_cell_length_c   8.67882104
_cell_angle_alpha   120.00024316
_cell_angle_beta   90.00000000
_cell_angle_gamma   90.00000000
_symmetry_Int_Tables_number   1
_chemical_formula_structural   Hf9Re4Pd
_chemical_formula_sum   'Hf18 Re8 Pd2'
_cell_volume   557.53751119
_cell_formula_units_Z   2
loop_
 _symmetry_equiv_pos_site_id
 _symmetry_equiv_pos_as_xyz
  1  'x, y, z'
loop_
 _atom_site_type_symbol
 _atom_site_label
 _atom_site_symmetry_multiplicity
 _atom_site_fract_x
 _atom_site_fract_y
 _atom_site_fract_z
 _atom_site_occupancy
  Hf  Hf0  1  0.551956  0.805798  0.611587  1
  Hf  Hf1  1  0.551935  0.805796  0.194204  1
  Hf  Hf2  1  0.551956  0.388413  0.194202  1
  Hf  Hf3  1  0.448044  0.194202  0.388413  1
  Hf  Hf4  1  0.448065  0.194204  0.805796  1
  Hf  Hf5  1  0.448044  0.611587  0.805798  1
  Hf  Hf6  1  0.051956  0.194202  0.388413  1
  Hf  Hf7  1  0.051935  0.194204  0.805796  1
  Hf  Hf8  1  0.051956  0.611587  0.805798  1
  Hf  Hf9  1  0.948044  0.805798  0.611587  1
  Hf  Hf10  1  0.948065  0.805796  0.194204  1
  Hf  Hf11  1  0.948044  0.388413  0.194202  1
  Hf  Hf12  1  0.750000  0.457335  0.914642  1
  Hf  Hf13  1  0.750000  0.457323  0.542677  1
  Hf  Hf14  1  0.750000  0.085358  0.542665  1
  Hf  Hf15  1  0.250000  0.542665  0.085358  1
  Hf  Hf16  1  0.250000  0.542677  0.457323  1
  Hf  Hf17  1  0.250000  0.914642  0.457335  1
  Re  Re18  1  0.750000  0.110523  0.221036  1
  Re  Re19  1  0.750000  0.110524  0.889476  1
  Re  Re20  1  0.750000  0.778964  0.889477  1
  Re  Re21  1  0.250000  0.889477  0.778964  1
  Re  Re22  1  0.250000  0.889476  0.110524  1
  Re  Re23  1  0.250000  0.221036  0.110523  1
  Re  Re24  1  0.500000  0.000000  0.000000  1
  Re  Re25  1  0.000000  0.000000  0.000000  1
  Pd  Pd26  1  0.750000  0.666688  0.333312  1
  Pd  Pd27  1  0.250000  0.333312  0.666688  1
