# generated using pymatgen
data_Sm3Dy(Bi2O7)2
_symmetry_space_group_name_H-M   'P 1'
_cell_length_a   6.67545161
_cell_length_b   6.76023687
_cell_length_c   7.86576430
_cell_angle_alpha   106.67076089
_cell_angle_beta   89.57766878
_cell_angle_gamma   98.11250589
_symmetry_Int_Tables_number   1
_chemical_formula_structural   Sm3Dy(Bi2O7)2
_chemical_formula_sum   'Sm3 Dy1 Bi4 O14'
_cell_volume   336.43577549
_cell_formula_units_Z   1
loop_
 _symmetry_equiv_pos_site_id
 _symmetry_equiv_pos_as_xyz
  1  'x, y, z'
loop_
 _atom_site_type_symbol
 _atom_site_label
 _atom_site_symmetry_multiplicity
 _atom_site_fract_x
 _atom_site_fract_y
 _atom_site_fract_z
 _atom_site_occupancy
  Sm  Sm0  1  0.540739  0.995905  0.748701  1
  Sm  Sm1  1  0.259416  0.537276  0.886216  1
  Sm  Sm2  1  0.739773  0.464188  0.115454  1
  Dy  Dy3  1  0.459332  0.004112  0.251127  1
  Bi  Bi4  1  0.000494  0.000336  0.499121  1
  Bi  Bi5  1  0.000035  0.999982  0.001661  1
  Bi  Bi6  1  0.724391  0.462162  0.610972  1
  Bi  Bi7  1  0.274745  0.535941  0.385502  1
  O  O8  1  0.445197  0.653093  0.169425  1
  O  O9  1  0.556649  0.354262  0.833277  1
  O  O10  1  0.301954  0.924746  0.953629  1
  O  O11  1  0.698822  0.074344  0.053955  1
  O  O12  1  0.299813  0.917422  0.506440  1
  O  O13  1  0.700806  0.082627  0.485722  1
  O  O14  1  0.540331  0.357748  0.343149  1
  O  O15  1  0.454553  0.635617  0.653161  1
  O  O16  1  0.932623  0.674426  0.965000  1
  O  O17  1  0.067014  0.325607  0.035657  1
  O  O18  1  0.089874  0.321245  0.627828  1
  O  O19  1  0.907119  0.678680  0.373538  1
  O  O20  1  0.882525  0.921690  0.731524  1
  O  O21  1  0.123796  0.078593  0.268941  1
