# generated using pymatgen
data_Dy2Ho2TcOsC4
_symmetry_space_group_name_H-M   'P 1'
_cell_length_a   5.10463400
_cell_length_b   6.52638597
_cell_length_c   9.80986715
_cell_angle_alpha   89.66966173
_cell_angle_beta   90.00000000
_cell_angle_gamma   90.00000000
_symmetry_Int_Tables_number   1
_chemical_formula_structural   Dy2Ho2TcOsC4
_chemical_formula_sum   'Dy4 Ho4 Tc2 Os2 C8'
_cell_volume   326.80844519
_cell_formula_units_Z   2
loop_
 _symmetry_equiv_pos_site_id
 _symmetry_equiv_pos_as_xyz
  1  'x, y, z'
loop_
 _atom_site_type_symbol
 _atom_site_label
 _atom_site_symmetry_multiplicity
 _atom_site_fract_x
 _atom_site_fract_y
 _atom_site_fract_z
 _atom_site_occupancy
  Dy  Dy0  1  0.250000  0.530671  0.215571  1
  Dy  Dy1  1  0.750000  0.469329  0.784429  1
  Dy  Dy2  1  0.750000  0.971202  0.713830  1
  Dy  Dy3  1  0.250000  0.028798  0.286170  1
  Ho  Ho4  1  0.250000  0.679184  0.555636  1
  Ho  Ho5  1  0.750000  0.320816  0.444364  1
  Ho  Ho6  1  0.750000  0.821951  0.055897  1
  Ho  Ho7  1  0.250000  0.178049  0.944103  1
  Tc  Tc8  1  0.250000  0.722466  0.865234  1
  Tc  Tc9  1  0.750000  0.277534  0.134766  1
  Os  Os10  1  0.750000  0.776230  0.365051  1
  Os  Os11  1  0.250000  0.223770  0.634949  1
  C  C12  1  0.250000  0.456286  0.758447  1
  C  C13  1  0.750000  0.543714  0.241553  1
  C  C14  1  0.750000  0.042528  0.259328  1
  C  C15  1  0.250000  0.957472  0.740672  1
  C  C16  1  0.250000  0.823111  0.050461  1
  C  C17  1  0.750000  0.176889  0.949539  1
  C  C18  1  0.750000  0.675836  0.550862  1
  C  C19  1  0.250000  0.324164  0.449138  1
