# generated using pymatgen
data_Lu3Sn3Ru2Rh
_symmetry_space_group_name_H-M   'P 1'
_cell_length_a   7.56345700
_cell_length_b   7.56345733
_cell_length_c   3.71245500
_cell_angle_alpha   90.00000000
_cell_angle_beta   90.00000000
_cell_angle_gamma   120.00000291
_symmetry_Int_Tables_number   1
_chemical_formula_structural   Lu3Sn3Ru2Rh
_chemical_formula_sum   'Lu3 Sn3 Ru2 Rh1'
_cell_volume   183.92150864
_cell_formula_units_Z   1
loop_
 _symmetry_equiv_pos_site_id
 _symmetry_equiv_pos_as_xyz
  1  'x, y, z'
loop_
 _atom_site_type_symbol
 _atom_site_label
 _atom_site_symmetry_multiplicity
 _atom_site_fract_x
 _atom_site_fract_y
 _atom_site_fract_z
 _atom_site_occupancy
  Lu  Lu0  1  0.402335  0.398973  0.500000  1
  Lu  Lu1  1  0.601027  0.003361  0.500000  1
  Lu  Lu2  1  0.996639  0.597665  0.500000  1
  Sn  Sn3  1  0.734731  0.732556  0.000000  1
  Sn  Sn4  1  0.267444  0.002175  0.000000  1
  Sn  Sn5  1  0.997825  0.265269  0.000000  1
  Ru  Ru6  1  0.666667  0.333333  0.000000  1
  Ru  Ru7  1  0.000000  0.000000  0.500000  1
  Rh  Rh8  1  0.333333  0.666667  0.000000  1
