# generated using pymatgen
data_Na2BeSe2
_symmetry_space_group_name_H-M   'P 1'
_cell_length_a   7.28266571
_cell_length_b   7.28266648
_cell_length_c   7.28266599
_cell_angle_alpha   132.70693031
_cell_angle_beta   128.74385277
_cell_angle_gamma   72.29667193
_symmetry_Int_Tables_number   1
_chemical_formula_structural   Na2BeSe2
_chemical_formula_sum   'Na4 Be2 Se4'
_cell_volume   216.43562691
_cell_formula_units_Z   2
loop_
 _symmetry_equiv_pos_site_id
 _symmetry_equiv_pos_as_xyz
  1  'x, y, z'
loop_
 _atom_site_type_symbol
 _atom_site_label
 _atom_site_symmetry_multiplicity
 _atom_site_fract_x
 _atom_site_fract_y
 _atom_site_fract_z
 _atom_site_occupancy
  Na  Na0  1  0.811676  0.641442  0.170235  1
  Na  Na1  1  0.188324  0.358558  0.829765  1
  Na  Na2  1  0.471207  0.141442  0.329765  1
  Na  Na3  1  0.528793  0.858558  0.670235  1
  Be  Be4  1  0.000000  0.750000  0.750000  1
  Be  Be5  1  0.000000  0.250000  0.250000  1
  Se  Se6  1  0.699073  0.393518  0.305555  1
  Se  Se7  1  0.300927  0.606482  0.694445  1
  Se  Se8  1  0.087965  0.893518  0.194445  1
  Se  Se9  1  0.912035  0.106482  0.805555  1
