# generated using pymatgen
data_Sm2Er2ReB12Os
_symmetry_space_group_name_H-M   'P 1'
_cell_length_a   3.68484100
_cell_length_b   9.18736464
_cell_length_c   11.61523710
_cell_angle_alpha   90.12505401
_cell_angle_beta   90.00000000
_cell_angle_gamma   90.00000000
_symmetry_Int_Tables_number   1
_chemical_formula_structural   Sm2Er2ReB12Os
_chemical_formula_sum   'Sm4 Er4 Re2 B24 Os2'
_cell_volume   393.22104347
_cell_formula_units_Z   2
loop_
 _symmetry_equiv_pos_site_id
 _symmetry_equiv_pos_as_xyz
  1  'x, y, z'
loop_
 _atom_site_type_symbol
 _atom_site_label
 _atom_site_symmetry_multiplicity
 _atom_site_fract_x
 _atom_site_fract_y
 _atom_site_fract_z
 _atom_site_occupancy
  Sm  Sm0  1  0.000000  0.320926  0.412819  1
  Sm  Sm1  1  0.000000  0.679074  0.587181  1
  Sm  Sm2  1  0.000000  0.823940  0.085094  1
  Sm  Sm3  1  0.000000  0.176060  0.914906  1
  Er  Er4  1  0.000000  0.943595  0.370577  1
  Er  Er5  1  0.000000  0.056405  0.629423  1
  Er  Er6  1  0.000000  0.442523  0.129030  1
  Er  Er7  1  0.000000  0.557477  0.870970  1
  Re  Re8  1  0.000000  0.139001  0.180475  1
  Re  Re9  1  0.000000  0.860999  0.819525  1
  B  B10  1  0.500000  0.554809  0.431470  1
  B  B11  1  0.500000  0.445191  0.568530  1
  B  B12  1  0.500000  0.054147  0.068346  1
  B  B13  1  0.500000  0.945853  0.931654  1
  B  B14  1  0.500000  0.749575  0.417323  1
  B  B15  1  0.500000  0.250425  0.582677  1
  B  B16  1  0.500000  0.249644  0.082522  1
  B  B17  1  0.500000  0.750356  0.917478  1
  B  B18  1  0.500000  0.790569  0.266450  1
  B  B19  1  0.500000  0.209431  0.733550  1
  B  B20  1  0.500000  0.291419  0.234017  1
  B  B21  1  0.500000  0.708581  0.765983  1
  B  B22  1  0.500000  0.629947  0.186278  1
  B  B23  1  0.500000  0.370053  0.813722  1
  B  B24  1  0.500000  0.130421  0.314606  1
  B  B25  1  0.500000  0.869579  0.685394  1
  B  B26  1  0.500000  0.983657  0.213516  1
  B  B27  1  0.500000  0.016343  0.786484  1
  B  B28  1  0.500000  0.483880  0.287076  1
  B  B29  1  0.500000  0.516120  0.712924  1
  B  B30  1  0.500000  0.599824  0.027713  1
  B  B31  1  0.500000  0.400176  0.972287  1
  B  B32  1  0.500000  0.100547  0.472474  1
  B  B33  1  0.500000  0.899453  0.527526  1
  Os  Os34  1  0.000000  0.638268  0.320536  1
  Os  Os35  1  0.000000  0.361732  0.679464  1
