# generated using pymatgen
data_Ti2Nb8Si6BH
_symmetry_space_group_name_H-M   'P 1'
_cell_length_a   7.59775700
_cell_length_b   7.59775625
_cell_length_c   5.23799800
_cell_angle_alpha   90.00000000
_cell_angle_beta   90.00000000
_cell_angle_gamma   119.99999890
_symmetry_Int_Tables_number   1
_chemical_formula_structural   Ti2Nb8Si6BH
_chemical_formula_sum   'Ti2 Nb8 Si6 B1 H1'
_cell_volume   261.85852713
_cell_formula_units_Z   1
loop_
 _symmetry_equiv_pos_site_id
 _symmetry_equiv_pos_as_xyz
  1  'x, y, z'
loop_
 _atom_site_type_symbol
 _atom_site_label
 _atom_site_symmetry_multiplicity
 _atom_site_fract_x
 _atom_site_fract_y
 _atom_site_fract_z
 _atom_site_occupancy
  Ti  Ti0  1  0.666667  0.333333  0.500000  1
  Ti  Ti1  1  0.333333  0.666667  0.500000  1
  Nb  Nb2  1  0.333333  0.666667  0.000000  1
  Nb  Nb3  1  0.666667  0.333333  0.000000  1
  Nb  Nb4  1  0.754299  0.754299  0.254257  1
  Nb  Nb5  1  0.245701  0.000000  0.254257  1
  Nb  Nb6  1  0.000000  0.245701  0.254257  1
  Nb  Nb7  1  0.245701  0.245701  0.745743  1
  Nb  Nb8  1  0.754299  0.000000  0.745743  1
  Nb  Nb9  1  0.000000  0.754299  0.745743  1
  Si  Si10  1  0.400748  0.400748  0.258155  1
  Si  Si11  1  0.599252  0.000000  0.258155  1
  Si  Si12  1  0.000000  0.599252  0.258155  1
  Si  Si13  1  0.599252  0.599252  0.741845  1
  Si  Si14  1  0.400748  0.000000  0.741845  1
  Si  Si15  1  0.000000  0.400748  0.741845  1
  B  B16  1  0.000000  0.000000  0.000000  1
  H  H17  1  0.000000  0.000000  0.500000  1
