# generated using pymatgen
data_TbHoCuSi3
_symmetry_space_group_name_H-M   'P 1'
_cell_length_a   8.01639603
_cell_length_b   7.98712488
_cell_length_c   5.68193955
_cell_angle_alpha   69.48010582
_cell_angle_beta   69.14281356
_cell_angle_gamma   41.59166964
_symmetry_Int_Tables_number   1
_chemical_formula_structural   TbHoCuSi3
_chemical_formula_sum   'Tb2 Ho2 Cu2 Si6'
_cell_volume   223.58231637
_cell_formula_units_Z   2
loop_
 _symmetry_equiv_pos_site_id
 _symmetry_equiv_pos_as_xyz
  1  'x, y, z'
loop_
 _atom_site_type_symbol
 _atom_site_label
 _atom_site_symmetry_multiplicity
 _atom_site_fract_x
 _atom_site_fract_y
 _atom_site_fract_z
 _atom_site_occupancy
  Tb  Tb0  1  0.243453  0.756547  0.243453  1
  Tb  Tb1  1  0.250125  0.249875  0.250125  1
  Ho  Ho2  1  0.749854  0.750147  0.749853  1
  Ho  Ho3  1  0.756558  0.243442  0.756558  1
  Cu  Cu4  1  0.666712  0.666550  0.333472  1
  Cu  Cu5  1  0.333473  0.333266  0.666711  1
  Si  Si6  1  0.831258  0.831709  0.168569  1
  Si  Si7  1  0.828700  0.339923  0.171148  1
  Si  Si8  1  0.660190  0.171104  0.339959  1
  Si  Si9  1  0.339959  0.828748  0.660189  1
  Si  Si10  1  0.171149  0.660228  0.828700  1
  Si  Si11  1  0.168570  0.168464  0.831257  1
