# generated using pymatgen
data_NiPtBr6
_symmetry_space_group_name_H-M   'P 1'
_cell_length_a   6.45176579
_cell_length_b   6.45176566
_cell_length_c   6.90527899
_cell_angle_alpha   81.04126823
_cell_angle_beta   81.04126058
_cell_angle_gamma   119.90771474
_symmetry_Int_Tables_number   1
_chemical_formula_structural   NiPtBr6
_chemical_formula_sum   'Ni1 Pt1 Br6'
_cell_volume   236.79975319
_cell_formula_units_Z   1
loop_
 _symmetry_equiv_pos_site_id
 _symmetry_equiv_pos_as_xyz
  1  'x, y, z'
loop_
 _atom_site_type_symbol
 _atom_site_label
 _atom_site_symmetry_multiplicity
 _atom_site_fract_x
 _atom_site_fract_y
 _atom_site_fract_z
 _atom_site_occupancy
  Ni  Ni0  1  0.167351  0.832649  0.000000  1
  Pt  Pt1  1  0.833465  0.166535  0.000000  1
  Br  Br2  1  0.432162  0.075342  0.215455  1
  Br  Br3  1  0.924658  0.567838  0.784545  1
  Br  Br4  1  0.214389  0.219329  0.782372  1
  Br  Br5  1  0.780671  0.785611  0.217628  1
  Br  Br6  1  0.068552  0.421247  0.218076  1
  Br  Br7  1  0.578753  0.931448  0.781924  1
