# generated using pymatgen
data_Tb3ErIn4
_symmetry_space_group_name_H-M   'P 1'
_cell_length_a   6.55955289
_cell_length_b   6.55955403
_cell_length_c   9.99238900
_cell_angle_alpha   90.00000000
_cell_angle_beta   90.00000000
_cell_angle_gamma   98.02517369
_symmetry_Int_Tables_number   1
_chemical_formula_structural   Tb3ErIn4
_chemical_formula_sum   'Tb6 Er2 In8'
_cell_volume   425.73935687
_cell_formula_units_Z   2
loop_
 _symmetry_equiv_pos_site_id
 _symmetry_equiv_pos_as_xyz
  1  'x, y, z'
loop_
 _atom_site_type_symbol
 _atom_site_label
 _atom_site_symmetry_multiplicity
 _atom_site_fract_x
 _atom_site_fract_y
 _atom_site_fract_z
 _atom_site_occupancy
  Tb  Tb0  1  0.522265  0.522265  0.250000  1
  Tb  Tb1  1  0.477735  0.477735  0.750000  1
  Tb  Tb2  1  0.249384  0.750616  0.500000  1
  Tb  Tb3  1  0.249384  0.750616  0.000000  1
  Tb  Tb4  1  0.750616  0.249384  0.500000  1
  Tb  Tb5  1  0.750616  0.249384  0.000000  1
  Er  Er6  1  0.978663  0.978663  0.250000  1
  Er  Er7  1  0.021337  0.021337  0.750000  1
  In  In8  1  0.249134  0.249134  0.015666  1
  In  In9  1  0.750866  0.750866  0.984334  1
  In  In10  1  0.249134  0.249134  0.484334  1
  In  In11  1  0.750866  0.750866  0.515666  1
  In  In12  1  0.482331  0.016999  0.250000  1
  In  In13  1  0.983001  0.517669  0.750000  1
  In  In14  1  0.517669  0.983001  0.750000  1
  In  In15  1  0.016999  0.482331  0.250000  1
