# generated using pymatgen
data_Tm8Ti11Si16Rh
_symmetry_space_group_name_H-M   'P 1'
_cell_length_a   6.99685377
_cell_length_b   6.99685442
_cell_length_c   12.79379117
_cell_angle_alpha   90.09781813
_cell_angle_beta   89.90217918
_cell_angle_gamma   89.80478933
_symmetry_Int_Tables_number   1
_chemical_formula_structural   Tm8Ti11Si16Rh
_chemical_formula_sum   'Tm8 Ti11 Si16 Rh1'
_cell_volume   626.32695426
_cell_formula_units_Z   1
loop_
 _symmetry_equiv_pos_site_id
 _symmetry_equiv_pos_as_xyz
  1  'x, y, z'
loop_
 _atom_site_type_symbol
 _atom_site_label
 _atom_site_symmetry_multiplicity
 _atom_site_fract_x
 _atom_site_fract_y
 _atom_site_fract_z
 _atom_site_occupancy
  Tm  Tm0  1  0.340797  0.003442  0.467256  1
  Tm  Tm1  1  0.496978  0.841844  0.717941  1
  Tm  Tm2  1  0.500761  0.158511  0.214984  1
  Tm  Tm3  1  0.841844  0.496978  0.282059  1
  Tm  Tm4  1  0.158511  0.500761  0.785016  1
  Tm  Tm5  1  0.657286  0.998664  0.968090  1
  Tm  Tm6  1  0.003442  0.340797  0.532744  1
  Tm  Tm7  1  0.998664  0.657286  0.031910  1
  Ti  Ti8  1  0.175285  0.827008  0.248430  1
  Ti  Ti9  1  0.827008  0.175285  0.751570  1
  Ti  Ti10  1  0.673348  0.673348  0.500000  1
  Ti  Ti11  1  0.149029  0.002607  0.875552  1
  Ti  Ti12  1  0.494540  0.655206  0.124593  1
  Ti  Ti13  1  0.506082  0.349999  0.627294  1
  Ti  Ti14  1  0.655206  0.494540  0.875407  1
  Ti  Ti15  1  0.349999  0.506082  0.372706  1
  Ti  Ti16  1  0.849600  0.994670  0.374617  1
  Ti  Ti17  1  0.002607  0.149029  0.124448  1
  Ti  Ti18  1  0.994670  0.849600  0.625383  1
  Si  Si19  1  0.203004  0.133795  0.684399  1
  Si  Si20  1  0.371112  0.704112  0.933065  1
  Si  Si21  1  0.632022  0.294918  0.433106  1
  Si  Si22  1  0.704112  0.371112  0.066935  1
  Si  Si23  1  0.294918  0.632022  0.566894  1
  Si  Si24  1  0.795971  0.867472  0.183161  1
  Si  Si25  1  0.133795  0.203004  0.315601  1
  Si  Si26  1  0.867472  0.795971  0.816839  1
  Si  Si27  1  0.287448  0.950972  0.063899  1
  Si  Si28  1  0.546789  0.792758  0.315446  1
  Si  Si29  1  0.449603  0.209238  0.817287  1
  Si  Si30  1  0.792758  0.546789  0.684554  1
  Si  Si31  1  0.209238  0.449603  0.182713  1
  Si  Si32  1  0.707850  0.047566  0.565481  1
  Si  Si33  1  0.950972  0.287448  0.936101  1
  Si  Si34  1  0.047566  0.707850  0.434519  1
  Rh  Rh35  1  0.329712  0.329712  0.000000  1
