# generated using pymatgen
data_Ta2V2SiOs
_symmetry_space_group_name_H-M   'P 1'
_cell_length_a   5.14215400
_cell_length_b   5.14215365
_cell_length_c   8.15165300
_cell_angle_alpha   90.00000000
_cell_angle_beta   90.00000000
_cell_angle_gamma   121.19422325
_symmetry_Int_Tables_number   1
_chemical_formula_structural   Ta2V2SiOs
_chemical_formula_sum   'Ta4 V4 Si2 Os2'
_cell_volume   184.37983759
_cell_formula_units_Z   2
loop_
 _symmetry_equiv_pos_site_id
 _symmetry_equiv_pos_as_xyz
  1  'x, y, z'
loop_
 _atom_site_type_symbol
 _atom_site_label
 _atom_site_symmetry_multiplicity
 _atom_site_fract_x
 _atom_site_fract_y
 _atom_site_fract_z
 _atom_site_occupancy
  Ta  Ta0  1  0.665727  0.334273  0.436209  1
  Ta  Ta1  1  0.334273  0.665727  0.563791  1
  Ta  Ta2  1  0.334273  0.665727  0.936209  1
  Ta  Ta3  1  0.665727  0.334273  0.063791  1
  V  V4  1  0.341041  0.173858  0.750000  1
  V  V5  1  0.658959  0.826142  0.250000  1
  V  V6  1  0.826142  0.658959  0.750000  1
  V  V7  1  0.173858  0.341041  0.250000  1
  Si  Si8  1  0.000000  0.000000  0.000000  1
  Si  Si9  1  0.000000  0.000000  0.500000  1
  Os  Os10  1  0.827192  0.172808  0.750000  1
  Os  Os11  1  0.172808  0.827192  0.250000  1
