# generated using pymatgen
data_Sc4Co17(Si4W)3
_symmetry_space_group_name_H-M   'P 1'
_cell_length_a   3.64288100
_cell_length_b   10.47176418
_cell_length_c   12.04236251
_cell_angle_alpha   90.31861548
_cell_angle_beta   90.00000000
_cell_angle_gamma   90.00000000
_symmetry_Int_Tables_number   1
_chemical_formula_structural   Sc4Co17(Si4W)3
_chemical_formula_sum   'Sc4 Co17 Si12 W3'
_cell_volume   459.37760529
_cell_formula_units_Z   1
loop_
 _symmetry_equiv_pos_site_id
 _symmetry_equiv_pos_as_xyz
  1  'x, y, z'
loop_
 _atom_site_type_symbol
 _atom_site_label
 _atom_site_symmetry_multiplicity
 _atom_site_fract_x
 _atom_site_fract_y
 _atom_site_fract_z
 _atom_site_occupancy
  Sc  Sc0  1  0.250000  0.577464  0.703400  1
  Sc  Sc1  1  0.250000  0.922020  0.203132  1
  Sc  Sc2  1  0.750000  0.419997  0.294741  1
  Sc  Sc3  1  0.750000  0.075428  0.793144  1
  Co  Co4  1  0.750000  0.203325  0.509090  1
  Co  Co5  1  0.250000  0.403750  0.488238  1
  Co  Co6  1  0.250000  0.096305  0.989851  1
  Co  Co7  1  0.750000  0.594276  0.513290  1
  Co  Co8  1  0.750000  0.905750  0.015695  1
  Co  Co9  1  0.250000  0.216964  0.176775  1
  Co  Co10  1  0.250000  0.284477  0.668905  1
  Co  Co11  1  0.750000  0.786347  0.829943  1
  Co  Co12  1  0.750000  0.715380  0.329342  1
  Co  Co13  1  0.250000  0.886043  0.699375  1
  Co  Co14  1  0.250000  0.618998  0.199079  1
  Co  Co15  1  0.750000  0.118675  0.302938  1
  Co  Co16  1  0.750000  0.378721  0.797457  1
  Co  Co17  1  0.250000  0.462678  0.931786  1
  Co  Co18  1  0.250000  0.035675  0.432611  1
  Co  Co19  1  0.750000  0.535757  0.064695  1
  Co  Co20  1  0.750000  0.966868  0.565320  1
  Si  Si21  1  0.250000  0.421611  0.120670  1
  Si  Si22  1  0.250000  0.084237  0.613586  1
  Si  Si23  1  0.750000  0.577863  0.876649  1
  Si  Si24  1  0.750000  0.921676  0.379598  1
  Si  Si25  1  0.250000  0.259996  0.856968  1
  Si  Si26  1  0.250000  0.235478  0.367788  1
  Si  Si27  1  0.750000  0.737152  0.142329  1
  Si  Si28  1  0.750000  0.765923  0.643772  1
  Si  Si29  1  0.250000  0.588929  0.388082  1
  Si  Si30  1  0.250000  0.910749  0.890203  1
  Si  Si31  1  0.750000  0.400318  0.605248  1
  Si  Si32  1  0.750000  0.093807  0.114265  1
  W  W33  1  0.250000  0.699647  0.991619  1
  W  W34  1  0.250000  0.798176  0.493532  1
  W  W35  1  0.750000  0.299543  0.006886  1
