# generated using pymatgen
data_HoTh3(Si5Os3)2
_symmetry_space_group_name_H-M   'P 1'
_cell_length_a   8.20830176
_cell_length_b   8.21057788
_cell_length_c   5.87394334
_cell_angle_alpha   70.50318499
_cell_angle_beta   70.69135941
_cell_angle_gamma   93.66414249
_symmetry_Int_Tables_number   1
_chemical_formula_structural   HoTh3(Si5Os3)2
_chemical_formula_sum   'Ho1 Th3 Si10 Os6'
_cell_volume   345.36092854
_cell_formula_units_Z   1
loop_
 _symmetry_equiv_pos_site_id
 _symmetry_equiv_pos_as_xyz
  1  'x, y, z'
loop_
 _atom_site_type_symbol
 _atom_site_label
 _atom_site_symmetry_multiplicity
 _atom_site_fract_x
 _atom_site_fract_y
 _atom_site_fract_z
 _atom_site_occupancy
  Ho  Ho0  1  0.865976  0.600572  0.759402  1
  Th  Th1  1  0.400212  0.132424  0.741535  1
  Th  Th2  1  0.132268  0.401350  0.242221  1
  Th  Th3  1  0.599942  0.865838  0.259335  1
  Si  Si4  1  0.058768  0.260627  0.837927  1
  Si  Si5  1  0.741820  0.935329  0.663856  1
  Si  Si6  1  0.939585  0.738365  0.162376  1
  Si  Si7  1  0.261367  0.060224  0.337737  1
  Si  Si8  1  0.204171  0.789353  0.748100  1
  Si  Si9  1  0.790971  0.207015  0.254459  1
  Si  Si10  1  0.517450  0.489781  0.746289  1
  Si  Si11  1  0.488861  0.512372  0.249097  1
  Si  Si12  1  0.774273  0.230409  0.747707  1
  Si  Si13  1  0.222363  0.774188  0.255261  1
  Os  Os14  1  0.254141  0.539824  0.634126  1
  Os  Os15  1  0.456409  0.745561  0.867089  1
  Os  Os16  1  0.745660  0.459105  0.364379  1
  Os  Os17  1  0.543961  0.255837  0.132343  1
  Os  Os18  1  0.004385  0.997922  0.748044  1
  Os  Os19  1  0.997417  0.003905  0.248716  1
