# generated using pymatgen
data_YSc5Tc4
_symmetry_space_group_name_H-M   'P 1'
_cell_length_a   8.25714265
_cell_length_b   8.23817051
_cell_length_c   5.84666768
_cell_angle_alpha   135.22633625
_cell_angle_beta   45.07822608
_cell_angle_gamma   120.07620197
_symmetry_Int_Tables_number   1
_chemical_formula_structural   YSc5Tc4
_chemical_formula_sum   'Y1 Sc5 Tc4'
_cell_volume   198.33926633
_cell_formula_units_Z   1
loop_
 _symmetry_equiv_pos_site_id
 _symmetry_equiv_pos_as_xyz
  1  'x, y, z'
loop_
 _atom_site_type_symbol
 _atom_site_label
 _atom_site_symmetry_multiplicity
 _atom_site_fract_x
 _atom_site_fract_y
 _atom_site_fract_z
 _atom_site_occupancy
  Y  Y0  1  0.417685  0.250000  0.750000  1
  Sc  Sc1  1  0.582170  0.750001  0.250001  1
  Sc  Sc2  1  0.919831  0.425764  0.253066  1
  Sc  Sc3  1  0.247134  0.074237  0.246936  1
  Sc  Sc4  1  0.753761  0.919812  0.741503  1
  Sc  Sc5  1  0.075453  0.580189  0.758497  1
  Tc  Tc6  1  0.628487  0.376824  0.129532  1
  Tc  Tc7  1  0.881192  0.123177  0.370470  1
  Tc  Tc8  1  0.115350  0.864238  0.627827  1
  Tc  Tc9  1  0.378939  0.635762  0.872172  1
