# generated using pymatgen
data_ScTa(Ni7B2)3
_symmetry_space_group_name_H-M   'P 1'
_cell_length_a   7.46515023
_cell_length_b   7.46494796
_cell_length_c   7.46435700
_cell_angle_alpha   60.00262315
_cell_angle_beta   60.00351936
_cell_angle_gamma   59.99845270
_symmetry_Int_Tables_number   1
_chemical_formula_structural   ScTa(Ni7B2)3
_chemical_formula_sum   'Sc1 Ta1 Ni21 B6'
_cell_volume   294.14252844
_cell_formula_units_Z   1
loop_
 _symmetry_equiv_pos_site_id
 _symmetry_equiv_pos_as_xyz
  1  'x, y, z'
loop_
 _atom_site_type_symbol
 _atom_site_label
 _atom_site_symmetry_multiplicity
 _atom_site_fract_x
 _atom_site_fract_y
 _atom_site_fract_z
 _atom_site_occupancy
  Sc  Sc0  1  0.749962  0.750039  0.750000  1
  Ta  Ta1  1  0.250012  0.249991  0.249999  1
  Ni  Ni2  1  0.000029  0.999999  0.999986  1
  Ni  Ni3  1  0.613199  0.613199  0.160358  1
  Ni  Ni4  1  0.613172  0.160352  0.613238  1
  Ni  Ni5  1  0.160354  0.613240  0.613203  1
  Ni  Ni6  1  0.613199  0.613199  0.613244  1
  Ni  Ni7  1  0.383392  0.383358  0.849876  1
  Ni  Ni8  1  0.383317  0.849895  0.383394  1
  Ni  Ni9  1  0.849882  0.383366  0.383376  1
  Ni  Ni10  1  0.383392  0.383358  0.383374  1
  Ni  Ni11  1  0.002156  0.002112  0.337405  1
  Ni  Ni12  1  0.658338  0.002186  0.337371  1
  Ni  Ni13  1  0.002166  0.658337  0.337386  1
  Ni  Ni14  1  0.658323  0.337438  0.002119  1
  Ni  Ni15  1  0.002135  0.337356  0.002164  1
  Ni  Ni16  1  0.002135  0.337356  0.658344  1
  Ni  Ni17  1  0.337374  0.658336  0.002145  1
  Ni  Ni18  1  0.337409  0.002127  0.658339  1
  Ni  Ni19  1  0.337409  0.002127  0.002125  1
  Ni  Ni20  1  0.002156  0.002112  0.658327  1
  Ni  Ni21  1  0.002166  0.658337  0.002111  1
  Ni  Ni22  1  0.658338  0.002186  0.002105  1
  B  B23  1  0.731020  0.730997  0.268991  1
  B  B24  1  0.268974  0.731042  0.268974  1
  B  B25  1  0.731002  0.268984  0.268971  1
  B  B26  1  0.269015  0.268945  0.731020  1
  B  B27  1  0.731002  0.268984  0.731043  1
  B  B28  1  0.268974  0.731042  0.731010  1
