# generated using pymatgen
data_LiV(NiP)2
_symmetry_space_group_name_H-M   'P 1'
_cell_length_a   3.55120300
_cell_length_b   5.85667400
_cell_length_c   6.78681700
_cell_angle_alpha   90.00000000
_cell_angle_beta   90.00000000
_cell_angle_gamma   90.00000000
_symmetry_Int_Tables_number   1
_chemical_formula_structural   LiV(NiP)2
_chemical_formula_sum   'Li2 V2 Ni4 P4'
_cell_volume   141.15383712
_cell_formula_units_Z   2
loop_
 _symmetry_equiv_pos_site_id
 _symmetry_equiv_pos_as_xyz
  1  'x, y, z'
loop_
 _atom_site_type_symbol
 _atom_site_label
 _atom_site_symmetry_multiplicity
 _atom_site_fract_x
 _atom_site_fract_y
 _atom_site_fract_z
 _atom_site_occupancy
  Li  Li0  1  0.750000  0.466963  0.678285  1
  Li  Li1  1  0.750000  0.966963  0.821715  1
  V  V2  1  0.250000  0.533541  0.321310  1
  V  V3  1  0.250000  0.033541  0.178690  1
  Ni  Ni4  1  0.750000  0.359255  0.058603  1
  Ni  Ni5  1  0.750000  0.859255  0.441397  1
  Ni  Ni6  1  0.250000  0.646296  0.937335  1
  Ni  Ni7  1  0.250000  0.146296  0.562665  1
  P  P8  1  0.750000  0.739472  0.128245  1
  P  P9  1  0.750000  0.239472  0.371755  1
  P  P10  1  0.250000  0.254472  0.883261  1
  P  P11  1  0.250000  0.754472  0.616739  1
