# generated using pymatgen
data_Ba3Er2Cl2O5
_symmetry_space_group_name_H-M   'P 1'
_cell_length_a   4.42594606
_cell_length_b   4.42594369
_cell_length_c   12.95410973
_cell_angle_alpha   99.88893790
_cell_angle_beta   99.88897199
_cell_angle_gamma   90.00361714
_symmetry_Int_Tables_number   1
_chemical_formula_structural   Ba3Er2Cl2O5
_chemical_formula_sum   'Ba3 Er2 Cl2 O5'
_cell_volume   246.15923396
_cell_formula_units_Z   1
loop_
 _symmetry_equiv_pos_site_id
 _symmetry_equiv_pos_as_xyz
  1  'x, y, z'
loop_
 _atom_site_type_symbol
 _atom_site_label
 _atom_site_symmetry_multiplicity
 _atom_site_fract_x
 _atom_site_fract_y
 _atom_site_fract_z
 _atom_site_occupancy
  Ba  Ba0  1  0.662112  0.662111  0.323843  1
  Ba  Ba1  1  0.337891  0.337891  0.676171  1
  Ba  Ba2  1  0.500016  0.500018  0.000038  1
  Er  Er3  1  0.915573  0.915574  0.831238  1
  Er  Er4  1  0.084428  0.084428  0.168751  1
  Cl  Cl5  1  0.204838  0.204837  0.409151  1
  Cl  Cl6  1  0.795133  0.795133  0.590815  1
  O  O7  1  0.903664  0.403774  0.807630  1
  O  O8  1  0.403773  0.903664  0.807630  1
  O  O9  1  0.096340  0.596235  0.192376  1
  O  O10  1  0.999997  0.999997  0.999984  1
  O  O11  1  0.596235  0.096339  0.192376  1
