# generated using pymatgen
data_Ho20(Si3Au)3
_symmetry_space_group_name_H-M   'P 1'
_cell_length_a   7.38605300
_cell_length_b   7.38605300
_cell_length_c   14.02503600
_cell_angle_alpha   90.00000000
_cell_angle_beta   90.00000000
_cell_angle_gamma   90.00000000
_symmetry_Int_Tables_number   1
_chemical_formula_structural   Ho20(Si3Au)3
_chemical_formula_sum   'Ho20 Si9 Au3'
_cell_volume   765.11871327
_cell_formula_units_Z   1
loop_
 _symmetry_equiv_pos_site_id
 _symmetry_equiv_pos_as_xyz
  1  'x, y, z'
loop_
 _atom_site_type_symbol
 _atom_site_label
 _atom_site_symmetry_multiplicity
 _atom_site_fract_x
 _atom_site_fract_y
 _atom_site_fract_z
 _atom_site_occupancy
  Ho  Ho0  1  0.817108  0.835393  0.604922  1
  Ho  Ho1  1  0.185550  0.842764  0.108475  1
  Ho  Ho2  1  0.157831  0.816082  0.393980  1
  Ho  Ho3  1  0.000000  0.500000  0.730523  1
  Ho  Ho4  1  0.842169  0.183918  0.393980  1
  Ho  Ho5  1  0.683918  0.657831  0.393980  1
  Ho  Ho6  1  0.664607  0.317108  0.604922  1
  Ho  Ho7  1  0.335393  0.682892  0.604922  1
  Ho  Ho8  1  0.000000  0.500000  0.224161  1
  Ho  Ho9  1  0.657236  0.685550  0.108475  1
  Ho  Ho10  1  0.686329  0.340996  0.891361  1
  Ho  Ho11  1  0.840996  0.813671  0.891361  1
  Ho  Ho12  1  0.316082  0.342169  0.393980  1
  Ho  Ho13  1  0.182892  0.164607  0.604922  1
  Ho  Ho14  1  0.814450  0.157236  0.108475  1
  Ho  Ho15  1  0.313671  0.659004  0.891361  1
  Ho  Ho16  1  0.342764  0.314450  0.108475  1
  Ho  Ho17  1  0.500000  0.000000  0.278072  1
  Ho  Ho18  1  0.159004  0.186329  0.891361  1
  Ho  Ho19  1  0.500000  0.000000  0.770729  1
  Si  Si20  1  0.623373  0.376542  0.252441  1
  Si  Si21  1  0.122915  0.878590  0.747176  1
  Si  Si22  1  0.378590  0.377085  0.747176  1
  Si  Si23  1  0.376627  0.623458  0.252441  1
  Si  Si24  1  0.876542  0.876627  0.252441  1
  Si  Si25  1  0.621410  0.622915  0.747176  1
  Si  Si26  1  0.000000  0.500000  0.508150  1
  Si  Si27  1  0.877085  0.121410  0.747176  1
  Si  Si28  1  0.123458  0.123373  0.252441  1
  Au  Au29  1  0.500000  0.000000  0.496839  1
  Au  Au30  1  0.500000  0.000000  0.995594  1
  Au  Au31  1  0.000000  0.500000  0.002509  1
