# generated using pymatgen
data_Nb8VCuSe16
_symmetry_space_group_name_H-M   'P 1'
_cell_length_a   7.00589800
_cell_length_b   7.00589881
_cell_length_c   12.83883000
_cell_angle_alpha   90.00000000
_cell_angle_beta   90.00000000
_cell_angle_gamma   120.00000563
_symmetry_Int_Tables_number   1
_chemical_formula_structural   Nb8VCuSe16
_chemical_formula_sum   'Nb8 V1 Cu1 Se16'
_cell_volume   545.73741025
_cell_formula_units_Z   1
loop_
 _symmetry_equiv_pos_site_id
 _symmetry_equiv_pos_as_xyz
  1  'x, y, z'
loop_
 _atom_site_type_symbol
 _atom_site_label
 _atom_site_symmetry_multiplicity
 _atom_site_fract_x
 _atom_site_fract_y
 _atom_site_fract_z
 _atom_site_occupancy
  Nb  Nb0  1  0.000000  0.000000  0.248508  1
  Nb  Nb1  1  0.000000  0.000000  0.751492  1
  Nb  Nb2  1  0.508841  0.017683  0.250813  1
  Nb  Nb3  1  0.491159  0.982317  0.749187  1
  Nb  Nb4  1  0.982317  0.491159  0.250813  1
  Nb  Nb5  1  0.017683  0.508841  0.749187  1
  Nb  Nb6  1  0.508841  0.491159  0.250813  1
  Nb  Nb7  1  0.491159  0.508841  0.749187  1
  V  V8  1  0.000000  0.000000  0.500000  1
  Cu  Cu9  1  0.000000  0.000000  0.000000  1
  Se  Se10  1  0.333333  0.666667  0.612999  1
  Se  Se11  1  0.666667  0.333333  0.387001  1
  Se  Se12  1  0.666667  0.333333  0.115464  1
  Se  Se13  1  0.333333  0.666667  0.884536  1
  Se  Se14  1  0.170352  0.340703  0.121786  1
  Se  Se15  1  0.829648  0.659297  0.878214  1
  Se  Se16  1  0.659297  0.829648  0.121786  1
  Se  Se17  1  0.833462  0.666924  0.621075  1
  Se  Se18  1  0.340703  0.170352  0.878214  1
  Se  Se19  1  0.166538  0.333076  0.378925  1
  Se  Se20  1  0.170352  0.829648  0.121786  1
  Se  Se21  1  0.333076  0.166538  0.621075  1
  Se  Se22  1  0.829648  0.170352  0.878214  1
  Se  Se23  1  0.666924  0.833462  0.378925  1
  Se  Se24  1  0.833462  0.166538  0.621075  1
  Se  Se25  1  0.166538  0.833462  0.378925  1
