# generated using pymatgen
data_RbNiAs2Ru
_symmetry_space_group_name_H-M   'P 1'
_cell_length_a   7.72146977
_cell_length_b   7.72146951
_cell_length_c   7.72146923
_cell_angle_alpha   150.45194767
_cell_angle_beta   150.45194482
_cell_angle_gamma   42.27840139
_symmetry_Int_Tables_number   1
_chemical_formula_structural   RbNiAs2Ru
_chemical_formula_sum   'Rb1 Ni1 As2 Ru1'
_cell_volume   111.68911992
_cell_formula_units_Z   1
loop_
 _symmetry_equiv_pos_site_id
 _symmetry_equiv_pos_as_xyz
  1  'x, y, z'
loop_
 _atom_site_type_symbol
 _atom_site_label
 _atom_site_symmetry_multiplicity
 _atom_site_fract_x
 _atom_site_fract_y
 _atom_site_fract_z
 _atom_site_occupancy
  Rb  Rb0  1  0.000000  0.000000  0.000000  1
  Ni  Ni1  1  0.750000  0.250000  0.500000  1
  As  As2  1  0.654122  0.654122  0.000000  1
  As  As3  1  0.345878  0.345878  0.000000  1
  Ru  Ru4  1  0.250000  0.750000  0.500000  1
