# generated using pymatgen
data_Lu3In3Cu2Pt
_symmetry_space_group_name_H-M   'P 1'
_cell_length_a   7.67523900
_cell_length_b   7.67523879
_cell_length_c   3.62759500
_cell_angle_alpha   90.00000000
_cell_angle_beta   90.00000000
_cell_angle_gamma   119.99999660
_symmetry_Int_Tables_number   1
_chemical_formula_structural   Lu3In3Cu2Pt
_chemical_formula_sum   'Lu3 In3 Cu2 Pt1'
_cell_volume   185.06881540
_cell_formula_units_Z   1
loop_
 _symmetry_equiv_pos_site_id
 _symmetry_equiv_pos_as_xyz
  1  'x, y, z'
loop_
 _atom_site_type_symbol
 _atom_site_label
 _atom_site_symmetry_multiplicity
 _atom_site_fract_x
 _atom_site_fract_y
 _atom_site_fract_z
 _atom_site_occupancy
  Lu  Lu0  1  0.012192  0.600794  0.500000  1
  Lu  Lu1  1  0.588603  0.987808  0.500000  1
  Lu  Lu2  1  0.399206  0.411397  0.500000  1
  In  In3  1  0.990103  0.256093  0.000000  1
  In  In4  1  0.265990  0.009897  0.000000  1
  In  In5  1  0.743907  0.734010  0.000000  1
  Cu  Cu6  1  0.000000  0.000000  0.500000  1
  Cu  Cu7  1  0.666667  0.333333  0.000000  1
  Pt  Pt8  1  0.333333  0.666667  0.000000  1
