# generated using pymatgen
data_Nd3Dy(BeSi3)2
_symmetry_space_group_name_H-M   'P 1'
_cell_length_a   8.11052451
_cell_length_b   7.92889240
_cell_length_c   5.84805600
_cell_angle_alpha   70.28344347
_cell_angle_beta   66.96875671
_cell_angle_gamma   42.74782236
_symmetry_Int_Tables_number   1
_chemical_formula_structural   Nd3Dy(BeSi3)2
_chemical_formula_sum   'Nd3 Dy1 Be2 Si6'
_cell_volume   234.16583664
_cell_formula_units_Z   1
loop_
 _symmetry_equiv_pos_site_id
 _symmetry_equiv_pos_as_xyz
  1  'x, y, z'
loop_
 _atom_site_type_symbol
 _atom_site_label
 _atom_site_symmetry_multiplicity
 _atom_site_fract_x
 _atom_site_fract_y
 _atom_site_fract_z
 _atom_site_occupancy
  Nd  Nd0  1  0.750040  0.749960  0.750040  1
  Nd  Nd1  1  0.754660  0.245340  0.754660  1
  Nd  Nd2  1  0.250040  0.249960  0.250040  1
  Dy  Dy3  1  0.245494  0.754506  0.245494  1
  Be  Be4  1  0.665502  0.666856  0.333144  1
  Be  Be5  1  0.333144  0.334498  0.665502  1
  Si  Si6  1  0.824275  0.347048  0.174826  1
  Si  Si7  1  0.652952  0.175725  0.346149  1
  Si  Si8  1  0.174826  0.653851  0.824275  1
  Si  Si9  1  0.346149  0.825174  0.652952  1
  Si  Si10  1  0.172953  0.170034  0.829966  1
  Si  Si11  1  0.829966  0.827047  0.172953  1
