# generated using pymatgen
data_Ce4YHo2Tm(ReB6)4
_symmetry_space_group_name_H-M   'P 1'
_cell_length_a   3.72197300
_cell_length_b   9.19897600
_cell_length_c   11.58576421
_cell_angle_alpha   89.98909952
_cell_angle_beta   90.00000000
_cell_angle_gamma   90.00000000
_symmetry_Int_Tables_number   1
_chemical_formula_structural   Ce4YHo2Tm(ReB6)4
_chemical_formula_sum   'Ce4 Y1 Ho2 Tm1 Re4 B24'
_cell_volume   396.67733052
_cell_formula_units_Z   1
loop_
 _symmetry_equiv_pos_site_id
 _symmetry_equiv_pos_as_xyz
  1  'x, y, z'
loop_
 _atom_site_type_symbol
 _atom_site_label
 _atom_site_symmetry_multiplicity
 _atom_site_fract_x
 _atom_site_fract_y
 _atom_site_fract_z
 _atom_site_occupancy
  Ce  Ce0  1  0.000000  0.322974  0.413963  1
  Ce  Ce1  1  0.000000  0.676906  0.585573  1
  Ce  Ce2  1  0.000000  0.823056  0.085998  1
  Ce  Ce3  1  0.000000  0.176941  0.914529  1
  Y  Y4  1  0.000000  0.055203  0.626557  1
  Ho  Ho5  1  0.000000  0.444521  0.127370  1
  Ho  Ho6  1  0.000000  0.555348  0.872906  1
  Tm  Tm7  1  0.000000  0.944362  0.372245  1
  Re  Re8  1  0.000000  0.639559  0.320841  1
  Re  Re9  1  0.000000  0.361753  0.679125  1
  Re  Re10  1  0.000000  0.138243  0.179619  1
  Re  Re11  1  0.000000  0.860941  0.821014  1
  B  B12  1  0.500000  0.555002  0.431456  1
  B  B13  1  0.500000  0.445733  0.568279  1
  B  B14  1  0.500000  0.054396  0.068718  1
  B  B15  1  0.500000  0.945393  0.931785  1
  B  B16  1  0.500000  0.749581  0.418433  1
  B  B17  1  0.500000  0.251563  0.581134  1
  B  B18  1  0.500000  0.248672  0.081567  1
  B  B19  1  0.500000  0.751077  0.918731  1
  B  B20  1  0.500000  0.792311  0.266291  1
  B  B21  1  0.500000  0.208583  0.733937  1
  B  B22  1  0.500000  0.291438  0.233989  1
  B  B23  1  0.500000  0.708151  0.766241  1
  B  B24  1  0.500000  0.631994  0.186084  1
  B  B25  1  0.500000  0.368300  0.814098  1
  B  B26  1  0.500000  0.131146  0.314252  1
  B  B27  1  0.500000  0.867882  0.686011  1
  B  B28  1  0.500000  0.983562  0.213536  1
  B  B29  1  0.500000  0.015989  0.787204  1
  B  B30  1  0.500000  0.484131  0.286971  1
  B  B31  1  0.500000  0.516179  0.713121  1
  B  B32  1  0.500000  0.606505  0.029570  1
  B  B33  1  0.500000  0.393431  0.970741  1
  B  B34  1  0.500000  0.105578  0.469764  1
  B  B35  1  0.500000  0.893598  0.528347  1
