# generated using pymatgen
data_Yb6CdAgRu
_symmetry_space_group_name_H-M   'P 1'
_cell_length_a   8.18405500
_cell_length_b   8.18405529
_cell_length_c   4.29207900
_cell_angle_alpha   90.00000000
_cell_angle_beta   90.00000000
_cell_angle_gamma   120.00001097
_symmetry_Int_Tables_number   1
_chemical_formula_structural   Yb6CdAgRu
_chemical_formula_sum   'Yb6 Cd1 Ag1 Ru1'
_cell_volume   248.96333016
_cell_formula_units_Z   1
loop_
 _symmetry_equiv_pos_site_id
 _symmetry_equiv_pos_as_xyz
  1  'x, y, z'
loop_
 _atom_site_type_symbol
 _atom_site_label
 _atom_site_symmetry_multiplicity
 _atom_site_fract_x
 _atom_site_fract_y
 _atom_site_fract_z
 _atom_site_occupancy
  Yb  Yb0  1  0.762209  0.998866  0.000000  1
  Yb  Yb1  1  0.236658  0.237791  0.000000  1
  Yb  Yb2  1  0.001134  0.763343  0.000000  1
  Yb  Yb3  1  0.386052  0.987712  0.500001  1
  Yb  Yb4  1  0.012288  0.398340  0.500001  1
  Yb  Yb5  1  0.601660  0.613948  0.500001  1
  Cd  Cd6  1  0.666667  0.333333  0.000000  1
  Ag  Ag7  1  0.333333  0.666666  0.000000  1
  Ru  Ru8  1  0.000000  0.000000  0.500001  1
