# generated using pymatgen
data_Er4Pd2RuPtO14
_symmetry_space_group_name_H-M   'P 1'
_cell_length_a   7.19160954
_cell_length_b   7.25050053
_cell_length_c   7.18095781
_cell_angle_alpha   60.16807863
_cell_angle_beta   59.95092446
_cell_angle_gamma   60.26833167
_symmetry_Int_Tables_number   1
_chemical_formula_structural   Er4Pd2RuPtO14
_chemical_formula_sum   'Er4 Pd2 Ru1 Pt1 O14'
_cell_volume   265.53571616
_cell_formula_units_Z   1
loop_
 _symmetry_equiv_pos_site_id
 _symmetry_equiv_pos_as_xyz
  1  'x, y, z'
loop_
 _atom_site_type_symbol
 _atom_site_label
 _atom_site_symmetry_multiplicity
 _atom_site_fract_x
 _atom_site_fract_y
 _atom_site_fract_z
 _atom_site_occupancy
  Er  Er0  1  0.125000  0.125000  0.625000  1
  Er  Er1  1  0.125000  0.625000  0.125000  1
  Er  Er2  1  0.625000  0.125000  0.125000  1
  Er  Er3  1  0.125000  0.125000  0.125000  1
  Pd  Pd4  1  0.125000  0.625000  0.625000  1
  Pd  Pd5  1  0.625000  0.625000  0.625000  1
  Ru  Ru6  1  0.625000  0.125000  0.625000  1
  Pt  Pt7  1  0.625000  0.625000  0.125000  1
  O  O8  1  0.250165  0.249751  0.249919  1
  O  O9  1  0.999835  0.000249  0.000081  1
  O  O10  1  0.537732  0.965981  0.536790  1
  O  O11  1  0.282638  0.720982  0.280259  1
  O  O12  1  0.533879  0.529018  0.969741  1
  O  O13  1  0.968574  0.529154  0.533698  1
  O  O14  1  0.536703  0.963607  0.962989  1
  O  O15  1  0.959498  0.965981  0.536790  1
  O  O16  1  0.967362  0.529018  0.969741  1
  O  O17  1  0.713297  0.286393  0.287011  1
  O  O18  1  0.281426  0.720846  0.716302  1
  O  O19  1  0.712268  0.284019  0.713210  1
  O  O20  1  0.290502  0.284019  0.713210  1
  O  O21  1  0.716121  0.720982  0.280259  1
