# generated using pymatgen
data_NaVIr(SeS)2
_symmetry_space_group_name_H-M   'P 1'
_cell_length_a   3.60615000
_cell_length_b   5.77220601
_cell_length_c   7.56682269
_cell_angle_alpha   67.42989073
_cell_angle_beta   90.00000000
_cell_angle_gamma   90.00000000
_symmetry_Int_Tables_number   1
_chemical_formula_structural   NaVIr(SeS)2
_chemical_formula_sum   'Na1 V1 Ir1 Se2 S2'
_cell_volume   145.44339779
_cell_formula_units_Z   1
loop_
 _symmetry_equiv_pos_site_id
 _symmetry_equiv_pos_as_xyz
  1  'x, y, z'
loop_
 _atom_site_type_symbol
 _atom_site_label
 _atom_site_symmetry_multiplicity
 _atom_site_fract_x
 _atom_site_fract_y
 _atom_site_fract_z
 _atom_site_occupancy
  Na  Na0  1  0.500000  0.582304  0.521573  1
  V  V1  1  0.500000  0.566143  0.003062  1
  Ir  Ir2  1  0.000000  0.978895  0.992084  1
  Se  Se3  1  0.500000  0.073796  0.182766  1
  Se  Se4  1  0.500000  0.974398  0.755400  1
  S  S5  1  0.000000  0.558314  0.214108  1
  S  S6  1  0.000000  0.431250  0.835705  1
