# generated using pymatgen
data_Zr5BiBPb2
_symmetry_space_group_name_H-M   'P 1'
_cell_length_a   8.71810686
_cell_length_b   8.71157390
_cell_length_c   5.89378300
_cell_angle_alpha   90.00000000
_cell_angle_beta   90.00000000
_cell_angle_gamma   119.97522091
_symmetry_Int_Tables_number   1
_chemical_formula_structural   Zr5BiBPb2
_chemical_formula_sum   'Zr10 Bi2 B2 Pb4'
_cell_volume   387.75014723
_cell_formula_units_Z   2
loop_
 _symmetry_equiv_pos_site_id
 _symmetry_equiv_pos_as_xyz
  1  'x, y, z'
loop_
 _atom_site_type_symbol
 _atom_site_label
 _atom_site_symmetry_multiplicity
 _atom_site_fract_x
 _atom_site_fract_y
 _atom_site_fract_z
 _atom_site_occupancy
  Zr  Zr0  1  0.666672  0.333147  0.000118  1
  Zr  Zr1  1  0.333328  0.666476  0.000118  1
  Zr  Zr2  1  0.333328  0.666476  0.499882  1
  Zr  Zr3  1  0.666672  0.333147  0.499882  1
  Zr  Zr4  1  0.777278  0.776331  0.750000  1
  Zr  Zr5  1  0.222722  0.999054  0.750000  1
  Zr  Zr6  1  0.000000  0.224938  0.750000  1
  Zr  Zr7  1  0.225445  0.225118  0.250000  1
  Zr  Zr8  1  0.774555  0.999673  0.250000  1
  Zr  Zr9  1  0.000000  0.775354  0.250000  1
  Bi  Bi10  1  0.400105  0.399626  0.750000  1
  Bi  Bi11  1  0.599895  0.999521  0.750000  1
  B  B12  1  0.000000  0.000162  0.001463  1
  B  B13  1  0.000000  0.000162  0.498537  1
  Pb  Pb14  1  0.000000  0.600165  0.750000  1
  Pb  Pb15  1  0.601968  0.602097  0.250000  1
  Pb  Pb16  1  0.398032  0.000129  0.250000  1
  Pb  Pb17  1  0.000000  0.398422  0.250000  1
