# generated using pymatgen
data_Nb20Al3Os3Pt4
_symmetry_space_group_name_H-M   'P 1'
_cell_length_a   9.94985538
_cell_length_b   9.97772738
_cell_length_c   5.19496000
_cell_angle_alpha   90.00000000
_cell_angle_beta   90.00000000
_cell_angle_gamma   90.30468236
_symmetry_Int_Tables_number   1
_chemical_formula_structural   Nb20Al3Os3Pt4
_chemical_formula_sum   'Nb20 Al3 Os3 Pt4'
_cell_volume   515.73246308
_cell_formula_units_Z   1
loop_
 _symmetry_equiv_pos_site_id
 _symmetry_equiv_pos_as_xyz
  1  'x, y, z'
loop_
 _atom_site_type_symbol
 _atom_site_label
 _atom_site_symmetry_multiplicity
 _atom_site_fract_x
 _atom_site_fract_y
 _atom_site_fract_z
 _atom_site_occupancy
  Nb  Nb0  1  0.397021  0.393855  0.000000  1
  Nb  Nb1  1  0.895749  0.104701  0.500000  1
  Nb  Nb2  1  0.104793  0.899005  0.500000  1
  Nb  Nb3  1  0.602137  0.604523  0.000000  1
  Nb  Nb4  1  0.132846  0.468069  0.000000  1
  Nb  Nb5  1  0.966811  0.371964  0.500000  1
  Nb  Nb6  1  0.036896  0.626079  0.500000  1
  Nb  Nb7  1  0.872325  0.541691  0.000000  1
  Nb  Nb8  1  0.373683  0.964255  0.500000  1
  Nb  Nb9  1  0.624977  0.033503  0.500000  1
  Nb  Nb10  1  0.461799  0.128063  0.000000  1
  Nb  Nb11  1  0.534372  0.870509  0.000000  1
  Nb  Nb12  1  0.184592  0.184793  0.253899  1
  Nb  Nb13  1  0.679285  0.314929  0.751105  1
  Nb  Nb14  1  0.320543  0.677886  0.749085  1
  Nb  Nb15  1  0.818101  0.813761  0.252945  1
  Nb  Nb16  1  0.320543  0.677886  0.250915  1
  Nb  Nb17  1  0.679285  0.314929  0.248895  1
  Nb  Nb18  1  0.184592  0.184793  0.746101  1
  Nb  Nb19  1  0.818101  0.813761  0.747055  1
  Al  Al20  1  0.994067  0.006430  0.000000  1
  Al  Al21  1  0.500781  0.500551  0.500000  1
  Al  Al22  1  0.068147  0.745600  0.000000  1
  Os  Os23  1  0.437092  0.243127  0.500000  1
  Os  Os24  1  0.563711  0.758964  0.500000  1
  Os  Os25  1  0.243707  0.434064  0.500000  1
  Pt  Pt26  1  0.254425  0.933566  0.000000  1
  Pt  Pt27  1  0.737168  0.063959  0.000000  1
  Pt  Pt28  1  0.755166  0.559314  0.500000  1
  Pt  Pt29  1  0.937286  0.265473  0.000000  1
