# generated using pymatgen
data_TbGd(Zn2Ge)3
_symmetry_space_group_name_H-M   'P 1'
_cell_length_a   16.07774200
_cell_length_b   16.07773876
_cell_length_c   9.04239400
_cell_angle_alpha   90.00000000
_cell_angle_beta   90.00000000
_cell_angle_gamma   119.99999075
_symmetry_Int_Tables_number   1
_chemical_formula_structural   TbGd(Zn2Ge)3
_chemical_formula_sum   'Tb1 Gd1 Zn6 Ge3'
_cell_volume   2024.24987714
_cell_formula_units_Z   1
loop_
 _symmetry_equiv_pos_site_id
 _symmetry_equiv_pos_as_xyz
  1  'x, y, z'
loop_
 _atom_site_type_symbol
 _atom_site_label
 _atom_site_symmetry_multiplicity
 _atom_site_fract_x
 _atom_site_fract_y
 _atom_site_fract_z
 _atom_site_occupancy
  Tb  Tb0  1  0.666667  0.333333  0.000000  1
  Gd  Gd1  1  0.333333  0.666667  0.000000  1
  Zn  Zn2  1  0.284994  0.285307  0.500000  1
  Zn  Zn3  1  0.191633  0.000093  0.000000  1
  Zn  Zn4  1  0.714693  0.999686  0.500000  1
  Zn  Zn5  1  0.999907  0.191540  0.000000  1
  Zn  Zn6  1  0.808460  0.808367  0.000000  1
  Zn  Zn7  1  0.000314  0.715006  0.500000  1
  Ge  Ge8  1  0.384475  0.998250  0.500000  1
  Ge  Ge9  1  0.613774  0.615525  0.500000  1
  Ge  Ge10  1  0.001750  0.386226  0.500000  1
