# generated using pymatgen
data_Sc4Al4GaTc3
_symmetry_space_group_name_H-M   'P 1'
_cell_length_a   5.33222015
_cell_length_b   5.32662036
_cell_length_c   8.54374000
_cell_angle_alpha   90.00000000
_cell_angle_beta   90.00000000
_cell_angle_gamma   119.96526129
_symmetry_Int_Tables_number   1
_chemical_formula_structural   Sc4Al4GaTc3
_chemical_formula_sum   'Sc4 Al4 Ga1 Tc3'
_cell_volume   210.22791855
_cell_formula_units_Z   1
loop_
 _symmetry_equiv_pos_site_id
 _symmetry_equiv_pos_as_xyz
  1  'x, y, z'
loop_
 _atom_site_type_symbol
 _atom_site_label
 _atom_site_symmetry_multiplicity
 _atom_site_fract_x
 _atom_site_fract_y
 _atom_site_fract_z
 _atom_site_occupancy
  Sc  Sc0  1  0.331180  0.665591  0.442479  1
  Sc  Sc1  1  0.663208  0.331604  0.552937  1
  Sc  Sc2  1  0.663208  0.331604  0.947063  1
  Sc  Sc3  1  0.331180  0.665591  0.057521  1
  Al  Al4  1  0.834260  0.164845  0.250000  1
  Al  Al5  1  0.834260  0.669417  0.250000  1
  Al  Al6  1  0.192166  0.845521  0.750000  1
  Al  Al7  1  0.192166  0.346644  0.750000  1
  Ga  Ga8  1  0.332494  0.166247  0.250000  1
  Tc  Tc9  1  0.975483  0.987742  0.509371  1
  Tc  Tc10  1  0.975483  0.987742  0.990629  1
  Tc  Tc11  1  0.674910  0.837455  0.750000  1
