# generated using pymatgen
data_NaSm6OsI12
_symmetry_space_group_name_H-M   'P 1'
_cell_length_a   9.95053063
_cell_length_b   9.95053030
_cell_length_c   9.95052978
_cell_angle_alpha   107.06520107
_cell_angle_beta   107.06520319
_cell_angle_gamma   107.06519759
_symmetry_Int_Tables_number   1
_chemical_formula_structural   NaSm6OsI12
_chemical_formula_sum   'Na1 Sm6 Os1 I12'
_cell_volume   819.04720426
_cell_formula_units_Z   1
loop_
 _symmetry_equiv_pos_site_id
 _symmetry_equiv_pos_as_xyz
  1  'x, y, z'
loop_
 _atom_site_type_symbol
 _atom_site_label
 _atom_site_symmetry_multiplicity
 _atom_site_fract_x
 _atom_site_fract_y
 _atom_site_fract_z
 _atom_site_occupancy
  Na  Na0  1  0.500000  0.500000  0.500000  1
  Sm  Sm1  1  0.101379  0.305852  0.031930  1
  Sm  Sm2  1  0.305852  0.031931  0.101379  1
  Sm  Sm3  1  0.031931  0.101379  0.305852  1
  Sm  Sm4  1  0.968069  0.898622  0.694148  1
  Sm  Sm5  1  0.694148  0.968070  0.898621  1
  Sm  Sm6  1  0.898621  0.694148  0.968070  1
  Os  Os7  1  0.000000  0.000000  0.000000  1
  I  I8  1  0.226179  0.684767  0.073298  1
  I  I9  1  0.454521  0.377705  0.146802  1
  I  I10  1  0.684767  0.073298  0.226179  1
  I  I11  1  0.926702  0.773821  0.315234  1
  I  I12  1  0.146802  0.454521  0.377705  1
  I  I13  1  0.377705  0.146802  0.454522  1
  I  I14  1  0.622295  0.853198  0.545479  1
  I  I15  1  0.853198  0.545479  0.622295  1
  I  I16  1  0.073298  0.226179  0.684767  1
  I  I17  1  0.315233  0.926702  0.773821  1
  I  I18  1  0.545479  0.622295  0.853199  1
  I  I19  1  0.773821  0.315234  0.926702  1
