# generated using pymatgen
data_TbNp3UAl15
_symmetry_space_group_name_H-M   'P 1'
_cell_length_a   12.51327332
_cell_length_b   12.51327288
_cell_length_c   12.51327208
_cell_angle_alpha   28.10519659
_cell_angle_beta   28.10520137
_cell_angle_gamma   28.10520175
_symmetry_Int_Tables_number   1
_chemical_formula_structural   TbNp3UAl15
_chemical_formula_sum   'Tb1 Np3 U1 Al15'
_cell_volume   384.12032042
_cell_formula_units_Z   1
loop_
 _symmetry_equiv_pos_site_id
 _symmetry_equiv_pos_as_xyz
  1  'x, y, z'
loop_
 _atom_site_type_symbol
 _atom_site_label
 _atom_site_symmetry_multiplicity
 _atom_site_fract_x
 _atom_site_fract_y
 _atom_site_fract_z
 _atom_site_occupancy
  Tb  Tb0  1  0.400184  0.400184  0.400184  1
  Np  Np1  1  0.000123  0.000123  0.000123  1
  Np  Np2  1  0.131337  0.131337  0.131337  1
  Np  Np3  1  0.599397  0.599397  0.599397  1
  U  U4  1  0.869201  0.869201  0.869201  1
  Al  Al5  1  0.502255  0.502255  0.995021  1
  Al  Al6  1  0.995021  0.502255  0.502255  1
  Al  Al7  1  0.502255  0.995021  0.502255  1
  Al  Al8  1  0.363946  0.870370  0.363946  1
  Al  Al9  1  0.363946  0.363946  0.870370  1
  Al  Al10  1  0.870370  0.363946  0.363946  1
  Al  Al11  1  0.637901  0.125107  0.637901  1
  Al  Al12  1  0.637901  0.637901  0.125107  1
  Al  Al13  1  0.125107  0.637901  0.637901  1
  Al  Al14  1  0.111959  0.578184  0.111959  1
  Al  Al15  1  0.111959  0.111959  0.578184  1
  Al  Al16  1  0.578184  0.111959  0.111959  1
  Al  Al17  1  0.888013  0.422933  0.888013  1
  Al  Al18  1  0.888013  0.888013  0.422933  1
  Al  Al19  1  0.422933  0.888013  0.888013  1
