# generated using pymatgen
data_AcGaSiIr3
_symmetry_space_group_name_H-M   'P 1'
_cell_length_a   6.88358591
_cell_length_b   6.86893759
_cell_length_c   6.88358678
_cell_angle_alpha   130.65426874
_cell_angle_beta   113.18057333
_cell_angle_gamma   87.48790555
_symmetry_Int_Tables_number   1
_chemical_formula_structural   AcGaSiIr3
_chemical_formula_sum   'Ac2 Ga2 Si2 Ir6'
_cell_volume   216.18357025
_cell_formula_units_Z   2
loop_
 _symmetry_equiv_pos_site_id
 _symmetry_equiv_pos_as_xyz
  1  'x, y, z'
loop_
 _atom_site_type_symbol
 _atom_site_label
 _atom_site_symmetry_multiplicity
 _atom_site_fract_x
 _atom_site_fract_y
 _atom_site_fract_z
 _atom_site_occupancy
  Ac  Ac0  1  0.248889  0.982047  0.733159  1
  Ac  Ac1  1  0.751111  0.017953  0.266841  1
  Ga  Ga2  1  0.075036  0.301609  0.226574  1
  Ga  Ga3  1  0.924964  0.698391  0.773426  1
  Si  Si4  1  0.408403  0.639036  0.230632  1
  Si  Si5  1  0.591597  0.360964  0.769368  1
  Ir  Ir6  1  0.500000  0.500000  0.500000  1
  Ir  Ir7  1  0.000000  0.500000  0.000000  1
  Ir  Ir8  1  0.282150  0.000000  0.282150  1
  Ir  Ir9  1  0.717850  0.000000  0.717850  1
  Ir  Ir10  1  0.259474  0.500000  0.759474  1
  Ir  Ir11  1  0.740526  0.500000  0.240526  1
