# generated using pymatgen
data_DyY5Br18
_symmetry_space_group_name_H-M   'P 1'
_cell_length_a   7.27470705
_cell_length_b   7.27413926
_cell_length_c   22.97665236
_cell_angle_alpha   89.97805225
_cell_angle_beta   90.01097293
_cell_angle_gamma   119.99742125
_symmetry_Int_Tables_number   1
_chemical_formula_structural   DyY5Br18
_chemical_formula_sum   'Dy1 Y5 Br18'
_cell_volume   1052.99366398
_cell_formula_units_Z   1
loop_
 _symmetry_equiv_pos_site_id
 _symmetry_equiv_pos_as_xyz
  1  'x, y, z'
loop_
 _atom_site_type_symbol
 _atom_site_label
 _atom_site_symmetry_multiplicity
 _atom_site_fract_x
 _atom_site_fract_y
 _atom_site_fract_z
 _atom_site_occupancy
  Dy  Dy0  1  0.221977  0.110989  0.000000  1
  Y  Y1  1  0.554899  0.777449  0.000000  1
  Y  Y2  1  0.222571  0.445244  0.333419  1
  Y  Y3  1  0.888985  0.778052  0.333391  1
  Y  Y4  1  0.888986  0.110935  0.666608  1
  Y  Y5  1  0.222569  0.777326  0.666580  1
  Br  Br6  1  0.520178  0.443363  0.070383  1
  Br  Br7  1  0.889249  0.077041  0.070442  1
  Br  Br8  1  0.256008  0.812279  0.070566  1
  Br  Br9  1  0.188732  0.744529  0.262732  1
  Br  Br10  1  0.922537  0.111720  0.262826  1
  Br  Br11  1  0.555888  0.478906  0.262868  1
  Br  Br12  1  0.922329  0.478190  0.403877  1
  Br  Br13  1  0.189315  0.111408  0.403890  1
  Br  Br14  1  0.555772  0.744825  0.404012  1
  Br  Br15  1  0.555772  0.810947  0.595988  1
  Br  Br16  1  0.189314  0.077907  0.596110  1
  Br  Br17  1  0.922329  0.444138  0.596123  1
  Br  Br18  1  0.555888  0.076983  0.737132  1
  Br  Br19  1  0.922537  0.810817  0.737174  1
  Br  Br20  1  0.188731  0.444203  0.737268  1
  Br  Br21  1  0.256009  0.443728  0.929434  1
  Br  Br22  1  0.889248  0.812208  0.929558  1
  Br  Br23  1  0.520177  0.076815  0.929617  1
