# generated using pymatgen
data_Y3HoAl18PdRh5
_symmetry_space_group_name_H-M   'P 1'
_cell_length_a   7.57868887
_cell_length_b   7.57916098
_cell_length_c   9.47193401
_cell_angle_alpha   90.02729806
_cell_angle_beta   90.02551971
_cell_angle_gamma   119.48352115
_symmetry_Int_Tables_number   1
_chemical_formula_structural   Y3HoAl18PdRh5
_chemical_formula_sum   'Y3 Ho1 Al18 Pd1 Rh5'
_cell_volume   473.61027220
_cell_formula_units_Z   1
loop_
 _symmetry_equiv_pos_site_id
 _symmetry_equiv_pos_as_xyz
  1  'x, y, z'
loop_
 _atom_site_type_symbol
 _atom_site_label
 _atom_site_symmetry_multiplicity
 _atom_site_fract_x
 _atom_site_fract_y
 _atom_site_fract_z
 _atom_site_occupancy
  Y  Y0  1  0.993923  0.670151  0.249509  1
  Y  Y1  1  0.004223  0.328458  0.750280  1
  Y  Y2  1  0.671504  0.995783  0.249723  1
  Ho  Ho3  1  0.329768  0.005973  0.750503  1
  Al  Al4  1  0.127540  0.126613  0.249539  1
  Al  Al5  1  0.873497  0.872475  0.750461  1
  Al  Al6  1  0.000569  0.335041  0.075848  1
  Al  Al7  1  0.000698  0.665008  0.924748  1
  Al  Al8  1  0.003050  0.668714  0.576880  1
  Al  Al9  1  0.331435  0.997101  0.423264  1
  Al  Al10  1  0.005172  0.335684  0.422861  1
  Al  Al11  1  0.664181  0.994832  0.577192  1
  Al  Al12  1  0.664821  0.999431  0.924102  1
  Al  Al13  1  0.335125  0.999440  0.075104  1
  Al  Al14  1  0.330035  0.333212  0.553402  1
  Al  Al15  1  0.666669  0.669961  0.446660  1
  Al  Al16  1  0.667667  0.667644  0.049294  1
  Al  Al17  1  0.332351  0.332213  0.950643  1
  Al  Al18  1  0.340866  0.551075  0.249420  1
  Al  Al19  1  0.659534  0.452610  0.753352  1
  Al  Al20  1  0.547280  0.340305  0.246654  1
  Al  Al21  1  0.448935  0.659274  0.750580  1
  Pd  Pd22  1  0.672193  0.327757  0.500065  1
  Rh  Rh23  1  0.672344  0.327574  0.999919  1
  Rh  Rh24  1  0.328155  0.671872  0.999927  1
  Rh  Rh25  1  0.328146  0.671892  0.500070  1
  Rh  Rh26  1  0.000261  0.999854  0.999916  1
  Rh  Rh27  1  0.000058  0.000054  0.500085  1
