# generated using pymatgen
data_Hf6Al16Ir2Pd5
_symmetry_space_group_name_H-M   'P 1'
_cell_length_a   8.76419835
_cell_length_b   8.76042445
_cell_length_c   8.75824115
_cell_angle_alpha   59.99175802
_cell_angle_beta   60.02984034
_cell_angle_gamma   60.01424706
_symmetry_Int_Tables_number   1
_chemical_formula_structural   Hf6Al16Ir2Pd5
_chemical_formula_sum   'Hf6 Al16 Ir2 Pd5'
_cell_volume   475.61635135
_cell_formula_units_Z   1
loop_
 _symmetry_equiv_pos_site_id
 _symmetry_equiv_pos_as_xyz
  1  'x, y, z'
loop_
 _atom_site_type_symbol
 _atom_site_label
 _atom_site_symmetry_multiplicity
 _atom_site_fract_x
 _atom_site_fract_y
 _atom_site_fract_z
 _atom_site_occupancy
  Hf  Hf0  1  0.683081  0.316759  0.319672  1
  Hf  Hf1  1  0.316919  0.683241  0.680328  1
  Hf  Hf2  1  0.315354  0.681532  0.321583  1
  Hf  Hf3  1  0.684646  0.318468  0.678417  1
  Hf  Hf4  1  0.316919  0.319511  0.680328  1
  Hf  Hf5  1  0.683081  0.680489  0.319672  1
  Al  Al6  1  0.335933  0.336668  0.336715  1
  Al  Al7  1  0.664067  0.663332  0.663285  1
  Al  Al8  1  0.336520  0.336706  0.990067  1
  Al  Al9  1  0.335933  0.990683  0.336715  1
  Al  Al10  1  0.663480  0.663294  0.009933  1
  Al  Al11  1  0.664067  0.009317  0.663285  1
  Al  Al12  1  0.990850  0.336130  0.336889  1
  Al  Al13  1  0.009150  0.663870  0.663111  1
  Al  Al14  1  0.118011  0.117748  0.126267  1
  Al  Al15  1  0.881989  0.882252  0.873733  1
  Al  Al16  1  0.115392  0.124160  0.636289  1
  Al  Al17  1  0.118011  0.637974  0.126267  1
  Al  Al18  1  0.884608  0.875840  0.363711  1
  Al  Al19  1  0.881989  0.362026  0.873733  1
  Al  Al20  1  0.639823  0.120030  0.120116  1
  Al  Al21  1  0.360177  0.879970  0.879884  1
  Ir  Ir22  1  0.000000  0.500000  0.500000  1
  Ir  Ir23  1  0.000000  0.000000  0.500000  1
  Pd  Pd24  1  0.500000  0.000000  0.000000  1
  Pd  Pd25  1  0.000000  0.500000  0.000000  1
  Pd  Pd26  1  0.500000  0.000000  0.500000  1
  Pd  Pd27  1  0.500000  0.500000  0.000000  1
  Pd  Pd28  1  0.000000  0.000000  0.000000  1
