# generated using pymatgen
data_Ac3CuS3O2
_symmetry_space_group_name_H-M   'P 1'
_cell_length_a   14.38353700
_cell_length_b   4.02825900
_cell_length_c   12.83458400
_cell_angle_alpha   90.00000000
_cell_angle_beta   90.00000000
_cell_angle_gamma   90.00000000
_symmetry_Int_Tables_number   1
_chemical_formula_structural   Ac3CuS3O2
_chemical_formula_sum   'Ac12 Cu4 S12 O8'
_cell_volume   743.64365650
_cell_formula_units_Z   4
loop_
 _symmetry_equiv_pos_site_id
 _symmetry_equiv_pos_as_xyz
  1  'x, y, z'
loop_
 _atom_site_type_symbol
 _atom_site_label
 _atom_site_symmetry_multiplicity
 _atom_site_fract_x
 _atom_site_fract_y
 _atom_site_fract_z
 _atom_site_occupancy
  Ac  Ac0  1  0.630005  0.249999  0.096134  1
  Ac  Ac1  1  0.922725  0.249999  0.103179  1
  Ac  Ac2  1  0.207861  0.249999  0.114748  1
  Ac  Ac3  1  0.707861  0.249999  0.385253  1
  Ac  Ac4  1  0.422725  0.249999  0.396821  1
  Ac  Ac5  1  0.130005  0.249999  0.403867  1
  Ac  Ac6  1  0.869995  0.750001  0.596134  1
  Ac  Ac7  1  0.577275  0.750001  0.603179  1
  Ac  Ac8  1  0.292139  0.750001  0.614747  1
  Ac  Ac9  1  0.792139  0.750001  0.885253  1
  Ac  Ac10  1  0.077275  0.750001  0.896822  1
  Ac  Ac11  1  0.369995  0.750001  0.903866  1
  Cu  Cu12  1  0.414672  0.750001  0.171630  1
  Cu  Cu13  1  0.914672  0.750001  0.328370  1
  Cu  Cu14  1  0.085328  0.249999  0.671630  1
  Cu  Cu15  1  0.585328  0.249999  0.828370  1
  S  S16  1  0.413961  0.249999  0.071578  1
  S  S17  1  0.782414  0.750001  0.212326  1
  S  S18  1  0.054051  0.750001  0.237041  1
  S  S19  1  0.554051  0.750001  0.262959  1
  S  S20  1  0.282414  0.750001  0.287674  1
  S  S21  1  0.913961  0.249999  0.428422  1
  S  S22  1  0.086039  0.750001  0.571578  1
  S  S23  1  0.717586  0.249999  0.712326  1
  S  S24  1  0.445949  0.249999  0.737041  1
  S  S25  1  0.945949  0.249999  0.762959  1
  S  S26  1  0.217586  0.249999  0.787674  1
  S  S27  1  0.586040  0.750001  0.928422  1
  O  O28  1  0.073238  0.249999  0.006877  1
  O  O29  1  0.229841  0.750001  0.006276  1
  O  O30  1  0.729841  0.750001  0.493724  1
  O  O31  1  0.573238  0.249999  0.493123  1
  O  O32  1  0.426762  0.750001  0.506877  1
  O  O33  1  0.270159  0.249999  0.506276  1
  O  O34  1  0.770159  0.249999  0.993724  1
  O  O35  1  0.926762  0.750001  0.993123  1
