# generated using pymatgen
data_Th2ReOs3
_symmetry_space_group_name_H-M   'P 1'
_cell_length_a   5.33397792
_cell_length_b   5.65369969
_cell_length_c   5.65369900
_cell_angle_alpha   59.99998649
_cell_angle_beta   57.99653763
_cell_angle_gamma   57.99652878
_symmetry_Int_Tables_number   1
_chemical_formula_structural   Th2ReOs3
_chemical_formula_sum   'Th2 Re1 Os3'
_cell_volume   116.77872909
_cell_formula_units_Z   1
loop_
 _symmetry_equiv_pos_site_id
 _symmetry_equiv_pos_as_xyz
  1  'x, y, z'
loop_
 _atom_site_type_symbol
 _atom_site_label
 _atom_site_symmetry_multiplicity
 _atom_site_fract_x
 _atom_site_fract_y
 _atom_site_fract_z
 _atom_site_occupancy
  Th  Th0  1  0.747989  0.750670  0.750670  1
  Th  Th1  1  0.502011  0.499330  0.499330  1
  Re  Re2  1  0.625000  0.125000  0.125000  1
  Os  Os3  1  0.125000  0.125000  0.125000  1
  Os  Os4  1  0.125000  0.625000  0.125000  1
  Os  Os5  1  0.125000  0.125000  0.625000  1
