# generated using pymatgen
data_Gd2Er3Tm3(WO6)4
_symmetry_space_group_name_H-M   'P 1'
_cell_length_a   5.38386505
_cell_length_b   7.68017729
_cell_length_c   11.43482213
_cell_angle_alpha   75.39309396
_cell_angle_beta   90.00412753
_cell_angle_gamma   90.01570863
_symmetry_Int_Tables_number   1
_chemical_formula_structural   Gd2Er3Tm3(WO6)4
_chemical_formula_sum   'Gd2 Er3 Tm3 W4 O24'
_cell_volume   457.53679554
_cell_formula_units_Z   1
loop_
 _symmetry_equiv_pos_site_id
 _symmetry_equiv_pos_as_xyz
  1  'x, y, z'
loop_
 _atom_site_type_symbol
 _atom_site_label
 _atom_site_symmetry_multiplicity
 _atom_site_fract_x
 _atom_site_fract_y
 _atom_site_fract_z
 _atom_site_occupancy
  Gd  Gd0  1  0.685079  0.499686  0.750259  1
  Gd  Gd1  1  0.315071  0.499941  0.249973  1
  Er  Er2  1  0.740968  0.000162  0.750271  1
  Er  Er3  1  0.259097  0.000149  0.249780  1
  Er  Er4  1  0.185936  0.796957  0.577670  1
  Tm  Tm5  1  0.814253  0.796679  0.077863  1
  Tm  Tm6  1  0.185700  0.203346  0.922064  1
  Tm  Tm7  1  0.814117  0.203566  0.421974  1
  W  W8  1  0.254633  0.725283  0.885561  1
  W  W9  1  0.745643  0.725214  0.385060  1
  W  W10  1  0.254490  0.274534  0.614652  1
  W  W11  1  0.745520  0.274645  0.114653  1
  O  O12  1  0.041325  0.941691  0.896182  1
  O  O13  1  0.534822  0.847504  0.931512  1
  O  O14  1  0.958525  0.941909  0.395795  1
  O  O15  1  0.458615  0.793262  0.726856  1
  O  O16  1  0.466035  0.848018  0.430530  1
  O  O17  1  0.983511  0.715461  0.769907  1
  O  O18  1  0.542324  0.793319  0.226071  1
  O  O19  1  0.854307  0.637130  0.547838  1
  O  O20  1  0.355207  0.489277  0.887606  1
  O  O21  1  0.016321  0.715613  0.269325  1
  O  O22  1  0.356125  0.510162  0.612485  1
  O  O23  1  0.855652  0.362208  0.952097  1
  O  O24  1  0.144368  0.637703  0.048041  1
  O  O25  1  0.644539  0.489180  0.387371  1
  O  O26  1  0.983986  0.284548  0.730780  1
  O  O27  1  0.644756  0.510625  0.112423  1
  O  O28  1  0.144449  0.362324  0.452021  1
  O  O29  1  0.457653  0.206352  0.773817  1
  O  O30  1  0.016096  0.284402  0.230602  1
  O  O31  1  0.534568  0.152328  0.568762  1
  O  O32  1  0.542237  0.206587  0.273715  1
  O  O33  1  0.040139  0.059253  0.603902  1
  O  O34  1  0.465159  0.152616  0.068752  1
  O  O35  1  0.958771  0.058369  0.103830  1
