# generated using pymatgen
data_Y2TmPa3(Co3P2)6
_symmetry_space_group_name_H-M   'P 1'
_cell_length_a   3.71888600
_cell_length_b   10.44583850
_cell_length_c   12.16933427
_cell_angle_alpha   90.07664875
_cell_angle_beta   90.00000000
_cell_angle_gamma   90.00000000
_symmetry_Int_Tables_number   1
_chemical_formula_structural   Y2TmPa3(Co3P2)6
_chemical_formula_sum   'Y2 Tm1 Pa3 Co18 P12'
_cell_volume   472.74027578
_cell_formula_units_Z   1
loop_
 _symmetry_equiv_pos_site_id
 _symmetry_equiv_pos_as_xyz
  1  'x, y, z'
loop_
 _atom_site_type_symbol
 _atom_site_label
 _atom_site_symmetry_multiplicity
 _atom_site_fract_x
 _atom_site_fract_y
 _atom_site_fract_z
 _atom_site_occupancy
  Y  Y0  1  0.500000  0.186631  0.205642  1
  Y  Y1  1  0.000000  0.685209  0.794393  1
  Tm  Tm2  1  0.000000  0.314525  0.792786  1
  Pa  Pa3  1  0.000000  0.498633  0.528827  1
  Pa  Pa4  1  0.500000  0.000774  0.474466  1
  Pa  Pa5  1  0.500000  0.817967  0.208111  1
  Co  Co6  1  0.500000  0.499828  0.159565  1
  Co  Co7  1  0.000000  0.999713  0.843151  1
  Co  Co8  1  0.500000  0.498334  0.695795  1
  Co  Co9  1  0.000000  0.993858  0.300101  1
  Co  Co10  1  0.000000  0.499199  0.980935  1
  Co  Co11  1  0.500000  0.000851  0.015566  1
  Co  Co12  1  0.500000  0.335008  0.992090  1
  Co  Co13  1  0.500000  0.665523  0.994403  1
  Co  Co14  1  0.000000  0.168250  0.005191  1
  Co  Co15  1  0.000000  0.834664  0.007788  1
  Co  Co16  1  0.500000  0.301024  0.431624  1
  Co  Co17  1  0.500000  0.696452  0.430406  1
  Co  Co18  1  0.000000  0.196073  0.568504  1
  Co  Co19  1  0.000000  0.803142  0.571167  1
  Co  Co20  1  0.500000  0.881386  0.712420  1
  Co  Co21  1  0.500000  0.120364  0.712595  1
  Co  Co22  1  0.000000  0.622698  0.286440  1
  Co  Co23  1  0.000000  0.381232  0.288718  1
  P  P24  1  0.500000  0.498920  0.876467  1
  P  P25  1  0.000000  0.003410  0.118479  1
  P  P26  1  0.500000  0.498661  0.343652  1
  P  P27  1  0.000000  0.999748  0.658932  1
  P  P28  1  0.500000  0.305714  0.617246  1
  P  P29  1  0.500000  0.692833  0.617283  1
  P  P30  1  0.000000  0.190770  0.382500  1
  P  P31  1  0.000000  0.806238  0.388936  1
  P  P32  1  0.500000  0.847990  0.894802  1
  P  P33  1  0.500000  0.154462  0.893745  1
  P  P34  1  0.000000  0.650079  0.102517  1
  P  P35  1  0.000000  0.349834  0.104757  1
