# generated using pymatgen
data_Tb7(AsS3)2
_symmetry_space_group_name_H-M   'P 1'
_cell_length_a   7.99710900
_cell_length_b   7.99710850
_cell_length_c   7.99710900
_cell_angle_alpha   119.99999794
_cell_angle_beta   90.00000000
_cell_angle_gamma   119.99999794
_symmetry_Int_Tables_number   1
_chemical_formula_structural   Tb7(AsS3)2
_chemical_formula_sum   'Tb7 As2 S6'
_cell_volume   361.64631837
_cell_formula_units_Z   1
loop_
 _symmetry_equiv_pos_site_id
 _symmetry_equiv_pos_as_xyz
  1  'x, y, z'
loop_
 _atom_site_type_symbol
 _atom_site_label
 _atom_site_symmetry_multiplicity
 _atom_site_fract_x
 _atom_site_fract_y
 _atom_site_fract_z
 _atom_site_occupancy
  Tb  Tb0  1  0.250011  0.000000  0.250011  1
  Tb  Tb1  1  0.250011  0.500021  0.250011  1
  Tb  Tb2  1  0.749989  0.000000  0.250012  1
  Tb  Tb3  1  0.250001  0.500001  0.750002  1
  Tb  Tb4  1  0.250012  0.000000  0.749989  1
  Tb  Tb5  1  0.749989  0.000000  0.749989  1
  Tb  Tb6  1  0.749989  0.499978  0.749989  1
  As  As7  1  0.000000  0.000000  0.000000  1
  As  As8  1  0.500000  0.000000  0.500000  1
  S  S9  1  0.005081  0.010163  0.505083  1
  S  S10  1  0.005081  0.500001  0.505083  1
  S  S11  1  0.494920  0.500001  0.505083  1
  S  S12  1  0.005083  0.500001  0.994919  1
  S  S13  1  0.494918  0.500001  0.994919  1
  S  S14  1  0.494918  0.989836  0.994919  1
