# generated using pymatgen
data_Tb3YGa12Au
_symmetry_space_group_name_H-M   'P 1'
_cell_length_a   7.54167509
_cell_length_b   7.55677118
_cell_length_c   7.54167514
_cell_angle_alpha   109.51178955
_cell_angle_beta   109.43064059
_cell_angle_gamma   109.51177400
_symmetry_Int_Tables_number   1
_chemical_formula_structural   Tb3YGa12Au
_chemical_formula_sum   'Tb3 Y1 Ga12 Au1'
_cell_volume   330.69856847
_cell_formula_units_Z   1
loop_
 _symmetry_equiv_pos_site_id
 _symmetry_equiv_pos_as_xyz
  1  'x, y, z'
loop_
 _atom_site_type_symbol
 _atom_site_label
 _atom_site_symmetry_multiplicity
 _atom_site_fract_x
 _atom_site_fract_y
 _atom_site_fract_z
 _atom_site_occupancy
  Tb  Tb0  1  0.000000  0.000000  0.500000  1
  Tb  Tb1  1  0.500000  0.000000  0.000000  1
  Tb  Tb2  1  0.500000  0.500000  0.500000  1
  Y  Y3  1  0.000000  0.500000  0.000000  1
  Ga  Ga4  1  0.750010  0.250010  0.500021  1
  Ga  Ga5  1  0.750010  0.500000  0.249990  1
  Ga  Ga6  1  0.500021  0.250010  0.750010  1
  Ga  Ga7  1  0.249990  0.500000  0.750010  1
  Ga  Ga8  1  0.249990  0.749990  0.499979  1
  Ga  Ga9  1  0.499979  0.749990  0.249990  1
  Ga  Ga10  1  0.693864  0.694377  0.000000  1
  Ga  Ga11  1  0.306136  0.000514  0.306136  1
  Ga  Ga12  1  0.000000  0.305623  0.306136  1
  Ga  Ga13  1  0.306136  0.305623  0.000000  1
  Ga  Ga14  1  0.693864  0.999486  0.693864  1
  Ga  Ga15  1  0.000000  0.694377  0.693864  1
  Au  Au16  1  0.000000  0.000000  0.000000  1
