# generated using pymatgen
data_Tb2U(SnRh)3
_symmetry_space_group_name_H-M   'P 1'
_cell_length_a   7.48760034
_cell_length_b   7.62556784
_cell_length_c   3.90713400
_cell_angle_alpha   90.00000000
_cell_angle_beta   90.00000000
_cell_angle_gamma   120.61142078
_symmetry_Int_Tables_number   1
_chemical_formula_structural   Tb2U(SnRh)3
_chemical_formula_sum   'Tb2 U1 Sn3 Rh3'
_cell_volume   191.99722479
_cell_formula_units_Z   1
loop_
 _symmetry_equiv_pos_site_id
 _symmetry_equiv_pos_as_xyz
  1  'x, y, z'
loop_
 _atom_site_type_symbol
 _atom_site_label
 _atom_site_symmetry_multiplicity
 _atom_site_fract_x
 _atom_site_fract_y
 _atom_site_fract_z
 _atom_site_occupancy
  Tb  Tb0  1  0.406671  0.407436  0.500000  1
  Tb  Tb1  1  0.593329  0.000766  0.500000  1
  U  U2  1  0.000000  0.584348  0.500000  1
  Sn  Sn3  1  0.729459  0.742497  0.000000  1
  Sn  Sn4  1  0.270541  0.013037  0.000000  1
  Sn  Sn5  1  0.000000  0.243475  0.000000  1
  Rh  Rh6  1  0.700094  0.363097  0.000000  1
  Rh  Rh7  1  0.299906  0.663004  0.000000  1
  Rh  Rh8  1  0.000000  0.982340  0.500000  1
