# generated using pymatgen
data_Dy3YCr4F28
_symmetry_space_group_name_H-M   'P 1'
_cell_length_a   5.50146834
_cell_length_b   8.73924204
_cell_length_c   11.65631400
_cell_angle_alpha   63.10647240
_cell_angle_beta   90.02003776
_cell_angle_gamma   90.00252728
_symmetry_Int_Tables_number   1
_chemical_formula_structural   Dy3YCr4F28
_chemical_formula_sum   'Dy3 Y1 Cr4 F28'
_cell_volume   499.80977330
_cell_formula_units_Z   1
loop_
 _symmetry_equiv_pos_site_id
 _symmetry_equiv_pos_as_xyz
  1  'x, y, z'
loop_
 _atom_site_type_symbol
 _atom_site_label
 _atom_site_symmetry_multiplicity
 _atom_site_fract_x
 _atom_site_fract_y
 _atom_site_fract_z
 _atom_site_occupancy
  Dy  Dy0  1  0.266158  0.809299  0.265984  1
  Dy  Dy1  1  0.733507  0.191549  0.733898  1
  Dy  Dy2  1  0.766232  0.191035  0.233983  1
  Y  Y3  1  0.233645  0.809498  0.765984  1
  Cr  Cr4  1  0.757762  0.725923  0.044412  1
  Cr  Cr5  1  0.242138  0.273437  0.956429  1
  Cr  Cr6  1  0.258080  0.274612  0.455882  1
  Cr  Cr7  1  0.742729  0.725898  0.543309  1
  F  F8  1  0.936262  0.705748  0.422777  1
  F  F9  1  0.063649  0.294031  0.576312  1
  F  F10  1  0.436616  0.293584  0.076589  1
  F  F11  1  0.564231  0.705775  0.923852  1
  F  F12  1  0.479430  0.729646  0.138294  1
  F  F13  1  0.520171  0.270546  0.862112  1
  F  F14  1  0.980572  0.270696  0.361508  1
  F  F15  1  0.021754  0.729040  0.637014  1
  F  F16  1  0.950759  0.744662  0.168636  1
  F  F17  1  0.048223  0.254771  0.832301  1
  F  F18  1  0.452136  0.255853  0.332032  1
  F  F19  1  0.550073  0.743976  0.667949  1
  F  F20  1  0.766378  0.490574  0.139085  1
  F  F21  1  0.231929  0.508706  0.861557  1
  F  F22  1  0.267289  0.509700  0.361329  1
  F  F23  1  0.733210  0.490559  0.637883  1
  F  F24  1  0.956570  0.282447  0.044816  1
  F  F25  1  0.043947  0.716537  0.956624  1
  F  F26  1  0.456520  0.716970  0.455245  1
  F  F27  1  0.543667  0.283354  0.544463  1
  F  F28  1  0.742971  0.959865  0.453521  1
  F  F29  1  0.257964  0.040553  0.545623  1
  F  F30  1  0.242569  0.039457  0.046206  1
  F  F31  1  0.757258  0.959823  0.954240  1
  F  F32  1  0.585213  0.974964  0.227700  1
  F  F33  1  0.413048  0.026854  0.772690  1
  F  F34  1  0.085332  0.025337  0.272349  1
  F  F35  1  0.912009  0.974719  0.727409  1
