# generated using pymatgen
data_Y20(Bi3Te)3
_symmetry_space_group_name_H-M   'P 1'
_cell_length_a   8.22756470
_cell_length_b   9.47080100
_cell_length_c   12.04978548
_cell_angle_alpha   90.00000000
_cell_angle_beta   89.92642200
_cell_angle_gamma   90.00000000
_symmetry_Int_Tables_number   1
_chemical_formula_structural   Y20(Bi3Te)3
_chemical_formula_sum   'Y20 Bi9 Te3'
_cell_volume   938.93812716
_cell_formula_units_Z   1
loop_
 _symmetry_equiv_pos_site_id
 _symmetry_equiv_pos_as_xyz
  1  'x, y, z'
loop_
 _atom_site_type_symbol
 _atom_site_label
 _atom_site_symmetry_multiplicity
 _atom_site_fract_x
 _atom_site_fract_y
 _atom_site_fract_z
 _atom_site_occupancy
  Y  Y0  1  0.026637  0.750000  0.988570  1
  Y  Y1  1  0.527565  0.750000  0.511871  1
  Y  Y2  1  0.974182  0.250000  0.010974  1
  Y  Y3  1  0.474401  0.250000  0.489756  1
  Y  Y4  1  0.180711  0.750000  0.717317  1
  Y  Y5  1  0.680153  0.750000  0.783133  1
  Y  Y6  1  0.815202  0.250000  0.279838  1
  Y  Y7  1  0.319214  0.250000  0.216484  1
  Y  Y8  1  0.309737  0.439277  0.942102  1
  Y  Y9  1  0.807938  0.059412  0.559030  1
  Y  Y10  1  0.690394  0.938869  0.058031  1
  Y  Y11  1  0.191893  0.564360  0.441593  1
  Y  Y12  1  0.690394  0.561131  0.058031  1
  Y  Y13  1  0.191893  0.935640  0.441593  1
  Y  Y14  1  0.309737  0.060723  0.942102  1
  Y  Y15  1  0.807938  0.440588  0.559030  1
  Y  Y16  1  0.354926  0.750000  0.211799  1
  Y  Y17  1  0.854739  0.750000  0.286951  1
  Y  Y18  1  0.644514  0.250000  0.788094  1
  Y  Y19  1  0.146795  0.250000  0.715096  1
  Bi  Bi20  1  0.431837  0.003564  0.675022  1
  Bi  Bi21  1  0.931351  0.496317  0.825790  1
  Bi  Bi22  1  0.568275  0.504333  0.325869  1
  Bi  Bi23  1  0.068402  0.995686  0.173645  1
  Bi  Bi24  1  0.568275  0.995667  0.325869  1
  Bi  Bi25  1  0.068402  0.504314  0.173645  1
  Bi  Bi26  1  0.431837  0.496436  0.675022  1
  Bi  Bi27  1  0.931351  0.003683  0.825790  1
  Bi  Bi28  1  0.090474  0.250000  0.457085  1
  Te  Te29  1  0.409579  0.750000  0.959247  1
  Te  Te30  1  0.910419  0.750000  0.540758  1
  Te  Te31  1  0.590835  0.250000  0.040864  1
