# generated using pymatgen
data_Er3Hf(Co5P3)4
_symmetry_space_group_name_H-M   'P 1'
_cell_length_a   11.69587378
_cell_length_b   3.63461200
_cell_length_c   10.22238568
_cell_angle_alpha   90.00000000
_cell_angle_beta   90.04179282
_cell_angle_gamma   90.00000000
_symmetry_Int_Tables_number   1
_chemical_formula_structural   Er3Hf(Co5P3)4
_chemical_formula_sum   'Er3 Hf1 Co20 P12'
_cell_volume   434.55312329
_cell_formula_units_Z   1
loop_
 _symmetry_equiv_pos_site_id
 _symmetry_equiv_pos_as_xyz
  1  'x, y, z'
loop_
 _atom_site_type_symbol
 _atom_site_label
 _atom_site_symmetry_multiplicity
 _atom_site_fract_x
 _atom_site_fract_y
 _atom_site_fract_z
 _atom_site_occupancy
  Er  Er0  1  0.297214  0.750001  0.417274  1
  Er  Er1  1  0.702829  0.250000  0.582457  1
  Er  Er2  1  0.202966  0.250000  0.917770  1
  Hf  Hf3  1  0.799065  0.750001  0.081637  1
  Co  Co4  1  0.434270  0.250000  0.032798  1
  Co  Co5  1  0.982489  0.250000  0.093366  1
  Co  Co6  1  0.301622  0.750001  0.116683  1
  Co  Co7  1  0.506915  0.750001  0.217798  1
  Co  Co8  1  0.175980  0.250000  0.220498  1
  Co  Co9  1  0.678005  0.250000  0.275124  1
  Co  Co10  1  0.006615  0.750001  0.281176  1
  Co  Co11  1  0.800269  0.750001  0.380007  1
  Co  Co12  1  0.487991  0.250000  0.407156  1
  Co  Co13  1  0.930708  0.250000  0.465307  1
  Co  Co14  1  0.067713  0.750001  0.531907  1
  Co  Co15  1  0.512163  0.750001  0.592933  1
  Co  Co16  1  0.198298  0.250000  0.617521  1
  Co  Co17  1  0.990451  0.250000  0.718128  1
  Co  Co18  1  0.322999  0.750001  0.722305  1
  Co  Co19  1  0.822418  0.750001  0.778965  1
  Co  Co20  1  0.493852  0.250000  0.783003  1
  Co  Co21  1  0.701983  0.250000  0.887076  1
  Co  Co22  1  0.009920  0.750001  0.909977  1
  Co  Co23  1  0.572623  0.750001  0.969956  1
  P  P24  1  0.616577  0.250000  0.081200  1
  P  P25  1  0.109456  0.750001  0.101265  1
  P  P26  1  0.370172  0.250000  0.229823  1
  P  P27  1  0.867944  0.250000  0.266522  1
  P  P28  1  0.608733  0.750001  0.398818  1
  P  P29  1  0.112118  0.250000  0.418281  1
  P  P30  1  0.886920  0.750001  0.580609  1
  P  P31  1  0.390717  0.250000  0.601864  1
  P  P32  1  0.128767  0.750001  0.730777  1
  P  P33  1  0.629711  0.750001  0.769896  1
  P  P34  1  0.889931  0.250000  0.901190  1
  P  P35  1  0.389595  0.750001  0.918931  1
