# generated using pymatgen
data_Ni(PtO3)2
_symmetry_space_group_name_H-M   'P 1'
_cell_length_a   4.57879100
_cell_length_b   4.57879100
_cell_length_c   9.44368500
_cell_angle_alpha   90.00000000
_cell_angle_beta   90.00000000
_cell_angle_gamma   89.99602077
_symmetry_Int_Tables_number   1
_chemical_formula_structural   Ni(PtO3)2
_chemical_formula_sum   'Ni2 Pt4 O12'
_cell_volume   197.98994408
_cell_formula_units_Z   2
loop_
 _symmetry_equiv_pos_site_id
 _symmetry_equiv_pos_as_xyz
  1  'x, y, z'
loop_
 _atom_site_type_symbol
 _atom_site_label
 _atom_site_symmetry_multiplicity
 _atom_site_fract_x
 _atom_site_fract_y
 _atom_site_fract_z
 _atom_site_occupancy
  Ni  Ni0  1  0.000000  0.000000  0.000000  1
  Ni  Ni1  1  0.500000  0.500000  0.500000  1
  Pt  Pt2  1  0.500000  0.500000  0.168164  1
  Pt  Pt3  1  0.000000  0.000000  0.331842  1
  Pt  Pt4  1  0.000000  0.000000  0.668158  1
  Pt  Pt5  1  0.500000  0.500000  0.831836  1
  O  O6  1  0.310105  0.310105  0.000000  1
  O  O7  1  0.689895  0.689895  0.000000  1
  O  O8  1  0.806070  0.193932  0.165689  1
  O  O9  1  0.193932  0.806070  0.165689  1
  O  O10  1  0.306078  0.306078  0.334310  1
  O  O11  1  0.693924  0.693924  0.334310  1
  O  O12  1  0.810099  0.189901  0.500000  1
  O  O13  1  0.189901  0.810099  0.500000  1
  O  O14  1  0.306078  0.306078  0.665690  1
  O  O15  1  0.693924  0.693924  0.665690  1
  O  O16  1  0.806070  0.193932  0.834311  1
  O  O17  1  0.193932  0.806070  0.834311  1
