# generated using pymatgen
data_SmHoSc3Si7Pt9
_symmetry_space_group_name_H-M   'P 1'
_cell_length_a   10.05506600
_cell_length_b   10.05506685
_cell_length_c   3.98998500
_cell_angle_alpha   90.00000000
_cell_angle_beta   90.00000000
_cell_angle_gamma   120.00000377
_symmetry_Int_Tables_number   1
_chemical_formula_structural   SmHoSc3Si7Pt9
_chemical_formula_sum   'Sm1 Ho1 Sc3 Si7 Pt9'
_cell_volume   349.35886356
_cell_formula_units_Z   1
loop_
 _symmetry_equiv_pos_site_id
 _symmetry_equiv_pos_as_xyz
  1  'x, y, z'
loop_
 _atom_site_type_symbol
 _atom_site_label
 _atom_site_symmetry_multiplicity
 _atom_site_fract_x
 _atom_site_fract_y
 _atom_site_fract_z
 _atom_site_occupancy
  Sm  Sm0  1  0.000000  0.000000  0.000000  1
  Ho  Ho1  1  0.333333  0.666667  0.500000  1
  Sc  Sc2  1  0.894739  0.455257  0.500000  1
  Sc  Sc3  1  0.560519  0.105261  0.500000  1
  Sc  Sc4  1  0.544743  0.439481  0.500000  1
  Si  Si5  1  0.247372  0.196429  0.500000  1
  Si  Si6  1  0.803571  0.050943  0.500000  1
  Si  Si7  1  0.949057  0.752628  0.500000  1
  Si  Si8  1  0.556337  0.647118  0.000000  1
  Si  Si9  1  0.352882  0.909218  0.000000  1
  Si  Si10  1  0.090782  0.443663  0.000000  1
  Si  Si11  1  0.666667  0.333333  0.000000  1
  Pt  Pt12  1  0.220272  0.935663  0.500000  1
  Pt  Pt13  1  0.064337  0.284611  0.500000  1
  Pt  Pt14  1  0.715389  0.779728  0.500000  1
  Pt  Pt15  1  0.314161  0.413523  0.000000  1
  Pt  Pt16  1  0.586477  0.900639  0.000000  1
  Pt  Pt17  1  0.099361  0.685839  0.000000  1
  Pt  Pt18  1  0.384419  0.171709  0.000000  1
  Pt  Pt19  1  0.828291  0.212710  0.000000  1
  Pt  Pt20  1  0.787290  0.615581  0.000000  1
