# generated using pymatgen
data_Th2Si5TcIr2
_symmetry_space_group_name_H-M   'P 1'
_cell_length_a   8.26136739
_cell_length_b   8.26136728
_cell_length_c   8.26136738
_cell_angle_alpha   137.06830904
_cell_angle_beta   106.48128813
_cell_angle_gamma   89.09076128
_symmetry_Int_Tables_number   1
_chemical_formula_structural   Th2Si5TcIr2
_chemical_formula_sum   'Th4 Si10 Tc2 Ir4'
_cell_volume   352.02134554
_cell_formula_units_Z   2
loop_
 _symmetry_equiv_pos_site_id
 _symmetry_equiv_pos_as_xyz
  1  'x, y, z'
loop_
 _atom_site_type_symbol
 _atom_site_label
 _atom_site_symmetry_multiplicity
 _atom_site_fract_x
 _atom_site_fract_y
 _atom_site_fract_z
 _atom_site_occupancy
  Th  Th0  1  0.863992  0.627717  0.236276  1
  Th  Th1  1  0.136009  0.372283  0.763724  1
  Th  Th2  1  0.391441  0.127717  0.263724  1
  Th  Th3  1  0.608559  0.872283  0.736276  1
  Si  Si4  1  0.500000  0.750000  0.250000  1
  Si  Si5  1  0.500000  0.250000  0.750000  1
  Si  Si6  1  0.226243  0.976243  0.750000  1
  Si  Si7  1  0.773757  0.523757  0.750000  1
  Si  Si8  1  0.773757  0.023757  0.250000  1
  Si  Si9  1  0.226243  0.476243  0.250000  1
  Si  Si10  1  0.041786  0.894242  0.147544  1
  Si  Si11  1  0.958214  0.105758  0.852456  1
  Si  Si12  1  0.746698  0.394242  0.352456  1
  Si  Si13  1  0.253302  0.605758  0.647544  1
  Tc  Tc14  1  0.000000  0.750000  0.750000  1
  Tc  Tc15  1  0.000000  0.250000  0.250000  1
  Ir  Ir16  1  0.247328  0.859677  0.387650  1
  Ir  Ir17  1  0.752672  0.140323  0.612350  1
  Ir  Ir18  1  0.472027  0.359677  0.112350  1
  Ir  Ir19  1  0.527973  0.640323  0.887650  1
