# generated using pymatgen
data_ErZn3P7N12
_symmetry_space_group_name_H-M   'P 1'
_cell_length_a   7.24945513
_cell_length_b   7.26358971
_cell_length_c   7.24945572
_cell_angle_alpha   109.51072303
_cell_angle_beta   109.43169540
_cell_angle_gamma   109.51071546
_symmetry_Int_Tables_number   1
_chemical_formula_structural   ErZn3P7N12
_chemical_formula_sum   'Er1 Zn3 P7 N12'
_cell_volume   293.71642496
_cell_formula_units_Z   1
loop_
 _symmetry_equiv_pos_site_id
 _symmetry_equiv_pos_as_xyz
  1  'x, y, z'
loop_
 _atom_site_type_symbol
 _atom_site_label
 _atom_site_symmetry_multiplicity
 _atom_site_fract_x
 _atom_site_fract_y
 _atom_site_fract_z
 _atom_site_occupancy
  Er  Er0  1  0.000000  0.327692  0.000000  1
  Zn  Zn1  1  0.669730  0.667463  0.669730  1
  Zn  Zn2  1  0.330270  0.997732  0.000000  1
  Zn  Zn3  1  0.000000  0.997732  0.330270  1
  P  P4  1  0.746579  0.251701  0.494423  1
  P  P5  1  0.252156  0.757278  0.505577  1
  P  P6  1  0.505577  0.757278  0.252156  1
  P  P7  1  0.494423  0.251701  0.746579  1
  P  P8  1  0.747844  0.505122  0.253421  1
  P  P9  1  0.253421  0.505122  0.747844  1
  P  P10  1  0.000000  0.962069  0.000000  1
  N  N11  1  0.568834  0.276907  0.000000  1
  N  N12  1  0.438318  0.440809  0.709788  1
  N  N13  1  0.000000  0.276907  0.568834  1
  N  N14  1  0.271469  0.002490  0.561682  1
  N  N15  1  0.709788  0.440809  0.438318  1
  N  N16  1  0.000000  0.565355  0.287481  1
  N  N17  1  0.561682  0.002490  0.271469  1
  N  N18  1  0.431166  0.708073  0.431166  1
  N  N19  1  0.287481  0.565355  0.000000  1
  N  N20  1  0.712519  0.277874  0.712519  1
  N  N21  1  0.728531  0.731021  0.290212  1
  N  N22  1  0.290212  0.731021  0.728531  1
