# generated using pymatgen
data_Tm16MgAg3PtRh3
_symmetry_space_group_name_H-M   'P 1'
_cell_length_a   9.47012688
_cell_length_b   9.46706329
_cell_length_c   9.46706230
_cell_angle_alpha   59.85237310
_cell_angle_beta   59.86916614
_cell_angle_gamma   59.86915944
_symmetry_Int_Tables_number   1
_chemical_formula_structural   Tm16MgAg3PtRh3
_chemical_formula_sum   'Tm16 Mg1 Ag3 Pt1 Rh3'
_cell_volume   598.30778750
_cell_formula_units_Z   1
loop_
 _symmetry_equiv_pos_site_id
 _symmetry_equiv_pos_as_xyz
  1  'x, y, z'
loop_
 _atom_site_type_symbol
 _atom_site_label
 _atom_site_symmetry_multiplicity
 _atom_site_fract_x
 _atom_site_fract_y
 _atom_site_fract_z
 _atom_site_occupancy
  Tm  Tm0  1  0.601125  0.598750  0.598750  1
  Tm  Tm1  1  0.604290  0.601686  0.197217  1
  Tm  Tm2  1  0.604290  0.197217  0.601686  1
  Tm  Tm3  1  0.182354  0.607275  0.607275  1
  Tm  Tm4  1  0.056503  0.439506  0.439506  1
  Tm  Tm5  1  0.434767  0.063072  0.063072  1
  Tm  Tm6  1  0.436764  0.059692  0.437217  1
  Tm  Tm7  1  0.060640  0.437287  0.061239  1
  Tm  Tm8  1  0.436764  0.437217  0.059692  1
  Tm  Tm9  1  0.060640  0.061239  0.437287  1
  Tm  Tm10  1  0.183387  0.815147  0.815147  1
  Tm  Tm11  1  0.815239  0.185569  0.185569  1
  Tm  Tm12  1  0.814334  0.185795  0.816073  1
  Tm  Tm13  1  0.183442  0.814987  0.188118  1
  Tm  Tm14  1  0.814334  0.816073  0.185795  1
  Tm  Tm15  1  0.183442  0.188118  0.814987  1
  Mg  Mg16  1  0.535336  0.821443  0.821443  1
  Ag  Ag17  1  0.833646  0.835142  0.835142  1
  Ag  Ag18  1  0.833562  0.834904  0.497644  1
  Ag  Ag19  1  0.833562  0.497644  0.834904  1
  Pt  Pt20  1  0.390596  0.395331  0.395331  1
  Rh  Rh21  1  0.389953  0.395294  0.819232  1
  Rh  Rh22  1  0.389953  0.819232  0.395294  1
  Rh  Rh23  1  0.821071  0.392379  0.392379  1
