# generated using pymatgen
data_Yb3Sc(Rh2O7)2
_symmetry_space_group_name_H-M   'P 1'
_cell_length_a   7.12388395
_cell_length_b   7.17586035
_cell_length_c   7.17585900
_cell_angle_alpha   60.00000161
_cell_angle_beta   59.75835446
_cell_angle_gamma   59.75836525
_symmetry_Int_Tables_number   1
_chemical_formula_structural   Yb3Sc(Rh2O7)2
_chemical_formula_sum   'Yb3 Sc1 Rh4 O14'
_cell_volume   258.43647700
_cell_formula_units_Z   1
loop_
 _symmetry_equiv_pos_site_id
 _symmetry_equiv_pos_as_xyz
  1  'x, y, z'
loop_
 _atom_site_type_symbol
 _atom_site_label
 _atom_site_symmetry_multiplicity
 _atom_site_fract_x
 _atom_site_fract_y
 _atom_site_fract_z
 _atom_site_occupancy
  Yb  Yb0  1  0.625000  0.625000  0.125000  1
  Yb  Yb1  1  0.625000  0.625000  0.625000  1
  Yb  Yb2  1  0.625000  0.125000  0.625000  1
  Sc  Sc3  1  0.125000  0.625000  0.625000  1
  Rh  Rh4  1  0.625000  0.125000  0.125000  1
  Rh  Rh5  1  0.125000  0.125000  0.125000  1
  Rh  Rh6  1  0.125000  0.625000  0.125000  1
  Rh  Rh7  1  0.125000  0.125000  0.625000  1
  O  O8  1  0.057096  0.454954  0.454954  1
  O  O9  1  0.793818  0.792736  0.206722  1
  O  O10  1  0.793818  0.206722  0.206722  1
  O  O11  1  0.057096  0.454954  0.032995  1
  O  O12  1  0.456182  0.043278  0.457264  1
  O  O13  1  0.779112  0.740296  0.740296  1
  O  O14  1  0.057096  0.032995  0.454954  1
  O  O15  1  0.793818  0.206722  0.792736  1
  O  O16  1  0.470888  0.509704  0.509704  1
  O  O17  1  0.192904  0.217005  0.795046  1
  O  O18  1  0.192904  0.795046  0.217005  1
  O  O19  1  0.456182  0.043278  0.043278  1
  O  O20  1  0.456182  0.457264  0.043278  1
  O  O21  1  0.192904  0.795046  0.795046  1
