# generated using pymatgen
data_ZnBi3O8
_symmetry_space_group_name_H-M   'P 1'
_cell_length_a   5.00587330
_cell_length_b   10.00252003
_cell_length_c   10.15290700
_cell_angle_alpha   90.00001146
_cell_angle_beta   90.00000000
_cell_angle_gamma   89.64621214
_symmetry_Int_Tables_number   1
_chemical_formula_structural   ZnBi3O8
_chemical_formula_sum   'Zn3 Bi9 O24'
_cell_volume   508.36004763
_cell_formula_units_Z   3
loop_
 _symmetry_equiv_pos_site_id
 _symmetry_equiv_pos_as_xyz
  1  'x, y, z'
loop_
 _atom_site_type_symbol
 _atom_site_label
 _atom_site_symmetry_multiplicity
 _atom_site_fract_x
 _atom_site_fract_y
 _atom_site_fract_z
 _atom_site_occupancy
  Zn  Zn0  1  0.004618  0.499334  0.000000  1
  Zn  Zn1  1  0.500000  0.750000  0.500000  1
  Zn  Zn2  1  0.995378  0.000667  0.999999  1
  Bi  Bi3  1  0.500002  0.250000  0.500000  1
  Bi  Bi4  1  0.999726  0.989475  0.328567  1
  Bi  Bi5  1  0.000275  0.510526  0.328568  1
  Bi  Bi6  1  0.999726  0.989475  0.671433  1
  Bi  Bi7  1  0.000275  0.510526  0.671432  1
  Bi  Bi8  1  0.499998  0.250001  0.160445  1
  Bi  Bi9  1  0.500001  0.750000  0.164160  1
  Bi  Bi10  1  0.499998  0.250001  0.839555  1
  Bi  Bi11  1  0.500001  0.749999  0.835840  1
  O  O12  1  0.181334  0.407811  0.500000  1
  O  O13  1  0.201934  0.901842  0.500000  1
  O  O14  1  0.299335  0.150574  0.000000  1
  O  O15  1  0.303072  0.650555  0.000000  1
  O  O16  1  0.700662  0.349427  0.000000  1
  O  O17  1  0.696932  0.849445  0.000000  1
  O  O18  1  0.818662  0.092187  0.500000  1
  O  O19  1  0.798066  0.598157  0.500000  1
  O  O20  1  0.191857  0.405249  0.166540  1
  O  O21  1  0.192601  0.903094  0.161357  1
  O  O22  1  0.191857  0.405249  0.833460  1
  O  O23  1  0.192601  0.903094  0.838643  1
  O  O24  1  0.301865  0.149844  0.328219  1
  O  O25  1  0.310983  0.657315  0.334898  1
  O  O26  1  0.301865  0.149844  0.671781  1
  O  O27  1  0.310983  0.657315  0.665103  1
  O  O28  1  0.698134  0.350158  0.328218  1
  O  O29  1  0.689021  0.842683  0.334897  1
  O  O30  1  0.698134  0.350158  0.671782  1
  O  O31  1  0.689022  0.842683  0.665103  1
  O  O32  1  0.808141  0.094753  0.166540  1
  O  O33  1  0.807398  0.596904  0.161358  1
  O  O34  1  0.808141  0.094752  0.833460  1
  O  O35  1  0.807399  0.596905  0.838642  1
