# generated using pymatgen
data_TbYEr2CdPd
_symmetry_space_group_name_H-M   'P 1'
_cell_length_a   9.66457794
_cell_length_b   9.66170277
_cell_length_c   9.66170243
_cell_angle_alpha   60.01969047
_cell_angle_beta   59.99015073
_cell_angle_gamma   59.99015413
_symmetry_Int_Tables_number   1
_chemical_formula_structural   TbYEr2CdPd
_chemical_formula_sum   'Tb4 Y4 Er8 Cd4 Pd4'
_cell_volume   637.93309470
_cell_formula_units_Z   4
loop_
 _symmetry_equiv_pos_site_id
 _symmetry_equiv_pos_as_xyz
  1  'x, y, z'
loop_
 _atom_site_type_symbol
 _atom_site_label
 _atom_site_symmetry_multiplicity
 _atom_site_fract_x
 _atom_site_fract_y
 _atom_site_fract_z
 _atom_site_occupancy
  Tb  Tb0  1  0.353827  0.354488  0.354488  1
  Tb  Tb1  1  0.354488  0.353827  0.937197  1
  Tb  Tb2  1  0.354488  0.937197  0.353827  1
  Tb  Tb3  1  0.937197  0.354488  0.354488  1
  Y  Y4  1  0.566176  0.933824  0.566176  1
  Y  Y5  1  0.933824  0.566176  0.933824  1
  Y  Y6  1  0.566176  0.566176  0.933824  1
  Y  Y7  1  0.933824  0.933824  0.566176  1
  Er  Er8  1  0.812182  0.187818  0.187818  1
  Er  Er9  1  0.187818  0.812182  0.812182  1
  Er  Er10  1  0.187889  0.812111  0.187889  1
  Er  Er11  1  0.812111  0.187889  0.812111  1
  Er  Er12  1  0.187889  0.187889  0.812111  1
  Er  Er13  1  0.812111  0.812111  0.187889  1
  Er  Er14  1  0.934754  0.565246  0.565246  1
  Er  Er15  1  0.565246  0.934754  0.934754  1
  Cd  Cd16  1  0.582751  0.582401  0.582401  1
  Cd  Cd17  1  0.582401  0.582751  0.252449  1
  Cd  Cd18  1  0.582401  0.252449  0.582751  1
  Cd  Cd19  1  0.252449  0.582401  0.582401  1
  Pd  Pd20  1  0.144020  0.143625  0.143625  1
  Pd  Pd21  1  0.143625  0.144020  0.568728  1
  Pd  Pd22  1  0.143625  0.568728  0.144020  1
  Pd  Pd23  1  0.568728  0.143625  0.143625  1
