# generated using pymatgen
data_Sm2Pa(Co3As2)3
_symmetry_space_group_name_H-M   'P 1'
_cell_length_a   3.85317800
_cell_length_b   10.91222100
_cell_length_c   12.67026700
_cell_angle_alpha   90.00000000
_cell_angle_beta   90.00000000
_cell_angle_gamma   90.00000000
_symmetry_Int_Tables_number   1
_chemical_formula_structural   Sm2Pa(Co3As2)3
_chemical_formula_sum   'Sm4 Pa2 Co18 As12'
_cell_volume   532.74329416
_cell_formula_units_Z   2
loop_
 _symmetry_equiv_pos_site_id
 _symmetry_equiv_pos_as_xyz
  1  'x, y, z'
loop_
 _atom_site_type_symbol
 _atom_site_label
 _atom_site_symmetry_multiplicity
 _atom_site_fract_x
 _atom_site_fract_y
 _atom_site_fract_z
 _atom_site_occupancy
  Sm  Sm0  1  0.500000  0.814223  0.206545  1
  Sm  Sm1  1  0.500000  0.185777  0.206545  1
  Sm  Sm2  1  0.000000  0.685777  0.793455  1
  Sm  Sm3  1  0.000000  0.314223  0.793455  1
  Pa  Pa4  1  0.000000  0.500000  0.529333  1
  Pa  Pa5  1  0.500000  0.000000  0.470667  1
  Co  Co6  1  0.500000  0.500000  0.153362  1
  Co  Co7  1  0.000000  0.000000  0.846638  1
  Co  Co8  1  0.500000  0.500000  0.690755  1
  Co  Co9  1  0.000000  0.000000  0.309245  1
  Co  Co10  1  0.000000  0.500000  0.982508  1
  Co  Co11  1  0.500000  0.000000  0.017492  1
  Co  Co12  1  0.500000  0.334165  0.994615  1
  Co  Co13  1  0.500000  0.665835  0.994615  1
  Co  Co14  1  0.000000  0.165835  0.005385  1
  Co  Co15  1  0.000000  0.834165  0.005385  1
  Co  Co16  1  0.500000  0.305322  0.431018  1
  Co  Co17  1  0.500000  0.694678  0.431018  1
  Co  Co18  1  0.000000  0.194678  0.568982  1
  Co  Co19  1  0.000000  0.805322  0.568982  1
  Co  Co20  1  0.500000  0.883314  0.709222  1
  Co  Co21  1  0.500000  0.116686  0.709222  1
  Co  Co22  1  0.000000  0.616686  0.290778  1
  Co  Co23  1  0.000000  0.383314  0.290778  1
  As  As24  1  0.500000  0.500000  0.876123  1
  As  As25  1  0.000000  0.000000  0.123877  1
  As  As26  1  0.500000  0.500000  0.344555  1
  As  As27  1  0.000000  0.000000  0.655445  1
  As  As28  1  0.500000  0.305991  0.614769  1
  As  As29  1  0.500000  0.694009  0.614769  1
  As  As30  1  0.000000  0.194009  0.385231  1
  As  As31  1  0.000000  0.805991  0.385231  1
  As  As32  1  0.500000  0.848974  0.893424  1
  As  As33  1  0.500000  0.151026  0.893424  1
  As  As34  1  0.000000  0.651026  0.106576  1
  As  As35  1  0.000000  0.348974  0.106576  1
