# generated using pymatgen
data_Y9Er11Si15Pt
_symmetry_space_group_name_H-M   'P 1'
_cell_length_a   7.35283778
_cell_length_b   7.70040357
_cell_length_c   14.53712609
_cell_angle_alpha   90.04871106
_cell_angle_beta   89.96251405
_cell_angle_gamma   90.13492543
_symmetry_Int_Tables_number   1
_chemical_formula_structural   Y9Er11Si15Pt
_chemical_formula_sum   'Y9 Er11 Si15 Pt1'
_cell_volume   823.08668330
_cell_formula_units_Z   1
loop_
 _symmetry_equiv_pos_site_id
 _symmetry_equiv_pos_as_xyz
  1  'x, y, z'
loop_
 _atom_site_type_symbol
 _atom_site_label
 _atom_site_symmetry_multiplicity
 _atom_site_fract_x
 _atom_site_fract_y
 _atom_site_fract_z
 _atom_site_occupancy
  Y  Y0  1  0.185666  0.324249  0.623104  1
  Y  Y1  1  0.522964  0.681513  0.594163  1
  Y  Y2  1  0.023353  0.819853  0.905482  1
  Y  Y3  1  0.475817  0.316410  0.097615  1
  Y  Y4  1  0.974698  0.181495  0.401890  1
  Y  Y5  1  0.475882  0.316733  0.402054  1
  Y  Y6  1  0.975736  0.181234  0.097238  1
  Y  Y7  1  0.522563  0.681014  0.906446  1
  Y  Y8  1  0.023943  0.819156  0.594944  1
  Er  Er9  1  0.677434  0.180052  0.623770  1
  Er  Er10  1  0.186819  0.324817  0.876356  1
  Er  Er11  1  0.319186  0.820481  0.123875  1
  Er  Er12  1  0.817405  0.676333  0.375047  1
  Er  Er13  1  0.318977  0.820775  0.375966  1
  Er  Er14  1  0.817691  0.676019  0.124489  1
  Er  Er15  1  0.677017  0.180288  0.876614  1
  Er  Er16  1  0.842882  0.509906  0.750269  1
  Er  Er17  1  0.353570  0.985988  0.750445  1
  Er  Er18  1  0.150154  0.487303  0.249802  1
  Er  Er19  1  0.650784  0.010734  0.249983  1
  Si  Si20  1  0.649861  0.968961  0.460011  1
  Si  Si21  1  0.148148  0.529573  0.039890  1
  Si  Si22  1  0.349210  0.028186  0.961280  1
  Si  Si23  1  0.849811  0.471195  0.538818  1
  Si  Si24  1  0.351384  0.026715  0.539054  1
  Si  Si25  1  0.851942  0.471003  0.960500  1
  Si  Si26  1  0.649953  0.968946  0.039983  1
  Si  Si27  1  0.146504  0.530054  0.459125  1
  Si  Si28  1  0.978070  0.104031  0.750621  1
  Si  Si29  1  0.520610  0.606302  0.249876  1
  Si  Si30  1  0.021723  0.892034  0.249839  1
  Si  Si31  1  0.738188  0.876552  0.750231  1
  Si  Si32  1  0.228228  0.632133  0.750482  1
  Si  Si33  1  0.270492  0.128053  0.249847  1
  Si  Si34  1  0.770840  0.369765  0.249786  1
  Pt  Pt35  1  0.482494  0.402147  0.751102  1
