# generated using pymatgen
data_Ho2LuCd3Ga2Ag
_symmetry_space_group_name_H-M   'P 1'
_cell_length_a   7.33678444
_cell_length_b   7.33678463
_cell_length_c   4.32374400
_cell_angle_alpha   90.00000000
_cell_angle_beta   90.00000000
_cell_angle_gamma   119.95129382
_symmetry_Int_Tables_number   1
_chemical_formula_structural   Ho2LuCd3Ga2Ag
_chemical_formula_sum   'Ho2 Lu1 Cd3 Ga2 Ag1'
_cell_volume   201.65782309
_cell_formula_units_Z   1
loop_
 _symmetry_equiv_pos_site_id
 _symmetry_equiv_pos_as_xyz
  1  'x, y, z'
loop_
 _atom_site_type_symbol
 _atom_site_label
 _atom_site_symmetry_multiplicity
 _atom_site_fract_x
 _atom_site_fract_y
 _atom_site_fract_z
 _atom_site_occupancy
  Ho  Ho0  1  0.578196  0.999681  0.500000  1
  Ho  Ho1  1  0.999681  0.578196  0.500000  1
  Lu  Lu2  1  0.421055  0.421055  0.500000  1
  Cd  Cd3  1  0.746800  0.746800  0.000000  1
  Cd  Cd4  1  0.252615  0.000135  0.000000  1
  Cd  Cd5  1  0.000135  0.252615  0.000000  1
  Ga  Ga6  1  0.665412  0.333875  0.000000  1
  Ga  Ga7  1  0.333875  0.665412  0.000000  1
  Ag  Ag8  1  0.002231  0.002231  0.500000  1
