# generated using pymatgen
data_Np3CrF24
_symmetry_space_group_name_H-M   'P 1'
_cell_length_a   5.35159414
_cell_length_b   9.18252600
_cell_length_c   10.24514500
_cell_angle_alpha   90.00000000
_cell_angle_beta   89.98693831
_cell_angle_gamma   90.00000000
_symmetry_Int_Tables_number   1
_chemical_formula_structural   Np3CrF24
_chemical_formula_sum   'Np3 Cr1 F24'
_cell_volume   503.45821794
_cell_formula_units_Z   1
loop_
 _symmetry_equiv_pos_site_id
 _symmetry_equiv_pos_as_xyz
  1  'x, y, z'
loop_
 _atom_site_type_symbol
 _atom_site_label
 _atom_site_symmetry_multiplicity
 _atom_site_fract_x
 _atom_site_fract_y
 _atom_site_fract_z
 _atom_site_occupancy
  Np  Np0  1  0.597300  0.750000  0.627854  1
  Np  Np1  1  0.096945  0.250000  0.872413  1
  Np  Np2  1  0.403356  0.250000  0.372183  1
  Cr  Cr3  1  0.902837  0.750000  0.127862  1
  F  F4  1  0.564069  0.404268  0.262392  1
  F  F5  1  0.044281  0.614360  0.224200  1
  F  F6  1  0.435630  0.904454  0.737699  1
  F  F7  1  0.935403  0.095709  0.762396  1
  F  F8  1  0.163123  0.750000  0.023170  1
  F  F9  1  0.700764  0.250000  0.491410  1
  F  F10  1  0.798650  0.250000  0.991573  1
  F  F11  1  0.299871  0.750000  0.508443  1
  F  F12  1  0.641836  0.750000  0.232523  1
  F  F13  1  0.105037  0.250000  0.252796  1
  F  F14  1  0.395121  0.250000  0.752705  1
  F  F15  1  0.895594  0.750000  0.746832  1
  F  F16  1  0.761218  0.885463  0.031384  1
  F  F17  1  0.241980  0.095536  0.482011  1
  F  F18  1  0.259066  0.404293  0.982197  1
  F  F19  1  0.758137  0.595358  0.517840  1
  F  F20  1  0.259066  0.095707  0.982197  1
  F  F21  1  0.758137  0.904642  0.517840  1
  F  F22  1  0.761218  0.614537  0.031384  1
  F  F23  1  0.241980  0.404464  0.482011  1
  F  F24  1  0.044281  0.885640  0.224200  1
  F  F25  1  0.564069  0.095732  0.262392  1
  F  F26  1  0.935403  0.404291  0.762396  1
  F  F27  1  0.435630  0.595546  0.737699  1
