# generated using pymatgen
data_Th2CoSn(BRu2)2
_symmetry_space_group_name_H-M   'P 1'
_cell_length_a   9.69565800
_cell_length_b   9.69565800
_cell_length_c   3.27034400
_cell_angle_alpha   90.00000000
_cell_angle_beta   90.00000000
_cell_angle_gamma   90.00000000
_symmetry_Int_Tables_number   1
_chemical_formula_structural   Th2CoSn(BRu2)2
_chemical_formula_sum   'Th4 Co2 Sn2 B4 Ru8'
_cell_volume   307.43125184
_cell_formula_units_Z   2
loop_
 _symmetry_equiv_pos_site_id
 _symmetry_equiv_pos_as_xyz
  1  'x, y, z'
loop_
 _atom_site_type_symbol
 _atom_site_label
 _atom_site_symmetry_multiplicity
 _atom_site_fract_x
 _atom_site_fract_y
 _atom_site_fract_z
 _atom_site_occupancy
  Th  Th0  1  0.821904  0.678096  0.000000  1
  Th  Th1  1  0.178096  0.321904  0.000000  1
  Th  Th2  1  0.321904  0.821904  0.000000  1
  Th  Th3  1  0.678096  0.178096  0.000000  1
  Co  Co4  1  0.500000  0.000000  0.500000  1
  Co  Co5  1  0.000000  0.500000  0.500000  1
  Sn  Sn6  1  0.500000  0.500000  0.000000  1
  Sn  Sn7  1  0.000000  0.000000  0.000000  1
  B  B8  1  0.611070  0.888930  0.000000  1
  B  B9  1  0.388930  0.111070  0.000000  1
  B  B10  1  0.111070  0.611070  0.000000  1
  B  B11  1  0.888930  0.388930  0.000000  1
  Ru  Ru12  1  0.563876  0.732595  0.500000  1
  Ru  Ru13  1  0.436124  0.267405  0.500000  1
  Ru  Ru14  1  0.063876  0.767405  0.500000  1
  Ru  Ru15  1  0.936124  0.232595  0.500000  1
  Ru  Ru16  1  0.267405  0.563876  0.500000  1
  Ru  Ru17  1  0.732595  0.436124  0.500000  1
  Ru  Ru18  1  0.232595  0.063876  0.500000  1
  Ru  Ru19  1  0.767405  0.936124  0.500000  1
