# generated using pymatgen
data_La2TbDy3OsBr10
_symmetry_space_group_name_H-M   'P 1'
_cell_length_a   7.49909942
_cell_length_b   9.46345678
_cell_length_c   9.39089400
_cell_angle_alpha   106.55203851
_cell_angle_beta   95.52616834
_cell_angle_gamma   105.46428533
_symmetry_Int_Tables_number   1
_chemical_formula_structural   La2TbDy3OsBr10
_chemical_formula_sum   'La2 Tb1 Dy3 Os1 Br10'
_cell_volume   604.90527680
_cell_formula_units_Z   1
loop_
 _symmetry_equiv_pos_site_id
 _symmetry_equiv_pos_as_xyz
  1  'x, y, z'
loop_
 _atom_site_type_symbol
 _atom_site_label
 _atom_site_symmetry_multiplicity
 _atom_site_fract_x
 _atom_site_fract_y
 _atom_site_fract_z
 _atom_site_occupancy
  La  La0  1  0.123111  0.047481  0.760418  1
  La  La1  1  0.876757  0.952309  0.239435  1
  Tb  Tb2  1  0.969994  0.301295  0.092502  1
  Dy  Dy3  1  0.029581  0.699654  0.907668  1
  Dy  Dy4  1  0.363288  0.134515  0.173972  1
  Dy  Dy5  1  0.636718  0.864958  0.825955  1
  Os  Os6  1  0.999954  0.999945  0.999905  1
  Br  Br7  1  0.342054  0.440555  0.264528  1
  Br  Br8  1  0.659671  0.559335  0.735840  1
  Br  Br9  1  0.265755  0.086617  0.447291  1
  Br  Br10  1  0.734102  0.913164  0.552770  1
  Br  Br11  1  0.081263  0.378253  0.831567  1
  Br  Br12  1  0.919184  0.623075  0.167639  1
  Br  Br13  1  0.449582  0.823201  0.082727  1
  Br  Br14  1  0.550036  0.176291  0.916901  1
  Br  Br15  1  0.774419  0.259939  0.335326  1
  Br  Br16  1  0.224531  0.739411  0.665557  1
