# generated using pymatgen
data_Dy5Ti2P12Ir11Ru6
_symmetry_space_group_name_H-M   'P 1'
_cell_length_a   12.72038749
_cell_length_b   12.63631523
_cell_length_c   3.95892800
_cell_angle_alpha   90.00000000
_cell_angle_beta   90.00000000
_cell_angle_gamma   119.74952571
_symmetry_Int_Tables_number   1
_chemical_formula_structural   Dy5Ti2P12Ir11Ru6
_chemical_formula_sum   'Dy5 Ti2 P12 Ir11 Ru6'
_cell_volume   552.48391559
_cell_formula_units_Z   1
loop_
 _symmetry_equiv_pos_site_id
 _symmetry_equiv_pos_as_xyz
  1  'x, y, z'
loop_
 _atom_site_type_symbol
 _atom_site_label
 _atom_site_symmetry_multiplicity
 _atom_site_fract_x
 _atom_site_fract_y
 _atom_site_fract_z
 _atom_site_occupancy
  Dy  Dy0  1  0.665335  0.332552  0.000000  1
  Dy  Dy1  1  0.335473  0.669470  0.000000  1
  Dy  Dy2  1  0.812980  0.002170  0.500000  1
  Dy  Dy3  1  0.184595  0.186948  0.500000  1
  Dy  Dy4  1  0.000269  0.811270  0.500000  1
  Ti  Ti5  1  0.439911  0.997240  0.000000  1
  Ti  Ti6  1  0.556495  0.554278  0.000000  1
  P  P7  1  0.637494  0.001639  0.000000  1
  P  P8  1  0.361143  0.363641  0.000000  1
  P  P9  1  0.000503  0.635007  0.000000  1
  P  P10  1  0.686691  0.517733  0.500000  1
  P  P11  1  0.829887  0.307289  0.500000  1
  P  P12  1  0.318276  0.833678  0.500000  1
  P  P13  1  0.522922  0.689453  0.500000  1
  P  P14  1  0.177719  0.998394  0.000000  1
  P  P15  1  0.819887  0.818018  0.000000  1
  P  P16  1  0.996781  0.182282  0.000000  1
  P  P17  1  0.477259  0.164703  0.500000  1
  P  P18  1  0.170140  0.481594  0.500000  1
  Ir  Ir19  1  0.626387  0.805076  0.000000  1
  Ir  Ir20  1  0.179846  0.376051  0.000000  1
  Ir  Ir21  1  0.370824  0.180381  0.000000  1
  Ir  Ir22  1  0.191537  0.816117  0.000000  1
  Ir  Ir23  1  0.807150  0.621559  0.000000  1
  Ir  Ir24  1  0.868616  0.504786  0.500000  1
  Ir  Ir25  1  0.491449  0.359019  0.500000  1
  Ir  Ir26  1  0.638055  0.128816  0.500000  1
  Ir  Ir27  1  0.132443  0.639628  0.500000  1
  Ir  Ir28  1  0.361764  0.492183  0.500000  1
  Ir  Ir29  1  0.997834  0.000171  0.000000  1
  Ru  Ru30  1  0.515734  0.873297  0.500000  1
  Ru  Ru31  1  0.721226  0.717302  0.500000  1
  Ru  Ru32  1  0.002109  0.288755  0.500000  1
  Ru  Ru33  1  0.001424  0.453816  0.000000  1
  Ru  Ru34  1  0.820436  0.197978  0.000000  1
  Ru  Ru35  1  0.279404  0.997705  0.500000  1
