# generated using pymatgen
data_Hf4CoOs
_symmetry_space_group_name_H-M   'P 1'
_cell_length_a   8.59059179
_cell_length_b   8.59130638
_cell_length_c   8.59042924
_cell_angle_alpha   59.99964391
_cell_angle_beta   60.01834619
_cell_angle_gamma   59.99796599
_symmetry_Int_Tables_number   1
_chemical_formula_structural   Hf4CoOs
_chemical_formula_sum   'Hf16 Co4 Os4'
_cell_volume   448.36787565
_cell_formula_units_Z   4
loop_
 _symmetry_equiv_pos_site_id
 _symmetry_equiv_pos_as_xyz
  1  'x, y, z'
loop_
 _atom_site_type_symbol
 _atom_site_label
 _atom_site_symmetry_multiplicity
 _atom_site_fract_x
 _atom_site_fract_y
 _atom_site_fract_z
 _atom_site_occupancy
  Hf  Hf0  1  0.052144  0.649176  0.649469  1
  Hf  Hf1  1  0.649086  0.052329  0.649128  1
  Hf  Hf2  1  0.649237  0.648989  0.052814  1
  Hf  Hf3  1  0.649274  0.649572  0.649230  1
  Hf  Hf4  1  0.796413  0.796003  0.203729  1
  Hf  Hf5  1  0.203739  0.203940  0.796153  1
  Hf  Hf6  1  0.795641  0.204415  0.795542  1
  Hf  Hf7  1  0.204241  0.795723  0.204316  1
  Hf  Hf8  1  0.203880  0.795961  0.796079  1
  Hf  Hf9  1  0.796407  0.203791  0.203681  1
  Hf  Hf10  1  0.435249  0.435272  0.064585  1
  Hf  Hf11  1  0.064831  0.064745  0.435249  1
  Hf  Hf12  1  0.434895  0.065084  0.434801  1
  Hf  Hf13  1  0.065166  0.434899  0.064997  1
  Hf  Hf14  1  0.064888  0.435089  0.435109  1
  Hf  Hf15  1  0.435311  0.064793  0.064592  1
  Co  Co16  1  0.420007  0.859794  0.860541  1
  Co  Co17  1  0.859445  0.420107  0.860010  1
  Co  Co18  1  0.860411  0.859911  0.420020  1
  Co  Co19  1  0.859484  0.860521  0.859894  1
  Os  Os20  1  0.749313  0.417005  0.416717  1
  Os  Os21  1  0.417104  0.749104  0.417103  1
  Os  Os22  1  0.416763  0.417055  0.749133  1
  Os  Os23  1  0.417069  0.416721  0.417110  1
