# generated using pymatgen
data_Tm20Ir5Rh7
_symmetry_space_group_name_H-M   'P 1'
_cell_length_a   10.73393001
_cell_length_b   10.73393001
_cell_length_c   6.30066401
_cell_angle_alpha   90.00436469
_cell_angle_beta   90.00436469
_cell_angle_gamma   90.04960961
_symmetry_Int_Tables_number   1
_chemical_formula_structural   Tm20Ir5Rh7
_chemical_formula_sum   'Tm20 Ir5 Rh7'
_cell_volume   725.94492627
_cell_formula_units_Z   1
loop_
 _symmetry_equiv_pos_site_id
 _symmetry_equiv_pos_as_xyz
  1  'x, y, z'
loop_
 _atom_site_type_symbol
 _atom_site_label
 _atom_site_symmetry_multiplicity
 _atom_site_fract_x
 _atom_site_fract_y
 _atom_site_fract_z
 _atom_site_occupancy
  Tm  Tm0  1  0.290778  0.088013  0.376607  1
  Tm  Tm1  1  0.290636  0.910361  0.877917  1
  Tm  Tm2  1  0.708590  0.089363  0.877389  1
  Tm  Tm3  1  0.708541  0.910577  0.376929  1
  Tm  Tm4  1  0.587093  0.790039  0.878037  1
  Tm  Tm5  1  0.587029  0.209972  0.377874  1
  Tm  Tm6  1  0.411681  0.790267  0.377759  1
  Tm  Tm7  1  0.412922  0.209919  0.877902  1
  Tm  Tm8  1  0.209961  0.412907  0.621963  1
  Tm  Tm9  1  0.209733  0.588319  0.122241  1
  Tm  Tm10  1  0.790028  0.412971  0.122126  1
  Tm  Tm11  1  0.790081  0.587078  0.622098  1
  Tm  Tm12  1  0.911987  0.709222  0.123393  1
  Tm  Tm13  1  0.910637  0.291410  0.622611  1
  Tm  Tm14  1  0.089639  0.709364  0.622083  1
  Tm  Tm15  1  0.089423  0.291459  0.123071  1
  Tm  Tm16  1  0.000330  0.999711  0.499880  1
  Tm  Tm17  1  0.000289  0.999670  0.000120  1
  Tm  Tm18  1  0.499945  0.499874  0.999982  1
  Tm  Tm19  1  0.500126  0.500055  0.500018  1
  Ir  Ir20  1  0.153293  0.846707  0.250000  1
  Ir  Ir21  1  0.654814  0.345186  0.750000  1
  Ir  Ir22  1  0.654827  0.654758  0.249962  1
  Ir  Ir23  1  0.345242  0.345173  0.250038  1
  Ir  Ir24  1  0.345840  0.654160  0.750000  1
  Rh  Rh25  1  0.846651  0.153349  0.250000  1
  Rh  Rh26  1  0.846091  0.846733  0.749869  1
  Rh  Rh27  1  0.153267  0.153909  0.750131  1
  Rh  Rh28  1  0.500522  0.000232  0.122264  1
  Rh  Rh29  1  0.500462  0.000226  0.622683  1
  Rh  Rh30  1  0.999774  0.499538  0.877317  1
  Rh  Rh31  1  0.999768  0.499478  0.377736  1
