# generated using pymatgen
data_NaMn7PS16
_symmetry_space_group_name_H-M   'P 1'
_cell_length_a   6.68798924
_cell_length_b   6.68798991
_cell_length_c   13.54003315
_cell_angle_alpha   90.11029514
_cell_angle_beta   89.88970417
_cell_angle_gamma   119.98418000
_symmetry_Int_Tables_number   1
_chemical_formula_structural   NaMn7PS16
_chemical_formula_sum   'Na1 Mn7 P1 S16'
_cell_volume   524.57751455
_cell_formula_units_Z   1
loop_
 _symmetry_equiv_pos_site_id
 _symmetry_equiv_pos_as_xyz
  1  'x, y, z'
loop_
 _atom_site_type_symbol
 _atom_site_label
 _atom_site_symmetry_multiplicity
 _atom_site_fract_x
 _atom_site_fract_y
 _atom_site_fract_z
 _atom_site_occupancy
  Na  Na0  1  0.002472  0.997528  0.000527  1
  Mn  Mn1  1  0.500702  0.499298  0.260154  1
  Mn  Mn2  1  0.500500  0.001816  0.740008  1
  Mn  Mn3  1  0.497952  0.996505  0.260131  1
  Mn  Mn4  1  0.998184  0.499500  0.740008  1
  Mn  Mn5  1  0.003495  0.502048  0.260131  1
  Mn  Mn6  1  0.999241  0.000759  0.738808  1
  Mn  Mn7  1  0.998832  0.001168  0.261720  1
  P  P8  1  0.501524  0.498476  0.738976  1
  S  S9  1  0.833112  0.666091  0.162537  1
  S  S10  1  0.827727  0.663361  0.645577  1
  S  S11  1  0.834454  0.165546  0.162406  1
  S  S12  1  0.832684  0.167316  0.643166  1
  S  S13  1  0.332950  0.667050  0.162002  1
  S  S14  1  0.335961  0.664039  0.647035  1
  S  S15  1  0.333909  0.166888  0.162537  1
  S  S16  1  0.336639  0.172273  0.645577  1
  S  S17  1  0.664507  0.830864  0.834209  1
  S  S18  1  0.665947  0.833410  0.357350  1
  S  S19  1  0.663798  0.336202  0.834440  1
  S  S20  1  0.665851  0.334149  0.356451  1
  S  S21  1  0.166125  0.833875  0.837308  1
  S  S22  1  0.167709  0.832291  0.357385  1
  S  S23  1  0.169136  0.335493  0.834209  1
  S  S24  1  0.166590  0.334053  0.357350  1
