# generated using pymatgen
data_Ti4Co2N
_symmetry_space_group_name_H-M   'P 1'
_cell_length_a   7.96168658
_cell_length_b   7.96168656
_cell_length_c   7.96168700
_cell_angle_alpha   60.00000231
_cell_angle_beta   60.00000240
_cell_angle_gamma   60.00000151
_symmetry_Int_Tables_number   1
_chemical_formula_structural   Ti4Co2N
_chemical_formula_sum   'Ti16 Co8 N4'
_cell_volume   356.86197565
_cell_formula_units_Z   4
loop_
 _symmetry_equiv_pos_site_id
 _symmetry_equiv_pos_as_xyz
  1  'x, y, z'
loop_
 _atom_site_type_symbol
 _atom_site_label
 _atom_site_symmetry_multiplicity
 _atom_site_fract_x
 _atom_site_fract_y
 _atom_site_fract_z
 _atom_site_occupancy
  Ti  Ti0  1  0.125000  0.625000  0.625000  1
  Ti  Ti1  1  0.625000  0.125000  0.625000  1
  Ti  Ti2  1  0.625000  0.625000  0.125000  1
  Ti  Ti3  1  0.625000  0.625000  0.625000  1
  Ti  Ti4  1  0.814865  0.814865  0.185135  1
  Ti  Ti5  1  0.185135  0.185135  0.814865  1
  Ti  Ti6  1  0.814865  0.185135  0.814865  1
  Ti  Ti7  1  0.185135  0.814865  0.185135  1
  Ti  Ti8  1  0.185135  0.814865  0.814865  1
  Ti  Ti9  1  0.814865  0.185135  0.185135  1
  Ti  Ti10  1  0.435135  0.435135  0.064865  1
  Ti  Ti11  1  0.064865  0.064865  0.435135  1
  Ti  Ti12  1  0.435135  0.064865  0.435135  1
  Ti  Ti13  1  0.064865  0.435135  0.064865  1
  Ti  Ti14  1  0.064865  0.435135  0.435135  1
  Ti  Ti15  1  0.435135  0.064865  0.064865  1
  Co  Co16  1  0.753812  0.415396  0.415396  1
  Co  Co17  1  0.415396  0.753812  0.415396  1
  Co  Co18  1  0.415396  0.415396  0.753812  1
  Co  Co19  1  0.415396  0.415396  0.415396  1
  Co  Co20  1  0.496188  0.834604  0.834604  1
  Co  Co21  1  0.834604  0.496188  0.834604  1
  Co  Co22  1  0.834604  0.834604  0.496188  1
  Co  Co23  1  0.834604  0.834604  0.834604  1
  N  N24  1  0.625000  0.125000  0.125000  1
  N  N25  1  0.125000  0.625000  0.125000  1
  N  N26  1  0.125000  0.125000  0.625000  1
  N  N27  1  0.125000  0.125000  0.125000  1
