# generated using pymatgen
data_Nb5GaP2
_symmetry_space_group_name_H-M   'P 1'
_cell_length_a   7.52204114
_cell_length_b   7.52204034
_cell_length_c   7.52204011
_cell_angle_alpha   127.52054456
_cell_angle_beta   127.52054204
_cell_angle_gamma   77.40302358
_symmetry_Int_Tables_number   1
_chemical_formula_structural   Nb5GaP2
_chemical_formula_sum   'Nb10 Ga2 P4'
_cell_volume   259.70950054
_cell_formula_units_Z   2
loop_
 _symmetry_equiv_pos_site_id
 _symmetry_equiv_pos_as_xyz
  1  'x, y, z'
loop_
 _atom_site_type_symbol
 _atom_site_label
 _atom_site_symmetry_multiplicity
 _atom_site_fract_x
 _atom_site_fract_y
 _atom_site_fract_z
 _atom_site_occupancy
  Nb  Nb0  1  0.014790  0.197584  0.500000  1
  Nb  Nb1  1  0.697584  0.514790  0.500000  1
  Nb  Nb2  1  0.514790  0.014790  0.817207  1
  Nb  Nb3  1  0.197584  0.697584  0.182793  1
  Nb  Nb4  1  0.985210  0.802416  0.500000  1
  Nb  Nb5  1  0.302416  0.485210  0.500000  1
  Nb  Nb6  1  0.485210  0.985210  0.182793  1
  Nb  Nb7  1  0.802416  0.302416  0.817207  1
  Nb  Nb8  1  0.000000  0.000000  0.000000  1
  Nb  Nb9  1  0.500000  0.500000  0.000000  1
  Ga  Ga10  1  0.750000  0.750000  0.000000  1
  Ga  Ga11  1  0.250000  0.250000  0.000000  1
  P  P12  1  0.362192  0.137808  0.500000  1
  P  P13  1  0.637808  0.862192  0.500000  1
  P  P14  1  0.862192  0.362192  0.224383  1
  P  P15  1  0.137808  0.637808  0.775617  1
