# generated using pymatgen
data_TbY5TcPt
_symmetry_space_group_name_H-M   'P 1'
_cell_length_a   6.49192200
_cell_length_b   7.32545100
_cell_length_c   9.25759200
_cell_angle_alpha   90.00000000
_cell_angle_beta   90.00000000
_cell_angle_gamma   90.00000000
_symmetry_Int_Tables_number   1
_chemical_formula_structural   TbY5TcPt
_chemical_formula_sum   'Tb2 Y10 Tc2 Pt2'
_cell_volume   440.25641979
_cell_formula_units_Z   2
loop_
 _symmetry_equiv_pos_site_id
 _symmetry_equiv_pos_as_xyz
  1  'x, y, z'
loop_
 _atom_site_type_symbol
 _atom_site_label
 _atom_site_symmetry_multiplicity
 _atom_site_fract_x
 _atom_site_fract_y
 _atom_site_fract_z
 _atom_site_occupancy
  Tb  Tb0  1  0.125257  0.040685  0.250000  1
  Tb  Tb1  1  0.625257  0.459315  0.750000  1
  Y  Y2  1  0.371108  0.534718  0.250000  1
  Y  Y3  1  0.871108  0.965282  0.750000  1
  Y  Y4  1  0.672994  0.181555  0.059236  1
  Y  Y5  1  0.172994  0.318445  0.940764  1
  Y  Y6  1  0.826713  0.674760  0.435297  1
  Y  Y7  1  0.326713  0.825240  0.564703  1
  Y  Y8  1  0.326713  0.825240  0.935297  1
  Y  Y9  1  0.826713  0.674760  0.064703  1
  Y  Y10  1  0.172994  0.318445  0.559236  1
  Y  Y11  1  0.672994  0.181555  0.440764  1
  Tc  Tc12  1  0.964553  0.388168  0.250000  1
  Tc  Tc13  1  0.464553  0.111832  0.750000  1
  Pt  Pt14  1  0.539670  0.889045  0.250000  1
  Pt  Pt15  1  0.039670  0.610955  0.750000  1
