# generated using pymatgen
data_Cs2Nd10P2Br17
_symmetry_space_group_name_H-M   'P 1'
_cell_length_a   9.38505792
_cell_length_b   11.08519882
_cell_length_c   11.08520476
_cell_angle_alpha   106.65180394
_cell_angle_beta   94.72379359
_cell_angle_gamma   94.72381463
_symmetry_Int_Tables_number   1
_chemical_formula_structural   Cs2Nd10P2Br17
_chemical_formula_sum   'Cs2 Nd10 P2 Br17'
_cell_volume   1094.33557671
_cell_formula_units_Z   1
loop_
 _symmetry_equiv_pos_site_id
 _symmetry_equiv_pos_as_xyz
  1  'x, y, z'
loop_
 _atom_site_type_symbol
 _atom_site_label
 _atom_site_symmetry_multiplicity
 _atom_site_fract_x
 _atom_site_fract_y
 _atom_site_fract_z
 _atom_site_occupancy
  Cs  Cs0  1  0.000001  0.820722  0.179276  1
  Cs  Cs1  1  0.000001  0.179275  0.820722  1
  Nd  Nd2  1  0.438016  0.162691  0.162689  1
  Nd  Nd3  1  0.573388  0.505941  0.198386  1
  Nd  Nd4  1  0.832836  0.290295  0.290294  1
  Nd  Nd5  1  0.307036  0.435433  0.435436  1
  Nd  Nd6  1  0.426614  0.801615  0.494061  1
  Nd  Nd7  1  0.573387  0.198384  0.505938  1
  Nd  Nd8  1  0.692971  0.564569  0.564568  1
  Nd  Nd9  1  0.167161  0.709701  0.709702  1
  Nd  Nd10  1  0.426616  0.494061  0.801614  1
  Nd  Nd11  1  0.561984  0.837308  0.837307  1
  P  P12  1  0.570499  0.360071  0.360071  1
  P  P13  1  0.429503  0.639929  0.639930  1
  Br  Br14  1  0.582834  0.691389  0.026284  1
  Br  Br15  1  0.713112  0.067825  0.067825  1
  Br  Br16  1  0.859354  0.451672  0.118595  1
  Br  Br17  1  0.136473  0.211390  0.211390  1
  Br  Br18  1  0.286380  0.601558  0.259460  1
  Br  Br19  1  0.417165  0.973718  0.308614  1
  Br  Br20  1  0.713615  0.740547  0.398442  1
  Br  Br21  1  0.859354  0.118595  0.451673  1
  Br  Br22  1  0.999999  0.499999  0.499999  1
  Br  Br23  1  0.140647  0.881408  0.548330  1
  Br  Br24  1  0.286381  0.259459  0.601561  1
  Br  Br25  1  0.582834  0.026284  0.691389  1
  Br  Br26  1  0.713616  0.398442  0.740546  1
  Br  Br27  1  0.863528  0.788612  0.788612  1
  Br  Br28  1  0.140647  0.548329  0.881409  1
  Br  Br29  1  0.286884  0.932163  0.932162  1
  Br  Br30  1  0.417165  0.308614  0.973718  1
