# generated using pymatgen
data_Y6Cr3Ni16P13Ir
_symmetry_space_group_name_H-M   'P 1'
_cell_length_a   12.77770200
_cell_length_b   12.77770154
_cell_length_c   3.74611700
_cell_angle_alpha   90.00000000
_cell_angle_beta   90.00000000
_cell_angle_gamma   120.00000120
_symmetry_Int_Tables_number   1
_chemical_formula_structural   Y6Cr3Ni16P13Ir
_chemical_formula_sum   'Y6 Cr3 Ni16 P13 Ir1'
_cell_volume   529.68473690
_cell_formula_units_Z   1
loop_
 _symmetry_equiv_pos_site_id
 _symmetry_equiv_pos_as_xyz
  1  'x, y, z'
loop_
 _atom_site_type_symbol
 _atom_site_label
 _atom_site_symmetry_multiplicity
 _atom_site_fract_x
 _atom_site_fract_y
 _atom_site_fract_z
 _atom_site_occupancy
  Y  Y0  1  0.467132  0.185819  0.000000  1
  Y  Y1  1  0.718687  0.532868  0.000000  1
  Y  Y2  1  0.814181  0.281313  0.000000  1
  Y  Y3  1  0.530448  0.812709  0.500000  1
  Y  Y4  1  0.282262  0.469552  0.500000  1
  Y  Y5  1  0.187291  0.717738  0.500000  1
  Cr  Cr6  1  0.848051  0.930304  0.500000  1
  Cr  Cr7  1  0.082254  0.151949  0.500000  1
  Cr  Cr8  1  0.069696  0.917746  0.500000  1
  Ni  Ni9  1  0.333333  0.666667  0.000000  1
  Ni  Ni10  1  0.198145  0.091537  0.000000  1
  Ni  Ni11  1  0.893392  0.801855  0.000000  1
  Ni  Ni12  1  0.908463  0.106608  0.000000  1
  Ni  Ni13  1  0.436487  0.417904  0.000000  1
  Ni  Ni14  1  0.981418  0.563513  0.000000  1
  Ni  Ni15  1  0.582096  0.018582  0.000000  1
  Ni  Ni16  1  0.564285  0.589052  0.500000  1
  Ni  Ni17  1  0.024767  0.435715  0.500000  1
  Ni  Ni18  1  0.410948  0.975233  0.500000  1
  Ni  Ni19  1  0.078776  0.319763  0.000000  1
  Ni  Ni20  1  0.240986  0.921224  0.000000  1
  Ni  Ni21  1  0.680237  0.759014  0.000000  1
  Ni  Ni22  1  0.929724  0.683330  0.500000  1
  Ni  Ni23  1  0.753606  0.070276  0.500000  1
  Ni  Ni24  1  0.316670  0.246394  0.500000  1
  P  P25  1  0.231769  0.280712  0.000000  1
  P  P26  1  0.048943  0.768231  0.000000  1
  P  P27  1  0.719288  0.951057  0.000000  1
  P  P28  1  0.768467  0.721545  0.500000  1
  P  P29  1  0.953077  0.231533  0.500000  1
  P  P30  1  0.278455  0.046923  0.500000  1
  P  P31  1  0.476926  0.616055  0.000000  1
  P  P32  1  0.139130  0.523074  0.000000  1
  P  P33  1  0.383945  0.860870  0.000000  1
  P  P34  1  0.517756  0.388419  0.500000  1
  P  P35  1  0.870663  0.482244  0.500000  1
  P  P36  1  0.611581  0.129337  0.500000  1
  P  P37  1  0.000000  0.000000  0.000000  1
  Ir  Ir38  1  0.666667  0.333333  0.500000  1
