# generated using pymatgen
data_Ti5V5Si6N
_symmetry_space_group_name_H-M   'P 1'
_cell_length_a   7.29923124
_cell_length_b   7.28719325
_cell_length_c   4.91108838
_cell_angle_alpha   89.84311099
_cell_angle_beta   90.31326167
_cell_angle_gamma   120.05466980
_symmetry_Int_Tables_number   1
_chemical_formula_structural   Ti5V5Si6N
_chemical_formula_sum   'Ti5 V5 Si6 N1'
_cell_volume   226.09959632
_cell_formula_units_Z   1
loop_
 _symmetry_equiv_pos_site_id
 _symmetry_equiv_pos_as_xyz
  1  'x, y, z'
loop_
 _atom_site_type_symbol
 _atom_site_label
 _atom_site_symmetry_multiplicity
 _atom_site_fract_x
 _atom_site_fract_y
 _atom_site_fract_z
 _atom_site_occupancy
  Ti  Ti0  1  0.000987  0.764704  0.256043  1
  Ti  Ti1  1  0.236283  0.235296  0.256043  1
  Ti  Ti2  1  0.762367  0.000000  0.258252  1
  Ti  Ti3  1  0.000132  0.236182  0.745337  1
  Ti  Ti4  1  0.763951  0.763818  0.745337  1
  V  V5  1  0.236794  0.000000  0.739076  1
  V  V6  1  0.333369  0.666171  0.499241  1
  V  V7  1  0.667199  0.333829  0.499241  1
  V  V8  1  0.666691  0.333871  0.000186  1
  V  V9  1  0.332819  0.666129  0.000186  1
  Si  Si10  1  0.999690  0.405174  0.241542  1
  Si  Si11  1  0.594517  0.594826  0.241542  1
  Si  Si12  1  0.405482  0.000000  0.240224  1
  Si  Si13  1  0.001465  0.597261  0.758266  1
  Si  Si14  1  0.404204  0.402739  0.758266  1
  Si  Si15  1  0.591324  0.000000  0.758560  1
  N  N16  1  0.002726  0.000000  0.502659  1
