# generated using pymatgen
data_Y7Th(HgPt)2
_symmetry_space_group_name_H-M   'P 1'
_cell_length_a   9.74765249
_cell_length_b   9.74765228
_cell_length_c   9.72006500
_cell_angle_alpha   60.09357980
_cell_angle_beta   60.09358051
_cell_angle_gamma   60.07121085
_symmetry_Int_Tables_number   1
_chemical_formula_structural   Y7Th(HgPt)2
_chemical_formula_sum   'Y14 Th2 Hg4 Pt4'
_cell_volume   654.33616942
_cell_formula_units_Z   2
loop_
 _symmetry_equiv_pos_site_id
 _symmetry_equiv_pos_as_xyz
  1  'x, y, z'
loop_
 _atom_site_type_symbol
 _atom_site_label
 _atom_site_symmetry_multiplicity
 _atom_site_fract_x
 _atom_site_fract_y
 _atom_site_fract_z
 _atom_site_occupancy
  Y  Y0  1  0.356229  0.932876  0.355448  1
  Y  Y1  1  0.932876  0.356229  0.355448  1
  Y  Y2  1  0.811492  0.190418  0.188748  1
  Y  Y3  1  0.190418  0.811492  0.809342  1
  Y  Y4  1  0.190418  0.811492  0.188748  1
  Y  Y5  1  0.811492  0.190418  0.809342  1
  Y  Y6  1  0.187824  0.187824  0.812176  1
  Y  Y7  1  0.809401  0.809401  0.190599  1
  Y  Y8  1  0.936237  0.564407  0.565200  1
  Y  Y9  1  0.564407  0.936237  0.934156  1
  Y  Y10  1  0.564407  0.936237  0.565200  1
  Y  Y11  1  0.936237  0.564407  0.934156  1
  Y  Y12  1  0.564951  0.564951  0.935049  1
  Y  Y13  1  0.936616  0.936616  0.563384  1
  Th  Th14  1  0.352184  0.352184  0.354827  1
  Th  Th15  1  0.352184  0.352184  0.940805  1
  Hg  Hg16  1  0.588626  0.588626  0.584986  1
  Hg  Hg17  1  0.588626  0.588626  0.237763  1
  Hg  Hg18  1  0.589908  0.236958  0.586567  1
  Hg  Hg19  1  0.236958  0.589908  0.586567  1
  Pt  Pt20  1  0.142835  0.142835  0.146546  1
  Pt  Pt21  1  0.142835  0.142835  0.567784  1
  Pt  Pt22  1  0.144837  0.568001  0.143581  1
  Pt  Pt23  1  0.568001  0.144837  0.143581  1
