# generated using pymatgen
data_Pr3B(CCl)2
_symmetry_space_group_name_H-M   'P 1'
_cell_length_a   14.63382900
_cell_length_b   3.89690800
_cell_length_c   11.39628900
_cell_angle_alpha   90.00000000
_cell_angle_beta   90.00000000
_cell_angle_gamma   90.00000000
_symmetry_Int_Tables_number   1
_chemical_formula_structural   Pr3B(CCl)2
_chemical_formula_sum   'Pr12 B4 C8 Cl8'
_cell_volume   649.89258640
_cell_formula_units_Z   4
loop_
 _symmetry_equiv_pos_site_id
 _symmetry_equiv_pos_as_xyz
  1  'x, y, z'
loop_
 _atom_site_type_symbol
 _atom_site_label
 _atom_site_symmetry_multiplicity
 _atom_site_fract_x
 _atom_site_fract_y
 _atom_site_fract_z
 _atom_site_occupancy
  Pr  Pr0  1  0.334823  0.250001  0.698943  1
  Pr  Pr1  1  0.165177  0.750000  0.198943  1
  Pr  Pr2  1  0.834824  0.250001  0.801056  1
  Pr  Pr3  1  0.665176  0.750000  0.301057  1
  Pr  Pr4  1  0.134787  0.250001  0.878940  1
  Pr  Pr5  1  0.365213  0.750000  0.378941  1
  Pr  Pr6  1  0.634787  0.250001  0.621060  1
  Pr  Pr7  1  0.865213  0.750000  0.121060  1
  Pr  Pr8  1  0.343978  0.250001  0.053344  1
  Pr  Pr9  1  0.156022  0.750000  0.553344  1
  Pr  Pr10  1  0.843979  0.250001  0.446656  1
  Pr  Pr11  1  0.656021  0.750000  0.946656  1
  B  B12  1  0.256661  0.750000  0.874974  1
  B  B13  1  0.243339  0.250001  0.374975  1
  B  B14  1  0.756661  0.750000  0.625025  1
  B  B15  1  0.743339  0.250001  0.125026  1
  C  C16  1  0.274764  0.250001  0.251103  1
  C  C17  1  0.225236  0.750000  0.751103  1
  C  C18  1  0.774764  0.250001  0.248897  1
  C  C19  1  0.725236  0.750000  0.748896  1
  C  C20  1  0.267096  0.250001  0.501233  1
  C  C21  1  0.232904  0.750000  0.001234  1
  C  C22  1  0.767096  0.250001  0.998766  1
  C  C23  1  0.732904  0.750000  0.498767  1
  Cl  Cl24  1  0.007367  0.250001  0.634695  1
  Cl  Cl25  1  0.492633  0.750000  0.134694  1
  Cl  Cl26  1  0.507367  0.250001  0.865306  1
  Cl  Cl27  1  0.992633  0.750000  0.365306  1
  Cl  Cl28  1  0.024211  0.250001  0.114030  1
  Cl  Cl29  1  0.475790  0.750000  0.614031  1
  Cl  Cl30  1  0.524211  0.250001  0.385970  1
  Cl  Cl31  1  0.975789  0.750000  0.885969  1
