# generated using pymatgen
data_Nd3In3CuAgRh
_symmetry_space_group_name_H-M   'P 1'
_cell_length_a   7.78582600
_cell_length_b   7.78582641
_cell_length_c   4.04693100
_cell_angle_alpha   90.00000000
_cell_angle_beta   90.00000000
_cell_angle_gamma   120.00000676
_symmetry_Int_Tables_number   1
_chemical_formula_structural   Nd3In3CuAgRh
_chemical_formula_sum   'Nd3 In3 Cu1 Ag1 Rh1'
_cell_volume   212.45444024
_cell_formula_units_Z   1
loop_
 _symmetry_equiv_pos_site_id
 _symmetry_equiv_pos_as_xyz
  1  'x, y, z'
loop_
 _atom_site_type_symbol
 _atom_site_label
 _atom_site_symmetry_multiplicity
 _atom_site_fract_x
 _atom_site_fract_y
 _atom_site_fract_z
 _atom_site_occupancy
  Nd  Nd0  1  0.600788  0.021412  0.500000  1
  Nd  Nd1  1  0.420624  0.399212  0.500000  1
  Nd  Nd2  1  0.978588  0.579376  0.500000  1
  In  In3  1  0.245698  0.999937  0.000000  1
  In  In4  1  0.754239  0.754302  0.000000  1
  In  In5  1  0.000063  0.245761  0.000000  1
  Cu  Cu6  1  0.000000  0.000000  0.500000  1
  Ag  Ag7  1  0.333333  0.666667  0.000000  1
  Rh  Rh8  1  0.666667  0.333333  0.000000  1
