# generated using pymatgen
data_SrSe27
_symmetry_space_group_name_H-M   'P 1'
_cell_length_a   14.69328762
_cell_length_b   14.69328829
_cell_length_c   14.69328736
_cell_angle_alpha   118.43230692
_cell_angle_beta   118.43230468
_cell_angle_gamma   118.43230228
_symmetry_Int_Tables_number   1
_chemical_formula_structural   SrSe27
_chemical_formula_sum   'Sr1 Se27'
_cell_volume   1023.31633397
_cell_formula_units_Z   1
loop_
 _symmetry_equiv_pos_site_id
 _symmetry_equiv_pos_as_xyz
  1  'x, y, z'
loop_
 _atom_site_type_symbol
 _atom_site_label
 _atom_site_symmetry_multiplicity
 _atom_site_fract_x
 _atom_site_fract_y
 _atom_site_fract_z
 _atom_site_occupancy
  Sr  Sr0  1  0.444608  0.444608  0.444608  1
  Se  Se1  1  0.022241  0.648077  0.648077  1
  Se  Se2  1  0.648077  0.648077  0.022241  1
  Se  Se3  1  0.648077  0.022241  0.648077  1
  Se  Se4  1  0.257473  0.888344  0.740437  1
  Se  Se5  1  0.888344  0.740437  0.257473  1
  Se  Se6  1  0.740437  0.257473  0.888344  1
  Se  Se7  1  0.888344  0.257473  0.740437  1
  Se  Se8  1  0.257473  0.740437  0.888344  1
  Se  Se9  1  0.740437  0.888344  0.257473  1
  Se  Se10  1  0.086564  0.624849  0.419199  1
  Se  Se11  1  0.624849  0.419199  0.086564  1
  Se  Se12  1  0.419199  0.086564  0.624849  1
  Se  Se13  1  0.624849  0.086564  0.419199  1
  Se  Se14  1  0.086564  0.419199  0.624849  1
  Se  Se15  1  0.419199  0.624849  0.086564  1
  Se  Se16  1  0.367355  0.739580  0.590084  1
  Se  Se17  1  0.739580  0.590084  0.367355  1
  Se  Se18  1  0.590084  0.367355  0.739580  1
  Se  Se19  1  0.739580  0.367355  0.590084  1
  Se  Se20  1  0.367355  0.590084  0.739580  1
  Se  Se21  1  0.590084  0.739580  0.367355  1
  Se  Se22  1  0.180344  0.423258  0.423258  1
  Se  Se23  1  0.423258  0.423258  0.180344  1
  Se  Se24  1  0.423258  0.180344  0.423258  1
  Se  Se25  1  0.013431  0.908019  0.908019  1
  Se  Se26  1  0.908019  0.908019  0.013431  1
  Se  Se27  1  0.908019  0.013431  0.908019  1
