# generated using pymatgen
data_Tb2LuTh(Al8Pt3)3
_symmetry_space_group_name_H-M   'P 1'
_cell_length_a   7.55734611
_cell_length_b   7.57346788
_cell_length_c   13.18022066
_cell_angle_alpha   84.52433288
_cell_angle_beta   78.99794958
_cell_angle_gamma   59.92884654
_symmetry_Int_Tables_number   1
_chemical_formula_structural   Tb2LuTh(Al8Pt3)3
_chemical_formula_sum   'Tb2 Lu1 Th1 Al24 Pt9'
_cell_volume   640.83928050
_cell_formula_units_Z   1
loop_
 _symmetry_equiv_pos_site_id
 _symmetry_equiv_pos_as_xyz
  1  'x, y, z'
loop_
 _atom_site_type_symbol
 _atom_site_label
 _atom_site_symmetry_multiplicity
 _atom_site_fract_x
 _atom_site_fract_y
 _atom_site_fract_z
 _atom_site_occupancy
  Tb  Tb0  1  0.605673  0.831556  0.193057  1
  Tb  Tb1  1  0.733186  0.499057  0.808286  1
  Lu  Lu2  1  0.265667  0.501174  0.194996  1
  Th  Th3  1  0.393993  0.167928  0.807666  1
  Al  Al4  1  0.687205  0.831222  0.947578  1
  Al  Al5  1  0.314814  0.167756  0.059460  1
  Al  Al6  1  0.147006  0.832626  0.559832  1
  Al  Al7  1  0.854288  0.167512  0.437179  1
  Al  Al8  1  0.481087  0.166718  0.556213  1
  Al  Al9  1  0.520198  0.832555  0.440583  1
  Al  Al10  1  0.217029  0.166283  0.328296  1
  Al  Al11  1  0.787916  0.831369  0.666484  1
  Al  Al12  1  0.437700  0.510287  0.667211  1
  Al  Al13  1  0.562978  0.492714  0.328183  1
  Al  Al14  1  0.107737  0.159281  0.665375  1
  Al  Al15  1  0.891434  0.839901  0.329559  1
  Al  Al16  1  0.350549  0.502981  0.948315  1
  Al  Al17  1  0.644637  0.501248  0.057461  1
  Al  Al18  1  0.011825  0.166574  0.957598  1
  Al  Al19  1  0.984923  0.830316  0.050378  1
  Al  Al20  1  0.186023  0.500134  0.440363  1
  Al  Al21  1  0.813847  0.500307  0.557745  1
  Al  Al22  1  0.733086  0.165581  0.183386  1
  Al  Al23  1  0.264541  0.832296  0.816644  1
  Al  Al24  1  0.058157  0.635441  0.815459  1
  Al  Al25  1  0.939060  0.369026  0.184802  1
  Al  Al26  1  0.860053  0.040760  0.816318  1
  Al  Al27  1  0.143911  0.957130  0.184138  1
  Pt  Pt28  1  0.121703  0.490849  0.638465  1
  Pt  Pt29  1  0.880867  0.508258  0.360557  1
  Pt  Pt30  1  0.656420  0.171641  0.000241  1
  Pt  Pt31  1  0.342709  0.829735  0.000359  1
  Pt  Pt32  1  0.536792  0.167647  0.360457  1
  Pt  Pt33  1  0.462086  0.834366  0.638209  1
  Pt  Pt34  1  0.778263  0.174715  0.636882  1
  Pt  Pt35  1  0.221538  0.823996  0.361876  1
  Pt  Pt36  1  0.001098  0.499062  0.000386  1
