# generated using pymatgen
data_Tb3YAl17Co6Si
_symmetry_space_group_name_H-M   'P 1'
_cell_length_a   7.37225734
_cell_length_b   7.37445697
_cell_length_c   9.25276000
_cell_angle_alpha   90.00000000
_cell_angle_beta   90.00000000
_cell_angle_gamma   119.27440759
_symmetry_Int_Tables_number   1
_chemical_formula_structural   Tb3YAl17Co6Si
_chemical_formula_sum   'Tb3 Y1 Al17 Co6 Si1'
_cell_volume   438.79494726
_cell_formula_units_Z   1
loop_
 _symmetry_equiv_pos_site_id
 _symmetry_equiv_pos_as_xyz
  1  'x, y, z'
loop_
 _atom_site_type_symbol
 _atom_site_label
 _atom_site_symmetry_multiplicity
 _atom_site_fract_x
 _atom_site_fract_y
 _atom_site_fract_z
 _atom_site_occupancy
  Tb  Tb0  1  0.992646  0.677501  0.250000  1
  Tb  Tb1  1  0.005728  0.328523  0.750000  1
  Tb  Tb2  1  0.677456  0.992571  0.250000  1
  Y  Y3  1  0.328466  0.005776  0.750000  1
  Al  Al4  1  0.876068  0.875888  0.750000  1
  Al  Al5  1  0.331650  0.331435  0.545563  1
  Al  Al6  1  0.664959  0.664944  0.040673  1
  Al  Al7  1  0.331650  0.331435  0.954437  1
  Al  Al8  1  0.664959  0.664944  0.459327  1
  Al  Al9  1  0.336225  0.553591  0.250000  1
  Al  Al10  1  0.661147  0.446312  0.750000  1
  Al  Al11  1  0.553507  0.336165  0.250000  1
  Al  Al12  1  0.446554  0.661501  0.750000  1
  Al  Al13  1  0.999387  0.337155  0.073724  1
  Al  Al14  1  0.001833  0.665485  0.571341  1
  Al  Al15  1  0.337158  0.999348  0.426472  1
  Al  Al16  1  0.664981  0.001629  0.928653  1
  Al  Al17  1  0.001833  0.665485  0.928659  1
  Al  Al18  1  0.999387  0.337155  0.426276  1
  Al  Al19  1  0.664981  0.001629  0.571347  1
  Al  Al20  1  0.337158  0.999348  0.073528  1
  Co  Co21  1  0.000832  0.000803  0.008481  1
  Co  Co22  1  0.000832  0.000803  0.491519  1
  Co  Co23  1  0.669398  0.327784  0.000614  1
  Co  Co24  1  0.327813  0.669451  0.499379  1
  Co  Co25  1  0.327813  0.669451  0.000621  1
  Co  Co26  1  0.669398  0.327784  0.499386  1
  Si  Si27  1  0.126180  0.126102  0.250000  1
