# generated using pymatgen
data_YbY3(ReB4)4
_symmetry_space_group_name_H-M   'P 1'
_cell_length_a   3.61029700
_cell_length_b   5.97932414
_cell_length_c   11.57390526
_cell_angle_alpha   89.97555467
_cell_angle_beta   90.00000000
_cell_angle_gamma   90.00000000
_symmetry_Int_Tables_number   1
_chemical_formula_structural   YbY3(ReB4)4
_chemical_formula_sum   'Yb1 Y3 Re4 B16'
_cell_volume   249.84744412
_cell_formula_units_Z   1
loop_
 _symmetry_equiv_pos_site_id
 _symmetry_equiv_pos_as_xyz
  1  'x, y, z'
loop_
 _atom_site_type_symbol
 _atom_site_label
 _atom_site_symmetry_multiplicity
 _atom_site_fract_x
 _atom_site_fract_y
 _atom_site_fract_z
 _atom_site_occupancy
  Yb  Yb0  1  0.500000  0.872837  0.350065  1
  Y  Y1  1  0.500000  0.372452  0.150702  1
  Y  Y2  1  0.500000  0.626982  0.850261  1
  Y  Y3  1  0.500000  0.125678  0.649654  1
  Re  Re4  1  0.500000  0.368295  0.414786  1
  Re  Re5  1  0.500000  0.630215  0.585782  1
  Re  Re6  1  0.500000  0.132583  0.912413  1
  Re  Re7  1  0.500000  0.866810  0.087247  1
  B  B8  1  0.000000  0.113545  0.047501  1
  B  B9  1  0.000000  0.886357  0.952945  1
  B  B10  1  0.000000  0.386549  0.546505  1
  B  B11  1  0.000000  0.615708  0.452119  1
  B  B12  1  0.000000  0.136005  0.467698  1
  B  B13  1  0.000000  0.863426  0.531313  1
  B  B14  1  0.000000  0.363209  0.968742  1
  B  B15  1  0.000000  0.636896  0.031456  1
  B  B16  1  0.000000  0.024404  0.192652  1
  B  B17  1  0.000000  0.975464  0.807793  1
  B  B18  1  0.000000  0.476771  0.691858  1
  B  B19  1  0.000000  0.524170  0.308322  1
  B  B20  1  0.000000  0.214135  0.315693  1
  B  B21  1  0.000000  0.785895  0.684002  1
  B  B22  1  0.000000  0.285890  0.814824  1
  B  B23  1  0.000000  0.715725  0.185668  1
