# generated using pymatgen
data_Hf8Al14GeRh7
_symmetry_space_group_name_H-M   'P 1'
_cell_length_a   8.85372010
_cell_length_b   8.85372117
_cell_length_c   8.85372070
_cell_angle_alpha   120.22931221
_cell_angle_beta   119.78286075
_cell_angle_gamma   89.98989401
_symmetry_Int_Tables_number   1
_chemical_formula_structural   Hf8Al14GeRh7
_chemical_formula_sum   'Hf8 Al14 Ge1 Rh7'
_cell_volume   490.69794603
_cell_formula_units_Z   1
loop_
 _symmetry_equiv_pos_site_id
 _symmetry_equiv_pos_as_xyz
  1  'x, y, z'
loop_
 _atom_site_type_symbol
 _atom_site_label
 _atom_site_symmetry_multiplicity
 _atom_site_fract_x
 _atom_site_fract_y
 _atom_site_fract_z
 _atom_site_occupancy
  Hf  Hf0  1  0.802006  0.296297  0.085499  1
  Hf  Hf1  1  0.210798  0.296297  0.494291  1
  Hf  Hf2  1  0.198105  0.698105  0.500000  1
  Hf  Hf3  1  0.210798  0.716508  0.914501  1
  Hf  Hf4  1  0.802006  0.716508  0.505709  1
  Hf  Hf5  1  0.785235  0.285235  0.500000  1
  Hf  Hf6  1  0.379801  0.120434  0.740633  1
  Hf  Hf7  1  0.379801  0.639168  0.259367  1
  Al  Al8  1  0.161046  0.332137  0.171091  1
  Al  Al9  1  0.161046  0.989956  0.828909  1
  Al  Al10  1  0.153288  0.339146  0.814142  1
  Al  Al11  1  0.525002  0.339146  0.185858  1
  Al  Al12  1  0.836223  0.661643  0.825421  1
  Al  Al13  1  0.836223  0.010800  0.174579  1
  Al  Al14  1  0.835064  0.663215  0.171849  1
  Al  Al15  1  0.491364  0.663215  0.828151  1
  Al  Al16  1  0.380229  0.120930  0.259298  1
  Al  Al17  1  0.861633  0.120930  0.740702  1
  Al  Al18  1  0.622114  0.878422  0.256308  1
  Al  Al19  1  0.622114  0.365805  0.743692  1
  Al  Al20  1  0.621762  0.878776  0.742987  1
  Al  Al21  1  0.135788  0.878776  0.257013  1
  Ge  Ge22  1  0.991169  0.491169  0.500000  1
  Rh  Rh23  1  0.999257  0.999521  0.501584  1
  Rh  Rh24  1  0.497937  0.999521  0.000264  1
  Rh  Rh25  1  0.498248  0.498248  0.000000  1
  Rh  Rh26  1  0.497937  0.497673  0.498416  1
  Rh  Rh27  1  0.999257  0.497673  0.999736  1
  Rh  Rh28  1  0.999452  0.999452  0.000000  1
  Rh  Rh29  1  0.505294  0.005294  0.500000  1
