# generated using pymatgen
data_Sm2Y3Nb3(Co4P3)4
_symmetry_space_group_name_H-M   'P 1'
_cell_length_a   12.20410300
_cell_length_b   12.20410255
_cell_length_c   3.70869800
_cell_angle_alpha   90.00000000
_cell_angle_beta   90.00000000
_cell_angle_gamma   119.99999850
_symmetry_Int_Tables_number   1
_chemical_formula_structural   Sm2Y3Nb3(Co4P3)4
_chemical_formula_sum   'Sm2 Y3 Nb3 Co16 P12'
_cell_volume   478.36987347
_cell_formula_units_Z   1
loop_
 _symmetry_equiv_pos_site_id
 _symmetry_equiv_pos_as_xyz
  1  'x, y, z'
loop_
 _atom_site_type_symbol
 _atom_site_label
 _atom_site_symmetry_multiplicity
 _atom_site_fract_x
 _atom_site_fract_y
 _atom_site_fract_z
 _atom_site_occupancy
  Sm  Sm0  1  0.333333  0.666667  0.000000  1
  Sm  Sm1  1  0.666667  0.333333  0.000000  1
  Y  Y2  1  0.816234  0.000000  0.500000  1
  Y  Y3  1  0.000000  0.816234  0.500000  1
  Y  Y4  1  0.183766  0.183766  0.500000  1
  Nb  Nb5  1  0.443969  0.000000  0.000000  1
  Nb  Nb6  1  0.000000  0.443969  0.000000  1
  Nb  Nb7  1  0.556031  0.556031  0.000000  1
  Co  Co8  1  0.278498  0.000000  0.500000  1
  Co  Co9  1  0.000000  0.278498  0.500000  1
  Co  Co10  1  0.721502  0.721502  0.500000  1
  Co  Co11  1  0.627044  0.803601  0.000000  1
  Co  Co12  1  0.196399  0.823443  0.000000  1
  Co  Co13  1  0.176557  0.372956  0.000000  1
  Co  Co14  1  0.372956  0.176557  0.000000  1
  Co  Co15  1  0.803601  0.627044  0.000000  1
  Co  Co16  1  0.823443  0.196399  0.000000  1
  Co  Co17  1  0.520705  0.874437  0.500000  1
  Co  Co18  1  0.125563  0.646267  0.500000  1
  Co  Co19  1  0.353733  0.479295  0.500000  1
  Co  Co20  1  0.479295  0.353733  0.500000  1
  Co  Co21  1  0.874437  0.520705  0.500000  1
  Co  Co22  1  0.646267  0.125563  0.500000  1
  Co  Co23  1  0.000000  0.000000  0.000000  1
  P  P24  1  0.178184  0.000000  0.000000  1
  P  P25  1  0.000000  0.178184  0.000000  1
  P  P26  1  0.821816  0.821816  0.000000  1
  P  P27  1  0.522795  0.689374  0.500000  1
  P  P28  1  0.310626  0.833420  0.500000  1
  P  P29  1  0.166580  0.477205  0.500000  1
  P  P30  1  0.477205  0.166580  0.500000  1
  P  P31  1  0.689374  0.522795  0.500000  1
  P  P32  1  0.833420  0.310626  0.500000  1
  P  P33  1  0.643346  0.000000  0.000000  1
  P  P34  1  0.000000  0.643346  0.000000  1
  P  P35  1  0.356654  0.356654  0.000000  1
