# generated using pymatgen
data_Er2TmThMgCo
_symmetry_space_group_name_H-M   'P 1'
_cell_length_a   9.55874300
_cell_length_b   9.55874365
_cell_length_c   9.55940400
_cell_angle_alpha   59.99772164
_cell_angle_beta   59.99771938
_cell_angle_gamma   60.00457273
_symmetry_Int_Tables_number   1
_chemical_formula_structural   Er2TmThMgCo
_chemical_formula_sum   'Er8 Tm4 Th4 Mg4 Co4'
_cell_volume   617.61446530
_cell_formula_units_Z   4
loop_
 _symmetry_equiv_pos_site_id
 _symmetry_equiv_pos_as_xyz
  1  'x, y, z'
loop_
 _atom_site_type_symbol
 _atom_site_label
 _atom_site_symmetry_multiplicity
 _atom_site_fract_x
 _atom_site_fract_y
 _atom_site_fract_z
 _atom_site_occupancy
  Er  Er0  1  0.435974  0.435974  0.064026  1
  Er  Er1  1  0.064026  0.064026  0.435974  1
  Er  Er2  1  0.184967  0.815033  0.815033  1
  Er  Er3  1  0.815033  0.184967  0.184967  1
  Er  Er4  1  0.815033  0.184967  0.815033  1
  Er  Er5  1  0.184967  0.815033  0.184967  1
  Er  Er6  1  0.815044  0.815044  0.184956  1
  Er  Er7  1  0.184956  0.184956  0.815044  1
  Tm  Tm8  1  0.063939  0.436061  0.436061  1
  Tm  Tm9  1  0.436061  0.063939  0.063939  1
  Tm  Tm10  1  0.436061  0.063939  0.436061  1
  Tm  Tm11  1  0.063939  0.436061  0.063939  1
  Th  Th12  1  0.595187  0.595187  0.594971  1
  Th  Th13  1  0.595187  0.595187  0.214657  1
  Th  Th14  1  0.594971  0.214657  0.595187  1
  Th  Th15  1  0.214657  0.594971  0.595187  1
  Mg  Mg16  1  0.830691  0.830691  0.830745  1
  Mg  Mg17  1  0.830691  0.830691  0.507874  1
  Mg  Mg18  1  0.830745  0.507874  0.830691  1
  Mg  Mg19  1  0.507874  0.830745  0.830691  1
  Co  Co20  1  0.394366  0.394366  0.394529  1
  Co  Co21  1  0.394366  0.394366  0.816739  1
  Co  Co22  1  0.394529  0.816739  0.394366  1
  Co  Co23  1  0.816739  0.394529  0.394366  1
