# generated using pymatgen
data_K2Hf3ScSe8
_symmetry_space_group_name_H-M   'P 1'
_cell_length_a   6.53606600
_cell_length_b   7.55682800
_cell_length_c   16.50037900
_cell_angle_alpha   90.00000000
_cell_angle_beta   90.00000000
_cell_angle_gamma   90.00000000
_symmetry_Int_Tables_number   1
_chemical_formula_structural   K2Hf3ScSe8
_chemical_formula_sum   'K4 Hf6 Sc2 Se16'
_cell_volume   814.98550776
_cell_formula_units_Z   2
loop_
 _symmetry_equiv_pos_site_id
 _symmetry_equiv_pos_as_xyz
  1  'x, y, z'
loop_
 _atom_site_type_symbol
 _atom_site_label
 _atom_site_symmetry_multiplicity
 _atom_site_fract_x
 _atom_site_fract_y
 _atom_site_fract_z
 _atom_site_occupancy
  K  K0  1  0.343286  0.000000  0.000000  1
  K  K1  1  0.658324  0.500000  0.500000  1
  K  K2  1  0.026880  0.000000  0.500000  1
  K  K3  1  0.973078  0.500000  0.000000  1
  Hf  Hf4  1  0.000746  0.000000  0.248954  1
  Hf  Hf5  1  0.000746  0.000000  0.751046  1
  Hf  Hf6  1  0.500152  0.252756  0.250080  1
  Hf  Hf7  1  0.500152  0.747244  0.749920  1
  Hf  Hf8  1  0.500152  0.747244  0.250080  1
  Hf  Hf9  1  0.500152  0.252756  0.749920  1
  Sc  Sc10  1  0.999210  0.500000  0.251114  1
  Sc  Sc11  1  0.999210  0.500000  0.748886  1
  Se  Se12  1  0.831842  0.245958  0.346554  1
  Se  Se13  1  0.831842  0.754042  0.653446  1
  Se  Se14  1  0.167993  0.751433  0.153455  1
  Se  Se15  1  0.167993  0.248567  0.846545  1
  Se  Se16  1  0.167993  0.248567  0.153455  1
  Se  Se17  1  0.167993  0.751433  0.846545  1
  Se  Se18  1  0.831842  0.754042  0.346554  1
  Se  Se19  1  0.831842  0.245958  0.653446  1
  Se  Se20  1  0.670107  0.000000  0.154340  1
  Se  Se21  1  0.670107  0.000000  0.845660  1
  Se  Se22  1  0.334047  0.500000  0.346348  1
  Se  Se23  1  0.334047  0.500000  0.653652  1
  Se  Se24  1  0.334435  0.000000  0.344534  1
  Se  Se25  1  0.334435  0.000000  0.655466  1
  Se  Se26  1  0.660695  0.500000  0.154302  1
  Se  Se27  1  0.660695  0.500000  0.845698  1
