# generated using pymatgen
data_Li2TbPrPd2
_symmetry_space_group_name_H-M   'P 1'
_cell_length_a   4.08664600
_cell_length_b   7.26581882
_cell_length_c   8.61724651
_cell_angle_alpha   90.89000220
_cell_angle_beta   90.00000000
_cell_angle_gamma   90.00000000
_symmetry_Int_Tables_number   1
_chemical_formula_structural   Li2TbPrPd2
_chemical_formula_sum   'Li4 Tb2 Pr2 Pd4'
_cell_volume   255.83956195
_cell_formula_units_Z   2
loop_
 _symmetry_equiv_pos_site_id
 _symmetry_equiv_pos_as_xyz
  1  'x, y, z'
loop_
 _atom_site_type_symbol
 _atom_site_label
 _atom_site_symmetry_multiplicity
 _atom_site_fract_x
 _atom_site_fract_y
 _atom_site_fract_z
 _atom_site_occupancy
  Li  Li0  1  0.250000  0.880835  0.944474  1
  Li  Li1  1  0.750000  0.119165  0.055526  1
  Li  Li2  1  0.250000  0.366637  0.554752  1
  Li  Li3  1  0.750000  0.633363  0.445248  1
  Tb  Tb4  1  0.250000  0.951123  0.320209  1
  Tb  Tb5  1  0.750000  0.048877  0.679791  1
  Pr  Pr6  1  0.250000  0.451541  0.186486  1
  Pr  Pr7  1  0.750000  0.548459  0.813514  1
  Pd  Pd8  1  0.750000  0.752036  0.127897  1
  Pd  Pd9  1  0.250000  0.247964  0.872103  1
  Pd  Pd10  1  0.750000  0.235197  0.381104  1
  Pd  Pd11  1  0.250000  0.764803  0.618896  1
