# generated using pymatgen
data_Y4Sc4Cr3B24Ir
_symmetry_space_group_name_H-M   'P 1'
_cell_length_a   3.48659000
_cell_length_b   8.99471816
_cell_length_c   11.37653220
_cell_angle_alpha   90.02164052
_cell_angle_beta   90.00000000
_cell_angle_gamma   90.00000000
_symmetry_Int_Tables_number   1
_chemical_formula_structural   Y4Sc4Cr3B24Ir
_chemical_formula_sum   'Y4 Sc4 Cr3 B24 Ir1'
_cell_volume   356.77819950
_cell_formula_units_Z   1
loop_
 _symmetry_equiv_pos_site_id
 _symmetry_equiv_pos_as_xyz
  1  'x, y, z'
loop_
 _atom_site_type_symbol
 _atom_site_label
 _atom_site_symmetry_multiplicity
 _atom_site_fract_x
 _atom_site_fract_y
 _atom_site_fract_z
 _atom_site_occupancy
  Y  Y0  1  0.500000  0.318166  0.415864  1
  Y  Y1  1  0.500000  0.678532  0.589115  1
  Y  Y2  1  0.500000  0.177777  0.913982  1
  Y  Y3  1  0.500000  0.824283  0.082755  1
  Sc  Sc4  1  0.500000  0.440685  0.126807  1
  Sc  Sc5  1  0.500000  0.555947  0.871127  1
  Sc  Sc6  1  0.500000  0.055743  0.629604  1
  Sc  Sc7  1  0.500000  0.947964  0.370687  1
  Cr  Cr8  1  0.500000  0.141446  0.182787  1
  Cr  Cr9  1  0.500000  0.858649  0.818192  1
  Cr  Cr10  1  0.500000  0.359315  0.681136  1
  B  B11  1  0.000000  0.097096  0.473801  1
  B  B12  1  0.000000  0.902197  0.526455  1
  B  B13  1  0.000000  0.402289  0.973422  1
  B  B14  1  0.000000  0.597323  0.026564  1
  B  B15  1  0.000000  0.129825  0.316581  1
  B  B16  1  0.000000  0.870328  0.684138  1
  B  B17  1  0.000000  0.370639  0.815940  1
  B  B18  1  0.000000  0.629689  0.181721  1
  B  B19  1  0.000000  0.055093  0.067926  1
  B  B20  1  0.000000  0.945722  0.931431  1
  B  B21  1  0.000000  0.445053  0.567936  1
  B  B22  1  0.000000  0.554405  0.433673  1
  B  B23  1  0.000000  0.481304  0.285296  1
  B  B24  1  0.000000  0.517457  0.714253  1
  B  B25  1  0.000000  0.017471  0.785558  1
  B  B26  1  0.000000  0.983023  0.213840  1
  B  B27  1  0.000000  0.252211  0.082227  1
  B  B28  1  0.000000  0.747427  0.917249  1
  B  B29  1  0.000000  0.246717  0.582820  1
  B  B30  1  0.000000  0.754129  0.419156  1
  B  B31  1  0.000000  0.294242  0.234902  1
  B  B32  1  0.000000  0.705596  0.765618  1
  B  B33  1  0.000000  0.205693  0.734606  1
  B  B34  1  0.000000  0.795560  0.264346  1
  Ir  Ir35  1  0.500000  0.641004  0.318486  1
