# generated using pymatgen
data_HoLuCu2(AuO4)2
_symmetry_space_group_name_H-M   'P 1'
_cell_length_a   6.40158691
_cell_length_b   6.40158677
_cell_length_c   6.43692460
_cell_angle_alpha   126.03785842
_cell_angle_beta   126.19236317
_cell_angle_gamma   79.31991653
_symmetry_Int_Tables_number   1
_chemical_formula_structural   HoLuCu2(AuO4)2
_chemical_formula_sum   'Ho1 Lu1 Cu2 Au2 O8'
_cell_volume   166.75253011
_cell_formula_units_Z   1
loop_
 _symmetry_equiv_pos_site_id
 _symmetry_equiv_pos_as_xyz
  1  'x, y, z'
loop_
 _atom_site_type_symbol
 _atom_site_label
 _atom_site_symmetry_multiplicity
 _atom_site_fract_x
 _atom_site_fract_y
 _atom_site_fract_z
 _atom_site_occupancy
  Ho  Ho0  1  0.749809  0.249809  0.500000  1
  Lu  Lu1  1  0.000459  0.000459  0.000000  1
  Cu  Cu2  1  0.375588  0.626133  0.251568  1
  Cu  Cu3  1  0.374565  0.124020  0.748432  1
  Au  Au4  1  0.374421  0.626349  0.750957  1
  Au  Au5  1  0.875392  0.623464  0.249043  1
  O  O6  1  0.743849  0.279336  0.137187  1
  O  O7  1  0.142149  0.606662  0.862813  1
  O  O8  1  0.007728  0.964349  0.355523  1
  O  O9  1  0.608825  0.652205  0.644477  1
  O  O10  1  0.046843  0.381770  0.034815  1
  O  O11  1  0.346955  0.012029  0.965185  1
  O  O12  1  0.394370  0.237445  0.528400  1
  O  O13  1  0.709047  0.865970  0.471600  1
