# generated using pymatgen
data_Tb3Cd3Sn2Pd
_symmetry_space_group_name_H-M   'P 1'
_cell_length_a   7.46873900
_cell_length_b   7.46873900
_cell_length_c   4.52353000
_cell_angle_alpha   90.00000000
_cell_angle_beta   90.00000000
_cell_angle_gamma   119.99999556
_symmetry_Int_Tables_number   1
_chemical_formula_structural   Tb3Cd3Sn2Pd
_chemical_formula_sum   'Tb3 Cd3 Sn2 Pd1'
_cell_volume   218.52578660
_cell_formula_units_Z   1
loop_
 _symmetry_equiv_pos_site_id
 _symmetry_equiv_pos_as_xyz
  1  'x, y, z'
loop_
 _atom_site_type_symbol
 _atom_site_label
 _atom_site_symmetry_multiplicity
 _atom_site_fract_x
 _atom_site_fract_y
 _atom_site_fract_z
 _atom_site_occupancy
  Tb  Tb0  1  0.599213  0.000000  0.000000  1
  Tb  Tb1  1  0.000000  0.599213  0.000000  1
  Tb  Tb2  1  0.400787  0.400787  0.000000  1
  Cd  Cd3  1  0.235709  0.000000  0.500000  1
  Cd  Cd4  1  0.000000  0.235709  0.500000  1
  Cd  Cd5  1  0.764291  0.764291  0.500000  1
  Sn  Sn6  1  0.333333  0.666667  0.500000  1
  Sn  Sn7  1  0.666667  0.333333  0.500000  1
  Pd  Pd8  1  0.000000  0.000000  0.000000  1
