# generated using pymatgen
data_Pr7Nd13Sn15Bi
_symmetry_space_group_name_H-M   'P 1'
_cell_length_a   8.35006614
_cell_length_b   8.50351459
_cell_length_c   16.08832439
_cell_angle_alpha   89.95404700
_cell_angle_beta   90.37989023
_cell_angle_gamma   90.14531317
_symmetry_Int_Tables_number   1
_chemical_formula_structural   Pr7Nd13Sn15Bi
_chemical_formula_sum   'Pr7 Nd13 Sn15 Bi1'
_cell_volume   1142.32087779
_cell_formula_units_Z   1
loop_
 _symmetry_equiv_pos_site_id
 _symmetry_equiv_pos_as_xyz
  1  'x, y, z'
loop_
 _atom_site_type_symbol
 _atom_site_label
 _atom_site_symmetry_multiplicity
 _atom_site_fract_x
 _atom_site_fract_y
 _atom_site_fract_z
 _atom_site_occupancy
  Pr  Pr0  1  0.018703  0.180504  0.599931  1
  Pr  Pr1  1  0.482392  0.681013  0.400618  1
  Pr  Pr2  1  0.974782  0.817840  0.101233  1
  Pr  Pr3  1  0.480673  0.678034  0.100167  1
  Pr  Pr4  1  0.981330  0.819281  0.400400  1
  Pr  Pr5  1  0.517752  0.318316  0.599288  1
  Pr  Pr6  1  0.017525  0.182621  0.898483  1
  Nd  Nd7  1  0.371187  0.834538  0.878708  1
  Nd  Nd8  1  0.867607  0.663313  0.620766  1
  Nd  Nd9  1  0.632563  0.162485  0.379383  1
  Nd  Nd10  1  0.129061  0.340804  0.120845  1
  Nd  Nd11  1  0.634296  0.163392  0.119943  1
  Nd  Nd12  1  0.132835  0.337090  0.379095  1
  Nd  Nd13  1  0.367729  0.837670  0.620794  1
  Nd  Nd14  1  0.869167  0.663030  0.879731  1
  Nd  Nd15  1  0.522005  0.321092  0.898997  1
  Nd  Nd16  1  0.198037  0.500560  0.749720  1
  Nd  Nd17  1  0.697681  0.998502  0.750142  1
  Nd  Nd18  1  0.801151  0.499248  0.251231  1
  Nd  Nd19  1  0.302150  0.001252  0.253790  1
  Sn  Sn20  1  0.792911  0.463633  0.458012  1
  Sn  Sn21  1  0.708103  0.963222  0.542140  1
  Sn  Sn22  1  0.210425  0.533758  0.957233  1
  Sn  Sn23  1  0.712505  0.965010  0.957173  1
  Sn  Sn24  1  0.207303  0.536294  0.542066  1
  Sn  Sn25  1  0.292255  0.036441  0.457966  1
  Sn  Sn26  1  0.790135  0.464874  0.042397  1
  Sn  Sn27  1  0.567036  0.618162  0.749745  1
  Sn  Sn28  1  0.068019  0.881477  0.750312  1
  Sn  Sn29  1  0.433380  0.380760  0.248839  1
  Sn  Sn30  1  0.933289  0.118756  0.249084  1
  Sn  Sn31  1  0.323379  0.142973  0.750395  1
  Sn  Sn32  1  0.822335  0.357939  0.749790  1
  Sn  Sn33  1  0.676197  0.857221  0.249755  1
  Sn  Sn34  1  0.176359  0.643435  0.249668  1
  Bi  Bi35  1  0.287745  0.035458  0.042162  1
