# generated using pymatgen
data_SrLa6PtI12
_symmetry_space_group_name_H-M   'P 1'
_cell_length_a   10.22411916
_cell_length_b   10.22411887
_cell_length_c   10.22412063
_cell_angle_alpha   106.43912212
_cell_angle_beta   106.43912223
_cell_angle_gamma   106.43911931
_symmetry_Int_Tables_number   1
_chemical_formula_structural   SrLa6PtI12
_chemical_formula_sum   'Sr1 La6 Pt1 I12'
_cell_volume   903.34087003
_cell_formula_units_Z   1
loop_
 _symmetry_equiv_pos_site_id
 _symmetry_equiv_pos_as_xyz
  1  'x, y, z'
loop_
 _atom_site_type_symbol
 _atom_site_label
 _atom_site_symmetry_multiplicity
 _atom_site_fract_x
 _atom_site_fract_y
 _atom_site_fract_z
 _atom_site_occupancy
  Sr  Sr0  1  0.500000  0.500000  0.500000  1
  La  La1  1  0.099627  0.023564  0.306504  1
  La  La2  1  0.306504  0.099627  0.023564  1
  La  La3  1  0.023564  0.306504  0.099627  1
  La  La4  1  0.900373  0.976436  0.693496  1
  La  La5  1  0.693496  0.900373  0.976436  1
  La  La6  1  0.976436  0.693496  0.900373  1
  Pt  Pt7  1  0.000000  0.000000  0.000000  1
  I  I8  1  0.074458  0.677977  0.225193  1
  I  I9  1  0.225193  0.074458  0.677977  1
  I  I10  1  0.677977  0.225193  0.074458  1
  I  I11  1  0.925542  0.322023  0.774807  1
  I  I12  1  0.774807  0.925542  0.322023  1
  I  I13  1  0.322023  0.774807  0.925542  1
  I  I14  1  0.455696  0.147840  0.375874  1
  I  I15  1  0.375874  0.455696  0.147840  1
  I  I16  1  0.147840  0.375874  0.455696  1
  I  I17  1  0.544304  0.852160  0.624126  1
  I  I18  1  0.624126  0.544304  0.852160  1
  I  I19  1  0.852160  0.624126  0.544304  1
