# generated using pymatgen
data_Nd5Ho3(Si3Rh)4
_symmetry_space_group_name_H-M   'P 1'
_cell_length_a   8.22539600
_cell_length_b   8.22539523
_cell_length_c   8.18908000
_cell_angle_alpha   90.00000000
_cell_angle_beta   90.00000000
_cell_angle_gamma   120.00000311
_symmetry_Int_Tables_number   1
_chemical_formula_structural   Nd5Ho3(Si3Rh)4
_chemical_formula_sum   'Nd5 Ho3 Si12 Rh4'
_cell_volume   479.82107824
_cell_formula_units_Z   1
loop_
 _symmetry_equiv_pos_site_id
 _symmetry_equiv_pos_as_xyz
  1  'x, y, z'
loop_
 _atom_site_type_symbol
 _atom_site_label
 _atom_site_symmetry_multiplicity
 _atom_site_fract_x
 _atom_site_fract_y
 _atom_site_fract_z
 _atom_site_occupancy
  Nd  Nd0  1  0.000000  0.000000  0.250000  1
  Nd  Nd1  1  0.000000  0.000000  0.750000  1
  Nd  Nd2  1  0.505647  0.494353  0.250000  1
  Nd  Nd3  1  0.505647  0.011294  0.250000  1
  Nd  Nd4  1  0.988706  0.494353  0.250000  1
  Ho  Ho5  1  0.491968  0.508032  0.750000  1
  Ho  Ho6  1  0.491968  0.983935  0.750000  1
  Ho  Ho7  1  0.016065  0.508032  0.750000  1
  Si  Si8  1  0.166936  0.833064  0.507093  1
  Si  Si9  1  0.166936  0.333872  0.507093  1
  Si  Si10  1  0.666128  0.833064  0.507093  1
  Si  Si11  1  0.831670  0.168330  0.504371  1
  Si  Si12  1  0.831670  0.663341  0.504371  1
  Si  Si13  1  0.336659  0.168330  0.504371  1
  Si  Si14  1  0.831670  0.168330  0.995629  1
  Si  Si15  1  0.831670  0.663341  0.995629  1
  Si  Si16  1  0.336659  0.168330  0.995629  1
  Si  Si17  1  0.166936  0.833064  0.992907  1
  Si  Si18  1  0.166936  0.333872  0.992907  1
  Si  Si19  1  0.666128  0.833064  0.992907  1
  Rh  Rh20  1  0.333333  0.666667  0.488237  1
  Rh  Rh21  1  0.666667  0.333333  0.545342  1
  Rh  Rh22  1  0.666667  0.333333  0.954658  1
  Rh  Rh23  1  0.333333  0.666667  0.011763  1
