# generated using pymatgen
data_Dy10Ho2InGaNi4
_symmetry_space_group_name_H-M   'P 1'
_cell_length_a   8.36421546
_cell_length_b   8.36360425
_cell_length_c   8.36421650
_cell_angle_alpha   113.10915277
_cell_angle_beta   109.65600464
_cell_angle_gamma   105.73522519
_symmetry_Int_Tables_number   1
_chemical_formula_structural   Dy10Ho2InGaNi4
_chemical_formula_sum   'Dy10 Ho2 In1 Ga1 Ni4'
_cell_volume   448.54555199
_cell_formula_units_Z   1
loop_
 _symmetry_equiv_pos_site_id
 _symmetry_equiv_pos_as_xyz
  1  'x, y, z'
loop_
 _atom_site_type_symbol
 _atom_site_label
 _atom_site_symmetry_multiplicity
 _atom_site_fract_x
 _atom_site_fract_y
 _atom_site_fract_z
 _atom_site_occupancy
  Dy  Dy0  1  0.428704  0.231577  0.197024  1
  Dy  Dy1  1  0.571296  0.768423  0.802976  1
  Dy  Dy2  1  0.034553  0.231577  0.802873  1
  Dy  Dy3  1  0.965447  0.768423  0.197127  1
  Dy  Dy4  1  0.180881  0.286331  0.467314  1
  Dy  Dy5  1  0.819119  0.713669  0.532686  1
  Dy  Dy6  1  0.180984  0.713669  0.894550  1
  Dy  Dy7  1  0.819016  0.286331  0.105450  1
  Dy  Dy8  1  0.323737  0.632938  0.309203  1
  Dy  Dy9  1  0.676263  0.367062  0.690797  1
  Ho  Ho10  1  0.323723  0.014468  0.690745  1
  Ho  Ho11  1  0.676277  0.985532  0.309255  1
  In  In12  1  0.500000  0.500000  0.000000  1
  Ga  Ga13  1  0.000000  0.000000  0.000000  1
  Ni  Ni14  1  0.350123  0.000000  0.350123  1
  Ni  Ni15  1  0.649877  0.000000  0.649877  1
  Ni  Ni16  1  0.121542  0.621596  0.500053  1
  Ni  Ni17  1  0.878458  0.378404  0.499947  1
