# generated using pymatgen
data_Dy2ErIn3SnPt2
_symmetry_space_group_name_H-M   'P 1'
_cell_length_a   7.60632756
_cell_length_b   7.61054402
_cell_length_c   4.16113900
_cell_angle_alpha   90.00000000
_cell_angle_beta   90.00000000
_cell_angle_gamma   120.07565916
_symmetry_Int_Tables_number   1
_chemical_formula_structural   Dy2ErIn3SnPt2
_chemical_formula_sum   'Dy2 Er1 In3 Sn1 Pt2'
_cell_volume   208.45003570
_cell_formula_units_Z   1
loop_
 _symmetry_equiv_pos_site_id
 _symmetry_equiv_pos_as_xyz
  1  'x, y, z'
loop_
 _atom_site_type_symbol
 _atom_site_label
 _atom_site_symmetry_multiplicity
 _atom_site_fract_x
 _atom_site_fract_y
 _atom_site_fract_z
 _atom_site_occupancy
  Dy  Dy0  1  0.606967  0.021023  0.500000  1
  Dy  Dy1  1  0.414227  0.393277  0.500000  1
  Er  Er2  1  0.977583  0.585805  0.500000  1
  In  In3  1  0.755986  0.744689  0.000000  1
  In  In4  1  0.989332  0.244613  0.000000  1
  In  In5  1  0.255200  0.010649  0.000000  1
  Sn  Sn6  1  0.332502  0.666404  0.000000  1
  Pt  Pt7  1  0.668094  0.334375  0.000000  1
  Pt  Pt8  1  0.000109  0.999163  0.500000  1
