# generated using pymatgen
data_Sm5Y(Sn3Hg2)2
_symmetry_space_group_name_H-M   'P 1'
_cell_length_a   6.51966246
_cell_length_b   6.51966266
_cell_length_c   10.32589100
_cell_angle_alpha   90.00000000
_cell_angle_beta   90.00000000
_cell_angle_gamma   102.92002390
_symmetry_Int_Tables_number   1
_chemical_formula_structural   Sm5Y(Sn3Hg2)2
_chemical_formula_sum   'Sm5 Y1 Sn6 Hg4'
_cell_volume   427.80042825
_cell_formula_units_Z   1
loop_
 _symmetry_equiv_pos_site_id
 _symmetry_equiv_pos_as_xyz
  1  'x, y, z'
loop_
 _atom_site_type_symbol
 _atom_site_label
 _atom_site_symmetry_multiplicity
 _atom_site_fract_x
 _atom_site_fract_y
 _atom_site_fract_z
 _atom_site_occupancy
  Sm  Sm0  1  0.377120  0.377120  0.750000  1
  Sm  Sm1  1  0.795358  0.204995  0.000235  1
  Sm  Sm2  1  0.204995  0.795358  0.000235  1
  Sm  Sm3  1  0.204995  0.795358  0.499765  1
  Sm  Sm4  1  0.795358  0.204995  0.499765  1
  Y  Y5  1  0.624644  0.624644  0.250000  1
  Sn  Sn6  1  0.063737  0.493769  0.250000  1
  Sn  Sn7  1  0.933615  0.506787  0.750000  1
  Sn  Sn8  1  0.493769  0.063737  0.250000  1
  Sn  Sn9  1  0.506787  0.933615  0.750000  1
  Sn  Sn10  1  0.012142  0.012142  0.250000  1
  Sn  Sn11  1  0.986060  0.986060  0.750000  1
  Hg  Hg12  1  0.312972  0.312972  0.042153  1
  Hg  Hg13  1  0.687739  0.687739  0.961813  1
  Hg  Hg14  1  0.687739  0.687739  0.538187  1
  Hg  Hg15  1  0.312972  0.312972  0.457847  1
