# generated using pymatgen
data_YbHfB4Ru5
_symmetry_space_group_name_H-M   'P 1'
_cell_length_a   3.00792600
_cell_length_b   8.67407742
_cell_length_c   10.12872712
_cell_angle_alpha   89.40716015
_cell_angle_beta   90.00000000
_cell_angle_gamma   90.00000000
_symmetry_Int_Tables_number   1
_chemical_formula_structural   YbHfB4Ru5
_chemical_formula_sum   'Yb2 Hf2 B8 Ru10'
_cell_volume   264.25430091
_cell_formula_units_Z   2
loop_
 _symmetry_equiv_pos_site_id
 _symmetry_equiv_pos_as_xyz
  1  'x, y, z'
loop_
 _atom_site_type_symbol
 _atom_site_label
 _atom_site_symmetry_multiplicity
 _atom_site_fract_x
 _atom_site_fract_y
 _atom_site_fract_z
 _atom_site_occupancy
  Yb  Yb0  1  0.500000  0.840246  0.181063  1
  Yb  Yb1  1  0.500000  0.159754  0.818937  1
  Hf  Hf2  1  0.500000  0.658953  0.683448  1
  Hf  Hf3  1  0.500000  0.341047  0.316552  1
  B  B4  1  0.500000  0.966417  0.587700  1
  B  B5  1  0.500000  0.033583  0.412300  1
  B  B6  1  0.500000  0.854001  0.901281  1
  B  B7  1  0.500000  0.145999  0.098719  1
  B  B8  1  0.500000  0.648010  0.398422  1
  B  B9  1  0.500000  0.351990  0.601578  1
  B  B10  1  0.500000  0.466018  0.912521  1
  B  B11  1  0.500000  0.533982  0.087479  1
  Ru  Ru12  1  0.000000  0.660002  0.950607  1
  Ru  Ru13  1  0.000000  0.339998  0.049393  1
  Ru  Ru14  1  0.000000  0.834698  0.455510  1
  Ru  Ru15  1  0.000000  0.165302  0.544490  1
  Ru  Ru16  1  0.000000  0.000000  0.000000  1
  Ru  Ru17  1  0.000000  0.412900  0.760915  1
  Ru  Ru18  1  0.000000  0.587100  0.239085  1
  Ru  Ru19  1  0.000000  0.500000  0.500000  1
  Ru  Ru20  1  0.000000  0.900495  0.737178  1
  Ru  Ru21  1  0.000000  0.099505  0.262822  1
