# generated using pymatgen
data_Ti6Ga2C3N
_symmetry_space_group_name_H-M   'P 1'
_cell_length_a   3.07948500
_cell_length_b   3.07948368
_cell_length_c   18.22259100
_cell_angle_alpha   90.00000000
_cell_angle_beta   90.00000000
_cell_angle_gamma   120.00000348
_symmetry_Int_Tables_number   1
_chemical_formula_structural   Ti6Ga2C3N
_chemical_formula_sum   'Ti6 Ga2 C3 N1'
_cell_volume   149.65689945
_cell_formula_units_Z   1
loop_
 _symmetry_equiv_pos_site_id
 _symmetry_equiv_pos_as_xyz
  1  'x, y, z'
loop_
 _atom_site_type_symbol
 _atom_site_label
 _atom_site_symmetry_multiplicity
 _atom_site_fract_x
 _atom_site_fract_y
 _atom_site_fract_z
 _atom_site_occupancy
  Ti  Ti0  1  0.666667  0.333333  0.372035  1
  Ti  Ti1  1  0.333333  0.666667  0.870603  1
  Ti  Ti2  1  0.333333  0.666667  0.627762  1
  Ti  Ti3  1  0.666667  0.333333  0.130305  1
  Ti  Ti4  1  0.000000  0.000000  0.499226  1
  Ti  Ti5  1  0.000000  0.000000  0.000291  1
  Ga  Ga6  1  0.000000  0.000000  0.748796  1
  Ga  Ga7  1  0.000000  0.000000  0.252179  1
  C  C8  1  0.666667  0.333333  0.929249  1
  C  C9  1  0.333333  0.666667  0.071324  1
  C  C10  1  0.666667  0.333333  0.568635  1
  N  N11  1  0.333333  0.666667  0.429594  1
