# generated using pymatgen
data_Ga2Si14Mo3Pt12W
_symmetry_space_group_name_H-M   'P 1'
_cell_length_a   3.53107100
_cell_length_b   5.56611400
_cell_length_c   24.78610400
_cell_angle_alpha   90.00020696
_cell_angle_beta   90.00000000
_cell_angle_gamma   90.00000000
_symmetry_Int_Tables_number   1
_chemical_formula_structural   Ga2Si14Mo3Pt12W
_chemical_formula_sum   'Ga2 Si14 Mo3 Pt12 W1'
_cell_volume   487.15460769
_cell_formula_units_Z   1
loop_
 _symmetry_equiv_pos_site_id
 _symmetry_equiv_pos_as_xyz
  1  'x, y, z'
loop_
 _atom_site_type_symbol
 _atom_site_label
 _atom_site_symmetry_multiplicity
 _atom_site_fract_x
 _atom_site_fract_y
 _atom_site_fract_z
 _atom_site_occupancy
  Ga  Ga0  1  0.250000  0.182515  0.520078  1
  Ga  Ga1  1  0.750000  0.317436  0.020084  1
  Si  Si2  1  0.250000  0.677092  0.980991  1
  Si  Si3  1  0.750000  0.822847  0.480928  1
  Si  Si4  1  0.750000  0.319587  0.644832  1
  Si  Si5  1  0.250000  0.181158  0.145075  1
  Si  Si6  1  0.750000  0.819902  0.853700  1
  Si  Si7  1  0.250000  0.680246  0.353545  1
  Si  Si8  1  0.250000  0.664087  0.609812  1
  Si  Si9  1  0.750000  0.835663  0.109964  1
  Si  Si10  1  0.250000  0.164788  0.890129  1
  Si  Si11  1  0.750000  0.335434  0.390046  1
  Si  Si12  1  0.750000  0.829550  0.726568  1
  Si  Si13  1  0.250000  0.670966  0.226531  1
  Si  Si14  1  0.750000  0.329314  0.773871  1
  Si  Si15  1  0.250000  0.169413  0.273635  1
  Mo  Mo16  1  0.750000  0.997652  0.210028  1
  Mo  Mo17  1  0.250000  0.003750  0.789544  1
  Mo  Mo18  1  0.750000  0.495971  0.289696  1
  Pt  Pt19  1  0.750000  0.991840  0.578106  1
  Pt  Pt20  1  0.250000  0.508015  0.077958  1
  Pt  Pt21  1  0.750000  0.501027  0.923394  1
  Pt  Pt22  1  0.250000  0.998971  0.423546  1
  Pt  Pt23  1  0.250000  0.003327  0.671716  1
  Pt  Pt24  1  0.750000  0.497193  0.171637  1
  Pt  Pt25  1  0.250000  0.504045  0.828906  1
  Pt  Pt26  1  0.750000  0.996285  0.329004  1
  Pt  Pt27  1  0.750000  0.507017  0.549752  1
  Pt  Pt28  1  0.250000  0.992972  0.049747  1
  Pt  Pt29  1  0.750000  0.995604  0.948564  1
  Pt  Pt30  1  0.250000  0.504363  0.448598  1
  W  W31  1  0.250000  0.501974  0.710018  1
