# generated using pymatgen
data_DyCd3Ir3RuO14
_symmetry_space_group_name_H-M   'P 1'
_cell_length_a   7.30305819
_cell_length_b   7.30305773
_cell_length_c   7.30305841
_cell_angle_alpha   59.16547071
_cell_angle_beta   59.16547557
_cell_angle_gamma   59.16547499
_symmetry_Int_Tables_number   1
_chemical_formula_structural   DyCd3Ir3RuO14
_chemical_formula_sum   'Dy1 Cd3 Ir3 Ru1 O14'
_cell_volume   270.18457979
_cell_formula_units_Z   1
loop_
 _symmetry_equiv_pos_site_id
 _symmetry_equiv_pos_as_xyz
  1  'x, y, z'
loop_
 _atom_site_type_symbol
 _atom_site_label
 _atom_site_symmetry_multiplicity
 _atom_site_fract_x
 _atom_site_fract_y
 _atom_site_fract_z
 _atom_site_occupancy
  Dy  Dy0  1  0.125000  0.125000  0.125000  1
  Cd  Cd1  1  0.125000  0.625000  0.125000  1
  Cd  Cd2  1  0.125000  0.125000  0.625000  1
  Cd  Cd3  1  0.625000  0.125000  0.125000  1
  Ir  Ir4  1  0.625000  0.125000  0.625000  1
  Ir  Ir5  1  0.625000  0.625000  0.125000  1
  Ir  Ir6  1  0.125000  0.625000  0.625000  1
  Ru  Ru7  1  0.625000  0.625000  0.625000  1
  O  O8  1  0.694770  0.694770  0.303483  1
  O  O9  1  0.946517  0.555230  0.555230  1
  O  O10  1  0.536670  0.955732  0.955732  1
  O  O11  1  0.955732  0.955732  0.536670  1
  O  O12  1  0.955732  0.536670  0.955732  1
  O  O13  1  0.555230  0.946517  0.555230  1
  O  O14  1  0.294268  0.713330  0.294268  1
  O  O15  1  0.303483  0.694770  0.694770  1
  O  O16  1  0.713330  0.294268  0.294268  1
  O  O17  1  0.694770  0.303483  0.694770  1
  O  O18  1  0.555230  0.555230  0.946517  1
  O  O19  1  0.294268  0.294268  0.713330  1
  O  O20  1  0.251220  0.251220  0.251220  1
  O  O21  1  0.998780  0.998780  0.998780  1
