# generated using pymatgen
data_Ho3ThScAl3Rh4
_symmetry_space_group_name_H-M   'P 1'
_cell_length_a   4.25811200
_cell_length_b   6.98259229
_cell_length_c   8.15592303
_cell_angle_alpha   89.87527729
_cell_angle_beta   90.00000000
_cell_angle_gamma   90.00000000
_symmetry_Int_Tables_number   1
_chemical_formula_structural   Ho3ThScAl3Rh4
_chemical_formula_sum   'Ho3 Th1 Sc1 Al3 Rh4'
_cell_volume   242.49671217
_cell_formula_units_Z   1
loop_
 _symmetry_equiv_pos_site_id
 _symmetry_equiv_pos_as_xyz
  1  'x, y, z'
loop_
 _atom_site_type_symbol
 _atom_site_label
 _atom_site_symmetry_multiplicity
 _atom_site_fract_x
 _atom_site_fract_y
 _atom_site_fract_z
 _atom_site_occupancy
  Ho  Ho0  1  0.750000  0.452185  0.822882  1
  Ho  Ho1  1  0.750000  0.974035  0.685027  1
  Ho  Ho2  1  0.250000  0.045272  0.315779  1
  Th  Th3  1  0.250000  0.536705  0.173356  1
  Sc  Sc4  1  0.250000  0.626210  0.566235  1
  Al  Al5  1  0.750000  0.355098  0.441415  1
  Al  Al6  1  0.750000  0.877065  0.056434  1
  Al  Al7  1  0.250000  0.133337  0.935950  1
  Rh  Rh8  1  0.250000  0.763339  0.889726  1
  Rh  Rh9  1  0.750000  0.243438  0.119153  1
  Rh  Rh10  1  0.750000  0.740701  0.372588  1
  Rh  Rh11  1  0.250000  0.252616  0.621455  1
