# generated using pymatgen
data_Rb2YbMnF6
_symmetry_space_group_name_H-M   'P 1'
_cell_length_a   6.17816762
_cell_length_b   6.17816864
_cell_length_c   6.17816900
_cell_angle_alpha   60.00000342
_cell_angle_beta   59.99999797
_cell_angle_gamma   60.00000719
_symmetry_Int_Tables_number   1
_chemical_formula_structural   Rb2YbMnF6
_chemical_formula_sum   'Rb2 Yb1 Mn1 F6'
_cell_volume   166.74939236
_cell_formula_units_Z   1
loop_
 _symmetry_equiv_pos_site_id
 _symmetry_equiv_pos_as_xyz
  1  'x, y, z'
loop_
 _atom_site_type_symbol
 _atom_site_label
 _atom_site_symmetry_multiplicity
 _atom_site_fract_x
 _atom_site_fract_y
 _atom_site_fract_z
 _atom_site_occupancy
  Rb  Rb0  1  0.250000  0.250000  0.250000  1
  Rb  Rb1  1  0.750000  0.750000  0.750000  1
  Yb  Yb2  1  0.500000  0.500000  0.500000  1
  Mn  Mn3  1  0.000000  0.000000  0.000000  1
  F  F4  1  0.245847  0.754153  0.245847  1
  F  F5  1  0.754153  0.754153  0.245847  1
  F  F6  1  0.754153  0.245847  0.754153  1
  F  F7  1  0.754153  0.245847  0.245847  1
  F  F8  1  0.245847  0.754153  0.754153  1
  F  F9  1  0.245847  0.245847  0.754153  1
