# generated using pymatgen
data_Sm2Ho3Sc3(Co4P3)4
_symmetry_space_group_name_H-M   'P 1'
_cell_length_a   12.28122700
_cell_length_b   12.28122725
_cell_length_c   3.73220600
_cell_angle_alpha   90.00000000
_cell_angle_beta   90.00000000
_cell_angle_gamma   120.00000739
_symmetry_Int_Tables_number   1
_chemical_formula_structural   Sm2Ho3Sc3(Co4P3)4
_chemical_formula_sum   'Sm2 Ho3 Sc3 Co16 P12'
_cell_volume   487.50573885
_cell_formula_units_Z   1
loop_
 _symmetry_equiv_pos_site_id
 _symmetry_equiv_pos_as_xyz
  1  'x, y, z'
loop_
 _atom_site_type_symbol
 _atom_site_label
 _atom_site_symmetry_multiplicity
 _atom_site_fract_x
 _atom_site_fract_y
 _atom_site_fract_z
 _atom_site_occupancy
  Sm  Sm0  1  0.666667  0.333333  0.000000  1
  Sm  Sm1  1  0.333333  0.666667  0.000000  1
  Ho  Ho2  1  0.815770  0.815770  0.500000  1
  Ho  Ho3  1  0.184230  0.000000  0.500000  1
  Ho  Ho4  1  0.000000  0.184230  0.500000  1
  Sc  Sc5  1  0.439816  0.439816  0.000000  1
  Sc  Sc6  1  0.560184  0.000000  0.000000  1
  Sc  Sc7  1  0.000000  0.560184  0.000000  1
  Co  Co8  1  0.876865  0.354581  0.500000  1
  Co  Co9  1  0.645419  0.522284  0.500000  1
  Co  Co10  1  0.477716  0.123135  0.500000  1
  Co  Co11  1  0.354581  0.876865  0.500000  1
  Co  Co12  1  0.522284  0.645419  0.500000  1
  Co  Co13  1  0.123135  0.477716  0.500000  1
  Co  Co14  1  0.805822  0.178241  0.000000  1
  Co  Co15  1  0.821759  0.627581  0.000000  1
  Co  Co16  1  0.372419  0.194178  0.000000  1
  Co  Co17  1  0.178241  0.805822  0.000000  1
  Co  Co18  1  0.627581  0.821759  0.000000  1
  Co  Co19  1  0.194178  0.372419  0.000000  1
  Co  Co20  1  0.277173  0.277173  0.500000  1
  Co  Co21  1  0.722827  0.000000  0.500000  1
  Co  Co22  1  0.000000  0.722827  0.500000  1
  Co  Co23  1  0.000000  0.000000  0.000000  1
  P  P24  1  0.693909  0.169359  0.500000  1
  P  P25  1  0.830641  0.524551  0.500000  1
  P  P26  1  0.475449  0.306091  0.500000  1
  P  P27  1  0.169359  0.693909  0.500000  1
  P  P28  1  0.524551  0.830641  0.500000  1
  P  P29  1  0.306091  0.475449  0.500000  1
  P  P30  1  0.178320  0.178320  0.000000  1
  P  P31  1  0.821680  0.000000  0.000000  1
  P  P32  1  0.000000  0.821680  0.000000  1
  P  P33  1  0.645333  0.645333  0.000000  1
  P  P34  1  0.354667  0.000000  0.000000  1
  P  P35  1  0.000000  0.354667  0.000000  1
