# generated using pymatgen
data_YPa3Al18(OsRh2)2
_symmetry_space_group_name_H-M   'P 1'
_cell_length_a   7.58752187
_cell_length_b   7.59802669
_cell_length_c   9.32750500
_cell_angle_alpha   90.00000000
_cell_angle_beta   90.00000000
_cell_angle_gamma   118.79393599
_symmetry_Int_Tables_number   1
_chemical_formula_structural   YPa3Al18(OsRh2)2
_chemical_formula_sum   'Y1 Pa3 Al18 Os2 Rh4'
_cell_volume   471.24597020
_cell_formula_units_Z   1
loop_
 _symmetry_equiv_pos_site_id
 _symmetry_equiv_pos_as_xyz
  1  'x, y, z'
loop_
 _atom_site_type_symbol
 _atom_site_label
 _atom_site_symmetry_multiplicity
 _atom_site_fract_x
 _atom_site_fract_y
 _atom_site_fract_z
 _atom_site_occupancy
  Y  Y0  1  0.994439  0.679054  0.750000  1
  Pa  Pa1  1  0.005305  0.309495  0.250000  1
  Pa  Pa2  1  0.684617  0.999427  0.750000  1
  Pa  Pa3  1  0.309102  0.006814  0.250000  1
  Al  Al4  1  0.133879  0.134404  0.750000  1
  Al  Al5  1  0.854335  0.852732  0.250000  1
  Al  Al6  1  0.005145  0.342916  0.579654  1
  Al  Al7  1  0.996565  0.658536  0.422981  1
  Al  Al8  1  0.996565  0.658536  0.077019  1
  Al  Al9  1  0.336360  0.000648  0.920271  1
  Al  Al10  1  0.005145  0.342916  0.920346  1
  Al  Al11  1  0.655620  0.994504  0.079712  1
  Al  Al12  1  0.655620  0.994504  0.420288  1
  Al  Al13  1  0.336360  0.000648  0.579729  1
  Al  Al14  1  0.339719  0.339625  0.043256  1
  Al  Al15  1  0.670998  0.669211  0.949540  1
  Al  Al16  1  0.670998  0.669211  0.550460  1
  Al  Al17  1  0.339719  0.339625  0.456744  1
  Al  Al18  1  0.348573  0.558121  0.750000  1
  Al  Al19  1  0.655045  0.442162  0.250000  1
  Al  Al20  1  0.555750  0.342083  0.750000  1
  Al  Al21  1  0.441064  0.652487  0.250000  1
  Os  Os22  1  0.003290  0.006690  0.492944  1
  Os  Os23  1  0.003290  0.006690  0.007056  1
  Rh  Rh24  1  0.672829  0.325558  0.499652  1
  Rh  Rh25  1  0.328420  0.673923  0.499489  1
  Rh  Rh26  1  0.328420  0.673923  0.000511  1
  Rh  Rh27  1  0.672829  0.325558  0.000348  1
