# generated using pymatgen
data_Yb3Tm(B4Ru5)2
_symmetry_space_group_name_H-M   'P 1'
_cell_length_a   3.01073500
_cell_length_b   8.70426549
_cell_length_c   10.18066677
_cell_angle_alpha   89.82912163
_cell_angle_beta   90.00000000
_cell_angle_gamma   90.00000000
_symmetry_Int_Tables_number   1
_chemical_formula_structural   Yb3Tm(B4Ru5)2
_chemical_formula_sum   'Yb3 Tm1 B8 Ru10'
_cell_volume   266.79577723
_cell_formula_units_Z   1
loop_
 _symmetry_equiv_pos_site_id
 _symmetry_equiv_pos_as_xyz
  1  'x, y, z'
loop_
 _atom_site_type_symbol
 _atom_site_label
 _atom_site_symmetry_multiplicity
 _atom_site_fract_x
 _atom_site_fract_y
 _atom_site_fract_z
 _atom_site_occupancy
  Yb  Yb0  1  0.500000  0.841822  0.181201  1
  Yb  Yb1  1  0.500000  0.157670  0.817631  1
  Yb  Yb2  1  0.500000  0.657997  0.683137  1
  Tm  Tm3  1  0.500000  0.342404  0.317775  1
  B  B4  1  0.500000  0.964641  0.589967  1
  B  B5  1  0.500000  0.033779  0.411486  1
  B  B6  1  0.500000  0.853117  0.899354  1
  B  B7  1  0.500000  0.146602  0.098686  1
  B  B8  1  0.500000  0.648327  0.400097  1
  B  B9  1  0.500000  0.352881  0.601908  1
  B  B10  1  0.500000  0.466146  0.910211  1
  B  B11  1  0.500000  0.535955  0.088006  1
  Ru  Ru12  1  0.000000  0.656745  0.954860  1
  Ru  Ru13  1  0.000000  0.342850  0.046421  1
  Ru  Ru14  1  0.000000  0.842838  0.454282  1
  Ru  Ru15  1  0.000000  0.157345  0.544753  1
  Ru  Ru16  1  0.000000  0.000006  0.000197  1
  Ru  Ru17  1  0.000000  0.404471  0.760263  1
  Ru  Ru18  1  0.000000  0.595748  0.239497  1
  Ru  Ru19  1  0.000000  0.499672  0.500264  1
  Ru  Ru20  1  0.000000  0.904467  0.739823  1
  Ru  Ru21  1  0.000000  0.094519  0.260181  1
