# generated using pymatgen
data_LiLu(NiPt)2
_symmetry_space_group_name_H-M   'P 1'
_cell_length_a   4.88144166
_cell_length_b   5.08046674
_cell_length_c   5.08046708
_cell_angle_alpha   63.70397343
_cell_angle_beta   61.28764609
_cell_angle_gamma   61.28765354
_symmetry_Int_Tables_number   1
_chemical_formula_structural   LiLu(NiPt)2
_chemical_formula_sum   'Li1 Lu1 Ni2 Pt2'
_cell_volume   93.15499181
_cell_formula_units_Z   1
loop_
 _symmetry_equiv_pos_site_id
 _symmetry_equiv_pos_as_xyz
  1  'x, y, z'
loop_
 _atom_site_type_symbol
 _atom_site_label
 _atom_site_symmetry_multiplicity
 _atom_site_fract_x
 _atom_site_fract_y
 _atom_site_fract_z
 _atom_site_occupancy
  Li  Li0  1  0.012123  0.987877  0.987877  1
  Lu  Lu1  1  0.250557  0.249443  0.249443  1
  Ni  Ni2  1  0.122069  0.628807  0.628807  1
  Ni  Ni3  1  0.620318  0.628807  0.628807  1
  Pt  Pt4  1  0.622467  0.629188  0.125879  1
  Pt  Pt5  1  0.622467  0.125879  0.629188  1
