# generated using pymatgen
data_Lu4InTc24
_symmetry_space_group_name_H-M   'P 1'
_cell_length_a   8.52309697
_cell_length_b   8.52309798
_cell_length_c   8.52309600
_cell_angle_alpha   109.47121594
_cell_angle_beta   109.47121833
_cell_angle_gamma   109.47123063
_symmetry_Int_Tables_number   1
_chemical_formula_structural   Lu4InTc24
_chemical_formula_sum   'Lu4 In1 Tc24'
_cell_volume   476.61793836
_cell_formula_units_Z   1
loop_
 _symmetry_equiv_pos_site_id
 _symmetry_equiv_pos_as_xyz
  1  'x, y, z'
loop_
 _atom_site_type_symbol
 _atom_site_label
 _atom_site_symmetry_multiplicity
 _atom_site_fract_x
 _atom_site_fract_y
 _atom_site_fract_z
 _atom_site_occupancy
  Lu  Lu0  1  0.628370  0.000000  0.000000  1
  Lu  Lu1  1  0.000000  0.628370  0.000000  1
  Lu  Lu2  1  0.000000  0.000000  0.628370  1
  Lu  Lu3  1  0.371630  0.371630  0.371630  1
  In  In4  1  0.000000  0.000000  0.000000  1
  Tc  Tc5  1  0.390289  0.669992  0.000000  1
  Tc  Tc6  1  0.720297  0.330008  0.330008  1
  Tc  Tc7  1  0.390289  0.000000  0.669992  1
  Tc  Tc8  1  0.669992  0.390289  0.000000  1
  Tc  Tc9  1  0.000000  0.390289  0.669992  1
  Tc  Tc10  1  0.330008  0.720297  0.330008  1
  Tc  Tc11  1  0.330008  0.330008  0.720297  1
  Tc  Tc12  1  0.000000  0.669992  0.390289  1
  Tc  Tc13  1  0.669992  0.000000  0.390289  1
  Tc  Tc14  1  0.609711  0.609711  0.279703  1
  Tc  Tc15  1  0.279703  0.609711  0.609711  1
  Tc  Tc16  1  0.609711  0.279703  0.609711  1
  Tc  Tc17  1  0.375636  0.193668  0.000000  1
  Tc  Tc18  1  0.181968  0.806332  0.806332  1
  Tc  Tc19  1  0.375636  0.000000  0.193668  1
  Tc  Tc20  1  0.193668  0.375636  0.000000  1
  Tc  Tc21  1  0.000000  0.375636  0.193668  1
  Tc  Tc22  1  0.806332  0.181968  0.806332  1
  Tc  Tc23  1  0.806332  0.806332  0.181968  1
  Tc  Tc24  1  0.000000  0.193668  0.375636  1
  Tc  Tc25  1  0.193668  0.000000  0.375636  1
  Tc  Tc26  1  0.624364  0.624364  0.818032  1
  Tc  Tc27  1  0.818032  0.624364  0.624364  1
  Tc  Tc28  1  0.624364  0.818032  0.624364  1
