# generated using pymatgen
data_Y3Er5Sc12Si9Ge7
_symmetry_space_group_name_H-M   'P 1'
_cell_length_a   7.14406731
_cell_length_b   7.39428076
_cell_length_c   14.03854781
_cell_angle_alpha   90.00472016
_cell_angle_beta   89.73485015
_cell_angle_gamma   90.06645237
_symmetry_Int_Tables_number   1
_chemical_formula_structural   Y3Er5Sc12Si9Ge7
_chemical_formula_sum   'Y3 Er5 Sc12 Si9 Ge7'
_cell_volume   741.58120779
_cell_formula_units_Z   1
loop_
 _symmetry_equiv_pos_site_id
 _symmetry_equiv_pos_as_xyz
  1  'x, y, z'
loop_
 _atom_site_type_symbol
 _atom_site_label
 _atom_site_symmetry_multiplicity
 _atom_site_fract_x
 _atom_site_fract_y
 _atom_site_fract_z
 _atom_site_occupancy
  Y  Y0  1  0.007494  0.175456  0.097993  1
  Y  Y1  1  0.995487  0.824281  0.902676  1
  Y  Y2  1  0.494395  0.676986  0.902342  1
  Er  Er3  1  0.995595  0.822241  0.598306  1
  Er  Er4  1  0.504630  0.322077  0.098831  1
  Er  Er5  1  0.004515  0.177678  0.401219  1
  Er  Er6  1  0.504128  0.322231  0.401482  1
  Er  Er7  1  0.495974  0.677524  0.598430  1
  Sc  Sc8  1  0.169682  0.500998  0.749382  1
  Sc  Sc9  1  0.830251  0.499002  0.250373  1
  Sc  Sc10  1  0.330500  0.001145  0.249125  1
  Sc  Sc11  1  0.669509  0.998977  0.749361  1
  Sc  Sc12  1  0.340727  0.172368  0.626191  1
  Sc  Sc13  1  0.658915  0.827594  0.373627  1
  Sc  Sc14  1  0.159158  0.672531  0.373746  1
  Sc  Sc15  1  0.659528  0.826381  0.126902  1
  Sc  Sc16  1  0.840746  0.327783  0.626166  1
  Sc  Sc17  1  0.338299  0.172771  0.873713  1
  Sc  Sc18  1  0.838587  0.326525  0.873843  1
  Sc  Sc19  1  0.162769  0.675394  0.125680  1
  Si  Si20  1  0.041171  0.116784  0.750000  1
  Si  Si21  1  0.958189  0.882892  0.250015  1
  Si  Si22  1  0.458276  0.615813  0.249974  1
  Si  Si23  1  0.541775  0.382963  0.750118  1
  Si  Si24  1  0.292852  0.871475  0.749308  1
  Si  Si25  1  0.706622  0.129100  0.250179  1
  Si  Si26  1  0.207362  0.371849  0.250065  1
  Si  Si27  1  0.793325  0.628524  0.749664  1
  Si  Si28  1  0.333488  0.962943  0.040485  1
  Ge  Ge29  1  0.175950  0.460499  0.540566  1
  Ge  Ge30  1  0.823827  0.539517  0.459330  1
  Ge  Ge31  1  0.324012  0.960558  0.459238  1
  Ge  Ge32  1  0.826511  0.538538  0.041035  1
  Ge  Ge33  1  0.675661  0.039525  0.540500  1
  Ge  Ge34  1  0.172446  0.460176  0.959648  1
  Ge  Ge35  1  0.667648  0.038902  0.960489  1
