# generated using pymatgen
data_Tb3Y5Ti3Si16Tc9
_symmetry_space_group_name_H-M   'P 1'
_cell_length_a   6.79348428
_cell_length_b   6.79308008
_cell_length_c   12.97492801
_cell_angle_alpha   89.92996432
_cell_angle_beta   90.08069803
_cell_angle_gamma   89.39452671
_symmetry_Int_Tables_number   1
_chemical_formula_structural   Tb3Y5Ti3Si16Tc9
_chemical_formula_sum   'Tb3 Y5 Ti3 Si16 Tc9'
_cell_volume   598.74135078
_cell_formula_units_Z   1
loop_
 _symmetry_equiv_pos_site_id
 _symmetry_equiv_pos_as_xyz
  1  'x, y, z'
loop_
 _atom_site_type_symbol
 _atom_site_label
 _atom_site_symmetry_multiplicity
 _atom_site_fract_x
 _atom_site_fract_y
 _atom_site_fract_z
 _atom_site_occupancy
  Tb  Tb0  1  0.662472  0.997961  0.971904  1
  Tb  Tb1  1  0.002615  0.336906  0.528751  1
  Tb  Tb2  1  0.997938  0.662453  0.028067  1
  Y  Y3  1  0.337224  0.002253  0.471179  1
  Y  Y4  1  0.509898  0.823826  0.716692  1
  Y  Y5  1  0.487672  0.178870  0.216555  1
  Y  Y6  1  0.823794  0.509896  0.283336  1
  Y  Y7  1  0.178886  0.487695  0.783485  1
  Ti  Ti8  1  0.155785  0.844701  0.249112  1
  Ti  Ti9  1  0.844752  0.155715  0.750975  1
  Ti  Ti10  1  0.666298  0.665843  0.500019  1
  Si  Si11  1  0.211108  0.117462  0.681320  1
  Si  Si12  1  0.398024  0.680654  0.940817  1
  Si  Si13  1  0.610575  0.309102  0.438468  1
  Si  Si14  1  0.680645  0.398013  0.059206  1
  Si  Si15  1  0.309194  0.611023  0.561513  1
  Si  Si16  1  0.787203  0.884318  0.182999  1
  Si  Si17  1  0.117504  0.211086  0.318641  1
  Si  Si18  1  0.884295  0.787244  0.816979  1
  Si  Si19  1  0.262387  0.985963  0.055195  1
  Si  Si20  1  0.525398  0.803211  0.314080  1
  Si  Si21  1  0.471997  0.198295  0.815113  1
  Si  Si22  1  0.803191  0.525345  0.685944  1
  Si  Si23  1  0.198345  0.471890  0.184846  1
  Si  Si24  1  0.730856  0.022232  0.557401  1
  Si  Si25  1  0.985955  0.262348  0.944775  1
  Si  Si26  1  0.022255  0.731286  0.442619  1
  Tc  Tc27  1  0.334257  0.334211  0.999997  1
  Tc  Tc28  1  0.182366  0.982166  0.864716  1
  Tc  Tc29  1  0.473470  0.693308  0.132293  1
  Tc  Tc30  1  0.523902  0.314767  0.632675  1
  Tc  Tc31  1  0.693277  0.473507  0.867755  1
  Tc  Tc32  1  0.314866  0.524412  0.367319  1
  Tc  Tc33  1  0.817914  0.011427  0.364343  1
  Tc  Tc34  1  0.982190  0.182383  0.135235  1
  Tc  Tc35  1  0.011493  0.818228  0.635675  1
