# generated using pymatgen
data_Hf18NbRe7Pt2
_symmetry_space_group_name_H-M   'P 1'
_cell_length_a   8.72558900
_cell_length_b   8.72558898
_cell_length_c   8.53009300
_cell_angle_alpha   90.00000000
_cell_angle_beta   90.00000000
_cell_angle_gamma   119.99999629
_symmetry_Int_Tables_number   1
_chemical_formula_structural   Hf18NbRe7Pt2
_chemical_formula_sum   'Hf18 Nb1 Re7 Pt2'
_cell_volume   562.43704548
_cell_formula_units_Z   1
loop_
 _symmetry_equiv_pos_site_id
 _symmetry_equiv_pos_as_xyz
  1  'x, y, z'
loop_
 _atom_site_type_symbol
 _atom_site_label
 _atom_site_symmetry_multiplicity
 _atom_site_fract_x
 _atom_site_fract_y
 _atom_site_fract_z
 _atom_site_occupancy
  Hf  Hf0  1  0.196016  0.803984  0.447026  1
  Hf  Hf1  1  0.196016  0.392029  0.447026  1
  Hf  Hf2  1  0.607971  0.803984  0.447026  1
  Hf  Hf3  1  0.803984  0.196016  0.552974  1
  Hf  Hf4  1  0.803984  0.607971  0.552974  1
  Hf  Hf5  1  0.392029  0.196016  0.552974  1
  Hf  Hf6  1  0.806056  0.193944  0.946514  1
  Hf  Hf7  1  0.806056  0.612115  0.946514  1
  Hf  Hf8  1  0.387885  0.193944  0.946514  1
  Hf  Hf9  1  0.193944  0.806056  0.053486  1
  Hf  Hf10  1  0.193944  0.387885  0.053486  1
  Hf  Hf11  1  0.612115  0.806056  0.053486  1
  Hf  Hf12  1  0.541958  0.458042  0.249418  1
  Hf  Hf13  1  0.541958  0.083916  0.249418  1
  Hf  Hf14  1  0.916084  0.458042  0.249418  1
  Hf  Hf15  1  0.458042  0.541958  0.750582  1
  Hf  Hf16  1  0.458042  0.916084  0.750582  1
  Hf  Hf17  1  0.083916  0.541958  0.750582  1
  Nb  Nb18  1  0.000000  0.000000  0.500000  1
  Re  Re19  1  0.888521  0.111479  0.249456  1
  Re  Re20  1  0.888521  0.777041  0.249456  1
  Re  Re21  1  0.222959  0.111479  0.249456  1
  Re  Re22  1  0.111479  0.888521  0.750544  1
  Re  Re23  1  0.111479  0.222959  0.750544  1
  Re  Re24  1  0.777041  0.888521  0.750544  1
  Re  Re25  1  0.000000  0.000000  0.000000  1
  Pt  Pt26  1  0.333333  0.666667  0.248539  1
  Pt  Pt27  1  0.666667  0.333333  0.751461  1
