# generated using pymatgen
data_BaNb6FeS12
_symmetry_space_group_name_H-M   'P 1'
_cell_length_a   5.75527600
_cell_length_b   5.75527444
_cell_length_c   13.99798400
_cell_angle_alpha   90.00000000
_cell_angle_beta   90.00000000
_cell_angle_gamma   119.99999746
_symmetry_Int_Tables_number   1
_chemical_formula_structural   BaNb6FeS12
_chemical_formula_sum   'Ba1 Nb6 Fe1 S12'
_cell_volume   401.53955096
_cell_formula_units_Z   1
loop_
 _symmetry_equiv_pos_site_id
 _symmetry_equiv_pos_as_xyz
  1  'x, y, z'
loop_
 _atom_site_type_symbol
 _atom_site_label
 _atom_site_symmetry_multiplicity
 _atom_site_fract_x
 _atom_site_fract_y
 _atom_site_fract_z
 _atom_site_occupancy
  Ba  Ba0  1  0.333333  0.666667  0.250000  1
  Nb  Nb1  1  0.000000  0.000000  0.545576  1
  Nb  Nb2  1  0.000000  0.000000  0.954424  1
  Nb  Nb3  1  0.333333  0.666667  0.955262  1
  Nb  Nb4  1  0.666667  0.333333  0.958599  1
  Nb  Nb5  1  0.666667  0.333333  0.541401  1
  Nb  Nb6  1  0.333333  0.666667  0.544738  1
  Fe  Fe7  1  0.666667  0.333333  0.750000  1
  S  S8  1  0.330151  0.329857  0.429470  1
  S  S9  1  0.670143  0.000293  0.429470  1
  S  S10  1  0.999707  0.669849  0.429470  1
  S  S11  1  0.337566  0.333679  0.655842  1
  S  S12  1  0.996114  0.662434  0.655842  1
  S  S13  1  0.666321  0.003886  0.655842  1
  S  S14  1  0.666321  0.662434  0.844158  1
  S  S15  1  0.337566  0.003886  0.844158  1
  S  S16  1  0.996114  0.333679  0.844158  1
  S  S17  1  0.670143  0.669849  0.070530  1
  S  S18  1  0.999707  0.329857  0.070530  1
  S  S19  1  0.330151  0.000293  0.070530  1
