# generated using pymatgen
data_Rb2LiCrBr6
_symmetry_space_group_name_H-M   'P 1'
_cell_length_a   7.55802100
_cell_length_b   7.55802059
_cell_length_c   6.55122000
_cell_angle_alpha   90.00000000
_cell_angle_beta   90.00000000
_cell_angle_gamma   119.99999743
_symmetry_Int_Tables_number   1
_chemical_formula_structural   Rb2LiCrBr6
_chemical_formula_sum   'Rb2 Li1 Cr1 Br6'
_cell_volume   324.09250805
_cell_formula_units_Z   1
loop_
 _symmetry_equiv_pos_site_id
 _symmetry_equiv_pos_as_xyz
  1  'x, y, z'
loop_
 _atom_site_type_symbol
 _atom_site_label
 _atom_site_symmetry_multiplicity
 _atom_site_fract_x
 _atom_site_fract_y
 _atom_site_fract_z
 _atom_site_occupancy
  Rb  Rb0  1  0.333333  0.666667  0.289594  1
  Rb  Rb1  1  0.666667  0.333333  0.710406  1
  Li  Li2  1  0.000000  0.000000  0.000000  1
  Cr  Cr3  1  0.000000  0.000000  0.500000  1
  Br  Br4  1  0.843000  0.157000  0.272459  1
  Br  Br5  1  0.157000  0.843000  0.727541  1
  Br  Br6  1  0.843000  0.686000  0.272459  1
  Br  Br7  1  0.157000  0.314000  0.727541  1
  Br  Br8  1  0.314000  0.157000  0.272459  1
  Br  Br9  1  0.686000  0.843000  0.727541  1
