# generated using pymatgen
data_Tm2Lu3Zr5Sb6
_symmetry_space_group_name_H-M   'P 1'
_cell_length_a   8.66989837
_cell_length_b   8.73580405
_cell_length_c   5.91562000
_cell_angle_alpha   90.00000000
_cell_angle_beta   90.00000000
_cell_angle_gamma   120.25178552
_symmetry_Int_Tables_number   1
_chemical_formula_structural   Tm2Lu3Zr5Sb6
_chemical_formula_sum   'Tm2 Lu3 Zr5 Sb6'
_cell_volume   387.02615568
_cell_formula_units_Z   1
loop_
 _symmetry_equiv_pos_site_id
 _symmetry_equiv_pos_as_xyz
  1  'x, y, z'
loop_
 _atom_site_type_symbol
 _atom_site_label
 _atom_site_symmetry_multiplicity
 _atom_site_fract_x
 _atom_site_fract_y
 _atom_site_fract_z
 _atom_site_occupancy
  Tm  Tm0  1  0.250702  0.250169  0.250000  1
  Tm  Tm1  1  0.749298  0.999467  0.250000  1
  Lu  Lu2  1  0.752445  0.751789  0.750000  1
  Lu  Lu3  1  0.247555  0.999344  0.750000  1
  Lu  Lu4  1  0.000000  0.254255  0.750000  1
  Zr  Zr5  1  0.000000  0.737891  0.250000  1
  Zr  Zr6  1  0.666652  0.334546  0.000735  1
  Zr  Zr7  1  0.333348  0.667894  0.000735  1
  Zr  Zr8  1  0.333348  0.667894  0.499265  1
  Zr  Zr9  1  0.666652  0.334546  0.499265  1
  Sb  Sb10  1  0.390809  0.391239  0.750000  1
  Sb  Sb11  1  0.609191  0.000430  0.750000  1
  Sb  Sb12  1  0.000000  0.609835  0.750000  1
  Sb  Sb13  1  0.613890  0.611648  0.250000  1
  Sb  Sb14  1  0.386110  0.997759  0.250000  1
  Sb  Sb15  1  0.000000  0.391295  0.250000  1
