# generated using pymatgen
data_Tm2CO5
_symmetry_space_group_name_H-M   'P 1'
_cell_length_a   3.86917188
_cell_length_b   3.86917179
_cell_length_c   14.94185100
_cell_angle_alpha   90.00000000
_cell_angle_beta   90.00000000
_cell_angle_gamma   122.20026813
_symmetry_Int_Tables_number   1
_chemical_formula_structural   Tm2CO5
_chemical_formula_sum   'Tm4 C2 O10'
_cell_volume   189.28171888
_cell_formula_units_Z   2
loop_
 _symmetry_equiv_pos_site_id
 _symmetry_equiv_pos_as_xyz
  1  'x, y, z'
loop_
 _atom_site_type_symbol
 _atom_site_label
 _atom_site_symmetry_multiplicity
 _atom_site_fract_x
 _atom_site_fract_y
 _atom_site_fract_z
 _atom_site_occupancy
  Tm  Tm0  1  0.336542  0.663458  0.907553  1
  Tm  Tm1  1  0.663458  0.336542  0.092447  1
  Tm  Tm2  1  0.663458  0.336542  0.407553  1
  Tm  Tm3  1  0.336542  0.663458  0.592447  1
  C  C4  1  0.077967  0.922033  0.750000  1
  C  C5  1  0.922033  0.077967  0.250000  1
  O  O6  1  0.989205  0.010795  0.827244  1
  O  O7  1  0.010795  0.989205  0.172756  1
  O  O8  1  0.010795  0.989205  0.327244  1
  O  O9  1  0.989205  0.010795  0.672756  1
  O  O10  1  0.334651  0.665349  0.442625  1
  O  O11  1  0.665349  0.334651  0.557375  1
  O  O12  1  0.665349  0.334651  0.942625  1
  O  O13  1  0.334651  0.665349  0.057375  1
  O  O14  1  0.266604  0.733396  0.750000  1
  O  O15  1  0.733396  0.266604  0.250000  1
