# generated using pymatgen
data_Dy2Zn2Si2Ir3Pt
_symmetry_space_group_name_H-M   'P 1'
_cell_length_a   4.06445300
_cell_length_b   4.06445300
_cell_length_c   10.59677100
_cell_angle_alpha   90.00000000
_cell_angle_beta   90.00000000
_cell_angle_gamma   90.00000000
_symmetry_Int_Tables_number   1
_chemical_formula_structural   Dy2Zn2Si2Ir3Pt
_chemical_formula_sum   'Dy2 Zn2 Si2 Ir3 Pt1'
_cell_volume   175.05630644
_cell_formula_units_Z   1
loop_
 _symmetry_equiv_pos_site_id
 _symmetry_equiv_pos_as_xyz
  1  'x, y, z'
loop_
 _atom_site_type_symbol
 _atom_site_label
 _atom_site_symmetry_multiplicity
 _atom_site_fract_x
 _atom_site_fract_y
 _atom_site_fract_z
 _atom_site_occupancy
  Dy  Dy0  1  0.000000  0.500000  0.245925  1
  Dy  Dy1  1  0.500000  0.000000  0.759110  1
  Zn  Zn2  1  0.000000  0.000000  0.497396  1
  Zn  Zn3  1  0.500000  0.500000  0.497396  1
  Si  Si4  1  0.000000  0.500000  0.879399  1
  Si  Si5  1  0.500000  0.000000  0.122990  1
  Ir  Ir6  1  0.000000  0.000000  0.999287  1
  Ir  Ir7  1  0.500000  0.500000  0.999287  1
  Ir  Ir8  1  0.500000  0.000000  0.343157  1
  Pt  Pt9  1  0.000000  0.500000  0.656051  1
