# generated using pymatgen
data_LaNd15MgHg3Pt4
_symmetry_space_group_name_H-M   'P 1'
_cell_length_a   10.00512398
_cell_length_b   10.03179217
_cell_length_c   10.03179246
_cell_angle_alpha   60.13757355
_cell_angle_beta   60.02987341
_cell_angle_gamma   60.02988179
_symmetry_Int_Tables_number   1
_chemical_formula_structural   LaNd15MgHg3Pt4
_chemical_formula_sum   'La1 Nd15 Mg1 Hg3 Pt4'
_cell_volume   713.03432535
_cell_formula_units_Z   1
loop_
 _symmetry_equiv_pos_site_id
 _symmetry_equiv_pos_as_xyz
  1  'x, y, z'
loop_
 _atom_site_type_symbol
 _atom_site_label
 _atom_site_symmetry_multiplicity
 _atom_site_fract_x
 _atom_site_fract_y
 _atom_site_fract_z
 _atom_site_occupancy
  La  La0  1  0.348695  0.347810  0.347810  1
  Nd  Nd1  1  0.352095  0.350751  0.946178  1
  Nd  Nd2  1  0.352095  0.946178  0.350751  1
  Nd  Nd3  1  0.938305  0.354377  0.354377  1
  Nd  Nd4  1  0.808732  0.192532  0.192532  1
  Nd  Nd5  1  0.189583  0.809805  0.809805  1
  Nd  Nd6  1  0.187599  0.812411  0.191148  1
  Nd  Nd7  1  0.806809  0.193553  0.807675  1
  Nd  Nd8  1  0.187599  0.191148  0.812411  1
  Nd  Nd9  1  0.806809  0.807675  0.193553  1
  Nd  Nd10  1  0.938171  0.564559  0.564559  1
  Nd  Nd11  1  0.561540  0.936154  0.936154  1
  Nd  Nd12  1  0.562097  0.939273  0.565045  1
  Nd  Nd13  1  0.935668  0.564010  0.934433  1
  Nd  Nd14  1  0.562097  0.565045  0.939273  1
  Nd  Nd15  1  0.935668  0.934433  0.564010  1
  Mg  Mg16  1  0.284544  0.572232  0.572232  1
  Hg  Hg17  1  0.582125  0.587179  0.587179  1
  Hg  Hg18  1  0.581662  0.587560  0.243977  1
  Hg  Hg19  1  0.581662  0.243977  0.587560  1
  Pt  Pt20  1  0.142286  0.144864  0.144864  1
  Pt  Pt21  1  0.141236  0.141587  0.571681  1
  Pt  Pt22  1  0.141236  0.571681  0.141587  1
  Pt  Pt23  1  0.571685  0.141203  0.141203  1
