# generated using pymatgen
data_Sc5BS4
_symmetry_space_group_name_H-M   'P 1'
_cell_length_a   6.30143217
_cell_length_b   6.30143143
_cell_length_c   6.30143200
_cell_angle_alpha   99.50269036
_cell_angle_beta   99.50268923
_cell_angle_gamma   132.05256028
_symmetry_Int_Tables_number   1
_chemical_formula_structural   Sc5BS4
_chemical_formula_sum   'Sc5 B1 S4'
_cell_volume   169.76610082
_cell_formula_units_Z   1
loop_
 _symmetry_equiv_pos_site_id
 _symmetry_equiv_pos_as_xyz
  1  'x, y, z'
loop_
 _atom_site_type_symbol
 _atom_site_label
 _atom_site_symmetry_multiplicity
 _atom_site_fract_x
 _atom_site_fract_y
 _atom_site_fract_z
 _atom_site_occupancy
  Sc  Sc0  1  0.407214  0.775867  0.183081  1
  Sc  Sc1  1  0.000000  0.000000  0.000000  1
  Sc  Sc2  1  0.592786  0.224133  0.816919  1
  Sc  Sc3  1  0.224133  0.407214  0.631346  1
  Sc  Sc4  1  0.775867  0.592786  0.368654  1
  B  B5  1  0.500000  0.500000  0.000000  1
  S  S6  1  0.094466  0.696258  0.790723  1
  S  S7  1  0.696258  0.905534  0.601793  1
  S  S8  1  0.303742  0.094466  0.398207  1
  S  S9  1  0.905534  0.303742  0.209277  1
