# generated using pymatgen
data_Ca11Yb(SmSn2)8
_symmetry_space_group_name_H-M   'P 1'
_cell_length_a   7.97437500
_cell_length_b   8.53127300
_cell_length_c   16.29709100
_cell_angle_alpha   90.00000000
_cell_angle_beta   90.00000000
_cell_angle_gamma   89.99801451
_symmetry_Int_Tables_number   1
_chemical_formula_structural   Ca11Yb(SmSn2)8
_chemical_formula_sum   'Ca11 Yb1 Sm8 Sn16'
_cell_volume   1108.71668894
_cell_formula_units_Z   1
loop_
 _symmetry_equiv_pos_site_id
 _symmetry_equiv_pos_as_xyz
  1  'x, y, z'
loop_
 _atom_site_type_symbol
 _atom_site_label
 _atom_site_symmetry_multiplicity
 _atom_site_fract_x
 _atom_site_fract_y
 _atom_site_fract_z
 _atom_site_occupancy
  Ca  Ca0  1  0.506628  0.688869  0.593200  1
  Ca  Ca1  1  0.006596  0.811150  0.906806  1
  Ca  Ca2  1  0.493440  0.311104  0.093212  1
  Ca  Ca3  1  0.993294  0.188824  0.406799  1
  Ca  Ca4  1  0.493440  0.311104  0.406788  1
  Ca  Ca5  1  0.993294  0.188824  0.093201  1
  Ca  Ca6  1  0.506628  0.688869  0.906800  1
  Ca  Ca7  1  0.006596  0.811150  0.593194  1
  Ca  Ca8  1  0.839573  0.510744  0.750000  1
  Ca  Ca9  1  0.339582  0.989264  0.750000  1
  Ca  Ca10  1  0.160437  0.489258  0.250000  1
  Yb  Yb11  1  0.660318  0.010742  0.250000  1
  Sm  Sm12  1  0.674045  0.167238  0.622084  1
  Sm  Sm13  1  0.174048  0.332707  0.877907  1
  Sm  Sm14  1  0.326143  0.832697  0.122168  1
  Sm  Sm15  1  0.825895  0.667379  0.377841  1
  Sm  Sm16  1  0.326143  0.832697  0.377832  1
  Sm  Sm17  1  0.825895  0.667379  0.122159  1
  Sm  Sm18  1  0.674045  0.167238  0.877916  1
  Sm  Sm19  1  0.174048  0.332707  0.622093  1
  Sn  Sn20  1  0.669165  0.966000  0.458729  1
  Sn  Sn21  1  0.169200  0.534128  0.041120  1
  Sn  Sn22  1  0.330823  0.034081  0.958877  1
  Sn  Sn23  1  0.830799  0.465924  0.541112  1
  Sn  Sn24  1  0.330823  0.034081  0.541123  1
  Sn  Sn25  1  0.830799  0.465924  0.958888  1
  Sn  Sn26  1  0.669165  0.966000  0.041271  1
  Sn  Sn27  1  0.169200  0.534128  0.458880  1
  Sn  Sn28  1  0.472857  0.381380  0.750000  1
  Sn  Sn29  1  0.972856  0.118608  0.750000  1
  Sn  Sn30  1  0.527243  0.618766  0.250000  1
  Sn  Sn31  1  0.026821  0.881563  0.250000  1
  Sn  Sn32  1  0.718755  0.870738  0.750000  1
  Sn  Sn33  1  0.218763  0.629268  0.750000  1
  Sn  Sn34  1  0.281515  0.129036  0.250000  1
  Sn  Sn35  1  0.781128  0.370430  0.250000  1
