# generated using pymatgen
data_ErSc6Fe5CoSn23
_symmetry_space_group_name_H-M   'P 1'
_cell_length_a   9.54306685
_cell_length_b   9.57090749
_cell_length_c   9.73831100
_cell_angle_alpha   89.99999941
_cell_angle_beta   89.97934097
_cell_angle_gamma   120.09655195
_symmetry_Int_Tables_number   1
_chemical_formula_structural   ErSc6Fe5CoSn23
_chemical_formula_sum   'Er1 Sc6 Fe5 Co1 Sn23'
_cell_volume   769.54135061
_cell_formula_units_Z   1
loop_
 _symmetry_equiv_pos_site_id
 _symmetry_equiv_pos_as_xyz
  1  'x, y, z'
loop_
 _atom_site_type_symbol
 _atom_site_label
 _atom_site_symmetry_multiplicity
 _atom_site_fract_x
 _atom_site_fract_y
 _atom_site_fract_z
 _atom_site_occupancy
  Er  Er0  1  0.001898  0.000949  0.001466  1
  Sc  Sc1  1  0.488645  0.510645  0.302184  1
  Sc  Sc2  1  0.509798  0.485336  0.696409  1
  Sc  Sc3  1  0.488645  0.978000  0.302184  1
  Sc  Sc4  1  0.509798  0.024463  0.696409  1
  Sc  Sc5  1  0.023173  0.511586  0.302714  1
  Sc  Sc6  1  0.976154  0.488078  0.696873  1
  Fe  Fe7  1  0.829169  0.170278  0.202757  1
  Fe  Fe8  1  0.171757  0.829977  0.797410  1
  Fe  Fe9  1  0.829169  0.658891  0.202757  1
  Fe  Fe10  1  0.171757  0.341780  0.797410  1
  Fe  Fe11  1  0.341664  0.170831  0.201803  1
  Co  Co12  1  0.658278  0.829139  0.798647  1
  Sn  Sn13  1  0.347090  0.999913  0.000423  1
  Sn  Sn14  1  0.653568  0.001389  0.999218  1
  Sn  Sn15  1  0.000840  0.347000  0.000273  1
  Sn  Sn16  1  0.000840  0.653840  0.000273  1
  Sn  Sn17  1  0.653568  0.652178  0.999218  1
  Sn  Sn18  1  0.347090  0.347177  0.000423  1
  Sn  Sn19  1  0.332137  0.666070  0.824343  1
  Sn  Sn20  1  0.666964  0.333482  0.175667  1
  Sn  Sn21  1  0.999690  0.999846  0.500752  1
  Sn  Sn22  1  0.779445  0.221152  0.461126  1
  Sn  Sn23  1  0.220130  0.778736  0.538710  1
  Sn  Sn24  1  0.779445  0.558293  0.461126  1
  Sn  Sn25  1  0.220130  0.441395  0.538710  1
  Sn  Sn26  1  0.440494  0.220248  0.461017  1
  Sn  Sn27  1  0.558110  0.779055  0.539677  1
  Sn  Sn28  1  0.334271  0.667136  0.143523  1
  Sn  Sn29  1  0.667198  0.333599  0.856887  1
  Sn  Sn30  1  0.120453  0.880278  0.274643  1
  Sn  Sn31  1  0.879602  0.120641  0.724830  1
  Sn  Sn32  1  0.120453  0.240178  0.274643  1
  Sn  Sn33  1  0.879602  0.758958  0.724830  1
  Sn  Sn34  1  0.758003  0.879002  0.272556  1
  Sn  Sn35  1  0.240969  0.120484  0.728106  1
