# generated using pymatgen
data_K4CrSbCl12
_symmetry_space_group_name_H-M   'P 1'
_cell_length_a   7.10431600
_cell_length_b   7.10431600
_cell_length_c   10.43092000
_cell_angle_alpha   90.00000000
_cell_angle_beta   90.00000000
_cell_angle_gamma   90.00000000
_symmetry_Int_Tables_number   1
_chemical_formula_structural   K4CrSbCl12
_chemical_formula_sum   'K4 Cr1 Sb1 Cl12'
_cell_volume   526.46215339
_cell_formula_units_Z   1
loop_
 _symmetry_equiv_pos_site_id
 _symmetry_equiv_pos_as_xyz
  1  'x, y, z'
loop_
 _atom_site_type_symbol
 _atom_site_label
 _atom_site_symmetry_multiplicity
 _atom_site_fract_x
 _atom_site_fract_y
 _atom_site_fract_z
 _atom_site_occupancy
  K  K0  1  0.500000  0.000000  0.798899  1
  K  K1  1  0.000000  0.500000  0.201101  1
  K  K2  1  0.500000  0.000000  0.201101  1
  K  K3  1  0.000000  0.500000  0.798899  1
  Cr  Cr4  1  0.000000  0.000000  0.000000  1
  Sb  Sb5  1  0.500000  0.500000  0.500000  1
  Cl  Cl6  1  0.000000  0.000000  0.772528  1
  Cl  Cl7  1  0.500000  0.500000  0.266608  1
  Cl  Cl8  1  0.738927  0.738927  0.500000  1
  Cl  Cl9  1  0.235893  0.235893  0.000000  1
  Cl  Cl10  1  0.738927  0.261073  0.500000  1
  Cl  Cl11  1  0.235893  0.764107  0.000000  1
  Cl  Cl12  1  0.000000  0.000000  0.227472  1
  Cl  Cl13  1  0.500000  0.500000  0.733392  1
  Cl  Cl14  1  0.261073  0.261073  0.500000  1
  Cl  Cl15  1  0.764107  0.764107  0.000000  1
  Cl  Cl16  1  0.261073  0.738927  0.500000  1
  Cl  Cl17  1  0.764107  0.235893  0.000000  1
