# generated using pymatgen
data_Sm2HoCoSn6
_symmetry_space_group_name_H-M   'P 1'
_cell_length_a   8.50441895
_cell_length_b   8.50441838
_cell_length_c   13.28412400
_cell_angle_alpha   90.00000000
_cell_angle_beta   90.00000000
_cell_angle_gamma   148.72436567
_symmetry_Int_Tables_number   1
_chemical_formula_structural   Sm2HoCoSn6
_chemical_formula_sum   'Sm4 Ho2 Co2 Sn12'
_cell_volume   498.79237861
_cell_formula_units_Z   2
loop_
 _symmetry_equiv_pos_site_id
 _symmetry_equiv_pos_as_xyz
  1  'x, y, z'
loop_
 _atom_site_type_symbol
 _atom_site_label
 _atom_site_symmetry_multiplicity
 _atom_site_fract_x
 _atom_site_fract_y
 _atom_site_fract_z
 _atom_site_occupancy
  Sm  Sm0  1  0.900186  0.099814  0.092396  1
  Sm  Sm1  1  0.099814  0.900186  0.592396  1
  Sm  Sm2  1  0.099814  0.900186  0.907604  1
  Sm  Sm3  1  0.900186  0.099814  0.407604  1
  Ho  Ho4  1  0.899308  0.100692  0.750000  1
  Ho  Ho5  1  0.100692  0.899308  0.250000  1
  Co  Co6  1  0.298039  0.701961  0.250000  1
  Co  Co7  1  0.701961  0.298039  0.750000  1
  Sn  Sn8  1  0.755198  0.244802  0.571761  1
  Sn  Sn9  1  0.427732  0.572268  0.578506  1
  Sn  Sn10  1  0.572268  0.427732  0.421494  1
  Sn  Sn11  1  0.733414  0.266586  0.250000  1
  Sn  Sn12  1  0.266586  0.733414  0.750000  1
  Sn  Sn13  1  0.244802  0.755198  0.071761  1
  Sn  Sn14  1  0.244802  0.755198  0.428239  1
  Sn  Sn15  1  0.572268  0.427732  0.078506  1
  Sn  Sn16  1  0.453486  0.546514  0.250000  1
  Sn  Sn17  1  0.546514  0.453486  0.750000  1
  Sn  Sn18  1  0.755198  0.244802  0.928239  1
  Sn  Sn19  1  0.427732  0.572268  0.921494  1
