# generated using pymatgen
data_MgScZnNi3
_symmetry_space_group_name_H-M   'P 1'
_cell_length_a   4.97546609
_cell_length_b   4.97546550
_cell_length_c   4.86869525
_cell_angle_alpha   59.27189602
_cell_angle_beta   59.27188251
_cell_angle_gamma   60.00000761
_symmetry_Int_Tables_number   1
_chemical_formula_structural   MgScZnNi3
_chemical_formula_sum   'Mg1 Sc1 Zn1 Ni3'
_cell_volume   84.27462140
_cell_formula_units_Z   1
loop_
 _symmetry_equiv_pos_site_id
 _symmetry_equiv_pos_as_xyz
  1  'x, y, z'
loop_
 _atom_site_type_symbol
 _atom_site_label
 _atom_site_symmetry_multiplicity
 _atom_site_fract_x
 _atom_site_fract_y
 _atom_site_fract_z
 _atom_site_occupancy
  Mg  Mg0  1  0.000285  0.000285  0.999143  1
  Sc  Sc1  1  0.246918  0.246918  0.259248  1
  Zn  Zn2  1  0.625881  0.625881  0.122356  1
  Ni  Ni3  1  0.626302  0.124311  0.623084  1
  Ni  Ni4  1  0.124311  0.626302  0.623084  1
  Ni  Ni5  1  0.626302  0.626302  0.623084  1
