# generated using pymatgen
data_Ba2LiAlSi2
_symmetry_space_group_name_H-M   'P 1'
_cell_length_a   8.90994682
_cell_length_b   8.90994740
_cell_length_c   8.90994737
_cell_angle_alpha   137.49496661
_cell_angle_beta   137.04293859
_cell_angle_gamma   62.02523527
_symmetry_Int_Tables_number   1
_chemical_formula_structural   Ba2LiAlSi2
_chemical_formula_sum   'Ba4 Li2 Al2 Si4'
_cell_volume   321.83879945
_cell_formula_units_Z   2
loop_
 _symmetry_equiv_pos_site_id
 _symmetry_equiv_pos_as_xyz
  1  'x, y, z'
loop_
 _atom_site_type_symbol
 _atom_site_label
 _atom_site_symmetry_multiplicity
 _atom_site_fract_x
 _atom_site_fract_y
 _atom_site_fract_z
 _atom_site_occupancy
  Ba  Ba0  1  0.097852  0.838887  0.258965  1
  Ba  Ba1  1  0.902148  0.161113  0.741035  1
  Ba  Ba2  1  0.420077  0.661113  0.758965  1
  Ba  Ba3  1  0.579923  0.338887  0.241035  1
  Li  Li4  1  0.500000  0.250000  0.750000  1
  Li  Li5  1  0.500000  0.750000  0.250000  1
  Al  Al6  1  0.000000  0.250000  0.250000  1
  Al  Al7  1  0.000000  0.750000  0.750000  1
  Si  Si8  1  0.675654  0.905951  0.769702  1
  Si  Si9  1  0.136250  0.405951  0.730298  1
  Si  Si10  1  0.863750  0.594049  0.269702  1
  Si  Si11  1  0.324346  0.094049  0.230298  1
