# generated using pymatgen
data_Y8Tm4Co4SnRh
_symmetry_space_group_name_H-M   'P 1'
_cell_length_a   8.28302814
_cell_length_b   8.28302773
_cell_length_c   8.28302780
_cell_angle_alpha   110.94193244
_cell_angle_beta   110.53984257
_cell_angle_gamma   106.96094122
_symmetry_Int_Tables_number   1
_chemical_formula_structural   Y8Tm4Co4SnRh
_chemical_formula_sum   'Y8 Tm4 Co4 Sn1 Rh1'
_cell_volume   436.83521503
_cell_formula_units_Z   1
loop_
 _symmetry_equiv_pos_site_id
 _symmetry_equiv_pos_as_xyz
  1  'x, y, z'
loop_
 _atom_site_type_symbol
 _atom_site_label
 _atom_site_symmetry_multiplicity
 _atom_site_fract_x
 _atom_site_fract_y
 _atom_site_fract_z
 _atom_site_occupancy
  Y  Y0  1  0.409726  0.214233  0.195493  1
  Y  Y1  1  0.590274  0.785767  0.804507  1
  Y  Y2  1  0.018741  0.214233  0.804507  1
  Y  Y3  1  0.981259  0.785767  0.195493  1
  Y  Y4  1  0.186716  0.290194  0.476911  1
  Y  Y5  1  0.813284  0.709806  0.523089  1
  Y  Y6  1  0.186716  0.709806  0.896522  1
  Y  Y7  1  0.813284  0.290194  0.103478  1
  Tm  Tm8  1  0.313664  0.622261  0.308594  1
  Tm  Tm9  1  0.686336  0.377739  0.691406  1
  Tm  Tm10  1  0.313664  0.005070  0.691406  1
  Tm  Tm11  1  0.686336  0.994930  0.308594  1
  Co  Co12  1  0.380815  0.000000  0.380815  1
  Co  Co13  1  0.619185  0.000000  0.619185  1
  Co  Co14  1  0.111798  0.611798  0.500000  1
  Co  Co15  1  0.888202  0.388202  0.500000  1
  Sn  Sn16  1  0.500000  0.500000  0.000000  1
  Rh  Rh17  1  0.000000  0.000000  0.000000  1
