# generated using pymatgen
data_Tb2Al9OsPt2
_symmetry_space_group_name_H-M   'P 1'
_cell_length_a   7.60260027
_cell_length_b   7.60260115
_cell_length_c   9.49508600
_cell_angle_alpha   90.00000000
_cell_angle_beta   90.00000000
_cell_angle_gamma   119.45375101
_symmetry_Int_Tables_number   1
_chemical_formula_structural   Tb2Al9OsPt2
_chemical_formula_sum   'Tb4 Al18 Os2 Pt4'
_cell_volume   477.87927262
_cell_formula_units_Z   2
loop_
 _symmetry_equiv_pos_site_id
 _symmetry_equiv_pos_as_xyz
  1  'x, y, z'
loop_
 _atom_site_type_symbol
 _atom_site_label
 _atom_site_symmetry_multiplicity
 _atom_site_fract_x
 _atom_site_fract_y
 _atom_site_fract_z
 _atom_site_occupancy
  Tb  Tb0  1  0.994032  0.670926  0.250000  1
  Tb  Tb1  1  0.005968  0.329074  0.750000  1
  Tb  Tb2  1  0.670926  0.994032  0.250000  1
  Tb  Tb3  1  0.329074  0.005968  0.750000  1
  Al  Al4  1  0.126150  0.126150  0.250000  1
  Al  Al5  1  0.873850  0.873850  0.750000  1
  Al  Al6  1  0.000203  0.329982  0.075786  1
  Al  Al7  1  0.999797  0.670018  0.924214  1
  Al  Al8  1  0.999797  0.670018  0.575786  1
  Al  Al9  1  0.329982  0.000203  0.424214  1
  Al  Al10  1  0.000203  0.329982  0.424214  1
  Al  Al11  1  0.670018  0.999797  0.575786  1
  Al  Al12  1  0.670018  0.999797  0.924214  1
  Al  Al13  1  0.329982  0.000203  0.075786  1
  Al  Al14  1  0.328796  0.328796  0.554991  1
  Al  Al15  1  0.671204  0.671204  0.445009  1
  Al  Al16  1  0.671204  0.671204  0.054991  1
  Al  Al17  1  0.328796  0.328796  0.945009  1
  Al  Al18  1  0.341149  0.546087  0.250000  1
  Al  Al19  1  0.658851  0.453913  0.750000  1
  Al  Al20  1  0.546087  0.341149  0.250000  1
  Al  Al21  1  0.453913  0.658851  0.750000  1
  Os  Os22  1  0.000000  0.000000  0.000000  1
  Os  Os23  1  0.000000  0.000000  0.500000  1
  Pt  Pt24  1  0.671965  0.328035  0.000000  1
  Pt  Pt25  1  0.328035  0.671965  0.000000  1
  Pt  Pt26  1  0.328035  0.671965  0.500000  1
  Pt  Pt27  1  0.671965  0.328035  0.500000  1
