# generated using pymatgen
data_Tb4Y2Al24CuRu7
_symmetry_space_group_name_H-M   'P 1'
_cell_length_a   8.82899377
_cell_length_b   8.82670811
_cell_length_c   9.55158501
_cell_angle_alpha   89.75489348
_cell_angle_beta   90.24052792
_cell_angle_gamma   119.74786791
_symmetry_Int_Tables_number   1
_chemical_formula_structural   Tb4Y2Al24CuRu7
_chemical_formula_sum   'Tb4 Y2 Al24 Cu1 Ru7'
_cell_volume   646.26201558
_cell_formula_units_Z   1
loop_
 _symmetry_equiv_pos_site_id
 _symmetry_equiv_pos_as_xyz
  1  'x, y, z'
loop_
 _atom_site_type_symbol
 _atom_site_label
 _atom_site_symmetry_multiplicity
 _atom_site_fract_x
 _atom_site_fract_y
 _atom_site_fract_z
 _atom_site_occupancy
  Tb  Tb0  1  0.807887  0.613850  0.251197  1
  Tb  Tb1  1  0.613759  0.807892  0.748768  1
  Tb  Tb2  1  0.194280  0.805719  0.750898  1
  Tb  Tb3  1  0.192130  0.386216  0.748764  1
  Y  Y4  1  0.386303  0.192217  0.251223  1
  Y  Y5  1  0.805698  0.194329  0.249122  1
  Al  Al6  1  0.439212  0.878003  0.251604  1
  Al  Al7  1  0.122089  0.560783  0.251629  1
  Al  Al8  1  0.438660  0.561258  0.249847  1
  Al  Al9  1  0.560897  0.122235  0.748371  1
  Al  Al10  1  0.877794  0.439117  0.748361  1
  Al  Al11  1  0.561340  0.438635  0.750172  1
  Al  Al12  1  0.163114  0.836915  0.423136  1
  Al  Al13  1  0.156576  0.323631  0.420981  1
  Al  Al14  1  0.676396  0.843417  0.420964  1
  Al  Al15  1  0.836881  0.163102  0.576824  1
  Al  Al16  1  0.843395  0.676355  0.579013  1
  Al  Al17  1  0.323613  0.156576  0.579015  1
  Al  Al18  1  0.837403  0.162569  0.922405  1
  Al  Al19  1  0.836995  0.675609  0.922223  1
  Al  Al20  1  0.324395  0.162984  0.922229  1
  Al  Al21  1  0.162594  0.837440  0.077623  1
  Al  Al22  1  0.163004  0.324391  0.077773  1
  Al  Al23  1  0.675621  0.837032  0.077786  1
  Al  Al24  1  0.331898  0.668061  0.519007  1
  Al  Al25  1  0.668113  0.331867  0.480988  1
  Al  Al26  1  0.666568  0.333351  0.014424  1
  Al  Al27  1  0.333417  0.666608  0.985597  1
  Al  Al28  1  0.000677  0.999197  0.249835  1
  Al  Al29  1  0.999250  0.000737  0.750171  1
  Cu  Cu30  1  0.500013  0.500013  0.500002  1
  Ru  Ru31  1  0.000023  0.000008  0.499873  1
  Ru  Ru32  1  0.000052  0.000045  0.000177  1
  Ru  Ru33  1  0.500018  0.000058  0.499933  1
  Ru  Ru34  1  0.999961  0.499938  0.499951  1
  Ru  Ru35  1  0.500041  0.000025  0.000005  1
  Ru  Ru36  1  0.999921  0.499927  0.000040  1
  Ru  Ru37  1  0.500012  0.499888  0.000073  1
