# generated using pymatgen
data_Cs12Ga(FeSe4)3
_symmetry_space_group_name_H-M   'P 1'
_cell_length_a   11.15487336
_cell_length_b   11.15487250
_cell_length_c   14.25384600
_cell_angle_alpha   89.96265844
_cell_angle_beta   89.96270467
_cell_angle_gamma   138.83756180
_symmetry_Int_Tables_number   1
_chemical_formula_structural   Cs12Ga(FeSe4)3
_chemical_formula_sum   'Cs12 Ga1 Fe3 Se12'
_cell_volume   1167.38966785
_cell_formula_units_Z   1
loop_
 _symmetry_equiv_pos_site_id
 _symmetry_equiv_pos_as_xyz
  1  'x, y, z'
loop_
 _atom_site_type_symbol
 _atom_site_label
 _atom_site_symmetry_multiplicity
 _atom_site_fract_x
 _atom_site_fract_y
 _atom_site_fract_z
 _atom_site_occupancy
  Cs  Cs0  1  0.860178  0.860234  0.670550  1
  Cs  Cs1  1  0.139766  0.139822  0.329450  1
  Cs  Cs2  1  0.639344  0.638777  0.173363  1
  Cs  Cs3  1  0.361223  0.360656  0.826637  1
  Cs  Cs4  1  0.152726  0.506117  0.126082  1
  Cs  Cs5  1  0.493883  0.847274  0.873918  1
  Cs  Cs6  1  0.992920  0.344610  0.626008  1
  Cs  Cs7  1  0.655390  0.007080  0.373991  1
  Cs  Cs8  1  0.847428  0.494307  0.874338  1
  Cs  Cs9  1  0.505693  0.152572  0.125662  1
  Cs  Cs10  1  0.006643  0.654118  0.372956  1
  Cs  Cs11  1  0.345882  0.993357  0.627044  1
  Ga  Ga12  1  0.920144  0.079856  0.000000  1
  Fe  Fe13  1  0.420145  0.579855  0.500000  1
  Fe  Fe14  1  0.079235  0.920766  0.000000  1
  Fe  Fe15  1  0.580064  0.419936  0.500000  1
  Se  Se16  1  0.301048  0.300856  0.570879  1
  Se  Se17  1  0.699143  0.698952  0.429121  1
  Se  Se18  1  0.199245  0.198703  0.071072  1
  Se  Se19  1  0.801297  0.800755  0.928928  1
  Se  Se20  1  0.709129  0.001478  0.116286  1
  Se  Se21  1  0.998522  0.290871  0.883714  1
  Se  Se22  1  0.495095  0.785977  0.614238  1
  Se  Se23  1  0.214023  0.504905  0.385762  1
  Se  Se24  1  0.285963  0.995206  0.885814  1
  Se  Se25  1  0.004794  0.714037  0.114186  1
  Se  Se26  1  0.504862  0.213785  0.385611  1
  Se  Se27  1  0.786215  0.495138  0.614389  1
