# generated using pymatgen
data_Ce2Fe9P7W3
_symmetry_space_group_name_H-M   'P 1'
_cell_length_a   9.19041388
_cell_length_b   9.17843827
_cell_length_c   3.71658400
_cell_angle_alpha   90.00000000
_cell_angle_beta   90.00000000
_cell_angle_gamma   120.00063711
_symmetry_Int_Tables_number   1
_chemical_formula_structural   Ce2Fe9P7W3
_chemical_formula_sum   'Ce2 Fe9 P7 W3'
_cell_volume   271.50364079
_cell_formula_units_Z   1
loop_
 _symmetry_equiv_pos_site_id
 _symmetry_equiv_pos_as_xyz
  1  'x, y, z'
loop_
 _atom_site_type_symbol
 _atom_site_label
 _atom_site_symmetry_multiplicity
 _atom_site_fract_x
 _atom_site_fract_y
 _atom_site_fract_z
 _atom_site_occupancy
  Ce  Ce0  1  0.665784  0.332657  0.499999  1
  Ce  Ce1  1  0.334158  0.667572  0.000000  1
  Fe  Fe2  1  0.154030  0.274543  0.000000  1
  Fe  Fe3  1  0.725543  0.879404  0.000000  1
  Fe  Fe4  1  0.120653  0.845734  0.000000  1
  Fe  Fe5  1  0.429376  0.059976  0.000000  1
  Fe  Fe6  1  0.940906  0.370571  0.000000  1
  Fe  Fe7  1  0.630108  0.570321  0.000000  1
  Fe  Fe8  1  0.385896  0.438696  0.499999  1
  Fe  Fe9  1  0.561354  0.946975  0.499999  1
  Fe  Fe10  1  0.052463  0.613668  0.499999  1
  P  P11  1  0.118354  0.407228  0.499999  1
  P  P12  1  0.593106  0.710169  0.499999  1
  P  P13  1  0.290085  0.882997  0.499999  1
  P  P14  1  0.999980  0.999936  0.000000  1
  P  P15  1  0.410871  0.306996  0.000000  1
  P  P16  1  0.691931  0.103140  0.000000  1
  P  P17  1  0.895378  0.589078  0.000000  1
  W  W18  1  0.220867  0.105200  0.499999  1
  W  W19  1  0.894635  0.115901  0.499999  1
  W  W20  1  0.884522  0.779234  0.499999  1
