# generated using pymatgen
data_BeCrMoO4
_symmetry_space_group_name_H-M   'P 1'
_cell_length_a   4.66213101
_cell_length_b   6.00295801
_cell_length_c   10.51291001
_cell_angle_alpha   90.00000279
_cell_angle_beta   89.99998009
_cell_angle_gamma   89.99970625
_symmetry_Int_Tables_number   1
_chemical_formula_structural   BeCrMoO4
_chemical_formula_sum   'Be4 Cr4 Mo4 O16'
_cell_volume   294.22036185
_cell_formula_units_Z   4
loop_
 _symmetry_equiv_pos_site_id
 _symmetry_equiv_pos_as_xyz
  1  'x, y, z'
loop_
 _atom_site_type_symbol
 _atom_site_label
 _atom_site_symmetry_multiplicity
 _atom_site_fract_x
 _atom_site_fract_y
 _atom_site_fract_z
 _atom_site_occupancy
  Be  Be0  1  0.925731  0.749989  0.415186  1
  Be  Be1  1  0.574296  0.750007  0.915181  1
  Be  Be2  1  0.074233  0.250008  0.584809  1
  Be  Be3  1  0.425790  0.249989  0.084803  1
  Cr  Cr4  1  0.500007  0.500172  0.500046  1
  Cr  Cr5  1  0.000041  0.999991  0.000059  1
  Cr  Cr6  1  0.499919  0.999903  0.500063  1
  Cr  Cr7  1  0.999926  0.500067  0.999959  1
  Mo  Mo8  1  0.495567  0.749967  0.230683  1
  Mo  Mo9  1  0.004420  0.750040  0.730652  1
  Mo  Mo10  1  0.504454  0.249990  0.769335  1
  Mo  Mo11  1  0.995527  0.250016  0.269298  1
  O  O12  1  0.268735  0.750007  0.415206  1
  O  O13  1  0.231322  0.749982  0.915195  1
  O  O14  1  0.731259  0.250015  0.584790  1
  O  O15  1  0.768779  0.249975  0.084771  1
  O  O16  1  0.740744  0.749974  0.056943  1
  O  O17  1  0.759240  0.750001  0.556944  1
  O  O18  1  0.259333  0.249974  0.943056  1
  O  O19  1  0.240639  0.249999  0.443049  1
  O  O20  1  0.761386  0.970046  0.346396  1
  O  O21  1  0.738626  0.529963  0.846389  1
  O  O22  1  0.238572  0.470033  0.653600  1
  O  O23  1  0.261436  0.029925  0.153599  1
  O  O24  1  0.238587  0.029984  0.653592  1
  O  O25  1  0.261422  0.470029  0.153588  1
  O  O26  1  0.761377  0.529921  0.346407  1
  O  O27  1  0.738629  0.970039  0.846403  1
