# generated using pymatgen
data_Pa2Re2C3
_symmetry_space_group_name_H-M   'P 1'
_cell_length_a   6.22219272
_cell_length_b   6.22219227
_cell_length_c   5.62691701
_cell_angle_alpha   67.88756499
_cell_angle_beta   67.88756697
_cell_angle_gamma   29.71444426
_symmetry_Int_Tables_number   1
_chemical_formula_structural   Pa2Re2C3
_chemical_formula_sum   'Pa2 Re2 C3'
_cell_volume   99.45800121
_cell_formula_units_Z   1
loop_
 _symmetry_equiv_pos_site_id
 _symmetry_equiv_pos_as_xyz
  1  'x, y, z'
loop_
 _atom_site_type_symbol
 _atom_site_label
 _atom_site_symmetry_multiplicity
 _atom_site_fract_x
 _atom_site_fract_y
 _atom_site_fract_z
 _atom_site_occupancy
  Pa  Pa0  1  0.602626  0.602626  0.192342  1
  Pa  Pa1  1  0.397374  0.397374  0.807658  1
  Re  Re2  1  0.844915  0.844915  0.334444  1
  Re  Re3  1  0.155085  0.155085  0.665556  1
  C  C4  1  0.750118  0.750118  0.748639  1
  C  C5  1  0.249882  0.249882  0.251361  1
  C  C6  1  0.000000  0.000000  0.000000  1
