# generated using pymatgen
data_Zr7ScNb2Ge6C
_symmetry_space_group_name_H-M   'P 1'
_cell_length_a   7.99251300
_cell_length_b   7.99251336
_cell_length_c   5.58544600
_cell_angle_alpha   90.00000000
_cell_angle_beta   90.00000000
_cell_angle_gamma   119.99999438
_symmetry_Int_Tables_number   1
_chemical_formula_structural   Zr7ScNb2Ge6C
_chemical_formula_sum   'Zr7 Sc1 Nb2 Ge6 C1'
_cell_volume   308.99769219
_cell_formula_units_Z   1
loop_
 _symmetry_equiv_pos_site_id
 _symmetry_equiv_pos_as_xyz
  1  'x, y, z'
loop_
 _atom_site_type_symbol
 _atom_site_label
 _atom_site_symmetry_multiplicity
 _atom_site_fract_x
 _atom_site_fract_y
 _atom_site_fract_z
 _atom_site_occupancy
  Zr  Zr0  1  0.001407  0.759003  0.260931  1
  Zr  Zr1  1  0.240997  0.242405  0.260931  1
  Zr  Zr2  1  0.757595  0.998593  0.260931  1
  Zr  Zr3  1  0.001407  0.242405  0.739069  1
  Zr  Zr4  1  0.757595  0.759003  0.739069  1
  Zr  Zr5  1  0.240997  0.998593  0.739069  1
  Zr  Zr6  1  0.333333  0.666667  0.000000  1
  Sc  Sc7  1  0.666667  0.333333  0.000000  1
  Nb  Nb8  1  0.666667  0.333333  0.500000  1
  Nb  Nb9  1  0.333333  0.666667  0.500000  1
  Ge  Ge10  1  0.998559  0.399036  0.254230  1
  Ge  Ge11  1  0.600964  0.599523  0.254230  1
  Ge  Ge12  1  0.400477  0.001441  0.254230  1
  Ge  Ge13  1  0.998559  0.599523  0.745770  1
  Ge  Ge14  1  0.400477  0.399036  0.745770  1
  Ge  Ge15  1  0.600964  0.001441  0.745770  1
  C  C16  1  0.000000  0.000000  0.500000  1
