# generated using pymatgen
data_Tb8DyTmS10
_symmetry_space_group_name_H-M   'P 1'
_cell_length_a   6.76541260
_cell_length_b   7.82493778
_cell_length_c   8.78383300
_cell_angle_alpha   103.16595256
_cell_angle_beta   97.18425913
_cell_angle_gamma   106.80415648
_symmetry_Int_Tables_number   1
_chemical_formula_structural   Tb8DyTmS10
_chemical_formula_sum   'Tb8 Dy1 Tm1 S10'
_cell_volume   424.26094581
_cell_formula_units_Z   1
loop_
 _symmetry_equiv_pos_site_id
 _symmetry_equiv_pos_as_xyz
  1  'x, y, z'
loop_
 _atom_site_type_symbol
 _atom_site_label
 _atom_site_symmetry_multiplicity
 _atom_site_fract_x
 _atom_site_fract_y
 _atom_site_fract_z
 _atom_site_occupancy
  Tb  Tb0  1  0.799886  0.599982  0.598487  1
  Tb  Tb1  1  0.597085  0.198501  0.200384  1
  Tb  Tb2  1  0.402915  0.801499  0.799616  1
  Tb  Tb3  1  0.599592  0.701268  0.201482  1
  Tb  Tb4  1  0.200114  0.400018  0.401513  1
  Tb  Tb5  1  0.400408  0.298732  0.798518  1
  Tb  Tb6  1  0.201647  0.901179  0.401688  1
  Tb  Tb7  1  0.798353  0.098821  0.598312  1
  Dy  Dy8  1  0.000000  0.000000  0.000000  1
  Tm  Tm9  1  0.000000  0.500000  0.000000  1
  S  S10  1  0.703704  0.648873  0.901416  1
  S  S11  1  0.500094  0.250440  0.499952  1
  S  S12  1  0.704401  0.153721  0.901649  1
  S  S13  1  0.295599  0.846279  0.098351  1
  S  S14  1  0.499906  0.749560  0.500048  1
  S  S15  1  0.098724  0.450625  0.703488  1
  S  S16  1  0.296296  0.351127  0.098584  1
  S  S17  1  0.900985  0.050179  0.299022  1
  S  S18  1  0.099015  0.949821  0.700978  1
  S  S19  1  0.901276  0.549375  0.296512  1
