# generated using pymatgen
data_Tb5Ho(ThSn2)4
_symmetry_space_group_name_H-M   'P 1'
_cell_length_a   8.14017700
_cell_length_b   8.25120200
_cell_length_c   15.59473900
_cell_angle_alpha   90.00000000
_cell_angle_beta   90.00000000
_cell_angle_gamma   90.00000000
_symmetry_Int_Tables_number   1
_chemical_formula_structural   Tb5Ho(ThSn2)4
_chemical_formula_sum   'Tb10 Ho2 Th8 Sn16'
_cell_volume   1047.44005637
_cell_formula_units_Z   2
loop_
 _symmetry_equiv_pos_site_id
 _symmetry_equiv_pos_as_xyz
  1  'x, y, z'
loop_
 _atom_site_type_symbol
 _atom_site_label
 _atom_site_symmetry_multiplicity
 _atom_site_fract_x
 _atom_site_fract_y
 _atom_site_fract_z
 _atom_site_occupancy
  Tb  Tb0  1  0.363603  0.836400  0.876684  1
  Tb  Tb1  1  0.863603  0.663600  0.623316  1
  Tb  Tb2  1  0.636402  0.163608  0.376575  1
  Tb  Tb3  1  0.136402  0.336392  0.123425  1
  Tb  Tb4  1  0.636402  0.163608  0.123425  1
  Tb  Tb5  1  0.136402  0.336392  0.376575  1
  Tb  Tb6  1  0.363603  0.836400  0.623316  1
  Tb  Tb7  1  0.863603  0.663600  0.876684  1
  Tb  Tb8  1  0.192137  0.497367  0.750000  1
  Tb  Tb9  1  0.692137  0.002633  0.750000  1
  Ho  Ho10  1  0.807652  0.502569  0.250000  1
  Ho  Ho11  1  0.307652  0.997431  0.250000  1
  Th  Th12  1  0.519061  0.320448  0.903311  1
  Th  Th13  1  0.019061  0.179552  0.596689  1
  Th  Th14  1  0.480887  0.679410  0.403281  1
  Th  Th15  1  0.980887  0.820590  0.096719  1
  Th  Th16  1  0.480887  0.679410  0.096719  1
  Th  Th17  1  0.980887  0.820590  0.403281  1
  Th  Th18  1  0.519061  0.320448  0.596689  1
  Th  Th19  1  0.019061  0.179552  0.903311  1
  Sn  Sn20  1  0.296639  0.038134  0.042552  1
  Sn  Sn21  1  0.796639  0.461866  0.457448  1
  Sn  Sn22  1  0.703445  0.961742  0.542121  1
  Sn  Sn23  1  0.203445  0.538258  0.957879  1
  Sn  Sn24  1  0.703445  0.961742  0.957879  1
  Sn  Sn25  1  0.203445  0.538258  0.542121  1
  Sn  Sn26  1  0.296639  0.038134  0.457448  1
  Sn  Sn27  1  0.796639  0.461866  0.042552  1
  Sn  Sn28  1  0.559503  0.620516  0.750000  1
  Sn  Sn29  1  0.059503  0.879484  0.750000  1
  Sn  Sn30  1  0.441140  0.379206  0.250000  1
  Sn  Sn31  1  0.941140  0.120794  0.250000  1
  Sn  Sn32  1  0.325065  0.142469  0.750000  1
  Sn  Sn33  1  0.825065  0.357531  0.750000  1
  Sn  Sn34  1  0.674428  0.856898  0.250000  1
  Sn  Sn35  1  0.174428  0.643102  0.250000  1
