# generated using pymatgen
data_Y7TmC10
_symmetry_space_group_name_H-M   'P 1'
_cell_length_a   3.68106100
_cell_length_b   6.59166101
_cell_length_c   11.92559080
_cell_angle_alpha   89.83250292
_cell_angle_beta   90.00000000
_cell_angle_gamma   90.00000000
_symmetry_Int_Tables_number   1
_chemical_formula_structural   Y7TmC10
_chemical_formula_sum   'Y7 Tm1 C10'
_cell_volume   289.36495106
_cell_formula_units_Z   1
loop_
 _symmetry_equiv_pos_site_id
 _symmetry_equiv_pos_as_xyz
  1  'x, y, z'
loop_
 _atom_site_type_symbol
 _atom_site_label
 _atom_site_symmetry_multiplicity
 _atom_site_fract_x
 _atom_site_fract_y
 _atom_site_fract_z
 _atom_site_occupancy
  Y  Y0  1  0.000000  0.749631  0.456668  1
  Y  Y1  1  0.000000  0.749803  0.955465  1
  Y  Y2  1  0.000000  0.238152  0.042313  1
  Y  Y3  1  0.500000  0.108438  0.803090  1
  Y  Y4  1  0.500000  0.893571  0.196711  1
  Y  Y5  1  0.500000  0.605537  0.697025  1
  Y  Y6  1  0.500000  0.391162  0.304544  1
  Tm  Tm7  1  0.000000  0.264824  0.542351  1
  C  C8  1  0.500000  0.506368  0.501659  1
  C  C9  1  0.500000  0.989258  0.000439  1
  C  C10  1  0.000000  0.363048  0.733594  1
  C  C11  1  0.000000  0.643743  0.261942  1
  C  C12  1  0.000000  0.857817  0.760335  1
  C  C13  1  0.000000  0.134985  0.237758  1
  C  C14  1  0.000000  0.387843  0.844843  1
  C  C15  1  0.000000  0.576417  0.156917  1
  C  C16  1  0.000000  0.113970  0.349275  1
  C  C17  1  0.000000  0.925433  0.655071  1
