# generated using pymatgen
data_Yb3Er5(SiPt)8
_symmetry_space_group_name_H-M   'P 1'
_cell_length_a   4.28752200
_cell_length_b   7.35885100
_cell_length_c   14.03766845
_cell_angle_alpha   90.01478024
_cell_angle_beta   90.00000000
_cell_angle_gamma   90.00000000
_symmetry_Int_Tables_number   1
_chemical_formula_structural   Yb3Er5(SiPt)8
_chemical_formula_sum   'Yb3 Er5 Si8 Pt8'
_cell_volume   442.90576912
_cell_formula_units_Z   1
loop_
 _symmetry_equiv_pos_site_id
 _symmetry_equiv_pos_as_xyz
  1  'x, y, z'
loop_
 _atom_site_type_symbol
 _atom_site_label
 _atom_site_symmetry_multiplicity
 _atom_site_fract_x
 _atom_site_fract_y
 _atom_site_fract_z
 _atom_site_occupancy
  Yb  Yb0  1  0.000000  0.198785  0.248243  1
  Yb  Yb1  1  0.500000  0.800999  0.251796  1
  Yb  Yb2  1  0.000000  0.203167  0.751431  1
  Er  Er3  1  0.000000  0.299362  0.999638  1
  Er  Er4  1  0.500000  0.700068  0.499020  1
  Er  Er5  1  0.000000  0.294017  0.499784  1
  Er  Er6  1  0.500000  0.705438  0.001250  1
  Er  Er7  1  0.500000  0.798459  0.748867  1
  Si  Si8  1  0.000000  0.906967  0.592739  1
  Si  Si9  1  0.500000  0.092959  0.907839  1
  Si  Si10  1  0.000000  0.907466  0.409482  1
  Si  Si11  1  0.500000  0.091488  0.090844  1
  Si  Si12  1  0.000000  0.591135  0.149948  1
  Si  Si13  1  0.500000  0.407855  0.350940  1
  Si  Si14  1  0.000000  0.592103  0.848883  1
  Si  Si15  1  0.500000  0.409095  0.647242  1
  Pt  Pt16  1  0.500000  0.079816  0.607807  1
  Pt  Pt17  1  0.000000  0.918924  0.892490  1
  Pt  Pt18  1  0.500000  0.082780  0.396115  1
  Pt  Pt19  1  0.000000  0.916060  0.103660  1
  Pt  Pt20  1  0.500000  0.418888  0.152211  1
  Pt  Pt21  1  0.000000  0.580478  0.346728  1
  Pt  Pt22  1  0.500000  0.421396  0.847659  1
  Pt  Pt23  1  0.000000  0.582295  0.655383  1
