# generated using pymatgen
data_PrHf4Bi3F28
_symmetry_space_group_name_H-M   'P 1'
_cell_length_a   5.79849878
_cell_length_b   9.33866171
_cell_length_c   12.49435507
_cell_angle_alpha   62.00479533
_cell_angle_beta   90.04997692
_cell_angle_gamma   89.97535391
_symmetry_Int_Tables_number   1
_chemical_formula_structural   PrHf4Bi3F28
_chemical_formula_sum   'Pr1 Hf4 Bi3 F28'
_cell_volume   597.40375390
_cell_formula_units_Z   1
loop_
 _symmetry_equiv_pos_site_id
 _symmetry_equiv_pos_as_xyz
  1  'x, y, z'
loop_
 _atom_site_type_symbol
 _atom_site_label
 _atom_site_symmetry_multiplicity
 _atom_site_fract_x
 _atom_site_fract_y
 _atom_site_fract_z
 _atom_site_occupancy
  Pr  Pr0  1  0.742840  0.812178  0.264362  1
  Hf  Hf1  1  0.757642  0.274861  0.956786  1
  Hf  Hf2  1  0.255947  0.725592  0.544026  1
  Hf  Hf3  1  0.244028  0.725370  0.041065  1
  Hf  Hf4  1  0.743771  0.273020  0.458315  1
  Bi  Bi5  1  0.758327  0.816868  0.763018  1
  Bi  Bi6  1  0.257996  0.183162  0.737805  1
  Bi  Bi7  1  0.239956  0.182051  0.237303  1
  F  F8  1  0.451524  0.711201  0.918617  1
  F  F9  1  0.950744  0.288411  0.580957  1
  F  F10  1  0.550224  0.289033  0.078855  1
  F  F11  1  0.048265  0.711719  0.420611  1
  F  F12  1  0.455252  0.277319  0.548105  1
  F  F13  1  0.952679  0.724767  0.952043  1
  F  F14  1  0.542066  0.721601  0.453212  1
  F  F15  1  0.047318  0.276179  0.046909  1
  F  F16  1  0.776209  0.515888  0.861690  1
  F  F17  1  0.272144  0.485109  0.638166  1
  F  F18  1  0.225086  0.485950  0.135658  1
  F  F19  1  0.726995  0.515474  0.363177  1
  F  F20  1  0.761612  0.031850  0.056710  1
  F  F21  1  0.262441  0.969456  0.442416  1
  F  F22  1  0.239528  0.970168  0.941419  1
  F  F23  1  0.738611  0.029317  0.558709  1
  F  F24  1  0.981345  0.736295  0.637628  1
  F  F25  1  0.485470  0.265353  0.860318  1
  F  F26  1  0.017926  0.265593  0.363416  1
  F  F27  1  0.515457  0.734139  0.137808  1
  F  F28  1  0.046557  0.746604  0.166409  1
  F  F29  1  0.547052  0.251217  0.333931  1
  F  F30  1  0.956387  0.251596  0.832282  1
  F  F31  1  0.453583  0.749298  0.667787  1
  F  F32  1  0.405571  0.971316  0.229301  1
  F  F33  1  0.917042  0.032800  0.270647  1
  F  F34  1  0.586067  0.028855  0.770593  1
  F  F35  1  0.086340  0.970390  0.729946  1
