# generated using pymatgen
data_K3Ca(BO3)2
_symmetry_space_group_name_H-M   'P 1'
_cell_length_a   5.67719900
_cell_length_b   6.85671100
_cell_length_c   9.67271500
_cell_angle_alpha   90.00000000
_cell_angle_beta   90.00000000
_cell_angle_gamma   90.00000000
_symmetry_Int_Tables_number   1
_chemical_formula_structural   K3Ca(BO3)2
_chemical_formula_sum   'K6 Ca2 B4 O12'
_cell_volume   376.52893366
_cell_formula_units_Z   2
loop_
 _symmetry_equiv_pos_site_id
 _symmetry_equiv_pos_as_xyz
  1  'x, y, z'
loop_
 _atom_site_type_symbol
 _atom_site_label
 _atom_site_symmetry_multiplicity
 _atom_site_fract_x
 _atom_site_fract_y
 _atom_site_fract_z
 _atom_site_occupancy
  K  K0  1  0.000000  0.229547  0.332896  1
  K  K1  1  0.000000  0.770453  0.667104  1
  K  K2  1  0.500000  0.729547  0.167104  1
  K  K3  1  0.500000  0.500000  0.500000  1
  K  K4  1  0.500000  0.270453  0.832896  1
  K  K5  1  0.000000  0.000000  0.000000  1
  Ca  Ca6  1  0.000000  0.500000  0.000000  1
  Ca  Ca7  1  0.500000  0.000000  0.500000  1
  B  B8  1  0.000000  0.760394  0.334266  1
  B  B9  1  0.000000  0.239606  0.665734  1
  B  B10  1  0.500000  0.739606  0.834266  1
  B  B11  1  0.500000  0.260394  0.165734  1
  O  O12  1  0.711041  0.290627  0.097052  1
  O  O13  1  0.211041  0.209373  0.597052  1
  O  O14  1  0.500000  0.203012  0.302647  1
  O  O15  1  0.711041  0.709373  0.902948  1
  O  O16  1  0.288959  0.290627  0.097052  1
  O  O17  1  0.211041  0.790627  0.402948  1
  O  O18  1  0.788959  0.209373  0.597052  1
  O  O19  1  0.288959  0.709373  0.902948  1
  O  O20  1  0.788959  0.790627  0.402948  1
  O  O21  1  0.000000  0.296988  0.802647  1
  O  O22  1  0.000000  0.703012  0.197353  1
  O  O23  1  0.500000  0.796988  0.697353  1
