# generated using pymatgen
data_TbHo(CoOs)2
_symmetry_space_group_name_H-M   'P 1'
_cell_length_a   5.24846642
_cell_length_b   5.24846581
_cell_length_c   5.27303600
_cell_angle_alpha   59.84501919
_cell_angle_beta   59.84502305
_cell_angle_gamma   58.24559680
_symmetry_Int_Tables_number   1
_chemical_formula_structural   TbHo(CoOs)2
_chemical_formula_sum   'Tb1 Ho1 Co2 Os2'
_cell_volume   101.04722651
_cell_formula_units_Z   1
loop_
 _symmetry_equiv_pos_site_id
 _symmetry_equiv_pos_as_xyz
  1  'x, y, z'
loop_
 _atom_site_type_symbol
 _atom_site_label
 _atom_site_symmetry_multiplicity
 _atom_site_fract_x
 _atom_site_fract_y
 _atom_site_fract_z
 _atom_site_occupancy
  Tb  Tb0  1  0.247503  0.247503  0.252497  1
  Ho  Ho1  1  0.002928  0.002928  0.997072  1
  Co  Co2  1  0.624920  0.624920  0.124694  1
  Co  Co3  1  0.624920  0.624920  0.625467  1
  Os  Os4  1  0.124867  0.624863  0.625136  1
  Os  Os5  1  0.624863  0.124867  0.625136  1
