# generated using pymatgen
data_Pr10CoOsBr15
_symmetry_space_group_name_H-M   'P 1'
_cell_length_a   9.62027465
_cell_length_b   10.63197105
_cell_length_c   11.38697475
_cell_angle_alpha   91.92548359
_cell_angle_beta   114.23812914
_cell_angle_gamma   110.76718926
_symmetry_Int_Tables_number   1
_chemical_formula_structural   Pr10CoOsBr15
_chemical_formula_sum   'Pr10 Co1 Os1 Br15'
_cell_volume   970.84522427
_cell_formula_units_Z   1
loop_
 _symmetry_equiv_pos_site_id
 _symmetry_equiv_pos_as_xyz
  1  'x, y, z'
loop_
 _atom_site_type_symbol
 _atom_site_label
 _atom_site_symmetry_multiplicity
 _atom_site_fract_x
 _atom_site_fract_y
 _atom_site_fract_z
 _atom_site_occupancy
  Pr  Pr0  1  0.231582  0.582253  0.051374  1
  Pr  Pr1  1  0.766772  0.421922  0.950936  1
  Pr  Pr2  1  0.306679  0.905349  0.271553  1
  Pr  Pr3  1  0.692339  0.090685  0.725693  1
  Pr  Pr4  1  0.096211  0.546976  0.338040  1
  Pr  Pr5  1  0.899723  0.454951  0.653756  1
  Pr  Pr6  1  0.830977  0.749785  0.176407  1
  Pr  Pr7  1  0.172167  0.249518  0.821187  1
  Pr  Pr8  1  0.971949  0.795405  0.895665  1
  Pr  Pr9  1  0.029001  0.200599  0.110016  1
  Co  Co10  1  0.034976  0.676367  0.120070  1
  Os  Os11  1  0.965760  0.327800  0.882177  1
  Br  Br12  1  0.332627  0.442098  0.299391  1
  Br  Br13  1  0.666606  0.558607  0.701321  1
  Br  Br14  1  0.198339  0.731768  0.811439  1
  Br  Br15  1  0.800597  0.268868  0.188361  1
  Br  Br16  1  0.137302  0.387997  0.587076  1
  Br  Br17  1  0.862467  0.614984  0.410156  1
  Br  Br18  1  0.387395  0.802126  0.522283  1
  Br  Br19  1  0.608739  0.195591  0.474879  1
  Br  Br20  1  0.253342  0.084181  0.052213  1
  Br  Br21  1  0.746784  0.913918  0.948879  1
  Br  Br22  1  0.566843  0.843925  0.225978  1
  Br  Br23  1  0.437693  0.156681  0.776377  1
  Br  Br24  1  0.096920  0.027317  0.334767  1
  Br  Br25  1  0.907012  0.969073  0.668306  1
  Br  Br26  1  0.499200  0.501255  0.001697  1
