# generated using pymatgen
data_Tb3Ho5Au4
_symmetry_space_group_name_H-M   'P 1'
_cell_length_a   4.94576400
_cell_length_b   7.12800878
_cell_length_c   8.96576998
_cell_angle_alpha   90.05358149
_cell_angle_beta   90.00000000
_cell_angle_gamma   90.00000000
_symmetry_Int_Tables_number   1
_chemical_formula_structural   Tb3Ho5Au4
_chemical_formula_sum   'Tb3 Ho5 Au4'
_cell_volume   316.07417843
_cell_formula_units_Z   1
loop_
 _symmetry_equiv_pos_site_id
 _symmetry_equiv_pos_as_xyz
  1  'x, y, z'
loop_
 _atom_site_type_symbol
 _atom_site_label
 _atom_site_symmetry_multiplicity
 _atom_site_fract_x
 _atom_site_fract_y
 _atom_site_fract_z
 _atom_site_occupancy
  Tb  Tb0  1  0.250000  0.486766  0.176866  1
  Tb  Tb1  1  0.750000  0.513052  0.822786  1
  Tb  Tb2  1  0.250000  0.986867  0.323219  1
  Ho  Ho3  1  0.750000  0.013297  0.676599  1
  Ho  Ho4  1  0.750000  0.648525  0.419776  1
  Ho  Ho5  1  0.250000  0.351378  0.580591  1
  Ho  Ho6  1  0.750000  0.148130  0.080262  1
  Ho  Ho7  1  0.250000  0.851920  0.918976  1
  Au  Au8  1  0.250000  0.256250  0.900486  1
  Au  Au9  1  0.750000  0.743553  0.099375  1
  Au  Au10  1  0.250000  0.757175  0.599534  1
  Au  Au11  1  0.750000  0.243086  0.401531  1
