# generated using pymatgen
data_Ca6UTcO12
_symmetry_space_group_name_H-M   'P 1'
_cell_length_a   6.67489068
_cell_length_b   6.67488959
_cell_length_c   6.67489100
_cell_angle_alpha   92.46006008
_cell_angle_beta   92.46005968
_cell_angle_gamma   92.46005735
_symmetry_Int_Tables_number   1
_chemical_formula_structural   Ca6UTcO12
_chemical_formula_sum   'Ca6 U1 Tc1 O12'
_cell_volume   296.54755809
_cell_formula_units_Z   1
loop_
 _symmetry_equiv_pos_site_id
 _symmetry_equiv_pos_as_xyz
  1  'x, y, z'
loop_
 _atom_site_type_symbol
 _atom_site_label
 _atom_site_symmetry_multiplicity
 _atom_site_fract_x
 _atom_site_fract_y
 _atom_site_fract_z
 _atom_site_occupancy
  Ca  Ca0  1  0.929846  0.437139  0.739522  1
  Ca  Ca1  1  0.739522  0.929846  0.437139  1
  Ca  Ca2  1  0.562861  0.260478  0.070154  1
  Ca  Ca3  1  0.437139  0.739522  0.929846  1
  Ca  Ca4  1  0.260478  0.070154  0.562861  1
  Ca  Ca5  1  0.070154  0.562861  0.260478  1
  U  U6  1  0.000000  0.000000  0.000000  1
  Tc  Tc7  1  0.500000  0.500000  0.500000  1
  O  O8  1  0.926562  0.297382  0.065255  1
  O  O9  1  0.934745  0.073438  0.702618  1
  O  O10  1  0.779158  0.578513  0.454116  1
  O  O11  1  0.702618  0.934745  0.073438  1
  O  O12  1  0.578513  0.454116  0.779158  1
  O  O13  1  0.545884  0.220842  0.421487  1
  O  O14  1  0.454116  0.779158  0.578513  1
  O  O15  1  0.421487  0.545884  0.220842  1
  O  O16  1  0.297382  0.065255  0.926562  1
  O  O17  1  0.220842  0.421487  0.545884  1
  O  O18  1  0.065255  0.926562  0.297382  1
  O  O19  1  0.073438  0.702618  0.934745  1
