# generated using pymatgen
data_Y7Er(Tm3Sn4)4
_symmetry_space_group_name_H-M   'P 1'
_cell_length_a   7.98598822
_cell_length_b   8.11550814
_cell_length_c   15.34048700
_cell_angle_alpha   90.00163793
_cell_angle_beta   90.01353118
_cell_angle_gamma   89.98959312
_symmetry_Int_Tables_number   1
_chemical_formula_structural   Y7Er(Tm3Sn4)4
_chemical_formula_sum   'Y7 Er1 Tm12 Sn16'
_cell_volume   994.22232400
_cell_formula_units_Z   1
loop_
 _symmetry_equiv_pos_site_id
 _symmetry_equiv_pos_as_xyz
  1  'x, y, z'
loop_
 _atom_site_type_symbol
 _atom_site_label
 _atom_site_symmetry_multiplicity
 _atom_site_fract_x
 _atom_site_fract_y
 _atom_site_fract_z
 _atom_site_occupancy
  Y  Y0  1  0.022195  0.179038  0.597460  1
  Y  Y1  1  0.477934  0.679073  0.402954  1
  Y  Y2  1  0.977810  0.820942  0.096971  1
  Y  Y3  1  0.477876  0.679000  0.096977  1
  Y  Y4  1  0.977829  0.820936  0.402965  1
  Y  Y5  1  0.522015  0.321010  0.597287  1
  Y  Y6  1  0.022248  0.178974  0.902603  1
  Er  Er7  1  0.522278  0.321304  0.902713  1
  Tm  Tm8  1  0.367067  0.837207  0.876975  1
  Tm  Tm9  1  0.866971  0.662751  0.623053  1
  Tm  Tm10  1  0.632930  0.162806  0.377135  1
  Tm  Tm11  1  0.132676  0.337181  0.122727  1
  Tm  Tm12  1  0.632725  0.162997  0.122622  1
  Tm  Tm13  1  0.132980  0.337160  0.377158  1
  Tm  Tm14  1  0.367144  0.837240  0.623145  1
  Tm  Tm15  1  0.867124  0.662739  0.877065  1
  Tm  Tm16  1  0.198408  0.504117  0.750153  1
  Tm  Tm17  1  0.698098  0.995895  0.750153  1
  Tm  Tm18  1  0.801771  0.495658  0.249927  1
  Tm  Tm19  1  0.301792  0.004263  0.249939  1
  Sn  Sn20  1  0.294629  0.038125  0.041551  1
  Sn  Sn21  1  0.794638  0.461905  0.458375  1
  Sn  Sn22  1  0.705323  0.962065  0.541753  1
  Sn  Sn23  1  0.206668  0.536909  0.958048  1
  Sn  Sn24  1  0.704973  0.962752  0.958121  1
  Sn  Sn25  1  0.205301  0.538040  0.541762  1
  Sn  Sn26  1  0.294675  0.038033  0.458414  1
  Sn  Sn27  1  0.793884  0.461717  0.041284  1
  Sn  Sn28  1  0.564295  0.620098  0.750171  1
  Sn  Sn29  1  0.064243  0.879410  0.750008  1
  Sn  Sn30  1  0.435583  0.379753  0.249936  1
  Sn  Sn31  1  0.935661  0.120302  0.249984  1
  Sn  Sn32  1  0.332077  0.148689  0.750482  1
  Sn  Sn33  1  0.830915  0.351878  0.750163  1
  Sn  Sn34  1  0.668694  0.851850  0.249949  1
  Sn  Sn35  1  0.168566  0.648180  0.250018  1
