# generated using pymatgen
data_La8SmTmSn6
_symmetry_space_group_name_H-M   'P 1'
_cell_length_a   9.48539674
_cell_length_b   9.48554530
_cell_length_c   9.48539762
_cell_angle_alpha   96.23288260
_cell_angle_beta   96.22264685
_cell_angle_gamma   141.53827005
_symmetry_Int_Tables_number   1
_chemical_formula_structural   La8SmTmSn6
_chemical_formula_sum   'La8 Sm1 Tm1 Sn6'
_cell_volume   501.21604188
_cell_formula_units_Z   1
loop_
 _symmetry_equiv_pos_site_id
 _symmetry_equiv_pos_as_xyz
  1  'x, y, z'
loop_
 _atom_site_type_symbol
 _atom_site_label
 _atom_site_symmetry_multiplicity
 _atom_site_fract_x
 _atom_site_fract_y
 _atom_site_fract_z
 _atom_site_occupancy
  La  La0  1  0.910628  0.222899  0.133421  1
  La  La1  1  0.222863  0.089428  0.312256  1
  La  La2  1  0.777101  0.910549  0.687739  1
  La  La3  1  0.089490  0.777180  0.866566  1
  La  La4  1  0.722828  0.410572  0.133434  1
  La  La5  1  0.277190  0.589451  0.866553  1
  La  La6  1  0.589386  0.722820  0.312310  1
  La  La7  1  0.410522  0.277101  0.687729  1
  Sm  Sm8  1  0.749993  0.250000  0.499993  1
  Tm  Tm9  1  0.250000  0.750000  0.500000  1
  Sn  Sn10  1  0.749992  0.750000  0.999992  1
  Sn  Sn11  1  0.249966  0.250000  0.999966  1
  Sn  Sn12  1  0.848502  0.657983  0.499988  1
  Sn  Sn13  1  0.651531  0.151475  0.809480  1
  Sn  Sn14  1  0.342005  0.842017  0.190519  1
  Sn  Sn15  1  0.158004  0.348525  0.500055  1
