# generated using pymatgen
data_Ca2Sm8Si5Sn
_symmetry_space_group_name_H-M   'P 1'
_cell_length_a   8.95174577
_cell_length_b   8.95174543
_cell_length_c   8.95174492
_cell_angle_alpha   128.92657386
_cell_angle_beta   128.92657540
_cell_angle_gamma   75.12874391
_symmetry_Int_Tables_number   1
_chemical_formula_structural   Ca2Sm8Si5Sn
_chemical_formula_sum   'Ca2 Sm8 Si5 Sn1'
_cell_volume   422.67790840
_cell_formula_units_Z   1
loop_
 _symmetry_equiv_pos_site_id
 _symmetry_equiv_pos_as_xyz
  1  'x, y, z'
loop_
 _atom_site_type_symbol
 _atom_site_label
 _atom_site_symmetry_multiplicity
 _atom_site_fract_x
 _atom_site_fract_y
 _atom_site_fract_z
 _atom_site_occupancy
  Ca  Ca0  1  0.990143  0.990143  0.000000  1
  Ca  Ca1  1  0.509857  0.509857  0.000000  1
  Sm  Sm2  1  0.826524  0.310378  0.852358  1
  Sm  Sm3  1  0.189622  0.673476  0.147642  1
  Sm  Sm4  1  0.458020  0.974166  0.147642  1
  Sm  Sm5  1  0.310378  0.458020  0.483853  1
  Sm  Sm6  1  0.041980  0.189622  0.516147  1
  Sm  Sm7  1  0.525834  0.041980  0.852358  1
  Sm  Sm8  1  0.673476  0.525834  0.483853  1
  Sm  Sm9  1  0.974166  0.826524  0.516147  1
  Si  Si10  1  0.115202  0.615202  0.730406  1
  Si  Si11  1  0.884798  0.384798  0.269594  1
  Si  Si12  1  0.615202  0.884798  0.500000  1
  Si  Si13  1  0.384798  0.115202  0.500000  1
  Si  Si14  1  0.250000  0.250000  0.000000  1
  Sn  Sn15  1  0.750000  0.750000  0.000000  1
