# generated using pymatgen
data_Y16Cd4RuPt3
_symmetry_space_group_name_H-M   'P 1'
_cell_length_a   9.72246245
_cell_length_b   9.69732642
_cell_length_c   9.69732600
_cell_angle_alpha   60.00000144
_cell_angle_beta   60.08548754
_cell_angle_gamma   60.08548671
_symmetry_Int_Tables_number   1
_chemical_formula_structural   Y16Cd4RuPt3
_chemical_formula_sum   'Y16 Cd4 Ru1 Pt3'
_cell_volume   647.32928235
_cell_formula_units_Z   1
loop_
 _symmetry_equiv_pos_site_id
 _symmetry_equiv_pos_as_xyz
  1  'x, y, z'
loop_
 _atom_site_type_symbol
 _atom_site_label
 _atom_site_symmetry_multiplicity
 _atom_site_fract_x
 _atom_site_fract_y
 _atom_site_fract_z
 _atom_site_occupancy
  Y  Y0  1  0.435624  0.434686  0.064845  1
  Y  Y1  1  0.067852  0.060796  0.435676  1
  Y  Y2  1  0.435624  0.064845  0.064845  1
  Y  Y3  1  0.853336  0.848580  0.848580  1
  Y  Y4  1  0.691195  0.309634  0.309634  1
  Y  Y5  1  0.067852  0.435676  0.435676  1
  Y  Y6  1  0.306884  0.688470  0.688470  1
  Y  Y7  1  0.306884  0.316175  0.688470  1
  Y  Y8  1  0.853336  0.848580  0.449505  1
  Y  Y9  1  0.691195  0.689537  0.309634  1
  Y  Y10  1  0.439545  0.853485  0.853485  1
  Y  Y11  1  0.067852  0.435676  0.060796  1
  Y  Y12  1  0.853336  0.449505  0.848580  1
  Y  Y13  1  0.435624  0.064845  0.434686  1
  Y  Y14  1  0.306884  0.688470  0.316175  1
  Y  Y15  1  0.691195  0.309634  0.689537  1
  Cd  Cd16  1  0.081070  0.755442  0.081744  1
  Cd  Cd17  1  0.081070  0.081744  0.755442  1
  Cd  Cd18  1  0.757961  0.080680  0.080680  1
  Cd  Cd19  1  0.081070  0.081744  0.081744  1
  Ru  Ru20  1  0.073737  0.642087  0.642087  1
  Pt  Pt21  1  0.640291  0.072182  0.643763  1
  Pt  Pt22  1  0.640291  0.643763  0.643763  1
  Pt  Pt23  1  0.640291  0.643763  0.072182  1
