# generated using pymatgen
data_Cs4RbRe3AgH27
_symmetry_space_group_name_H-M   'P 1'
_cell_length_a   9.90228927
_cell_length_b   9.81759098
_cell_length_c   6.36144000
_cell_angle_alpha   90.00000000
_cell_angle_beta   90.00000000
_cell_angle_gamma   118.53899206
_symmetry_Int_Tables_number   1
_chemical_formula_structural   Cs4RbRe3AgH27
_chemical_formula_sum   'Cs4 Rb1 Re3 Ag1 H27'
_cell_volume   543.29271424
_cell_formula_units_Z   1
loop_
 _symmetry_equiv_pos_site_id
 _symmetry_equiv_pos_as_xyz
  1  'x, y, z'
loop_
 _atom_site_type_symbol
 _atom_site_label
 _atom_site_symmetry_multiplicity
 _atom_site_fract_x
 _atom_site_fract_y
 _atom_site_fract_z
 _atom_site_occupancy
  Cs  Cs0  1  0.752809  0.765997  0.500000  1
  Cs  Cs1  1  0.998020  0.588806  0.000000  1
  Cs  Cs2  1  0.402831  0.405087  0.000000  1
  Cs  Cs3  1  0.594948  0.001218  0.000000  1
  Rb  Rb4  1  0.251142  0.014797  0.500000  1
  Re  Re5  1  0.680164  0.319620  0.500000  1
  Re  Re6  1  0.306124  0.645935  0.500000  1
  Re  Re7  1  0.014260  0.013757  0.000000  1
  Ag  Ag8  1  0.997722  0.384165  0.500000  1
  H  H9  1  0.798093  0.291832  0.681188  1
  H  H10  1  0.696954  0.431607  0.711980  1
  H  H11  1  0.542728  0.213775  0.681248  1
  H  H12  1  0.195576  0.503184  0.316282  1
  H  H13  1  0.542728  0.213775  0.318752  1
  H  H14  1  0.798093  0.291832  0.318812  1
  H  H15  1  0.696954  0.431607  0.288020  1
  H  H16  1  0.284492  0.751608  0.696939  1
  H  H17  1  0.434303  0.672260  0.695678  1
  H  H18  1  0.189882  0.022236  0.000000  1
  H  H19  1  0.842034  0.847855  0.000000  1
  H  H20  1  0.015386  0.184629  0.000000  1
  H  H21  1  0.896733  0.024913  0.187937  1
  H  H22  1  0.125135  0.134434  0.805794  1
  H  H23  1  0.016360  0.888639  0.810323  1
  H  H24  1  0.016360  0.888639  0.189677  1
  H  H25  1  0.125135  0.134434  0.194206  1
  H  H26  1  0.896733  0.024913  0.812063  1
  H  H27  1  0.133434  0.641951  0.500000  1
  H  H28  1  0.451916  0.829778  0.500000  1
  H  H29  1  0.358121  0.505456  0.500000  1
  H  H30  1  0.543751  0.376573  0.500000  1
  H  H31  1  0.844378  0.493966  0.500000  1
  H  H32  1  0.642331  0.133667  0.500000  1
  H  H33  1  0.195576  0.503184  0.683718  1
  H  H34  1  0.284492  0.751608  0.303061  1
  H  H35  1  0.434303  0.672260  0.304322  1
