# generated using pymatgen
data_TmZr(Tc2P)4
_symmetry_space_group_name_H-M   'P 1'
_cell_length_a   7.34849622
_cell_length_b   7.34849622
_cell_length_c   3.94184200
_cell_angle_alpha   90.00000000
_cell_angle_beta   90.00000000
_cell_angle_gamma   90.22539407
_symmetry_Int_Tables_number   1
_chemical_formula_structural   TmZr(Tc2P)4
_chemical_formula_sum   'Tm1 Zr1 Tc8 P4'
_cell_volume   212.85938438
_cell_formula_units_Z   1
loop_
 _symmetry_equiv_pos_site_id
 _symmetry_equiv_pos_as_xyz
  1  'x, y, z'
loop_
 _atom_site_type_symbol
 _atom_site_label
 _atom_site_symmetry_multiplicity
 _atom_site_fract_x
 _atom_site_fract_y
 _atom_site_fract_z
 _atom_site_occupancy
  Tm  Tm0  1  0.000000  0.000000  0.500000  1
  Zr  Zr1  1  0.500000  0.500000  0.000000  1
  Tc  Tc2  1  0.340162  0.084485  0.000000  1
  Tc  Tc3  1  0.579686  0.163006  0.500000  1
  Tc  Tc4  1  0.420314  0.836994  0.500000  1
  Tc  Tc5  1  0.659838  0.915515  0.000000  1
  Tc  Tc6  1  0.163006  0.579686  0.500000  1
  Tc  Tc7  1  0.836994  0.420314  0.500000  1
  Tc  Tc8  1  0.084485  0.340162  0.000000  1
  Tc  Tc9  1  0.915515  0.659838  0.000000  1
  P  P10  1  0.785822  0.214178  0.000000  1
  P  P11  1  0.710784  0.710784  0.500000  1
  P  P12  1  0.289216  0.289216  0.500000  1
  P  P13  1  0.214178  0.785822  0.000000  1
