# generated using pymatgen
data_Sr4DyY(GaO5)2
_symmetry_space_group_name_H-M   'P 1'
_cell_length_a   5.96445300
_cell_length_b   7.63110116
_cell_length_c   12.49136738
_cell_angle_alpha   91.42039835
_cell_angle_beta   90.00000000
_cell_angle_gamma   90.00000000
_symmetry_Int_Tables_number   1
_chemical_formula_structural   Sr4DyY(GaO5)2
_chemical_formula_sum   'Sr8 Dy2 Y2 Ga4 O20'
_cell_volume   568.37418690
_cell_formula_units_Z   2
loop_
 _symmetry_equiv_pos_site_id
 _symmetry_equiv_pos_as_xyz
  1  'x, y, z'
loop_
 _atom_site_type_symbol
 _atom_site_label
 _atom_site_symmetry_multiplicity
 _atom_site_fract_x
 _atom_site_fract_y
 _atom_site_fract_z
 _atom_site_occupancy
  Sr  Sr0  1  0.772872  0.486235  0.329996  1
  Sr  Sr1  1  0.727128  0.986235  0.829996  1
  Sr  Sr2  1  0.227171  0.513678  0.670028  1
  Sr  Sr3  1  0.272829  0.013678  0.170028  1
  Sr  Sr4  1  0.772306  0.985648  0.367538  1
  Sr  Sr5  1  0.727694  0.485648  0.867538  1
  Sr  Sr6  1  0.227754  0.014462  0.632474  1
  Sr  Sr7  1  0.272246  0.514462  0.132474  1
  Dy  Dy8  1  0.754687  0.271151  0.619914  1
  Dy  Dy9  1  0.745313  0.771151  0.119914  1
  Y  Y10  1  0.245421  0.728747  0.380183  1
  Y  Y11  1  0.254579  0.228747  0.880183  1
  Ga  Ga12  1  0.719858  0.742216  0.580257  1
  Ga  Ga13  1  0.780142  0.242216  0.080257  1
  Ga  Ga14  1  0.280263  0.257825  0.419883  1
  Ga  Ga15  1  0.219737  0.757825  0.919883  1
  O  O16  1  0.789870  0.971069  0.628703  1
  O  O17  1  0.710130  0.471069  0.128703  1
  O  O18  1  0.209972  0.029398  0.371231  1
  O  O19  1  0.290028  0.529398  0.871231  1
  O  O20  1  0.716499  0.067815  0.177431  1
  O  O21  1  0.783501  0.567815  0.677431  1
  O  O22  1  0.283571  0.931807  0.822462  1
  O  O23  1  0.216429  0.431807  0.322462  1
  O  O24  1  0.542030  0.747405  0.275535  1
  O  O25  1  0.957970  0.247405  0.775535  1
  O  O26  1  0.458642  0.252582  0.724131  1
  O  O27  1  0.041358  0.752582  0.224131  1
  O  O28  1  0.597330  0.212544  0.960112  1
  O  O29  1  0.902670  0.712544  0.460112  1
  O  O30  1  0.402940  0.787424  0.039951  1
  O  O31  1  0.097060  0.287424  0.539951  1
  O  O32  1  0.089919  0.236979  0.047215  1
  O  O33  1  0.410081  0.736979  0.547215  1
  O  O34  1  0.909927  0.763016  0.952956  1
  O  O35  1  0.590073  0.263016  0.452956  1
