# generated using pymatgen
data_ErTm5Rh18
_symmetry_space_group_name_H-M   'P 1'
_cell_length_a   5.23552900
_cell_length_b   5.23553038
_cell_length_c   17.53018500
_cell_angle_alpha   90.00000000
_cell_angle_beta   90.00000000
_cell_angle_gamma   119.99998495
_symmetry_Int_Tables_number   1
_chemical_formula_structural   ErTm5Rh18
_chemical_formula_sum   'Er1 Tm5 Rh18'
_cell_volume   416.13902999
_cell_formula_units_Z   1
loop_
 _symmetry_equiv_pos_site_id
 _symmetry_equiv_pos_as_xyz
  1  'x, y, z'
loop_
 _atom_site_type_symbol
 _atom_site_label
 _atom_site_symmetry_multiplicity
 _atom_site_fract_x
 _atom_site_fract_y
 _atom_site_fract_z
 _atom_site_occupancy
  Er  Er0  1  0.666667  0.333333  0.250000  1
  Tm  Tm1  1  0.333333  0.666667  0.957983  1
  Tm  Tm2  1  0.666667  0.333333  0.041549  1
  Tm  Tm3  1  0.666667  0.333333  0.458451  1
  Tm  Tm4  1  0.333333  0.666667  0.542017  1
  Tm  Tm5  1  0.333333  0.666667  0.750000  1
  Rh  Rh6  1  0.167435  0.832565  0.375013  1
  Rh  Rh7  1  0.167435  0.334871  0.375013  1
  Rh  Rh8  1  0.665129  0.832565  0.375013  1
  Rh  Rh9  1  0.832537  0.167463  0.625253  1
  Rh  Rh10  1  0.832537  0.665074  0.625253  1
  Rh  Rh11  1  0.334926  0.167463  0.625253  1
  Rh  Rh12  1  0.832537  0.167463  0.874747  1
  Rh  Rh13  1  0.832537  0.665074  0.874747  1
  Rh  Rh14  1  0.334926  0.167463  0.874747  1
  Rh  Rh15  1  0.167435  0.832565  0.124987  1
  Rh  Rh16  1  0.167435  0.334871  0.124987  1
  Rh  Rh17  1  0.665129  0.832565  0.124987  1
  Rh  Rh18  1  0.333333  0.666667  0.250000  1
  Rh  Rh19  1  0.666667  0.333333  0.750000  1
  Rh  Rh20  1  0.000000  0.000000  0.250000  1
  Rh  Rh21  1  0.000000  0.000000  0.750000  1
  Rh  Rh22  1  0.000000  0.000000  0.500171  1
  Rh  Rh23  1  0.000000  0.000000  0.999829  1
