# generated using pymatgen
data_TaCd2SbO7
_symmetry_space_group_name_H-M   'P 1'
_cell_length_a   7.38026614
_cell_length_b   7.41610945
_cell_length_c   7.41610992
_cell_angle_alpha   60.25585514
_cell_angle_beta   60.15975675
_cell_angle_gamma   60.15975856
_symmetry_Int_Tables_number   1
_chemical_formula_structural   TaCd2SbO7
_chemical_formula_sum   'Ta2 Cd4 Sb2 O14'
_cell_volume   288.26412211
_cell_formula_units_Z   2
loop_
 _symmetry_equiv_pos_site_id
 _symmetry_equiv_pos_as_xyz
  1  'x, y, z'
loop_
 _atom_site_type_symbol
 _atom_site_label
 _atom_site_symmetry_multiplicity
 _atom_site_fract_x
 _atom_site_fract_y
 _atom_site_fract_z
 _atom_site_occupancy
  Ta  Ta0  1  0.625000  0.125000  0.625000  1
  Ta  Ta1  1  0.625000  0.625000  0.125000  1
  Cd  Cd2  1  0.625000  0.125000  0.125000  1
  Cd  Cd3  1  0.125000  0.625000  0.125000  1
  Cd  Cd4  1  0.125000  0.125000  0.625000  1
  Cd  Cd5  1  0.125000  0.125000  0.125000  1
  Sb  Sb6  1  0.125000  0.625000  0.625000  1
  Sb  Sb7  1  0.625000  0.625000  0.625000  1
  O  O8  1  0.693837  0.694275  0.306726  1
  O  O9  1  0.305162  0.306726  0.694275  1
  O  O10  1  0.693837  0.306726  0.694275  1
  O  O11  1  0.305162  0.694275  0.306726  1
  O  O12  1  0.298418  0.701582  0.701582  1
  O  O13  1  0.689027  0.310973  0.310973  1
  O  O14  1  0.556163  0.555725  0.943274  1
  O  O15  1  0.944838  0.943274  0.555725  1
  O  O16  1  0.556163  0.943274  0.555725  1
  O  O17  1  0.944838  0.555725  0.943274  1
  O  O18  1  0.951582  0.548418  0.548418  1
  O  O19  1  0.560973  0.939027  0.939027  1
  O  O20  1  0.252612  0.247388  0.247388  1
  O  O21  1  0.997388  0.002612  0.002612  1
