# generated using pymatgen
data_Ho16In6RuPt
_symmetry_space_group_name_H-M   'P 1'
_cell_length_a   10.40634500
_cell_length_b   10.40634600
_cell_length_c   7.00456500
_cell_angle_alpha   90.00000000
_cell_angle_beta   90.00000000
_cell_angle_gamma   119.99999999
_symmetry_Int_Tables_number   1
_chemical_formula_structural   Ho16In6RuPt
_chemical_formula_sum   'Ho16 In6 Ru1 Pt1'
_cell_volume   656.91364543
_cell_formula_units_Z   1
loop_
 _symmetry_equiv_pos_site_id
 _symmetry_equiv_pos_as_xyz
  1  'x, y, z'
loop_
 _atom_site_type_symbol
 _atom_site_label
 _atom_site_symmetry_multiplicity
 _atom_site_fract_x
 _atom_site_fract_y
 _atom_site_fract_z
 _atom_site_occupancy
  Ho  Ho0  1  0.530682  0.061363  0.508291  1
  Ho  Ho1  1  0.938637  0.469318  0.508291  1
  Ho  Ho2  1  0.530682  0.469318  0.508291  1
  Ho  Ho3  1  0.465536  0.931073  0.007241  1
  Ho  Ho4  1  0.068927  0.534464  0.007241  1
  Ho  Ho5  1  0.465536  0.534464  0.007241  1
  Ho  Ho6  1  0.176516  0.353031  0.714335  1
  Ho  Ho7  1  0.646969  0.823484  0.714335  1
  Ho  Ho8  1  0.176516  0.823484  0.714335  1
  Ho  Ho9  1  0.824640  0.649279  0.213265  1
  Ho  Ho10  1  0.350721  0.175360  0.213265  1
  Ho  Ho11  1  0.824640  0.175360  0.213265  1
  Ho  Ho12  1  0.666667  0.333333  0.884015  1
  Ho  Ho13  1  0.333333  0.666667  0.386727  1
  Ho  Ho14  1  0.000000  0.000000  0.490997  1
  Ho  Ho15  1  0.000000  0.000000  0.993577  1
  In  In16  1  0.837073  0.674146  0.751294  1
  In  In17  1  0.325854  0.162927  0.751294  1
  In  In18  1  0.837073  0.162927  0.751294  1
  In  In19  1  0.162499  0.324998  0.252151  1
  In  In20  1  0.675002  0.837501  0.252151  1
  In  In21  1  0.162499  0.837501  0.252151  1
  Ru  Ru22  1  0.333333  0.666667  0.781086  1
  Pt  Pt23  1  0.666667  0.333333  0.281904  1
