# generated using pymatgen
data_Tb3Pr(ScPt)4
_symmetry_space_group_name_H-M   'P 1'
_cell_length_a   4.65542400
_cell_length_b   7.03293729
_cell_length_c   8.48639846
_cell_angle_alpha   90.24830733
_cell_angle_beta   90.00000000
_cell_angle_gamma   90.00000000
_symmetry_Int_Tables_number   1
_chemical_formula_structural   Tb3Pr(ScPt)4
_chemical_formula_sum   'Tb3 Pr1 Sc4 Pt4'
_cell_volume   277.85315132
_cell_formula_units_Z   1
loop_
 _symmetry_equiv_pos_site_id
 _symmetry_equiv_pos_as_xyz
  1  'x, y, z'
loop_
 _atom_site_type_symbol
 _atom_site_label
 _atom_site_symmetry_multiplicity
 _atom_site_fract_x
 _atom_site_fract_y
 _atom_site_fract_z
 _atom_site_occupancy
  Tb  Tb0  1  0.250000  0.984266  0.322606  1
  Tb  Tb1  1  0.750000  0.016662  0.674588  1
  Tb  Tb2  1  0.250000  0.483573  0.179219  1
  Pr  Pr3  1  0.750000  0.514496  0.822026  1
  Sc  Sc4  1  0.750000  0.640962  0.424818  1
  Sc  Sc5  1  0.250000  0.360165  0.569274  1
  Sc  Sc6  1  0.750000  0.138815  0.075096  1
  Sc  Sc7  1  0.250000  0.860824  0.926509  1
  Pt  Pt8  1  0.250000  0.237805  0.907576  1
  Pt  Pt9  1  0.750000  0.758961  0.101486  1
  Pt  Pt10  1  0.250000  0.746591  0.592725  1
  Pt  Pt11  1  0.750000  0.256880  0.404077  1
