# generated using pymatgen
data_Pr8TmLuSn8
_symmetry_space_group_name_H-M   'P 1'
_cell_length_a   8.25602400
_cell_length_b   8.41682000
_cell_length_c   15.99781700
_cell_angle_alpha   90.00000000
_cell_angle_beta   90.00000000
_cell_angle_gamma   90.00000000
_symmetry_Int_Tables_number   1
_chemical_formula_structural   Pr8TmLuSn8
_chemical_formula_sum   'Pr16 Tm2 Lu2 Sn16'
_cell_volume   1111.67979127
_cell_formula_units_Z   2
loop_
 _symmetry_equiv_pos_site_id
 _symmetry_equiv_pos_as_xyz
  1  'x, y, z'
loop_
 _atom_site_type_symbol
 _atom_site_label
 _atom_site_symmetry_multiplicity
 _atom_site_fract_x
 _atom_site_fract_y
 _atom_site_fract_z
 _atom_site_occupancy
  Pr  Pr0  1  0.367131  0.837972  0.879289  1
  Pr  Pr1  1  0.867131  0.662028  0.620711  1
  Pr  Pr2  1  0.632811  0.161985  0.379222  1
  Pr  Pr3  1  0.132811  0.338015  0.120778  1
  Pr  Pr4  1  0.632811  0.161985  0.120778  1
  Pr  Pr5  1  0.132811  0.338015  0.379222  1
  Pr  Pr6  1  0.367131  0.837972  0.620711  1
  Pr  Pr7  1  0.867131  0.662028  0.879289  1
  Pr  Pr8  1  0.518747  0.318624  0.901393  1
  Pr  Pr9  1  0.018747  0.181376  0.598607  1
  Pr  Pr10  1  0.481322  0.681387  0.401376  1
  Pr  Pr11  1  0.981322  0.818613  0.098624  1
  Pr  Pr12  1  0.481322  0.681387  0.098624  1
  Pr  Pr13  1  0.981322  0.818613  0.401376  1
  Pr  Pr14  1  0.518747  0.318624  0.598607  1
  Pr  Pr15  1  0.018747  0.181376  0.901393  1
  Tm  Tm16  1  0.198624  0.501846  0.750000  1
  Tm  Tm17  1  0.698624  0.998154  0.750000  1
  Lu  Lu18  1  0.801073  0.498139  0.250000  1
  Lu  Lu19  1  0.301073  0.001861  0.250000  1
  Sn  Sn20  1  0.291858  0.033520  0.045026  1
  Sn  Sn21  1  0.791858  0.466480  0.454974  1
  Sn  Sn22  1  0.708157  0.966389  0.544867  1
  Sn  Sn23  1  0.208157  0.533611  0.955133  1
  Sn  Sn24  1  0.708157  0.966389  0.955133  1
  Sn  Sn25  1  0.208157  0.533611  0.544867  1
  Sn  Sn26  1  0.291858  0.033520  0.454974  1
  Sn  Sn27  1  0.791858  0.466480  0.045026  1
  Sn  Sn28  1  0.562997  0.616372  0.750000  1
  Sn  Sn29  1  0.062997  0.883628  0.750000  1
  Sn  Sn30  1  0.437139  0.383634  0.250000  1
  Sn  Sn31  1  0.937139  0.116366  0.250000  1
  Sn  Sn32  1  0.323720  0.147423  0.750000  1
  Sn  Sn33  1  0.823720  0.352577  0.750000  1
  Sn  Sn34  1  0.676396  0.852342  0.250000  1
  Sn  Sn35  1  0.176396  0.647658  0.250000  1
