# generated using pymatgen
data_YbHo3(B6Ru)2
_symmetry_space_group_name_H-M   'P 1'
_cell_length_a   3.64849500
_cell_length_b   9.13175921
_cell_length_c   11.52074208
_cell_angle_alpha   89.82063813
_cell_angle_beta   90.00000000
_cell_angle_gamma   90.00000000
_symmetry_Int_Tables_number   1
_chemical_formula_structural   YbHo3(B6Ru)2
_chemical_formula_sum   'Yb2 Ho6 B24 Ru4'
_cell_volume   383.83673181
_cell_formula_units_Z   2
loop_
 _symmetry_equiv_pos_site_id
 _symmetry_equiv_pos_as_xyz
  1  'x, y, z'
loop_
 _atom_site_type_symbol
 _atom_site_label
 _atom_site_symmetry_multiplicity
 _atom_site_fract_x
 _atom_site_fract_y
 _atom_site_fract_z
 _atom_site_occupancy
  Yb  Yb0  1  0.000000  0.325364  0.414802  1
  Yb  Yb1  1  0.000000  0.674636  0.585198  1
  Ho  Ho2  1  0.000000  0.822648  0.086149  1
  Ho  Ho3  1  0.000000  0.177352  0.913851  1
  Ho  Ho4  1  0.000000  0.941822  0.369686  1
  Ho  Ho5  1  0.000000  0.058178  0.630314  1
  Ho  Ho6  1  0.000000  0.442651  0.130976  1
  Ho  Ho7  1  0.000000  0.557349  0.869024  1
  B  B8  1  0.500000  0.554277  0.432446  1
  B  B9  1  0.500000  0.445723  0.567554  1
  B  B10  1  0.500000  0.053700  0.066744  1
  B  B11  1  0.500000  0.946300  0.933256  1
  B  B12  1  0.500000  0.747895  0.418081  1
  B  B13  1  0.500000  0.252105  0.581919  1
  B  B14  1  0.500000  0.248154  0.081049  1
  B  B15  1  0.500000  0.751846  0.918951  1
  B  B16  1  0.500000  0.791087  0.264758  1
  B  B17  1  0.500000  0.208913  0.735242  1
  B  B18  1  0.500000  0.289981  0.234322  1
  B  B19  1  0.500000  0.710019  0.765678  1
  B  B20  1  0.500000  0.631631  0.185269  1
  B  B21  1  0.500000  0.368369  0.814731  1
  B  B22  1  0.500000  0.130898  0.313902  1
  B  B23  1  0.500000  0.869102  0.686098  1
  B  B24  1  0.500000  0.983248  0.211470  1
  B  B25  1  0.500000  0.016752  0.788530  1
  B  B26  1  0.500000  0.484171  0.288297  1
  B  B27  1  0.500000  0.515829  0.711703  1
  B  B28  1  0.500000  0.604247  0.028695  1
  B  B29  1  0.500000  0.395753  0.971305  1
  B  B30  1  0.500000  0.099756  0.472358  1
  B  B31  1  0.500000  0.900244  0.527642  1
  Ru  Ru32  1  0.000000  0.639886  0.318993  1
  Ru  Ru33  1  0.000000  0.360114  0.681007  1
  Ru  Ru34  1  0.000000  0.136874  0.177908  1
  Ru  Ru35  1  0.000000  0.863126  0.822092  1
