# generated using pymatgen
data_DyEr6Co2Sn23Os4
_symmetry_space_group_name_H-M   'P 1'
_cell_length_a   9.78445459
_cell_length_b   9.83138823
_cell_length_c   10.04316832
_cell_angle_alpha   90.00000167
_cell_angle_beta   89.74992659
_cell_angle_gamma   120.15881302
_symmetry_Int_Tables_number   1
_chemical_formula_structural   DyEr6Co2Sn23Os4
_chemical_formula_sum   'Dy1 Er6 Co2 Sn23 Os4'
_cell_volume   835.31460978
_cell_formula_units_Z   1
loop_
 _symmetry_equiv_pos_site_id
 _symmetry_equiv_pos_as_xyz
  1  'x, y, z'
loop_
 _atom_site_type_symbol
 _atom_site_label
 _atom_site_symmetry_multiplicity
 _atom_site_fract_x
 _atom_site_fract_y
 _atom_site_fract_z
 _atom_site_occupancy
  Dy  Dy0  1  0.000000  0.000000  0.000000  1
  Er  Er1  1  0.484709  0.518605  0.305696  1
  Er  Er2  1  0.515291  0.481395  0.694304  1
  Er  Er3  1  0.484709  0.966104  0.305696  1
  Er  Er4  1  0.515291  0.033896  0.694304  1
  Er  Er5  1  0.033782  0.516892  0.304032  1
  Er  Er6  1  0.966218  0.483108  0.695968  1
  Co  Co7  1  0.339424  0.169712  0.199638  1
  Co  Co8  1  0.660576  0.830288  0.800362  1
  Sn  Sn9  1  0.349521  0.002800  0.004905  1
  Sn  Sn10  1  0.650479  0.997200  0.995095  1
  Sn  Sn11  1  0.000000  0.349899  0.000000  1
  Sn  Sn12  1  0.000000  0.650101  0.000000  1
  Sn  Sn13  1  0.650479  0.653278  0.995095  1
  Sn  Sn14  1  0.349521  0.346722  0.004905  1
  Sn  Sn15  1  0.336629  0.668315  0.821744  1
  Sn  Sn16  1  0.663371  0.331685  0.178256  1
  Sn  Sn17  1  0.000000  0.000000  0.500000  1
  Sn  Sn18  1  0.780291  0.220518  0.462018  1
  Sn  Sn19  1  0.219709  0.779482  0.537982  1
  Sn  Sn20  1  0.780291  0.559774  0.462018  1
  Sn  Sn21  1  0.219709  0.440226  0.537982  1
  Sn  Sn22  1  0.437825  0.218912  0.454530  1
  Sn  Sn23  1  0.562175  0.781088  0.545470  1
  Sn  Sn24  1  0.335193  0.667596  0.125861  1
  Sn  Sn25  1  0.664807  0.332404  0.874139  1
  Sn  Sn26  1  0.121476  0.888847  0.275573  1
  Sn  Sn27  1  0.878524  0.111153  0.724427  1
  Sn  Sn28  1  0.121476  0.232629  0.275573  1
  Sn  Sn29  1  0.878524  0.767371  0.724427  1
  Sn  Sn30  1  0.762974  0.881486  0.277195  1
  Sn  Sn31  1  0.237026  0.118514  0.722805  1
  Os  Os32  1  0.829002  0.168532  0.201139  1
  Os  Os33  1  0.170998  0.831468  0.798861  1
  Os  Os34  1  0.829002  0.660470  0.201139  1
  Os  Os35  1  0.170998  0.339530  0.798861  1
