# generated using pymatgen
data_Rb2Hf3(NiS4)2
_symmetry_space_group_name_H-M   'P 1'
_cell_length_a   3.63562274
_cell_length_b   7.84766772
_cell_length_c   12.81351056
_cell_angle_alpha   93.47527597
_cell_angle_beta   98.15587853
_cell_angle_gamma   103.39347373
_symmetry_Int_Tables_number   1
_chemical_formula_structural   Rb2Hf3(NiS4)2
_chemical_formula_sum   'Rb2 Hf3 Ni2 S8'
_cell_volume   350.38153708
_cell_formula_units_Z   1
loop_
 _symmetry_equiv_pos_site_id
 _symmetry_equiv_pos_as_xyz
  1  'x, y, z'
loop_
 _atom_site_type_symbol
 _atom_site_label
 _atom_site_symmetry_multiplicity
 _atom_site_fract_x
 _atom_site_fract_y
 _atom_site_fract_z
 _atom_site_occupancy
  Rb  Rb0  1  0.868364  0.536561  0.200165  1
  Rb  Rb1  1  0.131636  0.463439  0.799834  1
  Hf  Hf2  1  0.500000  0.000000  0.000000  1
  Hf  Hf3  1  0.718113  0.057590  0.378635  1
  Hf  Hf4  1  0.281886  0.942410  0.621364  1
  Ni  Ni5  1  0.135608  0.076545  0.194673  1
  Ni  Ni6  1  0.864391  0.923456  0.805326  1
  S  S7  1  0.140478  0.231516  0.049440  1
  S  S8  1  0.545683  0.902754  0.188611  1
  S  S9  1  0.307820  0.274379  0.341260  1
  S  S10  1  0.130193  0.835921  0.424467  1
  S  S11  1  0.869807  0.164080  0.575532  1
  S  S12  1  0.692181  0.725622  0.658741  1
  S  S13  1  0.454317  0.097246  0.811389  1
  S  S14  1  0.859521  0.768483  0.950559  1
