# generated using pymatgen
data_PuSb(OF8)2
_symmetry_space_group_name_H-M   'P 1'
_cell_length_a   5.87436900
_cell_length_b   7.66277800
_cell_length_c   7.43465400
_cell_angle_alpha   90.00000000
_cell_angle_beta   90.00000000
_cell_angle_gamma   90.00000000
_symmetry_Int_Tables_number   1
_chemical_formula_structural   PuSb(OF8)2
_chemical_formula_sum   'Pu1 Sb1 O2 F16'
_cell_volume   334.66340763
_cell_formula_units_Z   1
loop_
 _symmetry_equiv_pos_site_id
 _symmetry_equiv_pos_as_xyz
  1  'x, y, z'
loop_
 _atom_site_type_symbol
 _atom_site_label
 _atom_site_symmetry_multiplicity
 _atom_site_fract_x
 _atom_site_fract_y
 _atom_site_fract_z
 _atom_site_occupancy
  Pu  Pu0  1  0.993835  0.000000  0.500000  1
  Sb  Sb1  1  0.008331  0.500000  0.000000  1
  O  O2  1  0.639584  0.000000  0.000000  1
  O  O3  1  0.359321  0.500000  0.500000  1
  F  F4  1  0.504553  0.500000  0.649957  1
  F  F5  1  0.494782  0.000000  0.149618  1
  F  F6  1  0.494782  0.000000  0.850382  1
  F  F7  1  0.504553  0.500000  0.350043  1
  F  F8  1  0.751621  0.181356  0.500000  1
  F  F9  1  0.241960  0.176626  0.500000  1
  F  F10  1  0.006335  0.500000  0.740850  1
  F  F11  1  0.751621  0.818644  0.500000  1
  F  F12  1  0.996814  0.000000  0.231650  1
  F  F13  1  0.769772  0.326715  0.000000  1
  F  F14  1  0.996814  0.000000  0.768350  1
  F  F15  1  0.241960  0.823374  0.500000  1
  F  F16  1  0.006335  0.500000  0.259150  1
  F  F17  1  0.769772  0.673285  0.000000  1
  F  F18  1  0.233630  0.319302  0.000000  1
  F  F19  1  0.233630  0.680698  0.000000  1
