# generated using pymatgen
data_La2NdNiBr3
_symmetry_space_group_name_H-M   'P 1'
_cell_length_a   10.52290967
_cell_length_b   10.52291031
_cell_length_c   10.52290977
_cell_angle_alpha   107.80433384
_cell_angle_beta   107.80433088
_cell_angle_gamma   112.85903699
_symmetry_Int_Tables_number   1
_chemical_formula_structural   La2NdNiBr3
_chemical_formula_sum   'La8 Nd4 Ni4 Br12'
_cell_volume   894.61914816
_cell_formula_units_Z   4
loop_
 _symmetry_equiv_pos_site_id
 _symmetry_equiv_pos_as_xyz
  1  'x, y, z'
loop_
 _atom_site_type_symbol
 _atom_site_label
 _atom_site_symmetry_multiplicity
 _atom_site_fract_x
 _atom_site_fract_y
 _atom_site_fract_z
 _atom_site_occupancy
  La  La0  1  0.410335  0.405721  0.261220  1
  La  La1  1  0.144501  0.149116  0.738780  1
  La  La2  1  0.105499  0.344279  0.504614  1
  La  La3  1  0.839665  0.600884  0.495386  1
  La  La4  1  0.594279  0.589665  0.738780  1
  La  La5  1  0.850884  0.855499  0.261220  1
  La  La6  1  0.655721  0.894501  0.495386  1
  La  La7  1  0.399116  0.160335  0.504614  1
  Nd  Nd8  1  0.389519  0.610481  0.000000  1
  Nd  Nd9  1  0.610481  0.389519  0.000000  1
  Nd  Nd10  1  0.639519  0.139519  0.279039  1
  Nd  Nd11  1  0.860481  0.360481  0.720961  1
  Ni  Ni12  1  0.626404  0.626404  0.252806  1
  Ni  Ni13  1  0.373596  0.373596  0.747194  1
  Ni  Ni14  1  0.876404  0.123596  0.500000  1
  Ni  Ni15  1  0.623596  0.376404  0.500000  1
  Br  Br16  1  0.368413  0.631587  0.500000  1
  Br  Br17  1  0.131587  0.868413  0.500000  1
  Br  Br18  1  0.118413  0.118413  0.236827  1
  Br  Br19  1  0.881587  0.881587  0.763173  1
  Br  Br20  1  0.884064  0.626636  0.995883  1
  Br  Br21  1  0.630753  0.888181  0.004117  1
  Br  Br22  1  0.619247  0.123364  0.757427  1
  Br  Br23  1  0.365936  0.861819  0.242573  1
  Br  Br24  1  0.373364  0.115936  0.004117  1
  Br  Br25  1  0.111819  0.369247  0.995883  1
  Br  Br26  1  0.876636  0.380753  0.242573  1
  Br  Br27  1  0.138181  0.634064  0.757427  1
