# generated using pymatgen
data_LaPr8Nd3(GaRh)8
_symmetry_space_group_name_H-M   'P 1'
_cell_length_a   5.73933716
_cell_length_b   8.26278363
_cell_length_c   13.68720023
_cell_angle_alpha   89.99991493
_cell_angle_beta   90.09515453
_cell_angle_gamma   89.99501745
_symmetry_Int_Tables_number   1
_chemical_formula_structural   LaPr8Nd3(GaRh)8
_chemical_formula_sum   'La1 Pr8 Nd3 Ga8 Rh8'
_cell_volume   649.08584552
_cell_formula_units_Z   1
loop_
 _symmetry_equiv_pos_site_id
 _symmetry_equiv_pos_as_xyz
  1  'x, y, z'
loop_
 _atom_site_type_symbol
 _atom_site_label
 _atom_site_symmetry_multiplicity
 _atom_site_fract_x
 _atom_site_fract_y
 _atom_site_fract_z
 _atom_site_occupancy
  La  La0  1  0.848915  0.900881  0.094281  1
  Pr  Pr1  1  0.634521  0.259281  0.251465  1
  Pr  Pr2  1  0.366586  0.743305  0.749790  1
  Pr  Pr3  1  0.365539  0.755981  0.250685  1
  Pr  Pr4  1  0.633470  0.241136  0.749482  1
  Pr  Pr5  1  0.145944  0.397526  0.097924  1
  Pr  Pr6  1  0.853548  0.600322  0.901409  1
  Pr  Pr7  1  0.854987  0.602154  0.597933  1
  Pr  Pr8  1  0.854784  0.898350  0.402970  1
  Nd  Nd9  1  0.147316  0.397779  0.403089  1
  Nd  Nd10  1  0.147324  0.101564  0.597956  1
  Nd  Nd11  1  0.147860  0.103861  0.901325  1
  Ga  Ga12  1  0.139801  0.109097  0.251206  1
  Ga  Ga13  1  0.865899  0.891741  0.750338  1
  Ga  Ga14  1  0.863850  0.608588  0.250974  1
  Ga  Ga15  1  0.137394  0.390071  0.749255  1
  Ga  Ga16  1  0.629579  0.250934  0.999185  1
  Ga  Ga17  1  0.366287  0.749448  0.998705  1
  Ga  Ga18  1  0.369227  0.749943  0.500363  1
  Ga  Ga19  1  0.630273  0.249847  0.500319  1
  Rh  Rh20  1  0.359958  0.030760  0.091005  1
  Rh  Rh21  1  0.641042  0.968826  0.909441  1
  Rh  Rh22  1  0.640543  0.969105  0.591980  1
  Rh  Rh23  1  0.640264  0.530504  0.408790  1
  Rh  Rh24  1  0.359498  0.032347  0.409349  1
  Rh  Rh25  1  0.358474  0.467372  0.590595  1
  Rh  Rh26  1  0.358692  0.467212  0.908079  1
  Rh  Rh27  1  0.638426  0.532065  0.092106  1
