# generated using pymatgen
data_Er4Al18NiIr4Pd
_symmetry_space_group_name_H-M   'P 1'
_cell_length_a   7.53858279
_cell_length_b   7.53859110
_cell_length_c   9.39577417
_cell_angle_alpha   90.13068936
_cell_angle_beta   90.13068980
_cell_angle_gamma   119.74992250
_symmetry_Int_Tables_number   1
_chemical_formula_structural   Er4Al18NiIr4Pd
_chemical_formula_sum   'Er4 Al18 Ni1 Ir4 Pd1'
_cell_volume   463.58300346
_cell_formula_units_Z   1
loop_
 _symmetry_equiv_pos_site_id
 _symmetry_equiv_pos_as_xyz
  1  'x, y, z'
loop_
 _atom_site_type_symbol
 _atom_site_label
 _atom_site_symmetry_multiplicity
 _atom_site_fract_x
 _atom_site_fract_y
 _atom_site_fract_z
 _atom_site_occupancy
  Er  Er0  1  0.995478  0.669707  0.249098  1
  Er  Er1  1  0.004522  0.330293  0.750902  1
  Er  Er2  1  0.669711  0.995477  0.249098  1
  Er  Er3  1  0.330289  0.004523  0.750902  1
  Al  Al4  1  0.125239  0.125239  0.244352  1
  Al  Al5  1  0.874761  0.874761  0.755648  1
  Al  Al6  1  0.999846  0.333165  0.074673  1
  Al  Al7  1  0.000154  0.666835  0.925327  1
  Al  Al8  1  0.999197  0.662423  0.577534  1
  Al  Al9  1  0.337577  0.000803  0.422465  1
  Al  Al10  1  0.000803  0.337577  0.422466  1
  Al  Al11  1  0.662423  0.999197  0.577535  1
  Al  Al12  1  0.666835  0.000154  0.925326  1
  Al  Al13  1  0.333165  0.999846  0.074674  1
  Al  Al14  1  0.336409  0.336409  0.555213  1
  Al  Al15  1  0.663591  0.663591  0.444787  1
  Al  Al16  1  0.669366  0.669366  0.051895  1
  Al  Al17  1  0.330634  0.330634  0.948105  1
  Al  Al18  1  0.338578  0.547919  0.248953  1
  Al  Al19  1  0.661422  0.452081  0.751047  1
  Al  Al20  1  0.547919  0.338578  0.248953  1
  Al  Al21  1  0.452081  0.661422  0.751047  1
  Ni  Ni22  1  0.000000  0.000000  0.000000  1
  Ir  Ir23  1  0.672350  0.327652  0.000000  1
  Ir  Ir24  1  0.327650  0.672348  0.000000  1
  Ir  Ir25  1  0.327655  0.672343  0.500000  1
  Ir  Ir26  1  0.672345  0.327657  0.500000  1
  Pd  Pd27  1  0.000000  0.000000  0.500000  1
