# generated using pymatgen
data_Er8In2PtRh
_symmetry_space_group_name_H-M   'P 1'
_cell_length_a   9.60133970
_cell_length_b   9.60999620
_cell_length_c   9.60999552
_cell_angle_alpha   60.04297078
_cell_angle_beta   60.02979234
_cell_angle_gamma   60.02979668
_symmetry_Int_Tables_number   1
_chemical_formula_structural   Er8In2PtRh
_chemical_formula_sum   'Er16 In4 Pt2 Rh2'
_cell_volume   627.47964175
_cell_formula_units_Z   2
loop_
 _symmetry_equiv_pos_site_id
 _symmetry_equiv_pos_as_xyz
  1  'x, y, z'
loop_
 _atom_site_type_symbol
 _atom_site_label
 _atom_site_symmetry_multiplicity
 _atom_site_fract_x
 _atom_site_fract_y
 _atom_site_fract_z
 _atom_site_occupancy
  Er  Er0  1  0.191453  0.187428  0.810456  1
  Er  Er1  1  0.438180  0.061820  0.061820  1
  Er  Er2  1  0.437515  0.062311  0.438262  1
  Er  Er3  1  0.061911  0.438262  0.062311  1
  Er  Er4  1  0.649224  0.050175  0.651377  1
  Er  Er5  1  0.188913  0.811087  0.811087  1
  Er  Er6  1  0.061911  0.062311  0.438262  1
  Er  Er7  1  0.810014  0.189986  0.189986  1
  Er  Er8  1  0.810663  0.810456  0.187428  1
  Er  Er9  1  0.649224  0.651377  0.050175  1
  Er  Er10  1  0.647727  0.650546  0.650546  1
  Er  Er11  1  0.062359  0.437641  0.437641  1
  Er  Er12  1  0.051182  0.650546  0.650546  1
  Er  Er13  1  0.810663  0.187428  0.810456  1
  Er  Er14  1  0.437515  0.438262  0.062311  1
  Er  Er15  1  0.191453  0.810456  0.187428  1
  In  In16  1  0.417003  0.748842  0.417152  1
  In  In17  1  0.417003  0.417152  0.748842  1
  In  In18  1  0.749972  0.416685  0.416685  1
  In  In19  1  0.416658  0.416685  0.416685  1
  Pt  Pt20  1  0.857286  0.427937  0.857491  1
  Pt  Pt21  1  0.857286  0.857491  0.427937  1
  Rh  Rh22  1  0.427349  0.857557  0.857557  1
  Rh  Rh23  1  0.857537  0.857557  0.857557  1
