# generated using pymatgen
data_Ta4Mn2Al5Cr
_symmetry_space_group_name_H-M   'P 1'
_cell_length_a   5.06762357
_cell_length_b   5.02443965
_cell_length_c   8.11790138
_cell_angle_alpha   89.99999714
_cell_angle_beta   89.97759289
_cell_angle_gamma   119.71850432
_symmetry_Int_Tables_number   1
_chemical_formula_structural   Ta4Mn2Al5Cr
_chemical_formula_sum   'Ta4 Mn2 Al5 Cr1'
_cell_volume   179.51107891
_cell_formula_units_Z   1
loop_
 _symmetry_equiv_pos_site_id
 _symmetry_equiv_pos_as_xyz
  1  'x, y, z'
loop_
 _atom_site_type_symbol
 _atom_site_label
 _atom_site_symmetry_multiplicity
 _atom_site_fract_x
 _atom_site_fract_y
 _atom_site_fract_z
 _atom_site_occupancy
  Ta  Ta0  1  0.333725  0.669588  0.062458  1
  Ta  Ta1  1  0.662206  0.328608  0.562176  1
  Ta  Ta2  1  0.666275  0.335861  0.937542  1
  Ta  Ta3  1  0.337794  0.666404  0.437824  1
  Mn  Mn4  1  0.848868  0.171166  0.230906  1
  Mn  Mn5  1  0.151132  0.322299  0.769094  1
  Al  Al6  1  0.000000  0.029065  0.500000  1
  Al  Al7  1  0.837666  0.658293  0.247206  1
  Al  Al8  1  0.162334  0.820628  0.752794  1
  Al  Al9  1  0.644543  0.810639  0.753367  1
  Al  Al10  1  0.355457  0.166095  0.246633  1
  Cr  Cr11  1  0.000000  0.021355  0.000000  1
