# generated using pymatgen
data_TbDy4FeSb2
_symmetry_space_group_name_H-M   'P 1'
_cell_length_a   7.88059300
_cell_length_b   8.78502700
_cell_length_c   12.19066700
_cell_angle_alpha   90.00000000
_cell_angle_beta   90.00000000
_cell_angle_gamma   90.00000000
_symmetry_Int_Tables_number   1
_chemical_formula_structural   TbDy4FeSb2
_chemical_formula_sum   'Tb4 Dy16 Fe4 Sb8'
_cell_volume   843.97477683
_cell_formula_units_Z   4
loop_
 _symmetry_equiv_pos_site_id
 _symmetry_equiv_pos_as_xyz
  1  'x, y, z'
loop_
 _atom_site_type_symbol
 _atom_site_label
 _atom_site_symmetry_multiplicity
 _atom_site_fract_x
 _atom_site_fract_y
 _atom_site_fract_z
 _atom_site_occupancy
  Tb  Tb0  1  0.622722  0.750000  0.306408  1
  Tb  Tb1  1  0.122722  0.250000  0.193592  1
  Tb  Tb2  1  0.377278  0.250000  0.693592  1
  Tb  Tb3  1  0.877278  0.750000  0.806408  1
  Dy  Dy4  1  0.154568  0.750000  0.203742  1
  Dy  Dy5  1  0.654568  0.250000  0.296258  1
  Dy  Dy6  1  0.845432  0.250000  0.796258  1
  Dy  Dy7  1  0.345432  0.750000  0.703742  1
  Dy  Dy8  1  0.450705  0.750000  0.996202  1
  Dy  Dy9  1  0.950705  0.250000  0.503798  1
  Dy  Dy10  1  0.549295  0.250000  0.003798  1
  Dy  Dy11  1  0.049295  0.750000  0.496202  1
  Dy  Dy12  1  0.823137  0.965247  0.063542  1
  Dy  Dy13  1  0.323137  0.034753  0.436458  1
  Dy  Dy14  1  0.176863  0.465247  0.936458  1
  Dy  Dy15  1  0.676863  0.534753  0.563542  1
  Dy  Dy16  1  0.176863  0.034753  0.936458  1
  Dy  Dy17  1  0.676863  0.965247  0.563542  1
  Dy  Dy18  1  0.823137  0.534753  0.063542  1
  Dy  Dy19  1  0.323137  0.465247  0.436458  1
  Fe  Fe20  1  0.426736  0.750000  0.488048  1
  Fe  Fe21  1  0.926736  0.250000  0.011952  1
  Fe  Fe22  1  0.573264  0.250000  0.511952  1
  Fe  Fe23  1  0.073264  0.750000  0.988048  1
  Sb  Sb24  1  0.928191  0.992880  0.327735  1
  Sb  Sb25  1  0.428191  0.007120  0.172265  1
  Sb  Sb26  1  0.071809  0.492880  0.672265  1
  Sb  Sb27  1  0.571809  0.507120  0.827735  1
  Sb  Sb28  1  0.071809  0.007120  0.672265  1
  Sb  Sb29  1  0.571809  0.992880  0.827735  1
  Sb  Sb30  1  0.928191  0.507120  0.327735  1
  Sb  Sb31  1  0.428191  0.492880  0.172265  1
