# generated using pymatgen
data_Dy4Mg4PtRh3
_symmetry_space_group_name_H-M   'P 1'
_cell_length_a   4.12371500
_cell_length_b   7.10647060
_cell_length_c   8.56360773
_cell_angle_alpha   89.80657978
_cell_angle_beta   90.00000000
_cell_angle_gamma   90.00000000
_symmetry_Int_Tables_number   1
_chemical_formula_structural   Dy4Mg4PtRh3
_chemical_formula_sum   'Dy4 Mg4 Pt1 Rh3'
_cell_volume   250.95560332
_cell_formula_units_Z   1
loop_
 _symmetry_equiv_pos_site_id
 _symmetry_equiv_pos_as_xyz
  1  'x, y, z'
loop_
 _atom_site_type_symbol
 _atom_site_label
 _atom_site_symmetry_multiplicity
 _atom_site_fract_x
 _atom_site_fract_y
 _atom_site_fract_z
 _atom_site_occupancy
  Dy  Dy0  1  0.250000  0.461243  0.179336  1
  Dy  Dy1  1  0.750000  0.544861  0.822654  1
  Dy  Dy2  1  0.750000  0.037497  0.673453  1
  Dy  Dy3  1  0.250000  0.961301  0.323508  1
  Mg  Mg4  1  0.250000  0.864499  0.940715  1
  Mg  Mg5  1  0.750000  0.134051  0.061677  1
  Mg  Mg6  1  0.750000  0.635039  0.440497  1
  Mg  Mg7  1  0.250000  0.365918  0.560030  1
  Pt  Pt8  1  0.250000  0.248556  0.873255  1
  Rh  Rh9  1  0.250000  0.752900  0.626903  1
  Rh  Rh10  1  0.750000  0.248878  0.373382  1
  Rh  Rh11  1  0.750000  0.745257  0.124593  1
