# generated using pymatgen
data_Sr12Ca4Nb3Ru5O36
_symmetry_space_group_name_H-M   'P 1'
_cell_length_a   5.84464142
_cell_length_b   10.01610764
_cell_length_c   14.23497117
_cell_angle_alpha   89.81491462
_cell_angle_beta   90.02311598
_cell_angle_gamma   90.07687456
_symmetry_Int_Tables_number   1
_chemical_formula_structural   Sr12Ca4Nb3Ru5O36
_chemical_formula_sum   'Sr12 Ca4 Nb3 Ru5 O36'
_cell_volume   833.31798522
_cell_formula_units_Z   1
loop_
 _symmetry_equiv_pos_site_id
 _symmetry_equiv_pos_as_xyz
  1  'x, y, z'
loop_
 _atom_site_type_symbol
 _atom_site_label
 _atom_site_symmetry_multiplicity
 _atom_site_fract_x
 _atom_site_fract_y
 _atom_site_fract_z
 _atom_site_occupancy
  Sr  Sr0  1  0.537744  0.831595  0.412942  1
  Sr  Sr1  1  0.538309  0.497297  0.753790  1
  Sr  Sr2  1  0.962420  0.332144  0.412993  1
  Sr  Sr3  1  0.463042  0.829993  0.913332  1
  Sr  Sr4  1  0.540585  0.167002  0.092069  1
  Sr  Sr5  1  0.044292  0.007942  0.247082  1
  Sr  Sr6  1  0.034383  0.338522  0.913883  1
  Sr  Sr7  1  0.963883  0.991108  0.754041  1
  Sr  Sr8  1  0.463696  0.167666  0.580199  1
  Sr  Sr9  1  0.036977  0.666127  0.581242  1
  Sr  Sr10  1  0.455875  0.508238  0.247059  1
  Sr  Sr11  1  0.960638  0.666874  0.089964  1
  Ca  Ca12  1  0.498639  0.502233  0.001150  1
  Ca  Ca13  1  0.000170  0.000642  0.498677  1
  Ca  Ca14  1  0.499983  0.500892  0.498621  1
  Ca  Ca15  1  0.001217  0.999658  0.000718  1
  Nb  Nb16  1  0.504114  0.830098  0.664001  1
  Nb  Nb17  1  0.997752  0.329887  0.664457  1
  Nb  Nb18  1  0.496748  0.163857  0.836517  1
  Ru  Ru19  1  0.002862  0.673251  0.331264  1
  Ru  Ru20  1  0.003231  0.663967  0.832415  1
  Ru  Ru21  1  0.497240  0.173112  0.331442  1
  Ru  Ru22  1  0.506336  0.839461  0.169263  1
  Ru  Ru23  1  0.993833  0.339507  0.168840  1
  O  O24  1  0.018897  0.793118  0.932655  1
  O  O25  1  0.806591  0.604663  0.429958  1
  O  O26  1  0.779033  0.866993  0.591999  1
  O  O27  1  0.782574  0.262225  0.775862  1
  O  O28  1  0.788042  0.212365  0.249726  1
  O  O29  1  0.194423  0.449952  0.095084  1
  O  O30  1  0.696857  0.045397  0.906851  1
  O  O31  1  0.516063  0.020355  0.724684  1
  O  O32  1  0.720167  0.760699  0.775578  1
  O  O33  1  0.231332  0.130813  0.405785  1
  O  O34  1  0.693880  0.104556  0.430111  1
  O  O35  1  0.023328  0.148350  0.619005  1
  O  O36  1  0.982310  0.206115  0.070539  1
  O  O37  1  0.729602  0.426559  0.119873  1
  O  O38  1  0.018610  0.476219  0.274915  1
  O  O39  1  0.481392  0.295578  0.936289  1
  O  O40  1  0.985213  0.522307  0.726846  1
  O  O41  1  0.711418  0.712543  0.250066  1
  O  O42  1  0.305753  0.949219  0.095109  1
  O  O43  1  0.268726  0.573800  0.882004  1
  O  O44  1  0.288437  0.237664  0.224474  1
  O  O45  1  0.519375  0.348159  0.381371  1
  O  O46  1  0.215274  0.784248  0.752340  1
  O  O47  1  0.210931  0.737718  0.224133  1
  O  O48  1  0.517693  0.705971  0.071305  1
  O  O49  1  0.771231  0.926151  0.120578  1
  O  O50  1  0.481183  0.976552  0.275150  1
  O  O51  1  0.190285  0.397141  0.563327  1
  O  O52  1  0.475614  0.647926  0.618137  1
  O  O53  1  0.721466  0.368852  0.592690  1
  O  O54  1  0.981224  0.848353  0.381265  1
  O  O55  1  0.269144  0.630872  0.405186  1
  O  O56  1  0.286878  0.287295  0.750860  1
  O  O57  1  0.223244  0.073024  0.880513  1
  O  O58  1  0.308340  0.895679  0.563822  1
  O  O59  1  0.801502  0.551500  0.905950  1
