# generated using pymatgen
data_Tb5GePtO12
_symmetry_space_group_name_H-M   'P 1'
_cell_length_a   6.87997930
_cell_length_b   6.87998024
_cell_length_c   7.29314000
_cell_angle_alpha   74.56405794
_cell_angle_beta   74.56405431
_cell_angle_gamma   50.83910200
_symmetry_Int_Tables_number   1
_chemical_formula_structural   Tb5GePtO12
_chemical_formula_sum   'Tb5 Ge1 Pt1 O12'
_cell_volume   255.78432182
_cell_formula_units_Z   1
loop_
 _symmetry_equiv_pos_site_id
 _symmetry_equiv_pos_as_xyz
  1  'x, y, z'
loop_
 _atom_site_type_symbol
 _atom_site_label
 _atom_site_symmetry_multiplicity
 _atom_site_fract_x
 _atom_site_fract_y
 _atom_site_fract_z
 _atom_site_occupancy
  Tb  Tb0  1  0.306945  0.296512  0.360190  1
  Tb  Tb1  1  0.703488  0.693055  0.639810  1
  Tb  Tb2  1  0.303857  0.307875  0.832643  1
  Tb  Tb3  1  0.692125  0.696143  0.167357  1
  Tb  Tb4  1  0.001205  0.998795  0.500000  1
  Ge  Ge5  1  0.753679  0.246321  0.000000  1
  Pt  Pt6  1  0.244438  0.755562  0.000000  1
  O  O7  1  0.897150  0.421757  0.919301  1
  O  O8  1  0.427411  0.905020  0.917076  1
  O  O9  1  0.094980  0.572589  0.082924  1
  O  O10  1  0.578243  0.102850  0.080699  1
  O  O11  1  0.099496  0.596172  0.574518  1
  O  O12  1  0.599480  0.094049  0.575112  1
  O  O13  1  0.905951  0.400520  0.424888  1
  O  O14  1  0.403828  0.900504  0.425482  1
  O  O15  1  0.988362  0.012235  0.820298  1
  O  O16  1  0.987765  0.011638  0.179702  1
  O  O17  1  0.505709  0.494115  0.818613  1
  O  O18  1  0.505885  0.494291  0.181387  1
