# generated using pymatgen
data_Pr3Cd5(IO6)4
_symmetry_space_group_name_H-M   'P 1'
_cell_length_a   5.47992100
_cell_length_b   7.79553521
_cell_length_c   11.56134100
_cell_angle_alpha   79.23064343
_cell_angle_beta   90.00000000
_cell_angle_gamma   90.00000000
_symmetry_Int_Tables_number   1
_chemical_formula_structural   Pr3Cd5(IO6)4
_chemical_formula_sum   'Pr3 Cd5 I4 O24'
_cell_volume   485.18928067
_cell_formula_units_Z   1
loop_
 _symmetry_equiv_pos_site_id
 _symmetry_equiv_pos_as_xyz
  1  'x, y, z'
loop_
 _atom_site_type_symbol
 _atom_site_label
 _atom_site_symmetry_multiplicity
 _atom_site_fract_x
 _atom_site_fract_y
 _atom_site_fract_z
 _atom_site_occupancy
  Pr  Pr0  1  0.241878  0.000000  0.250000  1
  Pr  Pr1  1  0.688141  0.500000  0.750000  1
  Pr  Pr2  1  0.312357  0.500000  0.250000  1
  Cd  Cd3  1  0.749048  0.000000  0.750000  1
  Cd  Cd4  1  0.202445  0.777323  0.586012  1
  Cd  Cd5  1  0.792716  0.774838  0.077699  1
  Cd  Cd6  1  0.202445  0.222677  0.913988  1
  Cd  Cd7  1  0.792716  0.225162  0.422301  1
  I  I8  1  0.262710  0.744358  0.887003  1
  I  I9  1  0.738867  0.738773  0.389049  1
  I  I10  1  0.262710  0.255642  0.612997  1
  I  I11  1  0.738867  0.261227  0.110951  1
  O  O12  1  0.079642  0.955188  0.880347  1
  O  O13  1  0.537344  0.858913  0.934118  1
  O  O14  1  0.900898  0.956228  0.385371  1
  O  O15  1  0.450237  0.789666  0.736733  1
  O  O16  1  0.448512  0.839258  0.434142  1
  O  O17  1  0.993093  0.690548  0.796353  1
  O  O18  1  0.559410  0.787374  0.236038  1
  O  O19  1  0.849871  0.666048  0.545413  1
  O  O20  1  0.379650  0.514782  0.894893  1
  O  O21  1  0.020443  0.699994  0.298038  1
  O  O22  1  0.379650  0.485218  0.605107  1
  O  O23  1  0.849871  0.333952  0.954587  1
  O  O24  1  0.157554  0.674927  0.046444  1
  O  O25  1  0.630896  0.509990  0.391084  1
  O  O26  1  0.993093  0.309452  0.703647  1
  O  O27  1  0.630896  0.490010  0.108916  1
  O  O28  1  0.157554  0.325073  0.453556  1
  O  O29  1  0.450237  0.210334  0.763267  1
  O  O30  1  0.020443  0.300006  0.201962  1
  O  O31  1  0.537344  0.141087  0.565882  1
  O  O32  1  0.559410  0.212626  0.263962  1
  O  O33  1  0.079642  0.044812  0.619653  1
  O  O34  1  0.448512  0.160742  0.065858  1
  O  O35  1  0.900898  0.043772  0.114629  1
