# generated using pymatgen
data_DyHo5MnFeB14
_symmetry_space_group_name_H-M   'P 1'
_cell_length_a   7.99547542
_cell_length_b   7.99547565
_cell_length_c   9.25781651
_cell_angle_alpha   89.96293988
_cell_angle_beta   90.03705995
_cell_angle_gamma   155.29315273
_symmetry_Int_Tables_number   1
_chemical_formula_structural   DyHo5MnFeB14
_chemical_formula_sum   'Dy1 Ho5 Mn1 Fe1 B14'
_cell_volume   247.37057965
_cell_formula_units_Z   1
loop_
 _symmetry_equiv_pos_site_id
 _symmetry_equiv_pos_as_xyz
  1  'x, y, z'
loop_
 _atom_site_type_symbol
 _atom_site_label
 _atom_site_symmetry_multiplicity
 _atom_site_fract_x
 _atom_site_fract_y
 _atom_site_fract_z
 _atom_site_occupancy
  Dy  Dy0  1  0.895212  0.104788  0.438275  1
  Ho  Ho1  1  0.104643  0.895357  0.559603  1
  Ho  Ho2  1  0.895380  0.104620  0.061258  1
  Ho  Ho3  1  0.104690  0.895310  0.940443  1
  Ho  Ho4  1  0.241533  0.758467  0.249954  1
  Ho  Ho5  1  0.757893  0.242107  0.750051  1
  Mn  Mn6  1  0.053271  0.946729  0.249840  1
  Fe  Fe7  1  0.945965  0.054035  0.750195  1
  B  B8  1  0.727528  0.272472  0.467518  1
  B  B9  1  0.272466  0.727534  0.533827  1
  B  B10  1  0.727821  0.272179  0.032613  1
  B  B11  1  0.272675  0.727325  0.966355  1
  B  B12  1  0.630330  0.369670  0.152968  1
  B  B13  1  0.370077  0.629923  0.846995  1
  B  B14  1  0.630339  0.369661  0.347033  1
  B  B15  1  0.370086  0.629914  0.653403  1
  B  B16  1  0.521448  0.478552  0.097902  1
  B  B17  1  0.478700  0.521300  0.902019  1
  B  B18  1  0.521541  0.478459  0.401659  1
  B  B19  1  0.478707  0.521293  0.598292  1
  B  B20  1  0.459039  0.540961  0.249663  1
  B  B21  1  0.540655  0.459345  0.750137  1
