# generated using pymatgen
data_CsTc3(O3F5)2
_symmetry_space_group_name_H-M   'P 1'
_cell_length_a   7.16290188
_cell_length_b   9.84815885
_cell_length_c   10.41106700
_cell_angle_alpha   113.56292836
_cell_angle_beta   91.01045725
_cell_angle_gamma   92.22425201
_symmetry_Int_Tables_number   1
_chemical_formula_structural   CsTc3(O3F5)2
_chemical_formula_sum   'Cs2 Tc6 O12 F20'
_cell_volume   672.22925210
_cell_formula_units_Z   2
loop_
 _symmetry_equiv_pos_site_id
 _symmetry_equiv_pos_as_xyz
  1  'x, y, z'
loop_
 _atom_site_type_symbol
 _atom_site_label
 _atom_site_symmetry_multiplicity
 _atom_site_fract_x
 _atom_site_fract_y
 _atom_site_fract_z
 _atom_site_occupancy
  Cs  Cs0  1  0.693461  0.704315  0.121091  1
  Cs  Cs1  1  0.306539  0.295685  0.878909  1
  Tc  Tc2  1  0.229469  0.622679  0.368905  1
  Tc  Tc3  1  0.770531  0.377321  0.631095  1
  Tc  Tc4  1  0.259798  0.018016  0.328681  1
  Tc  Tc5  1  0.740202  0.981984  0.671319  1
  Tc  Tc6  1  0.238662  0.776040  0.884594  1
  Tc  Tc7  1  0.761338  0.223960  0.115406  1
  O  O8  1  0.165241  0.475178  0.404623  1
  O  O9  1  0.834759  0.524822  0.595377  1
  O  O10  1  0.128179  0.766546  0.496156  1
  O  O11  1  0.871821  0.233454  0.503844  1
  O  O12  1  0.277981  0.080267  0.505645  1
  O  O13  1  0.722019  0.919733  0.494355  1
  O  O14  1  0.200105  0.170198  0.303397  1
  O  O15  1  0.799895  0.829802  0.696603  1
  O  O16  1  0.237663  0.663526  0.712415  1
  O  O17  1  0.762337  0.336474  0.287585  1
  O  O18  1  0.187398  0.943957  0.885719  1
  O  O19  1  0.812602  0.056043  0.114281  1
  F  F20  1  0.037827  0.600501  0.233072  1
  F  F21  1  0.962173  0.399499  0.766928  1
  F  F22  1  0.370700  0.522922  0.202107  1
  F  F23  1  0.629300  0.477078  0.797893  1
  F  F24  1  0.469316  0.663179  0.457236  1
  F  F25  1  0.530684  0.336821  0.542764  1
  F  F26  1  0.332490  0.806645  0.307309  1
  F  F27  1  0.667510  0.193355  0.692691  1
  F  F28  1  0.016965  0.929835  0.308522  1
  F  F29  1  0.983035  0.070165  0.691478  1
  F  F30  1  0.516857  0.030463  0.298052  1
  F  F31  1  0.483143  0.969537  0.701948  1
  F  F32  1  0.249996  0.900040  0.113903  1
  F  F33  1  0.750004  0.099960  0.886097  1
  F  F34  1  0.298975  0.627539  0.956588  1
  F  F35  1  0.701025  0.372461  0.043412  1
  F  F36  1  0.992119  0.730202  0.921510  1
  F  F37  1  0.007881  0.269798  0.078490  1
  F  F38  1  0.498824  0.821431  0.913237  1
  F  F39  1  0.501176  0.178569  0.086763  1
