# generated using pymatgen
data_DyEr5Ta2(Co4P3)4
_symmetry_space_group_name_H-M   'P 1'
_cell_length_a   3.69313800
_cell_length_b   10.60969500
_cell_length_c   12.29903600
_cell_angle_alpha   90.00000000
_cell_angle_beta   90.00000000
_cell_angle_gamma   90.00000000
_symmetry_Int_Tables_number   1
_chemical_formula_structural   DyEr5Ta2(Co4P3)4
_chemical_formula_sum   'Dy1 Er5 Ta2 Co16 P12'
_cell_volume   481.91396113
_cell_formula_units_Z   1
loop_
 _symmetry_equiv_pos_site_id
 _symmetry_equiv_pos_as_xyz
  1  'x, y, z'
loop_
 _atom_site_type_symbol
 _atom_site_label
 _atom_site_symmetry_multiplicity
 _atom_site_fract_x
 _atom_site_fract_y
 _atom_site_fract_z
 _atom_site_occupancy
  Dy  Dy0  1  0.500000  0.000000  0.473049  1
  Er  Er1  1  0.000000  0.500000  0.526906  1
  Er  Er2  1  0.500000  0.820764  0.205246  1
  Er  Er3  1  0.500000  0.179236  0.205246  1
  Er  Er4  1  0.000000  0.679117  0.794704  1
  Er  Er5  1  0.000000  0.320883  0.794704  1
  Ta  Ta6  1  0.500000  0.500000  0.157099  1
  Ta  Ta7  1  0.000000  0.000000  0.842990  1
  Co  Co8  1  0.500000  0.500000  0.702287  1
  Co  Co9  1  0.000000  0.000000  0.297303  1
  Co  Co10  1  0.000000  0.500000  0.986858  1
  Co  Co11  1  0.500000  0.000000  0.013132  1
  Co  Co12  1  0.500000  0.332527  0.992379  1
  Co  Co13  1  0.500000  0.667473  0.992379  1
  Co  Co14  1  0.000000  0.167487  0.007618  1
  Co  Co15  1  0.000000  0.832513  0.007618  1
  Co  Co16  1  0.500000  0.295766  0.432338  1
  Co  Co17  1  0.500000  0.704234  0.432338  1
  Co  Co18  1  0.000000  0.204589  0.567739  1
  Co  Co19  1  0.000000  0.795411  0.567739  1
  Co  Co20  1  0.500000  0.877525  0.705323  1
  Co  Co21  1  0.500000  0.122475  0.705323  1
  Co  Co22  1  0.000000  0.622422  0.294768  1
  Co  Co23  1  0.000000  0.377578  0.294768  1
  P  P24  1  0.500000  0.500000  0.881520  1
  P  P25  1  0.000000  0.000000  0.118471  1
  P  P26  1  0.500000  0.500000  0.357430  1
  P  P27  1  0.000000  0.000000  0.642982  1
  P  P28  1  0.500000  0.311544  0.615851  1
  P  P29  1  0.500000  0.688456  0.615851  1
  P  P30  1  0.000000  0.188794  0.384030  1
  P  P31  1  0.000000  0.811206  0.384030  1
  P  P32  1  0.500000  0.840467  0.892253  1
  P  P33  1  0.500000  0.159533  0.892253  1
  P  P34  1  0.000000  0.659509  0.107736  1
  P  P35  1  0.000000  0.340491  0.107736  1
