# generated using pymatgen
data_KPmTeS
_symmetry_space_group_name_H-M   'P 1'
_cell_length_a   8.77400548
_cell_length_b   8.61226200
_cell_length_c   7.65461100
_cell_angle_alpha   90.00000000
_cell_angle_beta   106.31653191
_cell_angle_gamma   90.00000000
_symmetry_Int_Tables_number   1
_chemical_formula_structural   KPmTeS
_chemical_formula_sum   'K4 Pm4 Te4 S4'
_cell_volume   555.11726813
_cell_formula_units_Z   4
loop_
 _symmetry_equiv_pos_site_id
 _symmetry_equiv_pos_as_xyz
  1  'x, y, z'
loop_
 _atom_site_type_symbol
 _atom_site_label
 _atom_site_symmetry_multiplicity
 _atom_site_fract_x
 _atom_site_fract_y
 _atom_site_fract_z
 _atom_site_occupancy
  K  K0  1  0.066976  0.758356  0.011595  1
  K  K1  1  0.933023  0.258357  0.488404  1
  K  K2  1  0.066977  0.741642  0.511594  1
  K  K3  1  0.933024  0.241643  0.988406  1
  Pm  Pm4  1  0.522125  0.627675  0.238066  1
  Pm  Pm5  1  0.477874  0.127676  0.261934  1
  Pm  Pm6  1  0.522126  0.872323  0.738066  1
  Pm  Pm7  1  0.477875  0.372324  0.761934  1
  Te  Te8  1  0.742409  0.901608  0.160506  1
  Te  Te9  1  0.257591  0.401609  0.339494  1
  Te  Te10  1  0.742409  0.598392  0.660506  1
  Te  Te11  1  0.257591  0.098392  0.839494  1
  S  S12  1  0.648156  0.357992  0.132600  1
  S  S13  1  0.351843  0.857993  0.367399  1
  S  S14  1  0.648157  0.142007  0.632600  1
  S  S15  1  0.351843  0.642007  0.867399  1
