# generated using pymatgen
data_Hf16FeMoPt6
_symmetry_space_group_name_H-M   'P 1'
_cell_length_a   8.83739732
_cell_length_b   8.83739868
_cell_length_c   8.83739761
_cell_angle_alpha   59.54539837
_cell_angle_beta   59.54540208
_cell_angle_gamma   59.54539927
_symmetry_Int_Tables_number   1
_chemical_formula_structural   Hf16FeMoPt6
_chemical_formula_sum   'Hf16 Fe1 Mo1 Pt6'
_cell_volume   482.99875341
_cell_formula_units_Z   1
loop_
 _symmetry_equiv_pos_site_id
 _symmetry_equiv_pos_as_xyz
  1  'x, y, z'
loop_
 _atom_site_type_symbol
 _atom_site_label
 _atom_site_symmetry_multiplicity
 _atom_site_fract_x
 _atom_site_fract_y
 _atom_site_fract_z
 _atom_site_occupancy
  Hf  Hf0  1  0.128277  0.128277  0.128277  1
  Hf  Hf1  1  0.672204  0.103026  0.103026  1
  Hf  Hf2  1  0.103026  0.672204  0.103026  1
  Hf  Hf3  1  0.103026  0.103026  0.672204  1
  Hf  Hf4  1  0.683105  0.310961  0.683105  1
  Hf  Hf5  1  0.952455  0.549793  0.549793  1
  Hf  Hf6  1  0.570643  0.938661  0.938661  1
  Hf  Hf7  1  0.938661  0.570643  0.938661  1
  Hf  Hf8  1  0.549793  0.549793  0.952455  1
  Hf  Hf9  1  0.938661  0.938661  0.570643  1
  Hf  Hf10  1  0.683105  0.683105  0.310961  1
  Hf  Hf11  1  0.310961  0.683105  0.683105  1
  Hf  Hf12  1  0.674495  0.312478  0.312478  1
  Hf  Hf13  1  0.312478  0.312478  0.674495  1
  Hf  Hf14  1  0.549793  0.952455  0.549793  1
  Hf  Hf15  1  0.312478  0.674495  0.312478  1
  Fe  Fe16  1  0.892369  0.892369  0.892369  1
  Mo  Mo17  1  0.331446  0.331446  0.331446  1
  Pt  Pt18  1  0.303511  0.907163  0.907163  1
  Pt  Pt19  1  0.907163  0.303511  0.907163  1
  Pt  Pt20  1  0.907163  0.907163  0.303511  1
  Pt  Pt21  1  0.350107  0.974976  0.350107  1
  Pt  Pt22  1  0.350107  0.350107  0.974976  1
  Pt  Pt23  1  0.974976  0.350107  0.350107  1
