# generated using pymatgen
data_YTh3(Si5Rh3)2
_symmetry_space_group_name_H-M   'P 1'
_cell_length_a   8.23663999
_cell_length_b   8.22083510
_cell_length_c   5.91537560
_cell_angle_alpha   68.91146128
_cell_angle_beta   68.95478876
_cell_angle_gamma   90.49105680
_symmetry_Int_Tables_number   1
_chemical_formula_structural   YTh3(Si5Rh3)2
_chemical_formula_sum   'Y1 Th3 Si10 Rh6'
_cell_volume   344.39469840
_cell_formula_units_Z   1
loop_
 _symmetry_equiv_pos_site_id
 _symmetry_equiv_pos_as_xyz
  1  'x, y, z'
loop_
 _atom_site_type_symbol
 _atom_site_label
 _atom_site_symmetry_multiplicity
 _atom_site_fract_x
 _atom_site_fract_y
 _atom_site_fract_z
 _atom_site_occupancy
  Y  Y0  1  0.601305  0.861818  0.269067  1
  Th  Th1  1  0.862844  0.601979  0.767272  1
  Th  Th2  1  0.136200  0.398041  0.233006  1
  Th  Th3  1  0.400482  0.136380  0.731429  1
  Si  Si4  1  0.774228  0.223103  0.753375  1
  Si  Si5  1  0.227129  0.774339  0.248056  1
  Si  Si6  1  0.499626  0.502950  0.746311  1
  Si  Si7  1  0.499640  0.503094  0.251110  1
  Si  Si8  1  0.226560  0.774314  0.751210  1
  Si  Si9  1  0.774457  0.222852  0.248816  1
  Si  Si10  1  0.261366  0.041853  0.347829  1
  Si  Si11  1  0.739401  0.955815  0.653115  1
  Si  Si12  1  0.952044  0.743017  0.153083  1
  Si  Si13  1  0.043714  0.258862  0.848055  1
  Rh  Rh14  1  0.528162  0.251243  0.109904  1
  Rh  Rh15  1  0.748527  0.472221  0.389515  1
  Rh  Rh16  1  0.472940  0.749422  0.889087  1
  Rh  Rh17  1  0.249683  0.528150  0.610984  1
  Rh  Rh18  1  0.000660  0.000526  0.250409  1
  Rh  Rh19  1  0.001031  0.000022  0.748366  1
