# generated using pymatgen
data_Ce12Mn5Al6Ir
_symmetry_space_group_name_H-M   'P 1'
_cell_length_a   7.77616266
_cell_length_b   7.77616181
_cell_length_c   9.56735586
_cell_angle_alpha   89.58613394
_cell_angle_beta   89.58614181
_cell_angle_gamma   119.64753246
_symmetry_Int_Tables_number   1
_chemical_formula_structural   Ce12Mn5Al6Ir
_chemical_formula_sum   'Ce12 Mn5 Al6 Ir1'
_cell_volume   502.73589237
_cell_formula_units_Z   1
loop_
 _symmetry_equiv_pos_site_id
 _symmetry_equiv_pos_as_xyz
  1  'x, y, z'
loop_
 _atom_site_type_symbol
 _atom_site_label
 _atom_site_symmetry_multiplicity
 _atom_site_fract_x
 _atom_site_fract_y
 _atom_site_fract_z
 _atom_site_occupancy
  Ce  Ce0  1  0.997380  0.556235  0.492280  1
  Ce  Ce1  1  0.556235  0.997380  0.492280  1
  Ce  Ce2  1  0.441756  0.441756  0.495065  1
  Ce  Ce3  1  0.996357  0.439581  0.997207  1
  Ce  Ce4  1  0.439581  0.996357  0.997207  1
  Ce  Ce5  1  0.600408  0.600408  0.010312  1
  Ce  Ce6  1  0.001865  0.745626  0.181122  1
  Ce  Ce7  1  0.745626  0.001865  0.181122  1
  Ce  Ce8  1  0.263143  0.263143  0.176769  1
  Ce  Ce9  1  0.984136  0.256078  0.676307  1
  Ce  Ce10  1  0.256078  0.984136  0.676307  1
  Ce  Ce11  1  0.744451  0.744451  0.680235  1
  Mn  Mn12  1  0.001238  0.352009  0.341159  1
  Mn  Mn13  1  0.352009  0.001238  0.341159  1
  Mn  Mn14  1  0.648289  0.648289  0.345609  1
  Mn  Mn15  1  0.997649  0.645516  0.843902  1
  Mn  Mn16  1  0.645516  0.997649  0.843902  1
  Al  Al17  1  0.668362  0.335091  0.265238  1
  Al  Al18  1  0.335091  0.668362  0.265238  1
  Al  Al19  1  0.332599  0.658555  0.770247  1
  Al  Al20  1  0.658555  0.332599  0.770247  1
  Al  Al21  1  0.003354  0.003354  0.425561  1
  Al  Al22  1  0.999992  0.999992  0.923578  1
  Ir  Ir23  1  0.330329  0.330329  0.837195  1
