# generated using pymatgen
data_DyEr(Si2Ni9)2
_symmetry_space_group_name_H-M   'P 1'
_cell_length_a   7.55093427
_cell_length_b   7.55115782
_cell_length_c   7.55059529
_cell_angle_alpha   99.57019287
_cell_angle_beta   99.57129201
_cell_angle_gamma   131.86403476
_symmetry_Int_Tables_number   1
_chemical_formula_structural   DyEr(Si2Ni9)2
_chemical_formula_sum   'Dy1 Er1 Si4 Ni18'
_cell_volume   292.76703038
_cell_formula_units_Z   1
loop_
 _symmetry_equiv_pos_site_id
 _symmetry_equiv_pos_as_xyz
  1  'x, y, z'
loop_
 _atom_site_type_symbol
 _atom_site_label
 _atom_site_symmetry_multiplicity
 _atom_site_fract_x
 _atom_site_fract_y
 _atom_site_fract_z
 _atom_site_occupancy
  Dy  Dy0  1  0.749948  0.249932  0.499991  1
  Er  Er1  1  0.499936  0.499930  0.999982  1
  Si  Si2  1  0.625146  0.874806  0.750294  1
  Si  Si3  1  0.125233  0.374922  0.249691  1
  Si  Si4  1  0.125209  0.875543  0.750336  1
  Si  Si5  1  0.124518  0.874813  0.249659  1
  Ni  Ni6  1  0.250002  0.749986  0.499980  1
  Ni  Ni7  1  0.000007  0.000004  0.000000  1
  Ni  Ni8  1  0.686533  0.012718  0.078905  1
  Ni  Ni9  1  0.686546  0.607655  0.673815  1
  Ni  Ni10  1  0.262856  0.436409  0.579147  1
  Ni  Ni11  1  0.262869  0.683718  0.826466  1
  Ni  Ni12  1  0.933813  0.012717  0.326184  1
  Ni  Ni13  1  0.933836  0.607656  0.921110  1
  Ni  Ni14  1  0.857266  0.436413  0.173547  1
  Ni  Ni15  1  0.857251  0.683716  0.420848  1
  Ni  Ni16  1  0.563588  0.737147  0.420835  1
  Ni  Ni17  1  0.563567  0.142724  0.826457  1
  Ni  Ni18  1  0.987287  0.313460  0.921102  1
  Ni  Ni19  1  0.987276  0.066194  0.673832  1
  Ni  Ni20  1  0.316322  0.737159  0.173565  1
  Ni  Ni21  1  0.316273  0.142725  0.579156  1
  Ni  Ni22  1  0.392359  0.313455  0.326175  1
  Ni  Ni23  1  0.392361  0.066193  0.078922  1
