# generated using pymatgen
data_CaYEr2(B6Ru)2
_symmetry_space_group_name_H-M   'P 1'
_cell_length_a   3.64433800
_cell_length_b   9.13341807
_cell_length_c   11.53853603
_cell_angle_alpha   89.81631398
_cell_angle_beta   90.00000000
_cell_angle_gamma   90.00000000
_symmetry_Int_Tables_number   1
_chemical_formula_structural   CaYEr2(B6Ru)2
_chemical_formula_sum   'Ca2 Y2 Er4 B24 Ru4'
_cell_volume   384.06122726
_cell_formula_units_Z   2
loop_
 _symmetry_equiv_pos_site_id
 _symmetry_equiv_pos_as_xyz
  1  'x, y, z'
loop_
 _atom_site_type_symbol
 _atom_site_label
 _atom_site_symmetry_multiplicity
 _atom_site_fract_x
 _atom_site_fract_y
 _atom_site_fract_z
 _atom_site_occupancy
  Ca  Ca0  1  0.000000  0.323994  0.415085  1
  Ca  Ca1  1  0.000000  0.676006  0.584915  1
  Y  Y2  1  0.000000  0.822130  0.085970  1
  Y  Y3  1  0.000000  0.177870  0.914030  1
  Er  Er4  1  0.000000  0.941926  0.369518  1
  Er  Er5  1  0.000000  0.058074  0.630482  1
  Er  Er6  1  0.000000  0.442635  0.130859  1
  Er  Er7  1  0.000000  0.557365  0.869141  1
  B  B8  1  0.500000  0.554495  0.431877  1
  B  B9  1  0.500000  0.445505  0.568123  1
  B  B10  1  0.500000  0.054034  0.066965  1
  B  B11  1  0.500000  0.945966  0.933035  1
  B  B12  1  0.500000  0.748491  0.417043  1
  B  B13  1  0.500000  0.251509  0.582957  1
  B  B14  1  0.500000  0.248703  0.081472  1
  B  B15  1  0.500000  0.751297  0.918528  1
  B  B16  1  0.500000  0.791297  0.264377  1
  B  B17  1  0.500000  0.208703  0.735623  1
  B  B18  1  0.500000  0.290044  0.233920  1
  B  B19  1  0.500000  0.709956  0.766080  1
  B  B20  1  0.500000  0.631065  0.184891  1
  B  B21  1  0.500000  0.368935  0.815109  1
  B  B22  1  0.500000  0.130177  0.313636  1
  B  B23  1  0.500000  0.869823  0.686364  1
  B  B24  1  0.500000  0.983280  0.211571  1
  B  B25  1  0.500000  0.016720  0.788429  1
  B  B26  1  0.500000  0.484162  0.287624  1
  B  B27  1  0.500000  0.515838  0.712376  1
  B  B28  1  0.500000  0.602548  0.028105  1
  B  B29  1  0.500000  0.397452  0.971895  1
  B  B30  1  0.500000  0.098363  0.472873  1
  B  B31  1  0.500000  0.901637  0.527127  1
  Ru  Ru32  1  0.000000  0.640560  0.317750  1
  Ru  Ru33  1  0.000000  0.359440  0.682250  1
  Ru  Ru34  1  0.000000  0.137114  0.178093  1
  Ru  Ru35  1  0.000000  0.862886  0.821907  1
