# generated using pymatgen
data_Y3Zn2In3Pt
_symmetry_space_group_name_H-M   'P 1'
_cell_length_a   7.72965100
_cell_length_b   7.72965064
_cell_length_c   3.91446300
_cell_angle_alpha   90.00000000
_cell_angle_beta   90.00000000
_cell_angle_gamma   119.99999727
_symmetry_Int_Tables_number   1
_chemical_formula_structural   Y3Zn2In3Pt
_chemical_formula_sum   'Y3 Zn2 In3 Pt1'
_cell_volume   202.54549450
_cell_formula_units_Z   1
loop_
 _symmetry_equiv_pos_site_id
 _symmetry_equiv_pos_as_xyz
  1  'x, y, z'
loop_
 _atom_site_type_symbol
 _atom_site_label
 _atom_site_symmetry_multiplicity
 _atom_site_fract_x
 _atom_site_fract_y
 _atom_site_fract_z
 _atom_site_occupancy
  Y  Y0  1  0.392541  0.983159  0.500000  1
  Y  Y1  1  0.016841  0.409381  0.500000  1
  Y  Y2  1  0.590619  0.607459  0.500000  1
  Zn  Zn3  1  0.000000  0.000000  0.500000  1
  Zn  Zn4  1  0.666667  0.333333  0.000000  1
  In  In5  1  0.741749  0.007814  0.000000  1
  In  In6  1  0.266065  0.258251  0.000000  1
  In  In7  1  0.992186  0.733935  0.000000  1
  Pt  Pt8  1  0.333333  0.666667  0.000000  1
