# generated using pymatgen
data_Ni3Sn8Rh9
_symmetry_space_group_name_H-M   'P 1'
_cell_length_a   5.64698200
_cell_length_b   7.23773508
_cell_length_c   8.40477273
_cell_angle_alpha   89.78804324
_cell_angle_beta   90.00000000
_cell_angle_gamma   90.00000000
_symmetry_Int_Tables_number   1
_chemical_formula_structural   Ni3Sn8Rh9
_chemical_formula_sum   'Ni3 Sn8 Rh9'
_cell_volume   343.51213914
_cell_formula_units_Z   1
loop_
 _symmetry_equiv_pos_site_id
 _symmetry_equiv_pos_as_xyz
  1  'x, y, z'
loop_
 _atom_site_type_symbol
 _atom_site_label
 _atom_site_symmetry_multiplicity
 _atom_site_fract_x
 _atom_site_fract_y
 _atom_site_fract_z
 _atom_site_occupancy
  Ni  Ni0  1  0.750000  0.087601  0.625877  1
  Ni  Ni1  1  0.250000  0.409776  0.128490  1
  Ni  Ni2  1  0.750000  0.586550  0.872523  1
  Sn  Sn3  1  0.250000  0.560030  0.405707  1
  Sn  Sn4  1  0.250000  0.099685  0.644240  1
  Sn  Sn5  1  0.750000  0.900868  0.358376  1
  Sn  Sn6  1  0.750000  0.403634  0.141120  1
  Sn  Sn7  1  0.250000  0.595083  0.859912  1
  Sn  Sn8  1  0.250000  0.062623  0.089232  1
  Sn  Sn9  1  0.750000  0.436761  0.600066  1
  Sn  Sn10  1  0.750000  0.935358  0.899206  1
  Rh  Rh11  1  0.250000  0.913833  0.370633  1
  Rh  Rh12  1  0.500259  0.247364  0.379389  1
  Rh  Rh13  1  0.996092  0.759241  0.629130  1
  Rh  Rh14  1  0.503971  0.260467  0.876731  1
  Rh  Rh15  1  0.996029  0.260467  0.876731  1
  Rh  Rh16  1  0.503908  0.759241  0.629130  1
  Rh  Rh17  1  0.999741  0.247364  0.379389  1
  Rh  Rh18  1  0.498807  0.737028  0.117060  1
  Rh  Rh19  1  0.001193  0.737028  0.117060  1
