# generated using pymatgen
data_Pr8Er11ScSi15Br
_symmetry_space_group_name_H-M   'P 1'
_cell_length_a   7.56294954
_cell_length_b   7.73287263
_cell_length_c   14.75004634
_cell_angle_alpha   89.69691749
_cell_angle_beta   87.11636901
_cell_angle_gamma   89.92046962
_symmetry_Int_Tables_number   1
_chemical_formula_structural   Pr8Er11ScSi15Br
_chemical_formula_sum   'Pr8 Er11 Sc1 Si15 Br1'
_cell_volume   861.52687411
_cell_formula_units_Z   1
loop_
 _symmetry_equiv_pos_site_id
 _symmetry_equiv_pos_as_xyz
  1  'x, y, z'
loop_
 _atom_site_type_symbol
 _atom_site_label
 _atom_site_symmetry_multiplicity
 _atom_site_fract_x
 _atom_site_fract_y
 _atom_site_fract_z
 _atom_site_occupancy
  Pr  Pr0  1  0.989629  0.169830  0.397034  1
  Pr  Pr1  1  0.502274  0.310596  0.397776  1
  Pr  Pr2  1  0.484714  0.678350  0.900511  1
  Pr  Pr3  1  0.514069  0.687126  0.602824  1
  Pr  Pr4  1  0.004586  0.828324  0.600774  1
  Pr  Pr5  1  0.985760  0.825094  0.900014  1
  Pr  Pr6  1  0.516281  0.321919  0.099235  1
  Pr  Pr7  1  0.015565  0.178962  0.098258  1
  Er  Er8  1  0.361410  0.156138  0.624461  1
  Er  Er9  1  0.642869  0.830475  0.379389  1
  Er  Er10  1  0.674382  0.995740  0.749163  1
  Er  Er11  1  0.141033  0.670801  0.375613  1
  Er  Er12  1  0.831063  0.326133  0.874389  1
  Er  Er13  1  0.843801  0.334408  0.621279  1
  Er  Er14  1  0.827274  0.493995  0.253663  1
  Er  Er15  1  0.325982  0.003537  0.251735  1
  Er  Er16  1  0.328302  0.179492  0.874979  1
  Er  Er17  1  0.169448  0.676551  0.122634  1
  Er  Er18  1  0.668818  0.822016  0.122463  1
  Sc  Sc19  1  0.170490  0.507978  0.759677  1
  Si  Si20  1  0.293404  0.871424  0.751377  1
  Si  Si21  1  0.450695  0.616071  0.249528  1
  Si  Si22  1  0.047649  0.124546  0.747863  1
  Si  Si23  1  0.540250  0.386881  0.748476  1
  Si  Si24  1  0.950379  0.880908  0.247766  1
  Si  Si25  1  0.708190  0.119440  0.247297  1
  Si  Si26  1  0.851759  0.532727  0.038544  1
  Si  Si27  1  0.351816  0.968736  0.038924  1
  Si  Si28  1  0.146091  0.470957  0.957309  1
  Si  Si29  1  0.696508  0.037671  0.544690  1
  Si  Si30  1  0.300286  0.959676  0.458377  1
  Si  Si31  1  0.801478  0.534455  0.455399  1
  Si  Si32  1  0.800238  0.625693  0.750728  1
  Si  Si33  1  0.209180  0.377815  0.248543  1
  Si  Si34  1  0.646433  0.034182  0.958980  1
  Br  Br35  1  0.207895  0.461350  0.550328  1
